MODEL 1
REMARK VINA RESULT:     -10.2      0.000      0.000
REMARK SMILES C[C@H]([C@H](C)C(=O)OCCOCCOC(=O)c1ccc(-c2c3nc(c(-c4cc(S(=O)(=O)[O-])ccc4F)c4ccc([nH]4)c(-c4cc(S(=O)(=O)[O-])ccc4F)c4nc(c(-c5cc(S(=O)(=O)[O-])ccc5F)c5ccc2[nH]5)C=C4)C=C3)cc1)[C@H](O)c1cncn1C1CC1
REMARK SMILES IDX 9 1 8 2 7 3 5 4 6 5 3 6 4 7 2 8 1 9 79 10 81 11 82 12 85 13
REMARK SMILES IDX 83 14 84 15 86 16 87 17 88 18 80 19 10 21 11 22 12 23 13 24
REMARK SMILES IDX 14 25 15 26 16 27 17 28 78 29 18 30 77 31 19 32 20 33 21 34
REMARK SMILES IDX 71 35 22 36 76 37 70 38 72 39 23 40 75 41 69 42 68 43 24 45
REMARK SMILES IDX 56 46 36 47 55 48 37 49 40 50 54 51 73 52 38 53 39 54 53 56
REMARK SMILES IDX 74 57 41 58 25 59 26 60 34 61 27 62 33 63 35 64 32 65 28 66
REMARK SMILES IDX 29 67 30 68 31 69 57 70 58 71 66 72 59 73 65 74 67 75 64 76
REMARK SMILES IDX 60 77 61 78 62 79 63 80 42 81 43 82 51 83 44 84 50 85 52 86
REMARK SMILES IDX 49 87 45 88 46 89 47 90 48 91
REMARK H PARENT 80 20 72 44 40 55
REMARK Flexibility Score: inf
ROOT
ATOM      1  C   UNL A   1      34.911  21.044  25.707  1.00  0.00     0.202 C 
ENDROOT
BRANCH   1   2
ATOM      2  C   UNL A   1      33.444  21.151  25.267  1.00  0.00     0.261 C 
BRANCH   2   3
ATOM      3  O   UNL A   1      33.014  22.531  25.257  1.00  0.00    -0.463 OA
BRANCH   3   4
ATOM      4  C   UNL A   1      32.227  22.939  26.284  1.00  0.00     0.309 C 
ATOM      5  O   UNL A   1      32.603  23.091  27.440  1.00  0.00    -0.252 OA
BRANCH   4   6
ATOM      6  C   UNL A   1      30.794  23.229  25.851  1.00  0.00     0.102 C 
ATOM      7  C   UNL A   1      29.748  22.949  26.933  1.00  0.00     0.020 C 
BRANCH   6   8
ATOM      8  C   UNL A   1      30.630  24.579  25.099  1.00  0.00     0.035 C 
ATOM      9  C   UNL A   1      31.684  25.573  25.633  1.00  0.00     0.012 C 
BRANCH   8  10
ATOM     10  C   UNL A   1      30.663  24.496  23.541  1.00  0.00     0.166 C 
BRANCH  10  11
ATOM     11  C   UNL A   1      31.779  25.266  22.923  1.00  0.00     0.067 A 
ATOM     12  C   UNL A   1      33.066  24.831  22.634  1.00  0.00     0.137 A 
ATOM     13  N   UNL A   1      31.765  26.552  22.422  1.00  0.00    -0.329 N 
ATOM     14  N   UNL A   1      33.824  25.806  22.052  1.00  0.00    -0.245 NA
ATOM     15  C   UNL A   1      33.013  26.827  21.928  1.00  0.00     0.199 A 
BRANCH  13  16
ATOM     16  C   UNL A   1      30.727  27.555  22.376  1.00  0.00     0.088 C 
ATOM     17  C   UNL A   1      29.777  27.906  23.504  1.00  0.00     0.027 C 
ATOM     18  C   UNL A   1      30.849  28.859  23.118  1.00  0.00     0.027 C 
ENDBRANCH  13  16
ENDBRANCH  10  11
BRANCH  10  19
ATOM     19  O   UNL A   1      30.913  23.144  23.148  1.00  0.00    -0.387 OA
ATOM     20  H   UNL A   1      30.466  22.965  22.306  1.00  0.00     0.211 HD
ENDBRANCH  10  19
ENDBRANCH   8  10
ENDBRANCH   6   8
ENDBRANCH   4   6
ENDBRANCH   3   4
ENDBRANCH   2   3
ENDBRANCH   1   2
BRANCH   1  21
ATOM     21  O   UNL A   1      35.790  20.582  24.677  1.00  0.00    -0.374 OA
BRANCH  21  22
ATOM     22  C   UNL A   1      36.567  19.432  25.001  1.00  0.00     0.202 C 
BRANCH  22  23
ATOM     23  C   UNL A   1      38.080  19.610  24.846  1.00  0.00     0.261 C 
BRANCH  23  24
ATOM     24  O   UNL A   1      38.563  20.819  25.465  1.00  0.00    -0.460 OA
BRANCH  24  25
ATOM     25  C   UNL A   1      39.695  20.676  26.206  1.00  0.00     0.338 C 
ATOM     26  O   UNL A   1      40.364  19.669  26.321  1.00  0.00    -0.246 OA
BRANCH  25  27
ATOM     27  C   UNL A   1      40.108  21.987  26.766  1.00  0.00     0.060 A 
ATOM     28  C   UNL A   1      39.428  23.126  26.319  1.00  0.00     0.016 A 
ATOM     29  C   UNL A   1      41.130  22.111  27.714  1.00  0.00     0.016 A 
ATOM     30  C   UNL A   1      39.796  24.393  26.784  1.00  0.00     0.010 A 
ATOM     31  C   UNL A   1      41.487  23.382  28.189  1.00  0.00     0.010 A 
ATOM     32  C   UNL A   1      40.848  24.537  27.699  1.00  0.00    -0.014 A 
BRANCH  32  33
ATOM     33  C   UNL A   1      41.391  25.895  27.992  1.00  0.00     0.031 A 
ATOM     34  C   UNL A   1      42.775  26.241  27.500  1.00  0.00     0.074 A 
ATOM     35  C   UNL A   1      40.666  26.829  28.637  1.00  0.00     0.049 A 
ATOM     36  N   UNL A   1      43.451  27.353  27.631  1.00  0.00    -0.248 NA
ATOM     37  C   UNL A   1      43.489  25.186  26.766  1.00  0.00     0.031 C 
ATOM     38  C   UNL A   1      39.304  26.648  29.135  1.00  0.00     0.029 A 
ATOM     39  N   UNL A   1      40.975  28.124  28.980  1.00  0.00    -0.354 N 
ATOM     40  C   UNL A   1      44.672  27.131  27.001  1.00  0.00     0.074 A 
ATOM     41  C   UNL A   1      44.658  25.759  26.535  1.00  0.00     0.031 C 
ATOM     42  C   UNL A   1      38.892  27.790  29.714  1.00  0.00     0.029 A 
ATOM     43  C   UNL A   1      39.971  28.778  29.660  1.00  0.00     0.049 A 
ATOM     44  H   UNL A   1      41.835  28.547  28.760  1.00  0.00     0.167 HD
ATOM     45  C   UNL A   1      45.704  27.989  26.810  1.00  0.00     0.034 A 
ATOM     46  C   UNL A   1      39.929  30.019  30.189  1.00  0.00     0.034 A 
ATOM     47  C   UNL A   1      45.716  29.356  27.269  1.00  0.00     0.049 A 
ATOM     48  C   UNL A   1      41.127  30.931  30.039  1.00  0.00     0.074 A 
ATOM     49  C   UNL A   1      46.701  30.312  27.096  1.00  0.00     0.029 A 
ATOM     50  N   UNL A   1      44.704  29.959  28.004  1.00  0.00    -0.354 N 
ATOM     51  N   UNL A   1      42.264  30.712  29.419  1.00  0.00    -0.248 NA
ATOM     52  C   UNL A   1      41.031  32.264  30.655  1.00  0.00     0.031 C 
ATOM     53  C   UNL A   1      46.322  31.466  27.790  1.00  0.00     0.029 A 
ATOM     54  C   UNL A   1      45.061  31.261  28.325  1.00  0.00     0.049 A 
ATOM     55  H   UNL A   1      43.858  29.527  28.259  1.00  0.00     0.167 HD
ATOM     56  C   UNL A   1      42.997  31.893  29.538  1.00  0.00     0.074 A 
ATOM     57  C   UNL A   1      42.172  32.821  30.280  1.00  0.00     0.031 C 
ATOM     58  C   UNL A   1      44.237  32.183  29.069  1.00  0.00     0.034 A 
BRANCH  45  59
ATOM     59  C   UNL A   1      46.929  27.452  26.107  1.00  0.00     0.023 A 
ATOM     60  C   UNL A   1      48.007  26.896  26.817  1.00  0.00     0.031 A 
ATOM     61  C   UNL A   1      47.027  27.525  24.706  1.00  0.00     0.131 A 
ATOM     62  C   UNL A   1      49.167  26.504  26.131  1.00  0.00     0.055 A 
ATOM     63  C   UNL A   1      48.150  27.056  24.023  1.00  0.00     0.041 A 
ATOM     64  F   UNL A   1      46.039  28.067  23.979  1.00  0.00    -0.206 F 
ATOM     65  C   UNL A   1      49.235  26.555  24.737  1.00  0.00     0.022 A 
BRANCH  62  66
ATOM     66  S   UNL A   1      50.637  26.068  27.097  1.00  0.00     0.124 S 
ATOM     67  O   UNL A   1      50.517  24.614  27.176  1.00  0.00    -0.237 OA
ATOM     68  O   UNL A   1      51.723  26.576  26.267  1.00  0.00    -0.237 OA
ATOM     69  O   UNL A   1      50.436  26.771  28.363  1.00  0.00    -0.744 OA
ENDBRANCH  62  66
ENDBRANCH  45  59
BRANCH  46  70
ATOM     70  C   UNL A   1      38.730  30.487  30.948  1.00  0.00     0.023 A 
ATOM     71  C   UNL A   1      37.650  31.104  30.296  1.00  0.00     0.031 A 
ATOM     72  C   UNL A   1      38.687  30.400  32.351  1.00  0.00     0.131 A 
ATOM     73  C   UNL A   1      36.603  31.660  31.047  1.00  0.00     0.055 A 
ATOM     74  C   UNL A   1      37.616  30.904  33.090  1.00  0.00     0.041 A 
ATOM     75  F   UNL A   1      39.694  29.824  33.027  1.00  0.00    -0.206 F 
ATOM     76  C   UNL A   1      36.571  31.552  32.439  1.00  0.00     0.022 A 
BRANCH  73  77
ATOM     77  S   UNL A   1      35.327  32.620  30.183  1.00  0.00     0.124 S 
ATOM     78  O   UNL A   1      34.271  32.677  31.187  1.00  0.00    -0.237 OA
ATOM     79  O   UNL A   1      36.024  33.874  29.913  1.00  0.00    -0.237 OA
ATOM     80  O   UNL A   1      35.028  31.808  29.007  1.00  0.00    -0.744 OA
ENDBRANCH  73  77
ENDBRANCH  46  70
BRANCH  58  81
ATOM     81  C   UNL A   1      44.759  33.584  29.296  1.00  0.00     0.023 A 
ATOM     82  C   UNL A   1      44.699  34.574  28.299  1.00  0.00     0.031 A 
ATOM     83  C   UNL A   1      45.326  33.932  30.536  1.00  0.00     0.131 A 
ATOM     84  C   UNL A   1      45.242  35.846  28.541  1.00  0.00     0.055 A 
ATOM     85  C   UNL A   1      45.810  35.217  30.791  1.00  0.00     0.041 A 
ATOM     86  F   UNL A   1      45.413  33.029  31.526  1.00  0.00    -0.206 F 
ATOM     87  C   UNL A   1      45.782  36.179  29.787  1.00  0.00     0.022 A 
BRANCH  84  88
ATOM     88  S   UNL A   1      45.314  37.039  27.176  1.00  0.00     0.124 S 
ATOM     89  O   UNL A   1      43.901  37.319  26.943  1.00  0.00    -0.237 OA
ATOM     90  O   UNL A   1      46.094  38.129  27.754  1.00  0.00    -0.237 OA
ATOM     91  O   UNL A   1      45.984  36.298  26.108  1.00  0.00    -0.744 OA
ENDBRANCH  84  88
ENDBRANCH  58  81
ENDBRANCH  32  33
ENDBRANCH  25  27
ENDBRANCH  24  25
ENDBRANCH  23  24
ENDBRANCH  22  23
ENDBRANCH  21  22
ENDBRANCH   1  21
TORSDOF 22
ENDMDL
MODEL 2
REMARK VINA RESULT:     -10.1      2.575      3.743
REMARK SMILES C[C@H]([C@H](C)C(=O)OCCOCCOC(=O)c1ccc(-c2c3nc(c(-c4cc(S(=O)(=O)[O-])ccc4F)c4ccc([nH]4)c(-c4cc(S(=O)(=O)[O-])ccc4F)c4nc(c(-c5cc(S(=O)(=O)[O-])ccc5F)c5ccc2[nH]5)C=C4)C=C3)cc1)[C@H](O)c1cncn1C1CC1
REMARK SMILES IDX 9 1 8 2 7 3 5 4 6 5 3 6 4 7 2 8 1 9 79 10 81 11 82 12 85 13
REMARK SMILES IDX 83 14 84 15 86 16 87 17 88 18 80 19 10 21 11 22 12 23 13 24
REMARK SMILES IDX 14 25 15 26 16 27 17 28 78 29 18 30 77 31 19 32 20 33 21 34
REMARK SMILES IDX 71 35 22 36 76 37 70 38 72 39 23 40 75 41 69 42 68 43 24 45
REMARK SMILES IDX 56 46 36 47 55 48 37 49 40 50 54 51 73 52 38 53 39 54 53 56
REMARK SMILES IDX 74 57 41 58 25 59 26 60 34 61 27 62 33 63 35 64 32 65 28 66
REMARK SMILES IDX 29 67 30 68 31 69 57 70 58 71 66 72 59 73 65 74 67 75 64 76
REMARK SMILES IDX 60 77 61 78 62 79 63 80 42 81 43 82 51 83 44 84 50 85 52 86
REMARK SMILES IDX 49 87 45 88 46 89 47 90 48 91
REMARK H PARENT 80 20 72 44 40 55
REMARK Flexibility Score: inf
ROOT
ATOM      1  C   UNL A   1      37.371  21.891  24.265  1.00  0.00     0.202 C 
ENDROOT
BRANCH   1   2
ATOM      2  C   UNL A   1      36.824  23.256  24.706  1.00  0.00     0.261 C 
BRANCH   2   3
ATOM      3  O   UNL A   1      35.668  23.620  23.917  1.00  0.00    -0.463 OA
BRANCH   3   4
ATOM      4  C   UNL A   1      34.496  23.783  24.580  1.00  0.00     0.309 C 
ATOM      5  O   UNL A   1      34.288  24.627  25.443  1.00  0.00    -0.252 OA
BRANCH   4   6
ATOM      6  C   UNL A   1      33.417  22.808  24.121  1.00  0.00     0.102 C 
ATOM      7  C   UNL A   1      33.098  22.892  22.625  1.00  0.00     0.020 C 
BRANCH   6   8
ATOM      8  C   UNL A   1      33.592  21.371  24.685  1.00  0.00     0.035 C 
ATOM      9  C   UNL A   1      34.109  21.469  26.136  1.00  0.00     0.012 C 
BRANCH   8  10
ATOM     10  C   UNL A   1      32.338  20.448  24.588  1.00  0.00     0.166 C 
BRANCH  10  11
ATOM     11  C   UNL A   1      32.499  19.317  23.631  1.00  0.00     0.067 A 
ATOM     12  C   UNL A   1      32.127  19.264  22.293  1.00  0.00     0.137 A 
ATOM     13  N   UNL A   1      33.125  18.103  23.827  1.00  0.00    -0.329 N 
ATOM     14  N   UNL A   1      32.441  18.068  21.715  1.00  0.00    -0.245 NA
ATOM     15  C   UNL A   1      33.050  17.393  22.658  1.00  0.00     0.199 A 
BRANCH  13  16
ATOM     16  C   UNL A   1      33.762  17.526  24.989  1.00  0.00     0.088 C 
ATOM     17  C   UNL A   1      33.374  16.225  25.663  1.00  0.00     0.027 C 
ATOM     18  C   UNL A   1      34.641  16.310  24.892  1.00  0.00     0.027 C 
ENDBRANCH  13  16
ENDBRANCH  10  11
BRANCH  10  19
ATOM     19  O   UNL A   1      32.125  19.810  25.849  1.00  0.00    -0.387 OA
ATOM     20  H   UNL A   1      32.177  18.848  25.738  1.00  0.00     0.211 HD
ENDBRANCH  10  19
ENDBRANCH   8  10
ENDBRANCH   6   8
ENDBRANCH   4   6
ENDBRANCH   3   4
ENDBRANCH   2   3
ENDBRANCH   1   2
BRANCH   1  21
ATOM     21  O   UNL A   1      37.511  20.953  25.337  1.00  0.00    -0.374 OA
BRANCH  21  22
ATOM     22  C   UNL A   1      38.032  19.677  24.974  1.00  0.00     0.202 C 
BRANCH  22  23
ATOM     23  C   UNL A   1      39.202  19.188  25.834  1.00  0.00     0.261 C 
BRANCH  23  24
ATOM     24  O   UNL A   1      40.478  19.661  25.357  1.00  0.00    -0.460 OA
BRANCH  24  25
ATOM     25  C   UNL A   1      41.443  19.775  26.309  1.00  0.00     0.338 C 
ATOM     26  O   UNL A   1      42.207  18.906  26.676  1.00  0.00    -0.246 OA
BRANCH  25  27
ATOM     27  C   UNL A   1      41.545  21.184  26.765  1.00  0.00     0.060 A 
ATOM     28  C   UNL A   1      41.188  22.187  25.856  1.00  0.00     0.016 A 
ATOM     29  C   UNL A   1      41.969  21.528  28.053  1.00  0.00     0.016 A 
ATOM     30  C   UNL A   1      41.297  23.535  26.216  1.00  0.00     0.010 A 
ATOM     31  C   UNL A   1      42.064  22.881  28.416  1.00  0.00     0.010 A 
ATOM     32  C   UNL A   1      41.765  23.896  27.487  1.00  0.00    -0.014 A 
BRANCH  32  33
ATOM     33  C   UNL A   1      42.112  25.318  27.770  1.00  0.00     0.031 A 
ATOM     34  C   UNL A   1      43.446  25.843  27.300  1.00  0.00     0.074 A 
ATOM     35  C   UNL A   1      41.253  26.153  28.386  1.00  0.00     0.049 A 
ATOM     36  N   UNL A   1      43.963  27.039  27.427  1.00  0.00    -0.248 NA
ATOM     37  C   UNL A   1      44.313  24.886  26.597  1.00  0.00     0.031 C 
ATOM     38  C   UNL A   1      39.918  25.795  28.860  1.00  0.00     0.029 A 
ATOM     39  N   UNL A   1      41.375  27.483  28.715  1.00  0.00    -0.354 N 
ATOM     40  C   UNL A   1      45.216  26.977  26.825  1.00  0.00     0.074 A 
ATOM     41  C   UNL A   1      45.398  25.610  26.380  1.00  0.00     0.031 C 
ATOM     42  C   UNL A   1      39.342  26.877  29.412  1.00  0.00     0.029 A 
ATOM     43  C   UNL A   1      40.278  28.002  29.365  1.00  0.00     0.049 A 
ATOM     44  H   UNL A   1      42.175  28.016  28.505  1.00  0.00     0.167 HD
ATOM     45  C   UNL A   1      46.125  27.965  26.641  1.00  0.00     0.034 A 
ATOM     46  C   UNL A   1      40.056  29.233  29.874  1.00  0.00     0.034 A 
ATOM     47  C   UNL A   1      45.942  29.326  27.079  1.00  0.00     0.049 A 
ATOM     48  C   UNL A   1      41.122  30.297  29.733  1.00  0.00     0.074 A 
ATOM     49  C   UNL A   1      46.791  30.406  26.911  1.00  0.00     0.029 A 
ATOM     50  N   UNL A   1      44.842  29.795  27.784  1.00  0.00    -0.354 N 
ATOM     51  N   UNL A   1      42.291  30.227  29.139  1.00  0.00    -0.248 NA
ATOM     52  C   UNL A   1      40.833  31.612  30.326  1.00  0.00     0.031 C 
ATOM     53  C   UNL A   1      46.244  31.506  27.579  1.00  0.00     0.029 A 
ATOM     54  C   UNL A   1      45.011  31.137  28.091  1.00  0.00     0.049 A 
ATOM     55  H   UNL A   1      44.057  29.256  28.029  1.00  0.00     0.167 HD
ATOM     56  C   UNL A   1      42.855  31.498  29.254  1.00  0.00     0.074 A 
ATOM     57  C   UNL A   1      41.896  32.315  29.965  1.00  0.00     0.031 C 
ATOM     58  C   UNL A   1      44.054  31.948  28.805  1.00  0.00     0.034 A 
BRANCH  45  59
ATOM     59  C   UNL A   1      47.426  27.591  25.970  1.00  0.00     0.023 A 
ATOM     60  C   UNL A   1      47.648  27.822  24.602  1.00  0.00     0.031 A 
ATOM     61  C   UNL A   1      48.448  26.969  26.710  1.00  0.00     0.131 A 
ATOM     62  C   UNL A   1      48.831  27.366  24.000  1.00  0.00     0.055 A 
ATOM     63  C   UNL A   1      49.656  26.593  26.122  1.00  0.00     0.041 A 
ATOM     64  F   UNL A   1      48.283  26.703  28.014  1.00  0.00    -0.206 F 
ATOM     65  C   UNL A   1      49.847  26.777  24.755  1.00  0.00     0.022 A 
BRANCH  62  66
ATOM     66  S   UNL A   1      48.957  27.418  22.192  1.00  0.00     0.124 S 
ATOM     67  O   UNL A   1      50.363  27.770  22.005  1.00  0.00    -0.237 OA
ATOM     68  O   UNL A   1      48.581  26.062  21.810  1.00  0.00    -0.237 OA
ATOM     69  O   UNL A   1      48.006  28.461  21.812  1.00  0.00    -0.744 OA
ENDBRANCH  62  66
ENDBRANCH  45  59
BRANCH  46  70
ATOM     70  C   UNL A   1      38.788  29.542  30.602  1.00  0.00     0.023 A 
ATOM     71  C   UNL A   1      37.813  30.383  30.041  1.00  0.00     0.031 A 
ATOM     72  C   UNL A   1      38.575  29.068  31.909  1.00  0.00     0.131 A 
ATOM     73  C   UNL A   1      36.700  30.771  30.803  1.00  0.00     0.055 A 
ATOM     74  C   UNL A   1      37.437  29.411  32.642  1.00  0.00     0.041 A 
ATOM     75  F   UNL A   1      39.476  28.264  32.495  1.00  0.00    -0.206 F 
ATOM     76  C   UNL A   1      36.498  30.279  32.095  1.00  0.00     0.022 A 
BRANCH  73  77
ATOM     77  S   UNL A   1      35.566  32.012  30.119  1.00  0.00     0.124 S 
ATOM     78  O   UNL A   1      36.457  33.150  29.926  1.00  0.00    -0.237 OA
ATOM     79  O   UNL A   1      35.095  31.353  28.905  1.00  0.00    -0.237 OA
ATOM     80  O   UNL A   1      34.564  32.173  31.169  1.00  0.00    -0.744 OA
ENDBRANCH  73  77
ENDBRANCH  46  70
BRANCH  58  81
ATOM     81  C   UNL A   1      44.375  33.410  29.021  1.00  0.00     0.023 A 
ATOM     82  C   UNL A   1      43.770  34.428  28.262  1.00  0.00     0.031 A 
ATOM     83  C   UNL A   1      45.306  33.789  30.006  1.00  0.00     0.131 A 
ATOM     84  C   UNL A   1      44.139  35.768  28.465  1.00  0.00     0.055 A 
ATOM     85  C   UNL A   1      45.623  35.128  30.245  1.00  0.00     0.041 A 
ATOM     86  F   UNL A   1      45.918  32.863  30.761  1.00  0.00    -0.206 F 
ATOM     87  C   UNL A   1      45.049  36.125  29.464  1.00  0.00     0.022 A 
BRANCH  84  88
ATOM     88  S   UNL A   1      43.477  37.035  27.348  1.00  0.00     0.124 S 
ATOM     89  O   UNL A   1      44.672  37.805  27.020  1.00  0.00    -0.237 OA
ATOM     90  O   UNL A   1      42.916  36.233  26.265  1.00  0.00    -0.237 OA
ATOM     91  O   UNL A   1      42.492  37.737  28.170  1.00  0.00    -0.744 OA
ENDBRANCH  84  88
ENDBRANCH  58  81
ENDBRANCH  32  33
ENDBRANCH  25  27
ENDBRANCH  24  25
ENDBRANCH  23  24
ENDBRANCH  22  23
ENDBRANCH  21  22
ENDBRANCH   1  21
TORSDOF 22
ENDMDL
MODEL 3
REMARK VINA RESULT:     -10.0      4.770     10.383
REMARK SMILES C[C@H]([C@H](C)C(=O)OCCOCCOC(=O)c1ccc(-c2c3nc(c(-c4cc(S(=O)(=O)[O-])ccc4F)c4ccc([nH]4)c(-c4cc(S(=O)(=O)[O-])ccc4F)c4nc(c(-c5cc(S(=O)(=O)[O-])ccc5F)c5ccc2[nH]5)C=C4)C=C3)cc1)[C@H](O)c1cncn1C1CC1
REMARK SMILES IDX 9 1 8 2 7 3 5 4 6 5 3 6 4 7 2 8 1 9 79 10 81 11 82 12 85 13
REMARK SMILES IDX 83 14 84 15 86 16 87 17 88 18 80 19 10 21 11 22 12 23 13 24
REMARK SMILES IDX 14 25 15 26 16 27 17 28 78 29 18 30 77 31 19 32 20 33 21 34
REMARK SMILES IDX 71 35 22 36 76 37 70 38 72 39 23 40 75 41 69 42 68 43 24 45
REMARK SMILES IDX 56 46 36 47 55 48 37 49 40 50 54 51 73 52 38 53 39 54 53 56
REMARK SMILES IDX 74 57 41 58 25 59 26 60 34 61 27 62 33 63 35 64 32 65 28 66
REMARK SMILES IDX 29 67 30 68 31 69 57 70 58 71 66 72 59 73 65 74 67 75 64 76
REMARK SMILES IDX 60 77 61 78 62 79 63 80 42 81 43 82 51 83 44 84 50 85 52 86
REMARK SMILES IDX 49 87 45 88 46 89 47 90 48 91
REMARK H PARENT 80 20 72 44 40 55
REMARK Flexibility Score: inf
ROOT
ATOM      1  C   UNL A   1      32.539  29.830  25.698  1.00  0.00     0.202 C 
ENDROOT
BRANCH   1   2
ATOM      2  C   UNL A   1      31.457  29.191  24.815  1.00  0.00     0.261 C 
BRANCH   2   3
ATOM      3  O   UNL A   1      31.796  27.821  24.505  1.00  0.00    -0.463 OA
BRANCH   3   4
ATOM      4  C   UNL A   1      30.969  27.157  23.661  1.00  0.00     0.309 C 
ATOM      5  O   UNL A   1      31.052  27.171  22.439  1.00  0.00    -0.252 OA
BRANCH   4   6
ATOM      6  C   UNL A   1      29.909  26.339  24.393  1.00  0.00     0.102 C 
ATOM      7  C   UNL A   1      28.484  26.564  23.879  1.00  0.00     0.020 C 
BRANCH   6   8
ATOM      8  C   UNL A   1      30.310  24.855  24.617  1.00  0.00     0.035 C 
ATOM      9  C   UNL A   1      31.011  24.335  23.344  1.00  0.00     0.012 C 
BRANCH   8  10
ATOM     10  C   UNL A   1      31.161  24.569  25.893  1.00  0.00     0.166 C 
BRANCH  10  11
ATOM     11  C   UNL A   1      32.601  24.308  25.608  1.00  0.00     0.067 A 
ATOM     12  C   UNL A   1      33.650  25.217  25.581  1.00  0.00     0.137 A 
ATOM     13  N   UNL A   1      33.231  23.099  25.391  1.00  0.00    -0.329 N 
ATOM     14  N   UNL A   1      34.845  24.622  25.298  1.00  0.00    -0.245 NA
ATOM     15  C   UNL A   1      34.565  23.347  25.198  1.00  0.00     0.199 A 
BRANCH  13  16
ATOM     16  C   UNL A   1      32.724  21.749  25.320  1.00  0.00     0.088 C 
ATOM     17  C   UNL A   1      32.562  20.923  24.059  1.00  0.00     0.027 C 
ATOM     18  C   UNL A   1      33.623  20.575  25.040  1.00  0.00     0.027 C 
ENDBRANCH  13  16
ENDBRANCH  10  11
BRANCH  10  19
ATOM     19  O   UNL A   1      31.176  25.735  26.720  1.00  0.00    -0.387 OA
ATOM     20  H   UNL A   1      31.481  25.497  27.609  1.00  0.00     0.211 HD
ENDBRANCH  10  19
ENDBRANCH   8  10
ENDBRANCH   6   8
ENDBRANCH   4   6
ENDBRANCH   3   4
ENDBRANCH   2   3
ENDBRANCH   1   2
BRANCH   1  21
ATOM     21  O   UNL A   1      32.015  30.628  26.764  1.00  0.00    -0.374 OA
BRANCH  21  22
ATOM     22  C   UNL A   1      31.189  31.719  26.370  1.00  0.00     0.202 C 
BRANCH  22  23
ATOM     23  C   UNL A   1      31.752  33.107  26.694  1.00  0.00     0.261 C 
BRANCH  23  24
ATOM     24  O   UNL A   1      32.312  33.182  28.020  1.00  0.00    -0.460 OA
BRANCH  24  25
ATOM     25  C   UNL A   1      33.352  34.048  28.159  1.00  0.00     0.338 C 
ATOM     26  O   UNL A   1      33.297  35.260  28.121  1.00  0.00    -0.246 OA
BRANCH  25  27
ATOM     27  C   UNL A   1      34.589  33.307  28.512  1.00  0.00     0.060 A 
ATOM     28  C   UNL A   1      34.446  32.007  29.010  1.00  0.00     0.016 A 
ATOM     29  C   UNL A   1      35.866  33.859  28.357  1.00  0.00     0.016 A 
ATOM     30  C   UNL A   1      35.573  31.271  29.394  1.00  0.00     0.010 A 
ATOM     31  C   UNL A   1      36.995  33.113  28.730  1.00  0.00     0.010 A 
ATOM     32  C   UNL A   1      36.855  31.828  29.287  1.00  0.00    -0.014 A 
BRANCH  32  33
ATOM     33  C   UNL A   1      38.014  31.141  29.926  1.00  0.00     0.031 A 
ATOM     34  C   UNL A   1      38.356  31.480  31.356  1.00  0.00     0.074 A 
ATOM     35  C   UNL A   1      38.727  30.196  29.282  1.00  0.00     0.049 A 
ATOM     36  N   UNL A   1      39.312  31.012  32.118  1.00  0.00    -0.248 NA
ATOM     37  C   UNL A   1      37.507  32.488  32.008  1.00  0.00     0.031 C 
ATOM     38  C   UNL A   1      38.486  29.740  27.915  1.00  0.00     0.029 A 
ATOM     39  N   UNL A   1      39.801  29.444  29.698  1.00  0.00    -0.354 N 
ATOM     40  C   UNL A   1      39.182  31.671  33.336  1.00  0.00     0.074 A 
ATOM     41  C   UNL A   1      38.087  32.608  33.191  1.00  0.00     0.031 C 
ATOM     42  C   UNL A   1      39.380  28.784  27.607  1.00  0.00     0.029 A 
ATOM     43  C   UNL A   1      40.282  28.580  28.741  1.00  0.00     0.049 A 
ATOM     44  H   UNL A   1      40.190  29.518  30.598  1.00  0.00     0.167 HD
ATOM     45  C   UNL A   1      39.894  31.503  34.478  1.00  0.00     0.034 A 
ATOM     46  C   UNL A   1      41.334  27.733  28.768  1.00  0.00     0.034 A 
ATOM     47  C   UNL A   1      40.980  30.567  34.625  1.00  0.00     0.049 A 
ATOM     48  C   UNL A   1      42.168  27.625  30.026  1.00  0.00     0.074 A 
ATOM     49  C   UNL A   1      41.741  30.301  35.751  1.00  0.00     0.029 A 
ATOM     50  N   UNL A   1      41.473  29.753  33.614  1.00  0.00    -0.354 N 
ATOM     51  N   UNL A   1      42.015  28.238  31.177  1.00  0.00    -0.248 NA
ATOM     52  C   UNL A   1      43.313  26.702  29.989  1.00  0.00     0.031 C 
ATOM     53  C   UNL A   1      42.740  29.387  35.402  1.00  0.00     0.029 A 
ATOM     54  C   UNL A   1      42.552  29.016  34.081  1.00  0.00     0.049 A 
ATOM     55  H   UNL A   1      41.111  29.705  32.701  1.00  0.00     0.167 HD
ATOM     56  C   UNL A   1      43.021  27.744  32.009  1.00  0.00     0.074 A 
ATOM     57  C   UNL A   1      43.765  26.777  31.231  1.00  0.00     0.031 C 
ATOM     58  C   UNL A   1      43.296  28.056  33.301  1.00  0.00     0.034 A 
BRANCH  45  59
ATOM     59  C   UNL A   1      39.541  32.390  35.649  1.00  0.00     0.023 A 
ATOM     60  C   UNL A   1      40.091  33.675  35.798  1.00  0.00     0.031 A 
ATOM     61  C   UNL A   1      38.662  31.928  36.645  1.00  0.00     0.131 A 
ATOM     62  C   UNL A   1      39.815  34.423  36.952  1.00  0.00     0.055 A 
ATOM     63  C   UNL A   1      38.327  32.712  37.750  1.00  0.00     0.041 A 
ATOM     64  F   UNL A   1      38.126  30.701  36.568  1.00  0.00    -0.206 F 
ATOM     65  C   UNL A   1      38.916  33.962  37.916  1.00  0.00     0.022 A 
BRANCH  62  66
ATOM     66  S   UNL A   1      40.764  35.940  37.247  1.00  0.00     0.124 S 
ATOM     67  O   UNL A   1      41.732  35.492  38.246  1.00  0.00    -0.237 OA
ATOM     68  O   UNL A   1      41.302  36.237  35.925  1.00  0.00    -0.237 OA
ATOM     69  O   UNL A   1      39.761  36.881  37.740  1.00  0.00    -0.744 OA
ENDBRANCH  62  66
ENDBRANCH  45  59
BRANCH  46  70
ATOM     70  C   UNL A   1      41.701  26.930  27.562  1.00  0.00     0.023 A 
ATOM     71  C   UNL A   1      41.488  25.543  27.518  1.00  0.00     0.031 A 
ATOM     72  C   UNL A   1      42.351  27.530  26.469  1.00  0.00     0.131 A 
ATOM     73  C   UNL A   1      41.971  24.794  26.434  1.00  0.00     0.055 A 
ATOM     74  C   UNL A   1      42.779  26.789  25.366  1.00  0.00     0.041 A 
ATOM     75  F   UNL A   1      42.585  28.853  26.460  1.00  0.00    -0.206 F 
ATOM     76  C   UNL A   1      42.602  25.409  25.351  1.00  0.00     0.022 A 
BRANCH  73  77
ATOM     77  S   UNL A   1      41.852  22.984  26.504  1.00  0.00     0.124 S 
ATOM     78  O   UNL A   1      40.434  22.771  26.238  1.00  0.00    -0.237 OA
ATOM     79  O   UNL A   1      42.771  22.580  25.446  1.00  0.00    -0.237 OA
ATOM     80  O   UNL A   1      42.288  22.667  27.862  1.00  0.00    -0.744 OA
ENDBRANCH  73  77
ENDBRANCH  46  70
BRANCH  58  81
ATOM     81  C   UNL A   1      44.420  27.303  33.976  1.00  0.00     0.023 A 
ATOM     82  C   UNL A   1      44.197  26.118  34.699  1.00  0.00     0.031 A 
ATOM     83  C   UNL A   1      45.740  27.784  33.892  1.00  0.00     0.131 A 
ATOM     84  C   UNL A   1      45.267  25.483  35.351  1.00  0.00     0.055 A 
ATOM     85  C   UNL A   1      46.809  27.115  34.491  1.00  0.00     0.041 A 
ATOM     86  F   UNL A   1      46.015  28.912  33.217  1.00  0.00    -0.206 F 
ATOM     87  C   UNL A   1      46.574  25.964  35.237  1.00  0.00     0.022 A 
BRANCH  84  88
ATOM     88  S   UNL A   1      44.916  24.063  36.425  1.00  0.00     0.124 S 
ATOM     89  O   UNL A   1      44.095  23.223  35.559  1.00  0.00    -0.237 OA
ATOM     90  O   UNL A   1      46.252  23.559  36.723  1.00  0.00    -0.237 OA
ATOM     91  O   UNL A   1      44.212  24.658  37.560  1.00  0.00    -0.744 OA
ENDBRANCH  84  88
ENDBRANCH  58  81
ENDBRANCH  32  33
ENDBRANCH  25  27
ENDBRANCH  24  25
ENDBRANCH  23  24
ENDBRANCH  22  23
ENDBRANCH  21  22
ENDBRANCH   1  21
TORSDOF 22
ENDMDL
