MODEL 1
REMARK VINA RESULT:     -11.7      0.000      0.000
REMARK SMILES [NH3+]C[C@H]1CC[C@@H](C(=O)Nc2ccc(C(=O)OCCOCCOC(=O)c3ccc(-c4c5nc(c(-c6cc(S(=O)(=O)[O-])ccc6F)c6ccc([nH]6)c(-c6cc(S(=O)(=O)[O-])ccc6F)c6nc(c(-c7cc(S(=O)(=O)[O-])ccc7F)c7ccc4[nH]7)C=C6)C=C5)cc3)cc2Br)CC1
REMARK SMILES IDX 18 1 17 2 16 3 14 4 15 5 13 6 10 7 11 8 89 9 12 10 88 11
REMARK SMILES IDX 90 12 9 13 7 14 8 15 6 17 3 18 4 19 92 20 5 21 91 22 2 23
REMARK SMILES IDX 1 24 19 28 20 29 21 30 22 31 23 32 24 33 25 34 26 35 87 36
REMARK SMILES IDX 27 37 86 38 28 39 29 40 30 41 80 42 31 43 85 44 79 45 81 46
REMARK SMILES IDX 32 47 84 48 78 49 77 50 33 52 65 53 45 54 64 55 46 56 49 57
REMARK SMILES IDX 63 58 82 59 47 60 48 61 62 63 83 64 50 65 34 66 35 67 43 68
REMARK SMILES IDX 36 69 42 70 44 71 41 72 37 73 38 74 39 75 40 76 66 77 67 78
REMARK SMILES IDX 75 79 68 80 74 81 76 82 73 83 69 84 70 85 71 86 72 87 51 88
REMARK SMILES IDX 52 89 60 90 53 91 59 92 61 93 58 94 54 95 55 96 56 97 57 98
REMARK H PARENT 9 16 1 25 1 26 1 27 81 51 49 62
REMARK Flexibility Score: inf
ROOT
ATOM      1  C   UNL A   1      35.901  21.405  24.681  1.00  0.00     0.202 C 
ENDROOT
BRANCH   1   2
ATOM      2  C   UNL A   1      34.852  20.368  25.077  1.00  0.00     0.261 C 
BRANCH   2   3
ATOM      3  O   UNL A   1      33.576  20.996  25.191  1.00  0.00    -0.460 OA
BRANCH   3   4
ATOM      4  C   UNL A   1      32.833  20.925  24.069  1.00  0.00     0.338 C 
ATOM      5  O   UNL A   1      32.520  19.937  23.430  1.00  0.00    -0.246 OA
BRANCH   4   6
ATOM      6  C   UNL A   1      32.420  22.283  23.705  1.00  0.00     0.061 A 
ATOM      7  C   UNL A   1      32.443  25.909  23.696  1.00  0.00     0.055 A 
ATOM      8  C   UNL A   1      33.668  24.986  22.698  1.00  0.00     0.028 A 
ATOM      9  C   UNL A   1      31.160  25.002  24.639  1.00  0.00     0.042 A 
ATOM     10  C   UNL A   1      33.626  23.169  22.660  1.00  0.00     0.018 A 
ATOM     11  C   UNL A   1      31.145  23.175  24.679  1.00  0.00     0.033 A 
ATOM     12  Br  UNL A   1      29.571  25.902  25.197  1.00  0.00    -0.049 Br
BRANCH   7  13
ATOM     13  N   UNL A   1      32.507  27.314  23.677  1.00  0.00    -0.325 N 
ATOM     14  C   UNL A   1      33.175  28.210  24.472  1.00  0.00     0.227 C 
ATOM     15  O   UNL A   1      33.346  29.328  23.957  1.00  0.00    -0.274 OA
ATOM     16  H   UNL A   1      31.973  27.732  22.963  1.00  0.00     0.169 HD
BRANCH  14  17
ATOM     17  C   UNL A   1      33.757  27.995  25.896  1.00  0.00     0.079 C 
ATOM     18  C   UNL A   1      32.219  29.998  27.141  1.00  0.00     0.044 C 
ATOM     19  C   UNL A   1      31.745  28.529  27.275  1.00  0.00     0.010 C 
ATOM     20  C   UNL A   1      33.704  30.307  26.843  1.00  0.00     0.010 C 
ATOM     21  C   UNL A   1      32.778  27.490  26.943  1.00  0.00     0.014 C 
ATOM     22  C   UNL A   1      34.564  29.115  26.524  1.00  0.00     0.014 C 
BRANCH  18  23
ATOM     23  C   UNL A   1      31.019  31.026  26.552  1.00  0.00     0.262 C 
BRANCH  23  24
ATOM     24  N   UNL A   1      30.292  31.793  24.778  1.00  0.00    -0.357 N 
ATOM     25  H   UNL A   1      30.330  32.811  24.806  1.00  0.00     0.344 HD
ATOM     26  H   UNL A   1      29.325  31.493  24.648  1.00  0.00     0.344 HD
ATOM     27  H   UNL A   1      30.860  31.453  24.001  1.00  0.00     0.344 HD
ENDBRANCH  23  24
ENDBRANCH  18  23
ENDBRANCH  14  17
ENDBRANCH   7  13
ENDBRANCH   4   6
ENDBRANCH   3   4
ENDBRANCH   2   3
ENDBRANCH   1   2
BRANCH   1  28
ATOM     28  O   UNL A   1      37.284  21.068  24.775  1.00  0.00    -0.374 OA
BRANCH  28  29
ATOM     29  C   UNL A   1      37.680  19.716  24.992  1.00  0.00     0.202 C 
BRANCH  29  30
ATOM     30  C   UNL A   1      39.088  19.367  25.494  1.00  0.00     0.261 C 
BRANCH  30  31
ATOM     31  O   UNL A   1      39.965  20.490  25.645  1.00  0.00    -0.460 OA
BRANCH  31  32
ATOM     32  C   UNL A   1      40.643  20.480  26.821  1.00  0.00     0.338 C 
ATOM     33  O   UNL A   1      41.226  19.534  27.321  1.00  0.00    -0.246 OA
BRANCH  32  34
ATOM     34  C   UNL A   1      40.773  21.851  27.340  1.00  0.00     0.060 A 
ATOM     35  C   UNL A   1      40.080  22.861  26.659  1.00  0.00     0.016 A 
ATOM     36  C   UNL A   1      41.633  22.155  28.394  1.00  0.00     0.016 A 
ATOM     37  C   UNL A   1      40.287  24.192  26.994  1.00  0.00     0.010 A 
ATOM     38  C   UNL A   1      41.856  23.496  28.716  1.00  0.00     0.010 A 
ATOM     39  C   UNL A   1      41.216  24.517  27.988  1.00  0.00    -0.014 A 
BRANCH  39  40
ATOM     40  C   UNL A   1      41.653  25.925  28.120  1.00  0.00     0.031 A 
ATOM     41  C   UNL A   1      42.962  26.333  27.503  1.00  0.00     0.074 A 
ATOM     42  C   UNL A   1      40.868  26.831  28.727  1.00  0.00     0.049 A 
ATOM     43  N   UNL A   1      43.571  27.488  27.537  1.00  0.00    -0.248 NA
ATOM     44  C   UNL A   1      43.680  25.293  26.751  1.00  0.00     0.031 C 
ATOM     45  C   UNL A   1      39.548  26.556  29.291  1.00  0.00     0.029 A 
ATOM     46  N   UNL A   1      41.069  28.164  28.970  1.00  0.00    -0.354 N 
ATOM     47  C   UNL A   1      44.753  27.312  26.824  1.00  0.00     0.074 A 
ATOM     48  C   UNL A   1      44.788  25.928  26.403  1.00  0.00     0.031 C 
ATOM     49  C   UNL A   1      39.060  27.687  29.826  1.00  0.00     0.029 A 
ATOM     50  C   UNL A   1      40.054  28.750  29.687  1.00  0.00     0.049 A 
ATOM     51  H   UNL A   1      41.864  28.655  28.660  1.00  0.00     0.167 HD
ATOM     52  C   UNL A   1      45.714  28.227  26.543  1.00  0.00     0.034 A 
ATOM     53  C   UNL A   1      39.958  29.992  30.204  1.00  0.00     0.034 A 
ATOM     54  C   UNL A   1      45.656  29.600  26.983  1.00  0.00     0.049 A 
ATOM     55  C   UNL A   1      41.088  30.964  29.970  1.00  0.00     0.074 A 
ATOM     56  C   UNL A   1      46.563  30.618  26.751  1.00  0.00     0.029 A 
ATOM     57  N   UNL A   1      44.641  30.145  27.762  1.00  0.00    -0.354 N 
ATOM     58  N   UNL A   1      42.206  30.789  29.302  1.00  0.00    -0.248 NA
ATOM     59  C   UNL A   1      40.940  32.303  30.555  1.00  0.00     0.031 C 
ATOM     60  C   UNL A   1      46.146  31.747  27.463  1.00  0.00     0.029 A 
ATOM     61  C   UNL A   1      44.924  31.470  28.056  1.00  0.00     0.049 A 
ATOM     62  H   UNL A   1      43.838  29.660  28.062  1.00  0.00     0.167 HD
ATOM     63  C   UNL A   1      42.878  32.009  29.358  1.00  0.00     0.074 A 
ATOM     64  C   UNL A   1      42.033  32.910  30.116  1.00  0.00     0.031 C 
ATOM     65  C   UNL A   1      44.077  32.355  28.823  1.00  0.00     0.034 A 
BRANCH  52  66
ATOM     66  C   UNL A   1      46.931  27.750  25.786  1.00  0.00     0.023 A 
ATOM     67  C   UNL A   1      47.135  28.058  24.430  1.00  0.00     0.031 A 
ATOM     68  C   UNL A   1      47.886  26.939  26.425  1.00  0.00     0.131 A 
ATOM     69  C   UNL A   1      48.221  27.497  23.740  1.00  0.00     0.055 A 
ATOM     70  C   UNL A   1      49.013  26.459  25.756  1.00  0.00     0.041 A 
ATOM     71  F   UNL A   1      47.733  26.585  27.711  1.00  0.00    -0.206 F 
ATOM     72  C   UNL A   1      49.177  26.722  24.400  1.00  0.00     0.022 A 
BRANCH  69  73
ATOM     73  S   UNL A   1      48.273  27.653  21.933  1.00  0.00     0.124 S 
ATOM     74  O   UNL A   1      49.416  28.543  21.747  1.00  0.00    -0.237 OA
ATOM     75  O   UNL A   1      48.461  26.272  21.503  1.00  0.00    -0.237 OA
ATOM     76  O   UNL A   1      46.976  28.240  21.602  1.00  0.00    -0.744 OA
ENDBRANCH  69  73
ENDBRANCH  52  66
BRANCH  53  77
ATOM     77  C   UNL A   1      38.777  30.370  31.030  1.00  0.00     0.023 A 
ATOM     78  C   UNL A   1      37.705  31.089  30.480  1.00  0.00     0.031 A 
ATOM     79  C   UNL A   1      38.721  30.047  32.399  1.00  0.00     0.131 A 
ATOM     80  C   UNL A   1      36.645  31.501  31.302  1.00  0.00     0.055 A 
ATOM     81  C   UNL A   1      37.635  30.406  33.198  1.00  0.00     0.041 A 
ATOM     82  F   UNL A   1      39.720  29.363  32.977  1.00  0.00    -0.206 F 
ATOM     83  C   UNL A   1      36.594  31.149  32.653  1.00  0.00     0.022 A 
BRANCH  80  84
ATOM     84  S   UNL A   1      35.373  32.585  30.600  1.00  0.00     0.124 S 
ATOM     85  O   UNL A   1      34.393  32.629  31.680  1.00  0.00    -0.237 OA
ATOM     86  O   UNL A   1      36.121  33.815  30.363  1.00  0.00    -0.237 OA
ATOM     87  O   UNL A   1      34.947  31.874  29.396  1.00  0.00    -0.744 OA
ENDBRANCH  80  84
ENDBRANCH  53  77
BRANCH  65  88
ATOM     88  C   UNL A   1      44.523  33.790  28.992  1.00  0.00     0.023 A 
ATOM     89  C   UNL A   1      45.302  34.205  30.085  1.00  0.00     0.031 A 
ATOM     90  C   UNL A   1      44.159  34.756  28.036  1.00  0.00     0.131 A 
ATOM     91  C   UNL A   1      45.646  35.558  30.224  1.00  0.00     0.055 A 
ATOM     92  C   UNL A   1      44.565  36.087  28.142  1.00  0.00     0.041 A 
ATOM     93  F   UNL A   1      43.409  34.419  26.974  1.00  0.00    -0.206 F 
ATOM     94  C   UNL A   1      45.302  36.498  29.249  1.00  0.00     0.022 A 
BRANCH  91  95
ATOM     95  S   UNL A   1      46.460  36.098  31.753  1.00  0.00     0.124 S 
ATOM     96  O   UNL A   1      46.786  37.487  31.446  1.00  0.00    -0.237 OA
ATOM     97  O   UNL A   1      45.418  35.893  32.753  1.00  0.00    -0.237 OA
ATOM     98  O   UNL A   1      47.610  35.201  31.863  1.00  0.00    -0.744 OA
ENDBRANCH  91  95
ENDBRANCH  65  88
ENDBRANCH  39  40
ENDBRANCH  32  34
ENDBRANCH  31  32
ENDBRANCH  30  31
ENDBRANCH  29  30
ENDBRANCH  28  29
ENDBRANCH   1  28
TORSDOF 21
ENDMDL
MODEL 2
REMARK VINA RESULT:     -11.0      1.853      2.202
REMARK SMILES [NH3+]C[C@H]1CC[C@@H](C(=O)Nc2ccc(C(=O)OCCOCCOC(=O)c3ccc(-c4c5nc(c(-c6cc(S(=O)(=O)[O-])ccc6F)c6ccc([nH]6)c(-c6cc(S(=O)(=O)[O-])ccc6F)c6nc(c(-c7cc(S(=O)(=O)[O-])ccc7F)c7ccc4[nH]7)C=C6)C=C5)cc3)cc2Br)CC1
REMARK SMILES IDX 18 1 17 2 16 3 14 4 15 5 13 6 10 7 11 8 89 9 12 10 88 11
REMARK SMILES IDX 90 12 9 13 7 14 8 15 6 17 3 18 4 19 92 20 5 21 91 22 2 23
REMARK SMILES IDX 1 24 19 28 20 29 21 30 22 31 23 32 24 33 25 34 26 35 87 36
REMARK SMILES IDX 27 37 86 38 28 39 29 40 30 41 80 42 31 43 85 44 79 45 81 46
REMARK SMILES IDX 32 47 84 48 78 49 77 50 33 52 65 53 45 54 64 55 46 56 49 57
REMARK SMILES IDX 63 58 82 59 47 60 48 61 62 63 83 64 50 65 34 66 35 67 43 68
REMARK SMILES IDX 36 69 42 70 44 71 41 72 37 73 38 74 39 75 40 76 66 77 67 78
REMARK SMILES IDX 75 79 68 80 74 81 76 82 73 83 69 84 70 85 71 86 72 87 51 88
REMARK SMILES IDX 52 89 60 90 53 91 59 92 61 93 58 94 54 95 55 96 56 97 57 98
REMARK H PARENT 9 16 1 25 1 26 1 27 81 51 49 62
REMARK Flexibility Score: inf
ROOT
ATOM      1  C   UNL A   1      37.095  21.899  25.631  1.00  0.00     0.202 C 
ENDROOT
BRANCH   1   2
ATOM      2  C   UNL A   1      35.667  21.366  25.724  1.00  0.00     0.261 C 
BRANCH   2   3
ATOM      3  O   UNL A   1      35.214  20.977  24.429  1.00  0.00    -0.460 OA
BRANCH   3   4
ATOM      4  C   UNL A   1      34.131  20.175  24.450  1.00  0.00     0.338 C 
ATOM      5  O   UNL A   1      34.090  18.960  24.516  1.00  0.00    -0.246 OA
BRANCH   4   6
ATOM      6  C   UNL A   1      32.935  21.018  24.386  1.00  0.00     0.061 A 
ATOM      7  C   UNL A   1      30.950  24.047  24.566  1.00  0.00     0.055 A 
ATOM      8  C   UNL A   1      31.950  23.699  23.074  1.00  0.00     0.028 A 
ATOM      9  C   UNL A   1      30.892  22.830  25.935  1.00  0.00     0.042 A 
ATOM     10  C   UNL A   1      32.905  22.156  22.960  1.00  0.00     0.018 A 
ATOM     11  C   UNL A   1      31.904  21.310  25.877  1.00  0.00     0.033 A 
ATOM     12  Br  UNL A   1      29.461  22.881  27.197  1.00  0.00    -0.049 Br
BRANCH   7  13
ATOM     13  N   UNL A   1      30.214  25.246  24.597  1.00  0.00    -0.325 N 
ATOM     14  C   UNL A   1      30.497  26.479  25.126  1.00  0.00     0.227 C 
ATOM     15  O   UNL A   1      29.833  27.411  24.644  1.00  0.00    -0.274 OA
ATOM     16  H   UNL A   1      29.333  25.189  24.160  1.00  0.00     0.169 HD
BRANCH  14  17
ATOM     17  C   UNL A   1      31.545  26.849  26.211  1.00  0.00     0.079 C 
ATOM     18  C   UNL A   1      32.986  28.666  24.613  1.00  0.00     0.044 C 
ATOM     19  C   UNL A   1      31.959  29.240  25.621  1.00  0.00     0.010 C 
ATOM     20  C   UNL A   1      33.596  27.265  24.846  1.00  0.00     0.010 C 
ATOM     21  C   UNL A   1      31.516  28.289  26.696  1.00  0.00     0.014 C 
ATOM     22  C   UNL A   1      32.995  26.474  25.976  1.00  0.00     0.014 C 
BRANCH  18  23
ATOM     23  C   UNL A   1      32.744  29.218  23.038  1.00  0.00     0.262 C 
BRANCH  23  24
ATOM     24  N   UNL A   1      31.227  29.692  21.719  1.00  0.00    -0.357 N 
ATOM     25  H   UNL A   1      30.325  29.528  22.164  1.00  0.00     0.344 HD
ATOM     26  H   UNL A   1      31.306  29.107  20.886  1.00  0.00     0.344 HD
ATOM     27  H   UNL A   1      31.301  30.674  21.453  1.00  0.00     0.344 HD
ENDBRANCH  23  24
ENDBRANCH  18  23
ENDBRANCH  14  17
ENDBRANCH   7  13
ENDBRANCH   4   6
ENDBRANCH   3   4
ENDBRANCH   2   3
ENDBRANCH   1   2
BRANCH   1  28
ATOM     28  O   UNL A   1      38.074  21.145  24.918  1.00  0.00    -0.374 OA
BRANCH  28  29
ATOM     29  C   UNL A   1      38.225  19.750  25.166  1.00  0.00     0.202 C 
BRANCH  29  30
ATOM     30  C   UNL A   1      39.560  19.164  25.648  1.00  0.00     0.261 C 
BRANCH  30  31
ATOM     31  O   UNL A   1      40.077  19.759  26.845  1.00  0.00    -0.460 OA
BRANCH  31  32
ATOM     32  C   UNL A   1      41.305  20.313  26.675  1.00  0.00     0.338 C 
ATOM     33  O   UNL A   1      42.235  19.849  26.038  1.00  0.00    -0.246 OA
BRANCH  32  34
ATOM     34  C   UNL A   1      41.313  21.690  27.195  1.00  0.00     0.060 A 
ATOM     35  C   UNL A   1      40.705  22.676  26.407  1.00  0.00     0.016 A 
ATOM     36  C   UNL A   1      41.992  22.023  28.366  1.00  0.00     0.016 A 
ATOM     37  C   UNL A   1      40.820  24.014  26.759  1.00  0.00     0.010 A 
ATOM     38  C   UNL A   1      42.124  23.372  28.708  1.00  0.00     0.010 A 
ATOM     39  C   UNL A   1      41.576  24.370  27.880  1.00  0.00    -0.014 A 
BRANCH  39  40
ATOM     40  C   UNL A   1      41.946  25.791  28.066  1.00  0.00     0.031 A 
ATOM     41  C   UNL A   1      43.300  26.248  27.600  1.00  0.00     0.074 A 
ATOM     42  C   UNL A   1      41.068  26.665  28.586  1.00  0.00     0.049 A 
ATOM     43  N   UNL A   1      43.862  27.423  27.705  1.00  0.00    -0.248 NA
ATOM     44  C   UNL A   1      44.133  25.238  26.927  1.00  0.00     0.031 C 
ATOM     45  C   UNL A   1      39.704  26.341  29.000  1.00  0.00     0.029 A 
ATOM     46  N   UNL A   1      41.195  28.002  28.855  1.00  0.00    -0.354 N 
ATOM     47  C   UNL A   1      45.121  27.292  27.127  1.00  0.00     0.074 A 
ATOM     48  C   UNL A   1      45.250  25.913  26.707  1.00  0.00     0.031 C 
ATOM     49  C   UNL A   1      39.121  27.450  29.481  1.00  0.00     0.029 A 
ATOM     50  C   UNL A   1      40.087  28.548  29.458  1.00  0.00     0.049 A 
ATOM     51  H   UNL A   1      42.002  28.522  28.637  1.00  0.00     0.167 HD
ATOM     52  C   UNL A   1      46.074  28.241  26.958  1.00  0.00     0.034 A 
ATOM     53  C   UNL A   1      39.892  29.781  29.966  1.00  0.00     0.034 A 
ATOM     54  C   UNL A   1      45.921  29.607  27.394  1.00  0.00     0.049 A 
ATOM     55  C   UNL A   1      41.007  30.793  29.863  1.00  0.00     0.074 A 
ATOM     56  C   UNL A   1      46.813  30.657  27.268  1.00  0.00     0.029 A 
ATOM     57  N   UNL A   1      44.808  30.112  28.058  1.00  0.00    -0.354 N 
ATOM     58  N   UNL A   1      42.197  30.662  29.322  1.00  0.00    -0.248 NA
ATOM     59  C   UNL A   1      40.750  32.121  30.433  1.00  0.00     0.031 C 
ATOM     60  C   UNL A   1      46.281  31.766  27.934  1.00  0.00     0.029 A 
ATOM     61  C   UNL A   1      45.011  31.443  28.387  1.00  0.00     0.049 A 
ATOM     62  H   UNL A   1      43.994  29.598  28.266  1.00  0.00     0.167 HD
ATOM     63  C   UNL A   1      42.817  31.903  29.457  1.00  0.00     0.074 A 
ATOM     64  C   UNL A   1      41.863  32.768  30.120  1.00  0.00     0.031 C 
ATOM     65  C   UNL A   1      44.055  32.293  29.059  1.00  0.00     0.034 A 
BRANCH  52  66
ATOM     66  C   UNL A   1      47.384  27.811  26.338  1.00  0.00     0.023 A 
ATOM     67  C   UNL A   1      48.506  27.482  27.117  1.00  0.00     0.031 A 
ATOM     68  C   UNL A   1      47.521  27.767  24.939  1.00  0.00     0.131 A 
ATOM     69  C   UNL A   1      49.732  27.200  26.496  1.00  0.00     0.055 A 
ATOM     70  C   UNL A   1      48.719  27.396  24.327  1.00  0.00     0.041 A 
ATOM     71  F   UNL A   1      46.495  28.098  24.140  1.00  0.00    -0.206 F 
ATOM     72  C   UNL A   1      49.840  27.127  25.105  1.00  0.00     0.022 A 
BRANCH  69  73
ATOM     73  S   UNL A   1      51.222  27.097  27.526  1.00  0.00     0.124 S 
ATOM     74  O   UNL A   1      51.587  25.691  27.377  1.00  0.00    -0.237 OA
ATOM     75  O   UNL A   1      52.113  28.060  26.888  1.00  0.00    -0.237 OA
ATOM     76  O   UNL A   1      50.747  27.472  28.856  1.00  0.00    -0.744 OA
ENDBRANCH  69  73
ENDBRANCH  52  66
BRANCH  53  77
ATOM     77  C   UNL A   1      38.615  30.113  30.657  1.00  0.00     0.023 A 
ATOM     78  C   UNL A   1      37.632  30.896  30.034  1.00  0.00     0.031 A 
ATOM     79  C   UNL A   1      38.374  29.680  31.975  1.00  0.00     0.131 A 
ATOM     80  C   UNL A   1      36.475  31.259  30.741  1.00  0.00     0.055 A 
ATOM     81  C   UNL A   1      37.195  29.992  32.651  1.00  0.00     0.041 A 
ATOM     82  F   UNL A   1      39.282  28.930  32.620  1.00  0.00    -0.206 F 
ATOM     83  C   UNL A   1      36.241  30.798  32.038  1.00  0.00     0.022 A 
BRANCH  80  84
ATOM     84  S   UNL A   1      35.316  32.422  29.971  1.00  0.00     0.124 S 
ATOM     85  O   UNL A   1      34.674  31.579  28.969  1.00  0.00    -0.237 OA
ATOM     86  O   UNL A   1      34.488  32.818  31.104  1.00  0.00    -0.237 OA
ATOM     87  O   UNL A   1      36.188  33.469  29.442  1.00  0.00    -0.744 OA
ENDBRANCH  80  84
ENDBRANCH  53  77
BRANCH  65  88
ATOM     88  C   UNL A   1      44.429  33.741  29.282  1.00  0.00     0.023 A 
ATOM     89  C   UNL A   1      45.067  34.174  30.458  1.00  0.00     0.031 A 
ATOM     90  C   UNL A   1      44.142  34.701  28.295  1.00  0.00     0.131 A 
ATOM     91  C   UNL A   1      45.346  35.537  30.640  1.00  0.00     0.055 A 
ATOM     92  C   UNL A   1      44.489  36.044  28.451  1.00  0.00     0.041 A 
ATOM     93  F   UNL A   1      43.529  34.347  27.154  1.00  0.00    -0.206 F 
ATOM     94  C   UNL A   1      45.082  36.472  29.635  1.00  0.00     0.022 A 
BRANCH  91  95
ATOM     95  S   UNL A   1      45.964  36.092  32.252  1.00  0.00     0.124 S 
ATOM     96  O   UNL A   1      46.452  37.433  31.942  1.00  0.00    -0.237 OA
ATOM     97  O   UNL A   1      44.770  36.025  33.086  1.00  0.00    -0.237 OA
ATOM     98  O   UNL A   1      47.002  35.115  32.575  1.00  0.00    -0.744 OA
ENDBRANCH  91  95
ENDBRANCH  65  88
ENDBRANCH  39  40
ENDBRANCH  32  34
ENDBRANCH  31  32
ENDBRANCH  30  31
ENDBRANCH  29  30
ENDBRANCH  28  29
ENDBRANCH   1  28
TORSDOF 21
ENDMDL
MODEL 3
REMARK VINA RESULT:     -10.9      2.382      2.915
REMARK SMILES [NH3+]C[C@H]1CC[C@@H](C(=O)Nc2ccc(C(=O)OCCOCCOC(=O)c3ccc(-c4c5nc(c(-c6cc(S(=O)(=O)[O-])ccc6F)c6ccc([nH]6)c(-c6cc(S(=O)(=O)[O-])ccc6F)c6nc(c(-c7cc(S(=O)(=O)[O-])ccc7F)c7ccc4[nH]7)C=C6)C=C5)cc3)cc2Br)CC1
REMARK SMILES IDX 18 1 17 2 16 3 14 4 15 5 13 6 10 7 11 8 89 9 12 10 88 11
REMARK SMILES IDX 90 12 9 13 7 14 8 15 6 17 3 18 4 19 92 20 5 21 91 22 2 23
REMARK SMILES IDX 1 24 19 28 20 29 21 30 22 31 23 32 24 33 25 34 26 35 87 36
REMARK SMILES IDX 27 37 86 38 28 39 29 40 30 41 80 42 31 43 85 44 79 45 81 46
REMARK SMILES IDX 32 47 84 48 78 49 77 50 33 52 65 53 45 54 64 55 46 56 49 57
REMARK SMILES IDX 63 58 82 59 47 60 48 61 62 63 83 64 50 65 34 66 35 67 43 68
REMARK SMILES IDX 36 69 42 70 44 71 41 72 37 73 38 74 39 75 40 76 66 77 67 78
REMARK SMILES IDX 75 79 68 80 74 81 76 82 73 83 69 84 70 85 71 86 72 87 51 88
REMARK SMILES IDX 52 89 60 90 53 91 59 92 61 93 58 94 54 95 55 96 56 97 57 98
REMARK H PARENT 9 16 1 25 1 26 1 27 81 51 49 62
REMARK Flexibility Score: inf
ROOT
ATOM      1  C   UNL A   1      37.603  22.301  25.961  1.00  0.00     0.202 C 
ENDROOT
BRANCH   1   2
ATOM      2  C   UNL A   1      36.126  21.918  26.041  1.00  0.00     0.261 C 
BRANCH   2   3
ATOM      3  O   UNL A   1      35.628  21.649  24.732  1.00  0.00    -0.460 OA
BRANCH   3   4
ATOM      4  C   UNL A   1      34.716  20.658  24.690  1.00  0.00     0.338 C 
ATOM      5  O   UNL A   1      34.898  19.458  24.778  1.00  0.00    -0.246 OA
BRANCH   4   6
ATOM      6  C   UNL A   1      33.391  21.261  24.522  1.00  0.00     0.061 A 
ATOM      7  C   UNL A   1      30.913  23.893  24.245  1.00  0.00     0.055 A 
ATOM      8  C   UNL A   1      31.953  23.465  22.802  1.00  0.00     0.028 A 
ATOM      9  C   UNL A   1      31.071  22.943  25.804  1.00  0.00     0.042 A 
ATOM     10  C   UNL A   1      33.161  22.111  22.924  1.00  0.00     0.018 A 
ATOM     11  C   UNL A   1      32.330  21.630  25.975  1.00  0.00     0.033 A 
ATOM     12  Br  UNL A   1      29.657  22.970  27.086  1.00  0.00    -0.049 Br
BRANCH   7  13
ATOM     13  N   UNL A   1      29.981  24.937  24.094  1.00  0.00    -0.325 N 
ATOM     14  C   UNL A   1      30.054  26.276  24.379  1.00  0.00     0.227 C 
ATOM     15  O   UNL A   1      29.230  26.978  23.768  1.00  0.00    -0.274 OA
ATOM     16  H   UNL A   1      29.117  24.653  23.716  1.00  0.00     0.169 HD
BRANCH  14  17
ATOM     17  C   UNL A   1      31.037  27.011  25.330  1.00  0.00     0.079 C 
ATOM     18  C   UNL A   1      33.114  27.277  23.447  1.00  0.00     0.044 C 
ATOM     19  C   UNL A   1      32.196  28.500  23.694  1.00  0.00     0.010 C 
ATOM     20  C   UNL A   1      33.258  26.188  24.534  1.00  0.00     0.010 C 
ATOM     21  C   UNL A   1      31.378  28.443  24.953  1.00  0.00     0.014 C 
ATOM     22  C   UNL A   1      32.330  26.317  25.711  1.00  0.00     0.014 C 
BRANCH  18  23
ATOM     23  C   UNL A   1      33.220  26.850  21.820  1.00  0.00     0.262 C 
BRANCH  23  24
ATOM     24  N   UNL A   1      32.175  25.838  20.354  1.00  0.00    -0.357 N 
ATOM     25  H   UNL A   1      32.818  25.541  19.621  1.00  0.00     0.344 HD
ATOM     26  H   UNL A   1      31.466  26.454  19.955  1.00  0.00     0.344 HD
ATOM     27  H   UNL A   1      31.723  25.019  20.762  1.00  0.00     0.344 HD
ENDBRANCH  23  24
ENDBRANCH  18  23
ENDBRANCH  14  17
ENDBRANCH   7  13
ENDBRANCH   4   6
ENDBRANCH   3   4
ENDBRANCH   2   3
ENDBRANCH   1   2
BRANCH   1  28
ATOM     28  O   UNL A   1      38.478  21.533  25.137  1.00  0.00    -0.374 OA
BRANCH  28  29
ATOM     29  C   UNL A   1      38.625  20.133  25.357  1.00  0.00     0.202 C 
BRANCH  29  30
ATOM     30  C   UNL A   1      39.885  19.556  26.020  1.00  0.00     0.261 C 
BRANCH  30  31
ATOM     31  O   UNL A   1      40.377  20.314  27.132  1.00  0.00    -0.460 OA
BRANCH  31  32
ATOM     32  C   UNL A   1      41.632  20.791  26.936  1.00  0.00     0.338 C 
ATOM     33  O   UNL A   1      42.535  20.245  26.325  1.00  0.00    -0.246 OA
BRANCH  32  34
ATOM     34  C   UNL A   1      41.717  22.189  27.386  1.00  0.00     0.060 A 
ATOM     35  C   UNL A   1      41.274  23.176  26.496  1.00  0.00     0.016 A 
ATOM     36  C   UNL A   1      42.314  22.532  28.599  1.00  0.00     0.016 A 
ATOM     37  C   UNL A   1      41.476  24.518  26.790  1.00  0.00     0.010 A 
ATOM     38  C   UNL A   1      42.534  23.881  28.884  1.00  0.00     0.010 A 
ATOM     39  C   UNL A   1      42.155  24.873  27.960  1.00  0.00    -0.014 A 
BRANCH  39  40
ATOM     40  C   UNL A   1      42.633  26.266  28.109  1.00  0.00     0.031 A 
ATOM     41  C   UNL A   1      43.999  26.617  27.589  1.00  0.00     0.074 A 
ATOM     42  C   UNL A   1      41.839  27.208  28.644  1.00  0.00     0.049 A 
ATOM     43  N   UNL A   1      44.647  27.750  27.656  1.00  0.00    -0.248 NA
ATOM     44  C   UNL A   1      44.732  25.541  26.905  1.00  0.00     0.031 C 
ATOM     45  C   UNL A   1      40.471  26.989  29.110  1.00  0.00     0.029 A 
ATOM     46  N   UNL A   1      42.071  28.536  28.888  1.00  0.00    -0.354 N 
ATOM     47  C   UNL A   1      45.872  27.520  27.036  1.00  0.00     0.074 A 
ATOM     48  C   UNL A   1      45.887  26.130  26.635  1.00  0.00     0.031 C 
ATOM     49  C   UNL A   1      39.987  28.145  29.594  1.00  0.00     0.029 A 
ATOM     50  C   UNL A   1      41.028  29.169  29.519  1.00  0.00     0.049 A 
ATOM     51  H   UNL A   1      42.905  28.994  28.633  1.00  0.00     0.167 HD
ATOM     52  C   UNL A   1      46.885  28.396  26.819  1.00  0.00     0.034 A 
ATOM     53  C   UNL A   1      40.940  30.420  30.014  1.00  0.00     0.034 A 
ATOM     54  C   UNL A   1      46.846  29.775  27.239  1.00  0.00     0.049 A 
ATOM     55  C   UNL A   1      42.120  31.347  29.856  1.00  0.00     0.074 A 
ATOM     56  C   UNL A   1      47.806  30.756  27.065  1.00  0.00     0.029 A 
ATOM     57  N   UNL A   1      45.796  30.368  27.932  1.00  0.00    -0.354 N 
ATOM     58  N   UNL A   1      43.278  31.122  29.276  1.00  0.00    -0.248 NA
ATOM     59  C   UNL A   1      41.979  32.698  30.413  1.00  0.00     0.031 C 
ATOM     60  C   UNL A   1      47.378  31.909  27.731  1.00  0.00     0.029 A 
ATOM     61  C   UNL A   1      46.106  31.686  28.232  1.00  0.00     0.049 A 
ATOM     62  H   UNL A   1      44.955  29.917  28.176  1.00  0.00     0.167 HD
ATOM     63  C   UNL A   1      43.989  32.317  29.369  1.00  0.00     0.074 A 
ATOM     64  C   UNL A   1      43.124  33.259  30.051  1.00  0.00     0.031 C 
ATOM     65  C   UNL A   1      45.237  32.612  28.923  1.00  0.00     0.034 A 
BRANCH  52  66
ATOM     66  C   UNL A   1      48.137  27.863  26.162  1.00  0.00     0.023 A 
ATOM     67  C   UNL A   1      48.337  27.932  24.773  1.00  0.00     0.031 A 
ATOM     68  C   UNL A   1      49.132  27.242  26.939  1.00  0.00     0.131 A 
ATOM     69  C   UNL A   1      49.462  27.321  24.197  1.00  0.00     0.055 A 
ATOM     70  C   UNL A   1      50.292  26.718  26.368  1.00  0.00     0.041 A 
ATOM     71  F   UNL A   1      48.985  27.119  28.267  1.00  0.00    -0.206 F 
ATOM     72  C   UNL A   1      50.456  26.740  24.987  1.00  0.00     0.022 A 
BRANCH  69  73
ATOM     73  S   UNL A   1      49.525  27.149  22.391  1.00  0.00     0.124 S 
ATOM     74  O   UNL A   1      48.583  26.057  22.166  1.00  0.00    -0.237 OA
ATOM     75  O   UNL A   1      49.098  28.467  21.935  1.00  0.00    -0.237 OA
ATOM     76  O   UNL A   1      50.924  26.820  22.127  1.00  0.00    -0.744 OA
ENDBRANCH  69  73
ENDBRANCH  52  66
BRANCH  53  77
ATOM     77  C   UNL A   1      39.715  30.853  30.743  1.00  0.00     0.023 A 
ATOM     78  C   UNL A   1      39.707  30.984  32.139  1.00  0.00     0.031 A 
ATOM     79  C   UNL A   1      38.515  31.106  30.050  1.00  0.00     0.131 A 
ATOM     80  C   UNL A   1      38.515  31.315  32.803  1.00  0.00     0.055 A 
ATOM     81  C   UNL A   1      37.349  31.495  30.710  1.00  0.00     0.041 A 
ATOM     82  F   UNL A   1      38.466  30.993  28.713  1.00  0.00    -0.206 F 
ATOM     83  C   UNL A   1      37.341  31.588  32.097  1.00  0.00     0.022 A 
BRANCH  80  84
ATOM     84  S   UNL A   1      38.497  31.293  34.616  1.00  0.00     0.124 S 
ATOM     85  O   UNL A   1      37.197  31.885  34.906  1.00  0.00    -0.237 OA
ATOM     86  O   UNL A   1      38.633  29.869  34.903  1.00  0.00    -0.237 OA
ATOM     87  O   UNL A   1      39.653  32.113  34.977  1.00  0.00    -0.744 OA
ENDBRANCH  80  84
ENDBRANCH  53  77
BRANCH  65  88
ATOM     88  C   UNL A   1      45.722  34.031  29.109  1.00  0.00     0.023 A 
ATOM     89  C   UNL A   1      45.562  35.012  28.115  1.00  0.00     0.031 A 
ATOM     90  C   UNL A   1      46.355  34.406  30.309  1.00  0.00     0.131 A 
ATOM     91  C   UNL A   1      46.077  36.301  28.316  1.00  0.00     0.055 A 
ATOM     92  C   UNL A   1      46.800  35.709  30.532  1.00  0.00     0.041 A 
ATOM     93  F   UNL A   1      46.542  33.510  31.292  1.00  0.00    -0.206 F 
ATOM     94  C   UNL A   1      46.675  36.663  29.526  1.00  0.00     0.022 A 
BRANCH  91  95
ATOM     95  S   UNL A   1      46.051  37.475  26.933  1.00  0.00     0.124 S 
ATOM     96  O   UNL A   1      46.432  36.626  25.810  1.00  0.00    -0.237 OA
ATOM     97  O   UNL A   1      44.668  37.939  26.942  1.00  0.00    -0.237 OA
ATOM     98  O   UNL A   1      47.043  38.478  27.317  1.00  0.00    -0.744 OA
ENDBRANCH  91  95
ENDBRANCH  65  88
ENDBRANCH  39  40
ENDBRANCH  32  34
ENDBRANCH  31  32
ENDBRANCH  30  31
ENDBRANCH  29  30
ENDBRANCH  28  29
ENDBRANCH   1  28
TORSDOF 21
ENDMDL
