MODEL 1
REMARK VINA RESULT:     -11.8      0.000      0.000
REMARK SMILES CC1(C)CC[C@@]2(C(=O)OCCOCCOC(=O)c3ccc(-c4c5nc(c(-c6cc(S(=O)(=O)[O-])ccc6F)c6ccc([nH]6)c(-c6cc(S(=O)(=O)[O-])ccc6F)c6nc(c(-c7cc(S(=O)(=O)[O-])ccc7F)c7ccc4[nH]7)C=C6)C=C5)cc3)CC[C@@]3(C)C(=CC[C@H]4[C@@]5(C)CC[C@H](O)C(C)(C)[C@@H]5CC[C@@]43C)[C@@H]2C1
REMARK SMILES IDX 13 1 12 2 11 3 10 4 9 5 7 6 8 7 6 8 1 9 2 10 3 11 4 12
REMARK SMILES IDX 104 13 5 14 103 15 85 16 81 17 83 18 86 19 82 20 84 21
REMARK SMILES IDX 101 22 87 23 88 24 100 25 102 26 89 27 99 28 90 29 91 30
REMARK SMILES IDX 98 31 92 32 95 33 93 34 96 35 97 36 94 37 14 39 15 40 16 41
REMARK SMILES IDX 17 42 18 43 19 44 80 45 20 46 79 47 21 48 22 49 23 50 73 51
REMARK SMILES IDX 24 52 78 53 72 54 74 55 25 56 77 57 71 58 70 59 26 61 58 62
REMARK SMILES IDX 38 63 57 64 39 65 42 66 56 67 75 68 40 69 41 70 55 72 76 73
REMARK SMILES IDX 43 74 27 75 28 76 36 77 29 78 35 79 37 80 34 81 30 82 31 83
REMARK SMILES IDX 32 84 33 85 59 86 60 87 68 88 61 89 67 90 69 91 66 92 62 93
REMARK SMILES IDX 63 94 64 95 65 96 44 97 45 98 53 99 46 100 52 101 54 102
REMARK SMILES IDX 51 103 47 104 48 105 49 106 50 107
REMARK H PARENT 94 38 74 60 42 71
REMARK Flexibility Score: inf
ROOT
ATOM      1  C   UNL A   1      45.242  32.927  33.378  1.00  0.00     0.202 C 
ENDROOT
BRANCH   1   2
ATOM      2  O   UNL A   1      43.592  32.667  32.987  1.00  0.00    -0.374 OA
BRANCH   2   3
ATOM      3  C   UNL A   1      42.387  31.378  33.525  1.00  0.00     0.202 C 
BRANCH   3   4
ATOM      4  C   UNL A   1      40.454  31.361  32.620  1.00  0.00     0.261 C 
BRANCH   4   5
ATOM      5  O   UNL A   1      39.878  30.230  31.580  1.00  0.00    -0.463 OA
BRANCH   5   6
ATOM      6  C   UNL A   1      39.707  29.972  30.259  1.00  0.00     0.312 C 
ATOM      7  O   UNL A   1      40.264  30.650  29.397  1.00  0.00    -0.252 OA
BRANCH   6   8
ATOM      8  C   UNL A   1      38.771  28.829  29.887  1.00  0.00     0.075 C 
ATOM      9  C   UNL A   1      35.939  31.243  28.257  1.00  0.00     0.011 C 
ATOM     10  C   UNL A   1      37.324  31.119  28.903  1.00  0.00    -0.035 C 
ATOM     11  C   UNL A   1      37.882  32.563  29.094  1.00  0.00     0.011 C 
ATOM     12  C   UNL A   1      37.068  30.588  30.333  1.00  0.00     0.007 C 
ATOM     13  C   UNL A   1      38.276  30.241  27.900  1.00  0.00     0.015 C 
ATOM     14  C   UNL A   1      37.377  29.122  30.451  1.00  0.00     0.020 C 
ATOM     15  C   UNL A   1      38.819  28.764  28.359  1.00  0.00     0.033 C 
ATOM     16  C   UNL A   1      40.364  28.182  27.962  1.00  0.00    -0.063 C 
ATOM     17  C   UNL A   1      39.259  27.552  30.531  1.00  0.00     0.020 C 
ATOM     18  C   UNL A   1      41.499  28.265  29.499  1.00  0.00    -0.006 C 
ATOM     19  C   UNL A   1      40.925  28.307  26.607  1.00  0.00    -0.027 C 
ATOM     20  C   UNL A   1      40.732  27.787  30.831  1.00  0.00     0.013 C 
ATOM     21  C   UNL A   1      41.697  26.437  29.143  1.00  0.00     0.017 C 
ATOM     22  C   UNL A   1      43.093  29.753  29.349  1.00  0.00    -0.020 C 
ATOM     23  C   UNL A   1      42.479  29.270  26.152  1.00  0.00     0.032 C 
ATOM     24  C   UNL A   1      43.618  30.112  27.454  1.00  0.00     0.006 C 
ATOM     25  C   UNL A   1      44.782  29.807  29.719  1.00  0.00     0.008 C 
ATOM     26  C   UNL A   1      42.751  31.035  29.982  1.00  0.00     0.012 C 
ATOM     27  C   UNL A   1      44.509  31.400  27.097  1.00  0.00    -0.025 C 
ATOM     28  C   UNL A   1      45.504  31.200  29.468  1.00  0.00     0.005 C 
ATOM     29  C   UNL A   1      45.797  30.860  26.382  1.00  0.00     0.012 C 
ATOM     30  C   UNL A   1      43.801  32.356  26.126  1.00  0.00     0.010 C 
ATOM     31  C   UNL A   1      44.942  32.166  28.382  1.00  0.00     0.003 C 
ATOM     32  C   UNL A   1      44.669  33.567  25.773  1.00  0.00     0.033 C 
ATOM     33  C   UNL A   1      45.775  33.495  28.169  1.00  0.00    -0.006 C 
ATOM     34  C   UNL A   1      45.150  34.336  27.002  1.00  0.00     0.120 C 
ATOM     35  C   UNL A   1      47.293  33.275  28.031  1.00  0.00     0.014 C 
ATOM     36  C   UNL A   1      45.661  34.386  29.440  1.00  0.00     0.014 C 
BRANCH  34  37
ATOM     37  O   UNL A   1      46.024  35.375  26.580  1.00  0.00    -0.393 OA
ATOM     38  H   UNL A   1      45.578  35.922  25.915  1.00  0.00     0.210 HD
ENDBRANCH  34  37
ENDBRANCH   6   8
ENDBRANCH   5   6
ENDBRANCH   4   5
ENDBRANCH   3   4
ENDBRANCH   2   3
ENDBRANCH   1   2
BRANCH   1  39
ATOM     39  C   UNL A   1      46.487  34.239  33.772  1.00  0.00     0.261 C 
BRANCH  39  40
ATOM     40  O   UNL A   1      47.908  34.209  34.518  1.00  0.00    -0.460 OA
BRANCH  40  41
ATOM     41  C   UNL A   1      49.167  33.960  33.901  1.00  0.00     0.338 C 
ATOM     42  O   UNL A   1      50.168  34.533  34.335  1.00  0.00    -0.246 OA
BRANCH  41  43
ATOM     43  C   UNL A   1      49.453  32.773  32.796  1.00  0.00     0.060 A 
ATOM     44  C   UNL A   1      48.969  32.697  31.483  1.00  0.00     0.016 A 
ATOM     45  C   UNL A   1      49.899  31.510  33.225  1.00  0.00     0.016 A 
ATOM     46  C   UNL A   1      48.536  31.463  30.851  1.00  0.00     0.010 A 
ATOM     47  C   UNL A   1      49.678  30.279  32.478  1.00  0.00     0.010 A 
ATOM     48  C   UNL A   1      48.824  30.193  31.360  1.00  0.00    -0.014 A 
BRANCH  48  49
ATOM     49  C   UNL A   1      48.202  28.840  30.861  1.00  0.00     0.031 A 
ATOM     50  C   UNL A   1      48.514  28.329  29.427  1.00  0.00     0.074 A 
ATOM     51  C   UNL A   1      47.477  27.947  31.603  1.00  0.00     0.049 A 
ATOM     52  N   UNL A   1      47.988  27.340  28.729  1.00  0.00    -0.248 NA
ATOM     53  C   UNL A   1      49.598  29.008  28.705  1.00  0.00     0.031 C 
ATOM     54  C   UNL A   1      47.197  28.021  33.037  1.00  0.00     0.029 A 
ATOM     55  N   UNL A   1      46.822  26.766  31.236  1.00  0.00    -0.354 N 
ATOM     56  C   UNL A   1      48.687  27.286  27.516  1.00  0.00     0.074 A 
ATOM     57  C   UNL A   1      49.661  28.348  27.560  1.00  0.00     0.031 C 
ATOM     58  C   UNL A   1      46.462  26.963  33.419  1.00  0.00     0.029 A 
ATOM     59  C   UNL A   1      46.066  26.191  32.246  1.00  0.00     0.049 A 
ATOM     60  H   UNL A   1      46.893  26.375  30.336  1.00  0.00     0.167 HD
ATOM     61  C   UNL A   1      48.541  26.469  26.438  1.00  0.00     0.034 A 
ATOM     62  C   UNL A   1      45.095  25.240  32.253  1.00  0.00     0.034 A 
ATOM     63  C   UNL A   1      47.515  25.464  26.306  1.00  0.00     0.049 A 
ATOM     64  C   UNL A   1      44.684  24.576  30.957  1.00  0.00     0.074 A 
ATOM     65  C   UNL A   1      47.172  24.715  25.190  1.00  0.00     0.029 A 
ATOM     66  N   UNL A   1      46.638  25.090  27.311  1.00  0.00    -0.354 N 
ATOM     67  N   UNL A   1      45.239  24.663  29.771  1.00  0.00    -0.248 NA
ATOM     68  C   UNL A   1      43.497  23.704  30.994  1.00  0.00     0.031 C 
ATOM     69  C   UNL A   1      46.010  23.993  25.484  1.00  0.00     0.029 A 
ATOM     70  C   UNL A   1      45.706  24.188  26.819  1.00  0.00     0.049 A 
ATOM     71  H   UNL A   1      46.672  25.417  28.239  1.00  0.00     0.167 HD
ATOM     72  C   UNL A   1      44.487  23.840  28.934  1.00  0.00     0.074 A 
ATOM     73  C   UNL A   1      43.451  23.248  29.751  1.00  0.00     0.031 C 
ATOM     74  C   UNL A   1      44.651  23.598  27.608  1.00  0.00     0.034 A 
BRANCH  61  75
ATOM     75  C   UNL A   1      49.410  26.755  25.226  1.00  0.00     0.023 A 
ATOM     76  C   UNL A   1      48.945  27.438  24.086  1.00  0.00     0.031 A 
ATOM     77  C   UNL A   1      50.738  26.284  25.212  1.00  0.00     0.131 A 
ATOM     78  C   UNL A   1      49.791  27.594  22.971  1.00  0.00     0.055 A 
ATOM     79  C   UNL A   1      51.590  26.497  24.129  1.00  0.00     0.041 A 
ATOM     80  F   UNL A   1      51.227  25.597  26.257  1.00  0.00    -0.206 F 
ATOM     81  C   UNL A   1      51.115  27.146  22.997  1.00  0.00     0.022 A 
BRANCH  78  82
ATOM     82  S   UNL A   1      49.116  28.278  21.428  1.00  0.00     0.124 S 
ATOM     83  O   UNL A   1      47.765  28.659  21.831  1.00  0.00    -0.237 OA
ATOM     84  O   UNL A   1      50.032  29.374  21.139  1.00  0.00    -0.237 OA
ATOM     85  O   UNL A   1      49.181  27.152  20.497  1.00  0.00    -0.744 OA
ENDBRANCH  78  82
ENDBRANCH  61  75
BRANCH  62  86
ATOM     86  C   UNL A   1      44.281  24.972  33.499  1.00  0.00     0.023 A 
ATOM     87  C   UNL A   1      43.416  25.928  34.070  1.00  0.00     0.031 A 
ATOM     88  C   UNL A   1      44.456  23.765  34.207  1.00  0.00     0.131 A 
ATOM     89  C   UNL A   1      42.784  25.664  35.303  1.00  0.00     0.055 A 
ATOM     90  C   UNL A   1      43.770  23.478  35.389  1.00  0.00     0.041 A 
ATOM     91  F   UNL A   1      45.308  22.830  33.757  1.00  0.00    -0.206 F 
ATOM     92  C   UNL A   1      42.936  24.435  35.949  1.00  0.00     0.022 A 
BRANCH  89  93
ATOM     93  S   UNL A   1      41.837  26.983  36.122  1.00  0.00     0.124 S 
ATOM     94  O   UNL A   1      41.005  26.223  37.046  1.00  0.00    -0.237 OA
ATOM     95  O   UNL A   1      42.895  27.789  36.721  1.00  0.00    -0.237 OA
ATOM     96  O   UNL A   1      41.121  27.623  35.019  1.00  0.00    -0.744 OA
ENDBRANCH  89  93
ENDBRANCH  62  86
BRANCH  74  97
ATOM     97  C   UNL A   1      43.721  22.597  26.959  1.00  0.00     0.023 A 
ATOM     98  C   UNL A   1      44.146  21.306  26.602  1.00  0.00     0.031 A 
ATOM     99  C   UNL A   1      42.399  22.962  26.642  1.00  0.00     0.131 A 
ATOM    100  C   UNL A   1      43.294  20.465  25.866  1.00  0.00     0.055 A 
ATOM    101  C   UNL A   1      41.527  22.089  25.987  1.00  0.00     0.041 A 
ATOM    102  F   UNL A   1      41.932  24.182  26.951  1.00  0.00    -0.206 F 
ATOM    103  C   UNL A   1      41.981  20.842  25.574  1.00  0.00     0.022 A 
BRANCH 100 104
ATOM    104  S   UNL A   1      43.980  18.944  25.152  1.00  0.00     0.124 S 
ATOM    105  O   UNL A   1      45.315  18.910  25.739  1.00  0.00    -0.237 OA
ATOM    106  O   UNL A   1      43.048  17.927  25.629  1.00  0.00    -0.237 OA
ATOM    107  O   UNL A   1      43.941  19.194  23.712  1.00  0.00    -0.744 OA
ENDBRANCH 100 104
ENDBRANCH  74  97
ENDBRANCH  48  49
ENDBRANCH  41  43
ENDBRANCH  40  41
ENDBRANCH  39  40
ENDBRANCH   1  39
TORSDOF 18
ENDMDL
MODEL 2
REMARK VINA RESULT:     -11.4      5.035     11.173
REMARK SMILES CC1(C)CC[C@@]2(C(=O)OCCOCCOC(=O)c3ccc(-c4c5nc(c(-c6cc(S(=O)(=O)[O-])ccc6F)c6ccc([nH]6)c(-c6cc(S(=O)(=O)[O-])ccc6F)c6nc(c(-c7cc(S(=O)(=O)[O-])ccc7F)c7ccc4[nH]7)C=C6)C=C5)cc3)CC[C@@]3(C)C(=CC[C@H]4[C@@]5(C)CC[C@H](O)C(C)(C)[C@@H]5CC[C@@]43C)[C@@H]2C1
REMARK SMILES IDX 13 1 12 2 11 3 10 4 9 5 7 6 8 7 6 8 1 9 2 10 3 11 4 12
REMARK SMILES IDX 104 13 5 14 103 15 85 16 81 17 83 18 86 19 82 20 84 21
REMARK SMILES IDX 101 22 87 23 88 24 100 25 102 26 89 27 99 28 90 29 91 30
REMARK SMILES IDX 98 31 92 32 95 33 93 34 96 35 97 36 94 37 14 39 15 40 16 41
REMARK SMILES IDX 17 42 18 43 19 44 80 45 20 46 79 47 21 48 22 49 23 50 73 51
REMARK SMILES IDX 24 52 78 53 72 54 74 55 25 56 77 57 71 58 70 59 26 61 58 62
REMARK SMILES IDX 38 63 57 64 39 65 42 66 56 67 75 68 40 69 41 70 55 72 76 73
REMARK SMILES IDX 43 74 27 75 28 76 36 77 29 78 35 79 37 80 34 81 30 82 31 83
REMARK SMILES IDX 32 84 33 85 59 86 60 87 68 88 61 89 67 90 69 91 66 92 62 93
REMARK SMILES IDX 63 94 64 95 65 96 44 97 45 98 53 99 46 100 52 101 54 102
REMARK SMILES IDX 51 103 47 104 48 105 49 106 50 107
REMARK H PARENT 94 38 74 60 42 71
REMARK Flexibility Score: inf
ROOT
ATOM      1  C   UNL A   1      36.743  29.258  29.723  1.00  0.00     0.202 C 
ENDROOT
BRANCH   1   2
ATOM      2  O   UNL A   1      36.462  29.439  31.405  1.00  0.00    -0.374 OA
BRANCH   2   3
ATOM      3  C   UNL A   1      37.365  30.376  32.712  1.00  0.00     0.202 C 
BRANCH   3   4
ATOM      4  C   UNL A   1      39.027  29.435  33.666  1.00  0.00     0.261 C 
BRANCH   4   5
ATOM      5  O   UNL A   1      40.609  29.629  33.275  1.00  0.00    -0.463 OA
BRANCH   5   6
ATOM      6  C   UNL A   1      41.814  29.010  33.335  1.00  0.00     0.312 C 
ATOM      7  O   UNL A   1      41.996  27.912  32.810  1.00  0.00    -0.252 OA
BRANCH   6   8
ATOM      8  C   UNL A   1      42.924  29.715  34.105  1.00  0.00     0.075 C 
ATOM      9  C   UNL A   1      43.253  26.812  36.930  1.00  0.00     0.011 C 
ATOM     10  C   UNL A   1      42.596  27.290  35.630  1.00  0.00    -0.035 C 
ATOM     11  C   UNL A   1      41.514  26.237  35.238  1.00  0.00     0.011 C 
ATOM     12  C   UNL A   1      41.806  28.564  36.009  1.00  0.00     0.007 C 
ATOM     13  C   UNL A   1      43.760  27.403  34.483  1.00  0.00     0.015 C 
ATOM     14  C   UNL A   1      42.520  29.816  35.580  1.00  0.00     0.020 C 
ATOM     15  C   UNL A   1      44.171  28.863  33.864  1.00  0.00     0.033 C 
ATOM     16  C   UNL A   1      44.588  29.093  32.233  1.00  0.00    -0.063 C 
ATOM     17  C   UNL A   1      43.080  31.123  33.583  1.00  0.00     0.020 C 
ATOM     18  C   UNL A   1      43.138  29.931  31.310  1.00  0.00    -0.006 C 
ATOM     19  C   UNL A   1      45.508  28.190  31.524  1.00  0.00    -0.027 C 
ATOM     20  C   UNL A   1      42.475  31.107  32.187  1.00  0.00     0.013 C 
ATOM     21  C   UNL A   1      44.458  31.194  30.898  1.00  0.00     0.017 C 
ATOM     22  C   UNL A   1      42.141  28.638  29.857  1.00  0.00    -0.020 C 
ATOM     23  C   UNL A   1      45.067  27.138  30.023  1.00  0.00     0.032 C 
ATOM     24  C   UNL A   1      43.361  27.226  29.138  1.00  0.00     0.006 C 
ATOM     25  C   UNL A   1      41.553  28.808  28.239  1.00  0.00     0.008 C 
ATOM     26  C   UNL A   1      40.942  27.980  30.394  1.00  0.00     0.012 C 
ATOM     27  C   UNL A   1      42.755  25.974  28.336  1.00  0.00    -0.025 C 
ATOM     28  C   UNL A   1      40.827  27.534  27.627  1.00  0.00     0.005 C 
ATOM     29  C   UNL A   1      43.440  25.983  26.923  1.00  0.00     0.012 C 
ATOM     30  C   UNL A   1      43.080  24.631  29.005  1.00  0.00     0.010 C 
ATOM     31  C   UNL A   1      41.216  26.114  28.138  1.00  0.00     0.003 C 
ATOM     32  C   UNL A   1      42.520  23.443  28.218  1.00  0.00     0.033 C 
ATOM     33  C   UNL A   1      40.481  24.914  27.415  1.00  0.00    -0.006 C 
ATOM     34  C   UNL A   1      41.017  23.548  27.967  1.00  0.00     0.120 C 
ATOM     35  C   UNL A   1      40.483  25.005  25.877  1.00  0.00     0.014 C 
ATOM     36  C   UNL A   1      38.966  24.947  27.768  1.00  0.00     0.014 C 
BRANCH  34  37
ATOM     37  O   UNL A   1      40.611  22.458  27.150  1.00  0.00    -0.393 OA
ATOM     38  H   UNL A   1      39.983  22.771  26.480  1.00  0.00     0.210 HD
ENDBRANCH  34  37
ENDBRANCH   6   8
ENDBRANCH   5   6
ENDBRANCH   4   5
ENDBRANCH   3   4
ENDBRANCH   2   3
ENDBRANCH   1   2
BRANCH   1  39
ATOM     39  C   UNL A   1      36.154  29.792  28.052  1.00  0.00     0.261 C 
BRANCH  39  40
ATOM     40  O   UNL A   1      34.731  30.290  27.503  1.00  0.00    -0.460 OA
BRANCH  40  41
ATOM     41  C   UNL A   1      34.112  31.538  27.804  1.00  0.00     0.338 C 
ATOM     42  O   UNL A   1      32.960  31.741  27.418  1.00  0.00    -0.246 OA
BRANCH  41  43
ATOM     43  C   UNL A   1      34.718  32.658  28.846  1.00  0.00     0.060 A 
ATOM     44  C   UNL A   1      35.529  33.759  28.537  1.00  0.00     0.016 A 
ATOM     45  C   UNL A   1      34.795  32.368  30.221  1.00  0.00     0.016 A 
ATOM     46  C   UNL A   1      36.633  34.209  29.367  1.00  0.00     0.010 A 
ATOM     47  C   UNL A   1      35.749  32.992  31.126  1.00  0.00     0.010 A 
ATOM     48  C   UNL A   1      36.824  33.793  30.689  1.00  0.00    -0.014 A 
BRANCH  48  49
ATOM     49  C   UNL A   1      38.104  34.057  31.560  1.00  0.00     0.031 A 
ATOM     50  C   UNL A   1      39.458  34.379  30.866  1.00  0.00     0.074 A 
ATOM     51  C   UNL A   1      38.162  34.159  32.923  1.00  0.00     0.049 A 
ATOM     52  N   UNL A   1      40.680  34.461  31.355  1.00  0.00    -0.248 NA
ATOM     53  C   UNL A   1      39.407  34.688  29.431  1.00  0.00     0.031 C 
ATOM     54  C   UNL A   1      37.034  34.128  33.854  1.00  0.00     0.029 A 
ATOM     55  N   UNL A   1      39.252  34.313  33.787  1.00  0.00    -0.354 N 
ATOM     56  C   UNL A   1      41.513  34.841  30.295  1.00  0.00     0.074 A 
ATOM     57  C   UNL A   1      40.668  34.955  29.133  1.00  0.00     0.031 C 
ATOM     58  C   UNL A   1      37.474  34.266  35.117  1.00  0.00     0.029 A 
ATOM     59  C   UNL A   1      38.932  34.240  35.134  1.00  0.00     0.049 A 
ATOM     60  H   UNL A   1      40.170  34.460  33.465  1.00  0.00     0.167 HD
ATOM     61  C   UNL A   1      42.857  35.052  30.248  1.00  0.00     0.034 A 
ATOM     62  C   UNL A   1      39.677  34.069  36.258  1.00  0.00     0.034 A 
ATOM     63  C   UNL A   1      43.757  34.848  31.357  1.00  0.00     0.049 A 
ATOM     64  C   UNL A   1      41.182  33.946  36.151  1.00  0.00     0.074 A 
ATOM     65  C   UNL A   1      45.143  34.859  31.362  1.00  0.00     0.029 A 
ATOM     66  N   UNL A   1      43.363  34.559  32.653  1.00  0.00    -0.354 N 
ATOM     67  N   UNL A   1      41.954  34.131  35.107  1.00  0.00    -0.248 NA
ATOM     68  C   UNL A   1      41.913  33.564  37.371  1.00  0.00     0.031 C 
ATOM     69  C   UNL A   1      45.582  34.446  32.625  1.00  0.00     0.029 A 
ATOM     70  C   UNL A   1      44.475  34.308  33.443  1.00  0.00     0.049 A 
ATOM     71  H   UNL A   1      42.431  34.536  32.967  1.00  0.00     0.167 HD
ATOM     72  C   UNL A   1      43.258  33.916  35.552  1.00  0.00     0.074 A 
ATOM     73  C   UNL A   1      43.173  33.606  36.962  1.00  0.00     0.031 C 
ATOM     74  C   UNL A   1      44.418  33.976  34.847  1.00  0.00     0.034 A 
BRANCH  61  75
ATOM     75  C   UNL A   1      43.466  35.356  28.890  1.00  0.00     0.023 A 
ATOM     76  C   UNL A   1      43.763  34.363  27.938  1.00  0.00     0.031 A 
ATOM     77  C   UNL A   1      43.791  36.689  28.571  1.00  0.00     0.131 A 
ATOM     78  C   UNL A   1      44.400  34.718  26.733  1.00  0.00     0.055 A 
ATOM     79  C   UNL A   1      44.364  37.042  27.350  1.00  0.00     0.041 A 
ATOM     80  F   UNL A   1      43.561  37.675  29.454  1.00  0.00    -0.206 F 
ATOM     81  C   UNL A   1      44.682  36.053  26.428  1.00  0.00     0.022 A 
BRANCH  78  82
ATOM     82  S   UNL A   1      44.979  33.411  25.611  1.00  0.00     0.124 S 
ATOM     83  O   UNL A   1      43.947  32.391  25.776  1.00  0.00    -0.237 OA
ATOM     84  O   UNL A   1      45.008  34.090  24.321  1.00  0.00    -0.237 OA
ATOM     85  O   UNL A   1      46.289  33.049  26.151  1.00  0.00    -0.744 OA
ENDBRANCH  78  82
ENDBRANCH  61  75
BRANCH  62  86
ATOM     86  C   UNL A   1      39.017  33.802  37.593  1.00  0.00     0.023 A 
ATOM     87  C   UNL A   1      38.407  32.573  37.914  1.00  0.00     0.031 A 
ATOM     88  C   UNL A   1      38.892  34.844  38.535  1.00  0.00     0.131 A 
ATOM     89  C   UNL A   1      37.696  32.430  39.124  1.00  0.00     0.055 A 
ATOM     90  C   UNL A   1      38.252  34.674  39.764  1.00  0.00     0.041 A 
ATOM     91  F   UNL A   1      39.397  36.061  38.275  1.00  0.00    -0.206 F 
ATOM     92  C   UNL A   1      37.640  33.465  40.060  1.00  0.00     0.022 A 
BRANCH  89  93
ATOM     93  S   UNL A   1      36.746  30.909  39.428  1.00  0.00     0.124 S 
ATOM     94  O   UNL A   1      35.404  31.435  39.648  1.00  0.00    -0.237 OA
ATOM     95  O   UNL A   1      36.953  30.169  38.188  1.00  0.00    -0.237 OA
ATOM     96  O   UNL A   1      37.392  30.334  40.607  1.00  0.00    -0.744 OA
ENDBRANCH  89  93
ENDBRANCH  62  86
BRANCH  74  97
ATOM     97  C   UNL A   1      45.709  33.762  35.605  1.00  0.00     0.023 A 
ATOM     98  C   UNL A   1      46.282  32.487  35.757  1.00  0.00     0.031 A 
ATOM     99  C   UNL A   1      46.349  34.846  36.233  1.00  0.00     0.131 A 
ATOM    100  C   UNL A   1      47.396  32.315  36.594  1.00  0.00     0.055 A 
ATOM    101  C   UNL A   1      47.508  34.682  36.993  1.00  0.00     0.041 A 
ATOM    102  F   UNL A   1      45.850  36.089  36.131  1.00  0.00    -0.206 F 
ATOM    103  C   UNL A   1      48.025  33.407  37.197  1.00  0.00     0.022 A 
BRANCH 100 104
ATOM    104  S   UNL A   1      47.911  30.626  37.019  1.00  0.00     0.124 S 
ATOM    105  O   UNL A   1      47.174  30.389  38.255  1.00  0.00    -0.237 OA
ATOM    106  O   UNL A   1      47.469  29.864  35.856  1.00  0.00    -0.237 OA
ATOM    107  O   UNL A   1      49.360  30.739  37.172  1.00  0.00    -0.744 OA
ENDBRANCH 100 104
ENDBRANCH  74  97
ENDBRANCH  48  49
ENDBRANCH  41  43
ENDBRANCH  40  41
ENDBRANCH  39  40
ENDBRANCH   1  39
TORSDOF 18
ENDMDL
MODEL 3
REMARK VINA RESULT:     -11.3      5.460     12.460
REMARK SMILES CC1(C)CC[C@@]2(C(=O)OCCOCCOC(=O)c3ccc(-c4c5nc(c(-c6cc(S(=O)(=O)[O-])ccc6F)c6ccc([nH]6)c(-c6cc(S(=O)(=O)[O-])ccc6F)c6nc(c(-c7cc(S(=O)(=O)[O-])ccc7F)c7ccc4[nH]7)C=C6)C=C5)cc3)CC[C@@]3(C)C(=CC[C@H]4[C@@]5(C)CC[C@H](O)C(C)(C)[C@@H]5CC[C@@]43C)[C@@H]2C1
REMARK SMILES IDX 13 1 12 2 11 3 10 4 9 5 7 6 8 7 6 8 1 9 2 10 3 11 4 12
REMARK SMILES IDX 104 13 5 14 103 15 85 16 81 17 83 18 86 19 82 20 84 21
REMARK SMILES IDX 101 22 87 23 88 24 100 25 102 26 89 27 99 28 90 29 91 30
REMARK SMILES IDX 98 31 92 32 95 33 93 34 96 35 97 36 94 37 14 39 15 40 16 41
REMARK SMILES IDX 17 42 18 43 19 44 80 45 20 46 79 47 21 48 22 49 23 50 73 51
REMARK SMILES IDX 24 52 78 53 72 54 74 55 25 56 77 57 71 58 70 59 26 61 58 62
REMARK SMILES IDX 38 63 57 64 39 65 42 66 56 67 75 68 40 69 41 70 55 72 76 73
REMARK SMILES IDX 43 74 27 75 28 76 36 77 29 78 35 79 37 80 34 81 30 82 31 83
REMARK SMILES IDX 32 84 33 85 59 86 60 87 68 88 61 89 67 90 69 91 66 92 62 93
REMARK SMILES IDX 63 94 64 95 65 96 44 97 45 98 53 99 46 100 52 101 54 102
REMARK SMILES IDX 51 103 47 104 48 105 49 106 50 107
REMARK H PARENT 94 38 74 60 42 71
REMARK Flexibility Score: inf
ROOT
ATOM      1  C   UNL A   1      46.906  32.116  26.581  1.00  0.00     0.202 C 
ENDROOT
BRANCH   1   2
ATOM      2  O   UNL A   1      45.636  31.122  25.998  1.00  0.00    -0.374 OA
BRANCH   2   3
ATOM      3  C   UNL A   1      44.079  30.523  26.785  1.00  0.00     0.202 C 
BRANCH   3   4
ATOM      4  C   UNL A   1      44.149  28.717  27.921  1.00  0.00     0.261 C 
BRANCH   4   5
ATOM      5  O   UNL A   1      42.907  27.673  28.163  1.00  0.00    -0.463 OA
BRANCH   5   6
ATOM      6  C   UNL A   1      41.720  27.547  28.807  1.00  0.00     0.312 C 
ATOM      7  O   UNL A   1      41.647  27.020  29.916  1.00  0.00    -0.252 OA
BRANCH   6   8
ATOM      8  C   UNL A   1      40.478  28.056  28.087  1.00  0.00     0.075 C 
ATOM      9  C   UNL A   1      39.214  24.360  26.967  1.00  0.00     0.011 C 
ATOM     10  C   UNL A   1      40.235  25.204  27.739  1.00  0.00    -0.035 C 
ATOM     11  C   UNL A   1      41.326  24.234  28.286  1.00  0.00     0.011 C 
ATOM     12  C   UNL A   1      40.953  26.064  26.672  1.00  0.00     0.007 C 
ATOM     13  C   UNL A   1      39.448  25.965  28.957  1.00  0.00     0.015 C 
ATOM     14  C   UNL A   1      40.455  27.483  26.666  1.00  0.00     0.020 C 
ATOM     15  C   UNL A   1      39.305  27.598  28.957  1.00  0.00     0.033 C 
ATOM     16  C   UNL A   1      39.377  28.534  30.372  1.00  0.00    -0.063 C 
ATOM     17  C   UNL A   1      40.550  29.560  27.966  1.00  0.00     0.020 C 
ATOM     18  C   UNL A   1      41.070  29.417  30.476  1.00  0.00    -0.006 C 
ATOM     19  C   UNL A   1      38.647  28.163  31.595  1.00  0.00    -0.027 C 
ATOM     20  C   UNL A   1      41.521  30.007  29.048  1.00  0.00     0.013 C 
ATOM     21  C   UNL A   1      39.988  30.941  30.591  1.00  0.00     0.017 C 
ATOM     22  C   UNL A   1      42.365  28.673  32.072  1.00  0.00    -0.020 C 
ATOM     23  C   UNL A   1      39.436  27.750  33.256  1.00  0.00     0.032 C 
ATOM     24  C   UNL A   1      41.324  27.900  33.594  1.00  0.00     0.006 C 
ATOM     25  C   UNL A   1      43.393  29.381  33.270  1.00  0.00     0.008 C 
ATOM     26  C   UNL A   1      43.329  27.662  31.613  1.00  0.00     0.012 C 
ATOM     27  C   UNL A   1      42.064  26.996  34.696  1.00  0.00    -0.025 C 
ATOM     28  C   UNL A   1      44.193  28.361  34.188  1.00  0.00     0.005 C 
ATOM     29  C   UNL A   1      41.806  27.690  36.080  1.00  0.00     0.012 C 
ATOM     30  C   UNL A   1      41.493  25.573  34.772  1.00  0.00     0.010 C 
ATOM     31  C   UNL A   1      43.602  26.943  34.450  1.00  0.00     0.003 C 
ATOM     32  C   UNL A   1      42.189  24.729  35.844  1.00  0.00     0.033 C 
ATOM     33  C   UNL A   1      44.446  26.033  35.431  1.00  0.00    -0.006 C 
ATOM     34  C   UNL A   1      43.705  24.672  35.669  1.00  0.00     0.120 C 
ATOM     35  C   UNL A   1      44.881  26.737  36.730  1.00  0.00     0.014 C 
ATOM     36  C   UNL A   1      45.800  25.665  34.759  1.00  0.00     0.014 C 
BRANCH  34  37
ATOM     37  O   UNL A   1      44.266  23.954  36.760  1.00  0.00    -0.393 OA
ATOM     38  H   UNL A   1      45.201  24.193  36.859  1.00  0.00     0.210 HD
ENDBRANCH  34  37
ENDBRANCH   6   8
ENDBRANCH   5   6
ENDBRANCH   4   5
ENDBRANCH   3   4
ENDBRANCH   2   3
ENDBRANCH   1   2
BRANCH   1  39
ATOM     39  C   UNL A   1      47.602  33.830  26.515  1.00  0.00     0.261 C 
BRANCH  39  40
ATOM     40  O   UNL A   1      47.254  35.182  27.309  1.00  0.00    -0.460 OA
BRANCH  40  41
ATOM     41  C   UNL A   1      46.118  36.011  27.084  1.00  0.00     0.338 C 
ATOM     42  O   UNL A   1      46.162  36.853  26.185  1.00  0.00    -0.246 OA
BRANCH  41  43
ATOM     43  C   UNL A   1      44.638  35.782  27.769  1.00  0.00     0.060 A 
ATOM     44  C   UNL A   1      43.940  36.663  28.606  1.00  0.00     0.016 A 
ATOM     45  C   UNL A   1      44.114  34.481  27.886  1.00  0.00     0.016 A 
ATOM     46  C   UNL A   1      43.160  36.240  29.755  1.00  0.00     0.010 A 
ATOM     47  C   UNL A   1      43.140  34.091  28.895  1.00  0.00     0.010 A 
ATOM     48  C   UNL A   1      42.776  34.914  29.981  1.00  0.00    -0.014 A 
BRANCH  48  49
ATOM     49  C   UNL A   1      42.135  34.354  31.301  1.00  0.00     0.031 A 
ATOM     50  C   UNL A   1      40.589  34.330  31.460  1.00  0.00     0.074 A 
ATOM     51  C   UNL A   1      42.790  33.745  32.337  1.00  0.00     0.049 A 
ATOM     52  N   UNL A   1      39.833  34.081  32.512  1.00  0.00    -0.248 NA
ATOM     53  C   UNL A   1      39.797  34.584  30.249  1.00  0.00     0.031 C 
ATOM     54  C   UNL A   1      44.214  33.412  32.400  1.00  0.00     0.029 A 
ATOM     55  N   UNL A   1      42.326  33.288  33.575  1.00  0.00    -0.354 N 
ATOM     56  C   UNL A   1      38.503  34.137  32.075  1.00  0.00     0.074 A 
ATOM     57  C   UNL A   1      38.550  34.461  30.671  1.00  0.00     0.031 C 
ATOM     58  C   UNL A   1      44.496  32.813  33.570  1.00  0.00     0.029 A 
ATOM     59  C   UNL A   1      43.321  32.844  34.433  1.00  0.00     0.049 A 
ATOM     60  H   UNL A   1      41.372  33.281  33.817  1.00  0.00     0.167 HD
ATOM     61  C   UNL A   1      37.334  33.972  32.751  1.00  0.00     0.034 A 
ATOM     62  C   UNL A   1      43.350  32.586  35.767  1.00  0.00     0.034 A 
ATOM     63  C   UNL A   1      37.236  33.751  34.174  1.00  0.00     0.049 A 
ATOM     64  C   UNL A   1      42.092  32.754  36.593  1.00  0.00     0.074 A 
ATOM     65  C   UNL A   1      36.105  33.752  34.975  1.00  0.00     0.029 A 
ATOM     66  N   UNL A   1      38.312  33.526  35.016  1.00  0.00    -0.354 N 
ATOM     67  N   UNL A   1      40.865  32.984  36.192  1.00  0.00    -0.248 NA
ATOM     68  C   UNL A   1      42.231  32.655  38.056  1.00  0.00     0.031 C 
ATOM     69  C   UNL A   1      36.512  33.663  36.312  1.00  0.00     0.029 A 
ATOM     70  C   UNL A   1      37.882  33.472  36.334  1.00  0.00     0.049 A 
ATOM     71  H   UNL A   1      39.245  33.421  34.723  1.00  0.00     0.167 HD
ATOM     72  C   UNL A   1      40.086  33.028  37.347  1.00  0.00     0.074 A 
ATOM     73  C   UNL A   1      40.975  32.783  38.461  1.00  0.00     0.031 C 
ATOM     74  C   UNL A   1      38.751  33.249  37.465  1.00  0.00     0.034 A 
BRANCH  61  75
ATOM     75  C   UNL A   1      36.046  34.208  31.983  1.00  0.00     0.023 A 
ATOM     76  C   UNL A   1      35.260  35.366  32.131  1.00  0.00     0.031 A 
ATOM     77  C   UNL A   1      35.584  33.209  31.104  1.00  0.00     0.131 A 
ATOM     78  C   UNL A   1      34.038  35.475  31.440  1.00  0.00     0.055 A 
ATOM     79  C   UNL A   1      34.403  33.350  30.374  1.00  0.00     0.041 A 
ATOM     80  F   UNL A   1      36.274  32.068  30.946  1.00  0.00    -0.206 F 
ATOM     81  C   UNL A   1      33.618  34.483  30.548  1.00  0.00     0.022 A 
BRANCH  78  82
ATOM     82  S   UNL A   1      32.926  36.866  31.805  1.00  0.00     0.124 S 
ATOM     83  O   UNL A   1      32.922  37.590  30.537  1.00  0.00    -0.237 OA
ATOM     84  O   UNL A   1      31.684  36.194  32.163  1.00  0.00    -0.237 OA
ATOM     85  O   UNL A   1      33.596  37.561  32.904  1.00  0.00    -0.744 OA
ENDBRANCH  78  82
ENDBRANCH  61  75
BRANCH  62  86
ATOM     86  C   UNL A   1      44.658  32.324  36.478  1.00  0.00     0.023 A 
ATOM     87  C   UNL A   1      45.650  33.312  36.649  1.00  0.00     0.031 A 
ATOM     88  C   UNL A   1      44.979  31.017  36.901  1.00  0.00     0.131 A 
ATOM     89  C   UNL A   1      46.900  32.971  37.205  1.00  0.00     0.055 A 
ATOM     90  C   UNL A   1      46.190  30.701  37.520  1.00  0.00     0.041 A 
ATOM     91  F   UNL A   1      44.109  30.011  36.719  1.00  0.00    -0.206 F 
ATOM     92  C   UNL A   1      47.164  31.679  37.665  1.00  0.00     0.022 A 
BRANCH  89  93
ATOM     93  S   UNL A   1      48.233  34.208  37.230  1.00  0.00     0.124 S 
ATOM     94  O   UNL A   1      48.972  33.875  36.018  1.00  0.00    -0.237 OA
ATOM     95  O   UNL A   1      47.486  35.460  37.206  1.00  0.00    -0.237 OA
ATOM     96  O   UNL A   1      48.934  33.930  38.483  1.00  0.00    -0.744 OA
ENDBRANCH  89  93
ENDBRANCH  62  86
BRANCH  74  97
ATOM     97  C   UNL A   1      38.149  33.175  38.850  1.00  0.00     0.023 A 
ATOM     98  C   UNL A   1      38.323  34.199  39.796  1.00  0.00     0.031 A 
ATOM     99  C   UNL A   1      37.432  32.031  39.250  1.00  0.00     0.131 A 
ATOM    100  C   UNL A   1      37.876  34.020  41.115  1.00  0.00     0.055 A 
ATOM    101  C   UNL A   1      36.913  31.895  40.539  1.00  0.00     0.041 A 
ATOM    102  F   UNL A   1      37.234  31.013  38.396  1.00  0.00    -0.206 F 
ATOM    103  C   UNL A   1      37.154  32.883  41.487  1.00  0.00     0.022 A 
BRANCH 100 104
ATOM    104  S   UNL A   1      38.395  35.216  42.379  1.00  0.00     0.124 S 
ATOM    105  O   UNL A   1      37.264  35.190  43.301  1.00  0.00    -0.237 OA
ATOM    106  O   UNL A   1      39.634  34.627  42.875  1.00  0.00    -0.237 OA
ATOM    107  O   UNL A   1      38.556  36.459  41.628  1.00  0.00    -0.744 OA
ENDBRANCH 100 104
ENDBRANCH  74  97
ENDBRANCH  48  49
ENDBRANCH  41  43
ENDBRANCH  40  41
ENDBRANCH  39  40
ENDBRANCH   1  39
TORSDOF 18
ENDMDL
