MODEL 1
REMARK VINA RESULT:     -11.5      0.000      0.000
REMARK SMILES Cc1c(Cl)cc2c(c1C)O[C@H](C(F)(F)F)C(C(=O)OCCOCCOC(=O)c1ccc(-c3c4nc(c(-c5cc(S(=O)(=O)[O-])ccc5F)c5ccc([nH]5)c(-c5cc(S(=O)(=O)[O-])ccc5F)c5nc(c(-c6cc(S(=O)(=O)[O-])ccc6F)c6ccc3[nH]6)C=C5)C=C4)cc1)=C2
REMARK SMILES IDX 23 1 22 2 21 3 20 4 19 5 17 6 18 7 16 8 1 9 2 10 3 11 8 12
REMARK SMILES IDX 4 13 5 14 7 15 9 16 6 17 10 18 91 19 11 20 12 21 13 22 14 23
REMARK SMILES IDX 15 24 24 25 25 26 26 27 27 28 28 29 29 30 90 31 30 32 89 33
REMARK SMILES IDX 31 34 32 35 33 36 83 37 34 38 88 39 82 40 84 41 35 42 87 43
REMARK SMILES IDX 81 44 80 45 36 47 68 48 48 49 67 50 49 51 52 52 66 53 85 54
REMARK SMILES IDX 50 55 51 56 65 58 86 59 53 60 37 61 38 62 46 63 39 64 45 65
REMARK SMILES IDX 47 66 44 67 40 68 41 69 42 70 43 71 69 72 70 73 78 74 71 75
REMARK SMILES IDX 77 76 79 77 76 78 72 79 73 80 74 81 75 82 54 83 55 84 63 85
REMARK SMILES IDX 56 86 62 87 64 88 61 89 57 90 58 91 59 92 60 93
REMARK H PARENT 84 46 52 57
REMARK Flexibility Score: inf
ROOT
ATOM      1  C   UNL A   1      32.027  29.015  25.195  1.00  0.00     0.202 C 
ENDROOT
BRANCH   1   2
ATOM      2  O   UNL A   1      32.487  27.997  26.084  1.00  0.00    -0.374 OA
BRANCH   2   3
ATOM      3  C   UNL A   1      31.533  27.056  26.578  1.00  0.00     0.202 C 
BRANCH   3   4
ATOM      4  C   UNL A   1      30.538  26.477  25.568  1.00  0.00     0.261 C 
BRANCH   4   5
ATOM      5  O   UNL A   1      30.902  25.148  25.161  1.00  0.00    -0.460 OA
BRANCH   5   6
ATOM      6  C   UNL A   1      31.866  25.095  24.215  1.00  0.00     0.338 C 
ATOM      7  O   UNL A   1      31.946  25.779  23.205  1.00  0.00    -0.246 OA
BRANCH   6   8
ATOM      8  C   UNL A   1      32.926  24.159  24.631  1.00  0.00     0.087 C 
ATOM      9  C   UNL A   1      38.729  21.421  25.720  1.00  0.00     0.046 C 
ATOM     10  C   UNL A   1      37.466  22.244  25.665  1.00  0.00    -0.026 A 
ATOM     11  C   UNL A   1      37.526  23.636  25.888  1.00  0.00     0.045 A 
ATOM     12  C   UNL A   1      36.221  21.669  25.299  1.00  0.00    -0.004 A 
ATOM     13  Cl  UNL A   1      39.003  24.448  26.287  1.00  0.00    -0.084 Cl
ATOM     14  C   UNL A   1      36.392  24.437  25.754  1.00  0.00     0.032 A 
ATOM     15  C   UNL A   1      35.078  22.494  25.192  1.00  0.00     0.131 A 
ATOM     16  C   UNL A   1      36.055  20.198  25.001  1.00  0.00     0.049 C 
ATOM     17  C   UNL A   1      35.174  23.872  25.383  1.00  0.00     0.019 A 
ATOM     18  O   UNL A   1      33.889  21.878  24.897  1.00  0.00    -0.475 OA
ATOM     19  C   UNL A   1      34.039  24.730  25.108  1.00  0.00     0.027 C 
ATOM     20  C   UNL A   1      32.746  22.676  24.478  1.00  0.00     0.316 C 
BRANCH  20  21
ATOM     21  C   UNL A   1      32.376  22.267  23.045  1.00  0.00     0.430 C 
ATOM     22  F   UNL A   1      33.164  22.894  22.139  1.00  0.00    -0.167 F 
ATOM     23  F   UNL A   1      32.529  20.939  22.843  1.00  0.00    -0.167 F 
ATOM     24  F   UNL A   1      31.094  22.579  22.749  1.00  0.00    -0.167 F 
ENDBRANCH  20  21
ENDBRANCH   6   8
ENDBRANCH   5   6
ENDBRANCH   4   5
ENDBRANCH   3   4
ENDBRANCH   2   3
ENDBRANCH   1   2
BRANCH   1  25
ATOM     25  C   UNL A   1      31.958  30.456  25.718  1.00  0.00     0.261 C 
BRANCH  25  26
ATOM     26  O   UNL A   1      32.356  30.566  27.096  1.00  0.00    -0.460 OA
BRANCH  26  27
ATOM     27  C   UNL A   1      33.061  31.687  27.382  1.00  0.00     0.338 C 
ATOM     28  O   UNL A   1      32.622  32.826  27.483  1.00  0.00    -0.246 OA
BRANCH  27  29
ATOM     29  C   UNL A   1      34.444  31.344  27.752  1.00  0.00     0.060 A 
ATOM     30  C   UNL A   1      34.731  29.998  28.012  1.00  0.00     0.016 A 
ATOM     31  C   UNL A   1      35.409  32.333  27.956  1.00  0.00     0.016 A 
ATOM     32  C   UNL A   1      35.967  29.638  28.539  1.00  0.00     0.010 A 
ATOM     33  C   UNL A   1      36.644  31.971  28.504  1.00  0.00     0.010 A 
ATOM     34  C   UNL A   1      36.908  30.630  28.840  1.00  0.00    -0.014 A 
BRANCH  34  35
ATOM     35  C   UNL A   1      38.066  30.294  29.701  1.00  0.00     0.031 A 
ATOM     36  C   UNL A   1      39.134  29.393  29.140  1.00  0.00     0.074 A 
ATOM     37  C   UNL A   1      38.195  30.817  30.932  1.00  0.00     0.049 A 
ATOM     38  N   UNL A   1      40.184  28.885  29.728  1.00  0.00    -0.248 NA
ATOM     39  C   UNL A   1      38.997  29.022  27.722  1.00  0.00     0.031 C 
ATOM     40  C   UNL A   1      37.274  31.774  31.544  1.00  0.00     0.029 A 
ATOM     41  N   UNL A   1      39.159  30.618  31.887  1.00  0.00    -0.354 N 
ATOM     42  C   UNL A   1      40.833  28.131  28.755  1.00  0.00     0.074 A 
ATOM     43  C   UNL A   1      40.043  28.228  27.547  1.00  0.00     0.031 C 
ATOM     44  C   UNL A   1      37.718  32.076  32.777  1.00  0.00     0.029 A 
ATOM     45  C   UNL A   1      38.925  31.299  33.057  1.00  0.00     0.049 A 
ATOM     46  H   UNL A   1      39.943  30.040  31.746  1.00  0.00     0.167 HD
ATOM     47  C   UNL A   1      41.985  27.427  28.861  1.00  0.00     0.034 A 
ATOM     48  C   UNL A   1      39.594  31.274  34.226  1.00  0.00     0.034 A 
ATOM     49  C   UNL A   1      42.758  27.331  30.072  1.00  0.00     0.049 A 
ATOM     50  C   UNL A   1      40.806  30.386  34.358  1.00  0.00     0.074 A 
ATOM     51  C   UNL A   1      43.926  26.625  30.295  1.00  0.00     0.029 A 
ATOM     52  N   UNL A   1      42.439  27.961  31.267  1.00  0.00    -0.354 N 
ATOM     53  N   UNL A   1      41.371  29.620  33.453  1.00  0.00    -0.248 NA
ATOM     54  C   UNL A   1      41.460  30.350  35.673  1.00  0.00     0.031 C 
ATOM     55  C   UNL A   1      44.279  26.781  31.641  1.00  0.00     0.029 A 
ATOM     56  C   UNL A   1      43.369  27.637  32.240  1.00  0.00     0.049 A 
ATOM     57  H   UNL A   1      41.663  28.552  31.404  1.00  0.00     0.167 HD
ATOM     58  C   UNL A   1      42.455  29.019  34.089  1.00  0.00     0.074 A 
ATOM     59  C   UNL A   1      42.474  29.526  35.446  1.00  0.00     0.031 C 
ATOM     60  C   UNL A   1      43.353  28.126  33.597  1.00  0.00     0.034 A 
BRANCH  47  61
ATOM     61  C   UNL A   1      42.445  26.665  27.645  1.00  0.00     0.023 A 
ATOM     62  C   UNL A   1      42.327  25.267  27.562  1.00  0.00     0.031 A 
ATOM     63  C   UNL A   1      43.010  27.350  26.555  1.00  0.00     0.131 A 
ATOM     64  C   UNL A   1      42.809  24.594  26.430  1.00  0.00     0.055 A 
ATOM     65  C   UNL A   1      43.431  26.680  25.406  1.00  0.00     0.041 A 
ATOM     66  F   UNL A   1      43.166  28.682  26.593  1.00  0.00    -0.206 F 
ATOM     67  C   UNL A   1      43.339  25.293  25.341  1.00  0.00     0.022 A 
BRANCH  64  68
ATOM     68  S   UNL A   1      42.811  22.780  26.427  1.00  0.00     0.124 S 
ATOM     69  O   UNL A   1      42.653  22.489  25.005  1.00  0.00    -0.237 OA
ATOM     70  O   UNL A   1      44.113  22.463  27.004  1.00  0.00    -0.237 OA
ATOM     71  O   UNL A   1      41.661  22.435  27.260  1.00  0.00    -0.744 OA
ENDBRANCH  64  68
ENDBRANCH  47  61
BRANCH  48  72
ATOM     72  C   UNL A   1      39.107  32.069  35.387  1.00  0.00     0.023 A 
ATOM     73  C   UNL A   1      38.447  31.452  36.460  1.00  0.00     0.031 A 
ATOM     74  C   UNL A   1      39.272  33.465  35.424  1.00  0.00     0.131 A 
ATOM     75  C   UNL A   1      37.955  32.233  37.518  1.00  0.00     0.055 A 
ATOM     76  C   UNL A   1      38.815  34.233  36.496  1.00  0.00     0.041 A 
ATOM     77  F   UNL A   1      39.896  34.102  34.420  1.00  0.00    -0.206 F 
ATOM     78  C   UNL A   1      38.146  33.617  37.548  1.00  0.00     0.022 A 
BRANCH  75  79
ATOM     79  S   UNL A   1      37.028  31.416  38.846  1.00  0.00     0.124 S 
ATOM     80  O   UNL A   1      35.796  32.197  38.872  1.00  0.00    -0.237 OA
ATOM     81  O   UNL A   1      36.913  30.051  38.343  1.00  0.00    -0.237 OA
ATOM     82  O   UNL A   1      37.895  31.575  40.012  1.00  0.00    -0.744 OA
ENDBRANCH  75  79
ENDBRANCH  48  72
BRANCH  60  83
ATOM     83  C   UNL A   1      44.431  27.652  34.537  1.00  0.00     0.023 A 
ATOM     84  C   UNL A   1      45.645  28.348  34.665  1.00  0.00     0.031 A 
ATOM     85  C   UNL A   1      44.243  26.497  35.315  1.00  0.00     0.131 A 
ATOM     86  C   UNL A   1      46.645  27.857  35.515  1.00  0.00     0.055 A 
ATOM     87  C   UNL A   1      45.220  26.043  36.202  1.00  0.00     0.041 A 
ATOM     88  F   UNL A   1      43.101  25.796  35.233  1.00  0.00    -0.206 F 
ATOM     89  C   UNL A   1      46.434  26.717  36.298  1.00  0.00     0.022 A 
BRANCH  86  90
ATOM     90  S   UNL A   1      48.258  28.685  35.532  1.00  0.00     0.124 S 
ATOM     91  O   UNL A   1      48.909  28.055  36.676  1.00  0.00    -0.237 OA
ATOM     92  O   UNL A   1      48.800  28.344  34.221  1.00  0.00    -0.237 OA
ATOM     93  O   UNL A   1      47.918  30.095  35.711  1.00  0.00    -0.744 OA
ENDBRANCH  86  90
ENDBRANCH  60  83
ENDBRANCH  34  35
ENDBRANCH  27  29
ENDBRANCH  26  27
ENDBRANCH  25  26
ENDBRANCH   1  25
TORSDOF 18
ENDMDL
MODEL 2
REMARK VINA RESULT:     -11.5      1.872      2.131
REMARK SMILES Cc1c(Cl)cc2c(c1C)O[C@H](C(F)(F)F)C(C(=O)OCCOCCOC(=O)c1ccc(-c3c4nc(c(-c5cc(S(=O)(=O)[O-])ccc5F)c5ccc([nH]5)c(-c5cc(S(=O)(=O)[O-])ccc5F)c5nc(c(-c6cc(S(=O)(=O)[O-])ccc6F)c6ccc3[nH]6)C=C5)C=C4)cc1)=C2
REMARK SMILES IDX 23 1 22 2 21 3 20 4 19 5 17 6 18 7 16 8 1 9 2 10 3 11 8 12
REMARK SMILES IDX 4 13 5 14 7 15 9 16 6 17 10 18 91 19 11 20 12 21 13 22 14 23
REMARK SMILES IDX 15 24 24 25 25 26 26 27 27 28 28 29 29 30 90 31 30 32 89 33
REMARK SMILES IDX 31 34 32 35 33 36 83 37 34 38 88 39 82 40 84 41 35 42 87 43
REMARK SMILES IDX 81 44 80 45 36 47 68 48 48 49 67 50 49 51 52 52 66 53 85 54
REMARK SMILES IDX 50 55 51 56 65 58 86 59 53 60 37 61 38 62 46 63 39 64 45 65
REMARK SMILES IDX 47 66 44 67 40 68 41 69 42 70 43 71 69 72 70 73 78 74 71 75
REMARK SMILES IDX 77 76 79 77 76 78 72 79 73 80 74 81 75 82 54 83 55 84 63 85
REMARK SMILES IDX 56 86 62 87 64 88 61 89 57 90 58 91 59 92 60 93
REMARK H PARENT 84 46 52 57
REMARK Flexibility Score: inf
ROOT
ATOM      1  C   UNL A   1      31.624  29.007  25.332  1.00  0.00     0.202 C 
ENDROOT
BRANCH   1   2
ATOM      2  O   UNL A   1      32.185  27.901  26.040  1.00  0.00    -0.374 OA
BRANCH   2   3
ATOM      3  C   UNL A   1      31.309  26.851  26.448  1.00  0.00     0.202 C 
BRANCH   3   4
ATOM      4  C   UNL A   1      30.331  26.311  25.399  1.00  0.00     0.261 C 
BRANCH   4   5
ATOM      5  O   UNL A   1      30.764  25.051  24.863  1.00  0.00    -0.460 OA
BRANCH   5   6
ATOM      6  C   UNL A   1      31.851  25.125  24.063  1.00  0.00     0.338 C 
ATOM      7  O   UNL A   1      32.049  25.927  23.162  1.00  0.00    -0.246 OA
BRANCH   6   8
ATOM      8  C   UNL A   1      32.871  24.160  24.512  1.00  0.00     0.087 C 
ATOM      9  C   UNL A   1      38.556  21.239  25.737  1.00  0.00     0.046 C 
ATOM     10  C   UNL A   1      37.324  22.105  25.649  1.00  0.00    -0.026 A 
ATOM     11  C   UNL A   1      37.431  23.498  25.847  1.00  0.00     0.045 A 
ATOM     12  C   UNL A   1      36.065  21.567  25.275  1.00  0.00    -0.004 A 
ATOM     13  Cl  UNL A   1      38.930  24.264  26.253  1.00  0.00    -0.084 Cl
ATOM     14  C   UNL A   1      36.328  24.336  25.682  1.00  0.00     0.032 A 
ATOM     15  C   UNL A   1      34.953  22.430  25.135  1.00  0.00     0.131 A 
ATOM     16  C   UNL A   1      35.851  20.098  25.002  1.00  0.00     0.049 C 
ATOM     17  C   UNL A   1      35.097  23.807  25.303  1.00  0.00     0.019 A 
ATOM     18  O   UNL A   1      33.748  21.852  24.834  1.00  0.00    -0.475 OA
ATOM     19  C   UNL A   1      33.997  24.700  24.996  1.00  0.00     0.027 C 
ATOM     20  C   UNL A   1      32.640  22.682  24.384  1.00  0.00     0.316 C 
BRANCH  20  21
ATOM     21  C   UNL A   1      32.276  22.259  22.953  1.00  0.00     0.430 C 
ATOM     22  F   UNL A   1      32.999  22.952  22.040  1.00  0.00    -0.167 F 
ATOM     23  F   UNL A   1      32.523  20.948  22.736  1.00  0.00    -0.167 F 
ATOM     24  F   UNL A   1      30.969  22.478  22.682  1.00  0.00    -0.167 F 
ENDBRANCH  20  21
ENDBRANCH   6   8
ENDBRANCH   5   6
ENDBRANCH   4   5
ENDBRANCH   3   4
ENDBRANCH   2   3
ENDBRANCH   1   2
BRANCH   1  25
ATOM     25  C   UNL A   1      32.035  30.422  25.758  1.00  0.00     0.261 C 
BRANCH  25  26
ATOM     26  O   UNL A   1      32.532  30.474  27.106  1.00  0.00    -0.460 OA
BRANCH  26  27
ATOM     27  C   UNL A   1      33.242  31.592  27.393  1.00  0.00     0.338 C 
ATOM     28  O   UNL A   1      32.806  32.731  27.505  1.00  0.00    -0.246 OA
BRANCH  27  29
ATOM     29  C   UNL A   1      34.626  31.245  27.751  1.00  0.00     0.060 A 
ATOM     30  C   UNL A   1      34.908  29.899  28.023  1.00  0.00     0.016 A 
ATOM     31  C   UNL A   1      35.600  32.229  27.932  1.00  0.00     0.016 A 
ATOM     32  C   UNL A   1      36.148  29.537  28.539  1.00  0.00     0.010 A 
ATOM     33  C   UNL A   1      36.839  31.866  28.469  1.00  0.00     0.010 A 
ATOM     34  C   UNL A   1      37.099  30.527  28.817  1.00  0.00    -0.014 A 
BRANCH  34  35
ATOM     35  C   UNL A   1      38.265  30.193  29.669  1.00  0.00     0.031 A 
ATOM     36  C   UNL A   1      39.308  29.260  29.114  1.00  0.00     0.074 A 
ATOM     37  C   UNL A   1      38.422  30.746  30.883  1.00  0.00     0.049 A 
ATOM     38  N   UNL A   1      40.359  28.749  29.699  1.00  0.00    -0.248 NA
ATOM     39  C   UNL A   1      39.142  28.854  27.709  1.00  0.00     0.031 C 
ATOM     40  C   UNL A   1      37.528  31.734  31.485  1.00  0.00     0.029 A 
ATOM     41  N   UNL A   1      39.399  30.555  31.827  1.00  0.00    -0.354 N 
ATOM     42  C   UNL A   1      40.979  27.959  28.735  1.00  0.00     0.074 A 
ATOM     43  C   UNL A   1      40.171  28.038  27.537  1.00  0.00     0.031 C 
ATOM     44  C   UNL A   1      37.998  32.059  32.701  1.00  0.00     0.029 A 
ATOM     45  C   UNL A   1      39.196  31.270  32.982  1.00  0.00     0.049 A 
ATOM     46  H   UNL A   1      40.171  29.960  31.689  1.00  0.00     0.167 HD
ATOM     47  C   UNL A   1      42.121  27.238  28.841  1.00  0.00     0.034 A 
ATOM     48  C   UNL A   1      39.883  31.264  34.142  1.00  0.00     0.034 A 
ATOM     49  C   UNL A   1      42.912  27.160  30.042  1.00  0.00     0.049 A 
ATOM     50  C   UNL A   1      41.082  30.358  34.277  1.00  0.00     0.074 A 
ATOM     51  C   UNL A   1      44.071  26.440  30.265  1.00  0.00     0.029 A 
ATOM     52  N   UNL A   1      42.623  27.826  31.225  1.00  0.00    -0.354 N 
ATOM     53  N   UNL A   1      41.619  29.559  33.383  1.00  0.00    -0.248 NA
ATOM     54  C   UNL A   1      41.756  30.345  35.582  1.00  0.00     0.031 C 
ATOM     55  C   UNL A   1      44.449  26.624  31.600  1.00  0.00     0.029 A 
ATOM     56  C   UNL A   1      43.564  27.511  32.191  1.00  0.00     0.049 A 
ATOM     57  H   UNL A   1      41.859  28.434  31.358  1.00  0.00     0.167 HD
ATOM     58  C   UNL A   1      42.703  28.956  34.017  1.00  0.00     0.074 A 
ATOM     59  C   UNL A   1      42.753  29.498  35.361  1.00  0.00     0.031 C 
ATOM     60  C   UNL A   1      43.578  28.036  33.535  1.00  0.00     0.034 A 
BRANCH  47  61
ATOM     61  C   UNL A   1      42.547  26.437  27.638  1.00  0.00     0.023 A 
ATOM     62  C   UNL A   1      42.425  25.038  27.602  1.00  0.00     0.031 A 
ATOM     63  C   UNL A   1      43.087  27.086  26.514  1.00  0.00     0.131 A 
ATOM     64  C   UNL A   1      42.876  24.328  26.480  1.00  0.00     0.055 A 
ATOM     65  C   UNL A   1      43.477  26.379  25.375  1.00  0.00     0.041 A 
ATOM     66  F   UNL A   1      43.247  28.418  26.506  1.00  0.00    -0.206 F 
ATOM     67  C   UNL A   1      43.379  24.991  25.357  1.00  0.00     0.022 A 
BRANCH  64  68
ATOM     68  S   UNL A   1      42.873  22.515  26.534  1.00  0.00     0.124 S 
ATOM     69  O   UNL A   1      44.232  22.206  26.096  1.00  0.00    -0.237 OA
ATOM     70  O   UNL A   1      42.575  22.240  27.935  1.00  0.00    -0.237 OA
ATOM     71  O   UNL A   1      41.821  22.146  25.590  1.00  0.00    -0.744 OA
ENDBRANCH  64  68
ENDBRANCH  47  61
BRANCH  48  72
ATOM     72  C   UNL A   1      39.429  32.096  35.288  1.00  0.00     0.023 A 
ATOM     73  C   UNL A   1      39.852  33.426  35.430  1.00  0.00     0.031 A 
ATOM     74  C   UNL A   1      38.582  31.561  36.277  1.00  0.00     0.131 A 
ATOM     75  C   UNL A   1      39.447  34.171  36.549  1.00  0.00     0.055 A 
ATOM     76  C   UNL A   1      38.151  32.318  37.366  1.00  0.00     0.041 A 
ATOM     77  F   UNL A   1      38.150  30.293  36.186  1.00  0.00    -0.206 F 
ATOM     78  C   UNL A   1      38.590  33.630  37.510  1.00  0.00     0.022 A 
BRANCH  75  79
ATOM     79  S   UNL A   1      40.085  35.858  36.749  1.00  0.00     0.124 S 
ATOM     80  O   UNL A   1      39.669  36.482  35.498  1.00  0.00    -0.237 OA
ATOM     81  O   UNL A   1      39.390  36.305  37.952  1.00  0.00    -0.237 OA
ATOM     82  O   UNL A   1      41.524  35.661  36.903  1.00  0.00    -0.744 OA
ENDBRANCH  75  79
ENDBRANCH  48  72
BRANCH  60  83
ATOM     83  C   UNL A   1      44.663  27.567  34.470  1.00  0.00     0.023 A 
ATOM     84  C   UNL A   1      44.484  26.439  35.287  1.00  0.00     0.031 A 
ATOM     85  C   UNL A   1      45.888  28.251  34.541  1.00  0.00     0.131 A 
ATOM     86  C   UNL A   1      45.497  26.055  36.178  1.00  0.00     0.055 A 
ATOM     87  C   UNL A   1      46.915  27.832  35.388  1.00  0.00     0.041 A 
ATOM     88  F   UNL A   1      46.112  29.335  33.780  1.00  0.00    -0.206 F 
ATOM     89  C   UNL A   1      46.718  26.734  36.221  1.00  0.00     0.022 A 
BRANCH  86  90
ATOM     90  S   UNL A   1      45.170  24.697  37.333  1.00  0.00     0.124 S 
ATOM     91  O   UNL A   1      44.850  23.599  36.426  1.00  0.00    -0.237 OA
ATOM     92  O   UNL A   1      46.435  24.583  38.052  1.00  0.00    -0.237 OA
ATOM     93  O   UNL A   1      44.048  25.187  38.131  1.00  0.00    -0.744 OA
ENDBRANCH  86  90
ENDBRANCH  60  83
ENDBRANCH  34  35
ENDBRANCH  27  29
ENDBRANCH  26  27
ENDBRANCH  25  26
ENDBRANCH   1  25
TORSDOF 18
ENDMDL
MODEL 3
REMARK VINA RESULT:     -11.4      2.440      3.022
REMARK SMILES Cc1c(Cl)cc2c(c1C)O[C@H](C(F)(F)F)C(C(=O)OCCOCCOC(=O)c1ccc(-c3c4nc(c(-c5cc(S(=O)(=O)[O-])ccc5F)c5ccc([nH]5)c(-c5cc(S(=O)(=O)[O-])ccc5F)c5nc(c(-c6cc(S(=O)(=O)[O-])ccc6F)c6ccc3[nH]6)C=C5)C=C4)cc1)=C2
REMARK SMILES IDX 23 1 22 2 21 3 20 4 19 5 17 6 18 7 16 8 1 9 2 10 3 11 8 12
REMARK SMILES IDX 4 13 5 14 7 15 9 16 6 17 10 18 91 19 11 20 12 21 13 22 14 23
REMARK SMILES IDX 15 24 24 25 25 26 26 27 27 28 28 29 29 30 90 31 30 32 89 33
REMARK SMILES IDX 31 34 32 35 33 36 83 37 34 38 88 39 82 40 84 41 35 42 87 43
REMARK SMILES IDX 81 44 80 45 36 47 68 48 48 49 67 50 49 51 52 52 66 53 85 54
REMARK SMILES IDX 50 55 51 56 65 58 86 59 53 60 37 61 38 62 46 63 39 64 45 65
REMARK SMILES IDX 47 66 44 67 40 68 41 69 42 70 43 71 69 72 70 73 78 74 71 75
REMARK SMILES IDX 77 76 79 77 76 78 72 79 73 80 74 81 75 82 54 83 55 84 63 85
REMARK SMILES IDX 56 86 62 87 64 88 61 89 57 90 58 91 59 92 60 93
REMARK H PARENT 84 46 52 57
REMARK Flexibility Score: inf
ROOT
ATOM      1  C   UNL A   1      32.563  29.133  25.317  1.00  0.00     0.202 C 
ENDROOT
BRANCH   1   2
ATOM      2  O   UNL A   1      31.629  28.173  24.824  1.00  0.00    -0.374 OA
BRANCH   2   3
ATOM      3  C   UNL A   1      31.938  27.501  23.603  1.00  0.00     0.202 C 
BRANCH   3   4
ATOM      4  C   UNL A   1      30.905  26.499  23.078  1.00  0.00     0.261 C 
BRANCH   4   5
ATOM      5  O   UNL A   1      31.440  25.167  23.008  1.00  0.00    -0.460 OA
BRANCH   5   6
ATOM      6  C   UNL A   1      31.429  24.497  24.181  1.00  0.00     0.338 C 
ATOM      7  O   UNL A   1      30.644  24.643  25.107  1.00  0.00    -0.246 OA
BRANCH   6   8
ATOM      8  C   UNL A   1      32.446  23.430  24.159  1.00  0.00     0.087 C 
ATOM      9  C   UNL A   1      35.534  17.764  24.999  1.00  0.00     0.046 C 
ATOM     10  C   UNL A   1      34.652  18.929  24.626  1.00  0.00    -0.026 A 
ATOM     11  C   UNL A   1      33.290  18.711  24.333  1.00  0.00     0.045 A 
ATOM     12  C   UNL A   1      35.135  20.264  24.654  1.00  0.00    -0.004 A 
ATOM     13  Cl  UNL A   1      32.586  17.128  24.324  1.00  0.00    -0.084 Cl
ATOM     14  C   UNL A   1      32.428  19.777  24.074  1.00  0.00     0.032 A 
ATOM     15  C   UNL A   1      34.252  21.329  24.366  1.00  0.00     0.131 A 
ATOM     16  C   UNL A   1      36.565  20.610  24.993  1.00  0.00     0.049 C 
ATOM     17  C   UNL A   1      32.902  21.086  24.114  1.00  0.00     0.019 A 
ATOM     18  O   UNL A   1      34.783  22.593  24.345  1.00  0.00    -0.475 OA
ATOM     19  C   UNL A   1      31.971  22.190  23.986  1.00  0.00     0.027 C 
ATOM     20  C   UNL A   1      33.899  23.749  24.356  1.00  0.00     0.316 C 
BRANCH  20  21
ATOM     21  C   UNL A   1      34.164  24.541  25.645  1.00  0.00     0.430 C 
ATOM     22  F   UNL A   1      33.324  24.157  26.636  1.00  0.00    -0.167 F 
ATOM     23  F   UNL A   1      35.422  24.354  26.104  1.00  0.00    -0.167 F 
ATOM     24  F   UNL A   1      33.991  25.870  25.462  1.00  0.00    -0.167 F 
ENDBRANCH  20  21
ENDBRANCH   6   8
ENDBRANCH   5   6
ENDBRANCH   4   5
ENDBRANCH   3   4
ENDBRANCH   2   3
ENDBRANCH   1   2
BRANCH   1  25
ATOM     25  C   UNL A   1      32.017  30.453  25.876  1.00  0.00     0.261 C 
BRANCH  25  26
ATOM     26  O   UNL A   1      32.379  30.665  27.252  1.00  0.00    -0.460 OA
BRANCH  26  27
ATOM     27  C   UNL A   1      33.132  31.772  27.464  1.00  0.00     0.338 C 
ATOM     28  O   UNL A   1      32.737  32.930  27.519  1.00  0.00    -0.246 OA
BRANCH  27  29
ATOM     29  C   UNL A   1      34.511  31.396  27.815  1.00  0.00     0.060 A 
ATOM     30  C   UNL A   1      34.767  30.044  28.082  1.00  0.00     0.016 A 
ATOM     31  C   UNL A   1      35.504  32.360  27.996  1.00  0.00     0.016 A 
ATOM     32  C   UNL A   1      36.001  29.656  28.592  1.00  0.00     0.010 A 
ATOM     33  C   UNL A   1      36.738  31.971  28.528  1.00  0.00     0.010 A 
ATOM     34  C   UNL A   1      36.972  30.626  28.870  1.00  0.00    -0.014 A 
BRANCH  34  35
ATOM     35  C   UNL A   1      38.134  30.266  29.717  1.00  0.00     0.031 A 
ATOM     36  C   UNL A   1      39.161  29.320  29.153  1.00  0.00     0.074 A 
ATOM     37  C   UNL A   1      38.304  30.807  30.935  1.00  0.00     0.049 A 
ATOM     38  N   UNL A   1      40.204  28.787  29.731  1.00  0.00    -0.248 NA
ATOM     39  C   UNL A   1      38.985  28.928  27.745  1.00  0.00     0.031 C 
ATOM     40  C   UNL A   1      37.427  31.805  31.546  1.00  0.00     0.029 A 
ATOM     41  N   UNL A   1      39.278  30.592  31.875  1.00  0.00    -0.354 N 
ATOM     42  C   UNL A   1      40.808  27.994  28.760  1.00  0.00     0.074 A 
ATOM     43  C   UNL A   1      40.000  28.096  27.565  1.00  0.00     0.031 C 
ATOM     44  C   UNL A   1      37.905  32.113  32.764  1.00  0.00     0.029 A 
ATOM     45  C   UNL A   1      39.090  31.302  33.036  1.00  0.00     0.049 A 
ATOM     46  H   UNL A   1      40.041  29.986  31.731  1.00  0.00     0.167 HD
ATOM     47  C   UNL A   1      41.938  27.254  28.858  1.00  0.00     0.034 A 
ATOM     48  C   UNL A   1      39.780  31.275  34.194  1.00  0.00     0.034 A 
ATOM     49  C   UNL A   1      42.730  27.153  30.056  1.00  0.00     0.049 A 
ATOM     50  C   UNL A   1      40.963  30.349  34.320  1.00  0.00     0.074 A 
ATOM     51  C   UNL A   1      43.878  26.413  30.271  1.00  0.00     0.029 A 
ATOM     52  N   UNL A   1      42.455  27.815  31.245  1.00  0.00    -0.354 N 
ATOM     53  N   UNL A   1      41.486  29.548  33.419  1.00  0.00    -0.248 NA
ATOM     54  C   UNL A   1      41.640  30.315  35.623  1.00  0.00     0.031 C 
ATOM     55  C   UNL A   1      44.262  26.580  31.607  1.00  0.00     0.029 A 
ATOM     56  C   UNL A   1      43.393  27.477  32.207  1.00  0.00     0.049 A 
ATOM     57  H   UNL A   1      41.702  28.434  31.385  1.00  0.00     0.167 HD
ATOM     58  C   UNL A   1      42.561  28.922  34.046  1.00  0.00     0.074 A 
ATOM     59  C   UNL A   1      42.622  29.453  35.393  1.00  0.00     0.031 C 
ATOM     60  C   UNL A   1      43.418  27.991  33.554  1.00  0.00     0.034 A 
BRANCH  47  61
ATOM     61  C   UNL A   1      42.349  26.455  27.648  1.00  0.00     0.023 A 
ATOM     62  C   UNL A   1      41.978  25.108  27.492  1.00  0.00     0.031 A 
ATOM     63  C   UNL A   1      43.125  27.051  26.639  1.00  0.00     0.131 A 
ATOM     64  C   UNL A   1      42.420  24.390  26.371  1.00  0.00     0.055 A 
ATOM     65  C   UNL A   1      43.510  26.348  25.496  1.00  0.00     0.041 A 
ATOM     66  F   UNL A   1      43.526  28.327  26.751  1.00  0.00    -0.206 F 
ATOM     67  C   UNL A   1      43.163  25.007  25.361  1.00  0.00     0.022 A 
BRANCH  64  68
ATOM     68  S   UNL A   1      42.079  22.611  26.285  1.00  0.00     0.124 S 
ATOM     69  O   UNL A   1      42.791  22.119  27.462  1.00  0.00    -0.237 OA
ATOM     70  O   UNL A   1      40.623  22.562  26.352  1.00  0.00    -0.237 OA
ATOM     71  O   UNL A   1      42.657  22.213  25.003  1.00  0.00    -0.744 OA
ENDBRANCH  64  68
ENDBRANCH  47  61
BRANCH  48  72
ATOM     72  C   UNL A   1      39.342  32.106  35.348  1.00  0.00     0.023 A 
ATOM     73  C   UNL A   1      39.794  33.425  35.504  1.00  0.00     0.031 A 
ATOM     74  C   UNL A   1      38.482  31.581  36.330  1.00  0.00     0.131 A 
ATOM     75  C   UNL A   1      39.404  34.168  36.629  1.00  0.00     0.055 A 
ATOM     76  C   UNL A   1      38.066  32.336  37.426  1.00  0.00     0.041 A 
ATOM     77  F   UNL A   1      38.023  30.323  36.226  1.00  0.00    -0.206 F 
ATOM     78  C   UNL A   1      38.533  33.637  37.583  1.00  0.00     0.022 A 
BRANCH  75  79
ATOM     79  S   UNL A   1      40.077  35.839  36.846  1.00  0.00     0.124 S 
ATOM     80  O   UNL A   1      41.506  35.569  36.969  1.00  0.00    -0.237 OA
ATOM     81  O   UNL A   1      39.653  36.501  35.617  1.00  0.00    -0.237 OA
ATOM     82  O   UNL A   1      39.422  36.314  38.063  1.00  0.00    -0.744 OA
ENDBRANCH  75  79
ENDBRANCH  48  72
BRANCH  60  83
ATOM     83  C   UNL A   1      44.498  27.497  34.483  1.00  0.00     0.023 A 
ATOM     84  C   UNL A   1      44.386  26.260  35.138  1.00  0.00     0.031 A 
ATOM     85  C   UNL A   1      45.651  28.268  34.712  1.00  0.00     0.131 A 
ATOM     86  C   UNL A   1      45.387  25.849  36.030  1.00  0.00     0.055 A 
ATOM     87  C   UNL A   1      46.671  27.829  35.556  1.00  0.00     0.041 A 
ATOM     88  F   UNL A   1      45.808  29.457  34.109  1.00  0.00    -0.206 F 
ATOM     89  C   UNL A   1      46.537  26.618  36.230  1.00  0.00     0.022 A 
BRANCH  86  90
ATOM     90  S   UNL A   1      45.133  24.327  36.982  1.00  0.00     0.124 S 
ATOM     91  O   UNL A   1      46.489  23.794  37.066  1.00  0.00    -0.237 OA
ATOM     92  O   UNL A   1      44.566  24.828  38.230  1.00  0.00    -0.237 OA
ATOM     93  O   UNL A   1      44.213  23.552  36.152  1.00  0.00    -0.744 OA
ENDBRANCH  86  90
ENDBRANCH  60  83
ENDBRANCH  34  35
ENDBRANCH  27  29
ENDBRANCH  26  27
ENDBRANCH  25  26
ENDBRANCH   1  25
TORSDOF 18
ENDMDL
