MODEL 1
REMARK VINA RESULT:     -10.8      0.000      0.000
REMARK SMILES CC1(C)CCC[C@@H]1NC(=O)CC1(C(=O)OCCOCCOC(=O)c2ccc(-c3c4nc(c(-c5cc(S(=O)(=O)[O-])ccc5F)c5ccc([nH]5)c(-c5cc(S(=O)(=O)[O-])ccc5F)c5nc(c(-c6cc(S(=O)(=O)[O-])ccc6F)c6ccc3[nH]6)C=C5)C=C4)cc2)CCCCC1
REMARK SMILES IDX 18 1 17 2 16 3 15 4 13 5 14 6 12 7 87 8 91 9 88 10 90 11
REMARK SMILES IDX 89 12 11 13 9 14 8 15 10 17 7 18 1 19 2 20 3 21 4 22 5 23
REMARK SMILES IDX 6 24 19 25 20 26 21 27 22 28 23 29 24 30 25 31 86 32 26 33
REMARK SMILES IDX 85 34 27 35 28 36 29 37 79 38 30 39 84 40 78 41 80 42 31 43
REMARK SMILES IDX 83 44 77 45 76 46 32 48 64 49 44 50 63 51 45 52 48 53 62 54
REMARK SMILES IDX 81 55 46 56 47 57 61 59 82 60 49 61 33 62 34 63 42 64 35 65
REMARK SMILES IDX 41 66 43 67 40 68 36 69 37 70 38 71 39 72 65 73 66 74 74 75
REMARK SMILES IDX 67 76 73 77 75 78 72 79 68 80 69 81 70 82 71 83 50 84 51 85
REMARK SMILES IDX 59 86 52 87 58 88 60 89 57 90 53 91 54 92 55 93 56 94
REMARK H PARENT 8 16 80 47 48 58
REMARK Flexibility Score: inf
ROOT
ATOM      1  O   UNL A   1      31.974  29.120  24.035  1.00  0.00    -0.374 OA
ENDROOT
BRANCH   1   2
ATOM      2  C   UNL A   1      32.589  28.089  23.260  1.00  0.00     0.202 C 
BRANCH   2   3
ATOM      3  C   UNL A   1      31.965  26.698  23.404  1.00  0.00     0.261 C 
BRANCH   3   4
ATOM      4  O   UNL A   1      32.859  25.758  24.026  1.00  0.00    -0.463 OA
BRANCH   4   5
ATOM      5  C   UNL A   1      33.586  24.964  23.198  1.00  0.00     0.312 C 
ATOM      6  O   UNL A   1      34.028  25.317  22.110  1.00  0.00    -0.252 OA
BRANCH   5   7
ATOM      7  C   UNL A   1      33.841  23.559  23.778  1.00  0.00     0.077 C 
ATOM      8  C   UNL A   1      34.100  23.746  25.293  1.00  0.00     0.019 C 
ATOM      9  C   UNL A   1      35.032  22.829  23.131  1.00  0.00     0.019 C 
ATOM     10  C   UNL A   1      35.473  24.364  25.575  1.00  0.00     0.001 C 
ATOM     11  C   UNL A   1      36.426  23.330  23.500  1.00  0.00     0.001 C 
ATOM     12  C   UNL A   1      36.591  23.505  25.001  1.00  0.00     0.000 C 
BRANCH   7  13
ATOM     13  C   UNL A   1      32.519  22.778  23.501  1.00  0.00     0.118 C 
BRANCH  13  14
ATOM     14  C   UNL A   1      31.982  21.919  24.632  1.00  0.00     0.221 C 
ATOM     15  N   UNL A   1      32.399  20.634  24.821  1.00  0.00    -0.353 N 
ATOM     16  H   UNL A   1      31.897  20.152  25.517  1.00  0.00     0.163 HD
ATOM     17  O   UNL A   1      31.131  22.364  25.407  1.00  0.00    -0.275 OA
BRANCH  15  18
ATOM     18  C   UNL A   1      33.447  19.832  24.191  1.00  0.00     0.087 C 
ATOM     19  C   UNL A   1      32.151  18.029  22.901  1.00  0.00     0.013 C 
ATOM     20  C   UNL A   1      33.105  18.319  24.062  1.00  0.00    -0.015 C 
ATOM     21  C   UNL A   1      32.528  17.702  25.352  1.00  0.00     0.013 C 
ATOM     22  C   UNL A   1      34.496  17.716  23.785  1.00  0.00     0.008 C 
ATOM     23  C   UNL A   1      35.466  18.515  24.646  1.00  0.00     0.003 C 
ATOM     24  C   UNL A   1      34.739  19.801  25.025  1.00  0.00     0.025 C 
ENDBRANCH  15  18
ENDBRANCH  13  14
ENDBRANCH   7  13
ENDBRANCH   5   7
ENDBRANCH   4   5
ENDBRANCH   3   4
ENDBRANCH   2   3
ENDBRANCH   1   2
BRANCH   1  25
ATOM     25  C   UNL A   1      32.620  29.489  25.254  1.00  0.00     0.202 C 
BRANCH  25  26
ATOM     26  C   UNL A   1      32.028  30.707  25.961  1.00  0.00     0.261 C 
BRANCH  26  27
ATOM     27  O   UNL A   1      32.529  30.794  27.303  1.00  0.00    -0.460 OA
BRANCH  27  28
ATOM     28  C   UNL A   1      33.393  31.817  27.486  1.00  0.00     0.338 C 
ATOM     29  O   UNL A   1      33.145  33.009  27.392  1.00  0.00    -0.246 OA
BRANCH  28  30
ATOM     30  C   UNL A   1      34.689  31.277  27.925  1.00  0.00     0.060 A 
ATOM     31  C   UNL A   1      34.752  29.952  28.371  1.00  0.00     0.016 A 
ATOM     32  C   UNL A   1      35.802  32.113  28.004  1.00  0.00     0.016 A 
ATOM     33  C   UNL A   1      35.930  29.473  28.947  1.00  0.00     0.010 A 
ATOM     34  C   UNL A   1      36.986  31.623  28.568  1.00  0.00     0.010 A 
ATOM     35  C   UNL A   1      37.046  30.313  29.077  1.00  0.00    -0.014 A 
BRANCH  35  36
ATOM     36  C   UNL A   1      38.230  29.861  29.854  1.00  0.00     0.031 A 
ATOM     37  C   UNL A   1      38.447  30.396  31.245  1.00  0.00     0.074 A 
ATOM     38  C   UNL A   1      39.094  28.974  29.330  1.00  0.00     0.049 A 
ATOM     39  N   UNL A   1      39.414  30.144  32.091  1.00  0.00    -0.248 NA
ATOM     40  C   UNL A   1      37.442  31.346  31.747  1.00  0.00     0.031 C 
ATOM     41  C   UNL A   1      38.981  28.374  28.001  1.00  0.00     0.029 A 
ATOM     42  N   UNL A   1      40.243  28.430  29.847  1.00  0.00    -0.354 N 
ATOM     43  C   UNL A   1      39.135  30.902  33.224  1.00  0.00     0.074 A 
ATOM     44  C   UNL A   1      37.929  31.653  32.940  1.00  0.00     0.031 C 
ATOM     45  C   UNL A   1      40.024  27.551  27.804  1.00  0.00     0.029 A 
ATOM     46  C   UNL A   1      40.895  27.586  28.977  1.00  0.00     0.049 A 
ATOM     47  H   UNL A   1      40.569  28.623  30.755  1.00  0.00     0.167 HD
ATOM     48  C   UNL A   1      39.816  30.959  34.397  1.00  0.00     0.034 A 
ATOM     49  C   UNL A   1      42.069  26.935  29.105  1.00  0.00     0.034 A 
ATOM     50  C   UNL A   1      41.023  30.214  34.663  1.00  0.00     0.049 A 
ATOM     51  C   UNL A   1      42.844  27.065  30.393  1.00  0.00     0.074 A 
ATOM     52  C   UNL A   1      41.768  30.168  35.829  1.00  0.00     0.029 A 
ATOM     53  N   UNL A   1      41.673  29.399  33.746  1.00  0.00    -0.354 N 
ATOM     54  N   UNL A   1      42.546  27.754  31.471  1.00  0.00    -0.248 NA
ATOM     55  C   UNL A   1      44.108  26.323  30.485  1.00  0.00     0.031 C 
ATOM     56  C   UNL A   1      42.902  29.381  35.595  1.00  0.00     0.029 A 
ATOM     57  C   UNL A   1      42.830  28.878  34.306  1.00  0.00     0.049 A 
ATOM     58  H   UNL A   1      41.358  29.216  32.832  1.00  0.00     0.167 HD
ATOM     59  C   UNL A   1      43.576  27.507  32.376  1.00  0.00     0.074 A 
ATOM     60  C   UNL A   1      44.493  26.596  31.723  1.00  0.00     0.031 C 
ATOM     61  C   UNL A   1      43.746  27.985  33.635  1.00  0.00     0.034 A 
BRANCH  48  62
ATOM     62  C   UNL A   1      39.293  31.898  35.457  1.00  0.00     0.023 A 
ATOM     63  C   UNL A   1      39.777  33.211  35.589  1.00  0.00     0.031 A 
ATOM     64  C   UNL A   1      38.307  31.465  36.362  1.00  0.00     0.131 A 
ATOM     65  C   UNL A   1      39.322  34.022  36.640  1.00  0.00     0.055 A 
ATOM     66  C   UNL A   1      37.807  32.300  37.362  1.00  0.00     0.041 A 
ATOM     67  F   UNL A   1      37.822  30.214  36.296  1.00  0.00    -0.206 F 
ATOM     68  C   UNL A   1      38.325  33.583  37.514  1.00  0.00     0.022 A 
BRANCH  65  69
ATOM     69  S   UNL A   1      40.143  35.614  36.927  1.00  0.00     0.124 S 
ATOM     70  O   UNL A   1      39.643  35.971  38.252  1.00  0.00    -0.237 OA
ATOM     71  O   UNL A   1      41.555  35.258  36.852  1.00  0.00    -0.237 OA
ATOM     72  O   UNL A   1      39.652  36.455  35.836  1.00  0.00    -0.744 OA
ENDBRANCH  65  69
ENDBRANCH  48  62
BRANCH  49  73
ATOM     73  C   UNL A   1      42.611  26.134  27.971  1.00  0.00     0.023 A 
ATOM     74  C   UNL A   1      42.237  24.795  27.780  1.00  0.00     0.031 A 
ATOM     75  C   UNL A   1      43.552  26.690  27.086  1.00  0.00     0.131 A 
ATOM     76  C   UNL A   1      42.830  24.044  26.752  1.00  0.00     0.055 A 
ATOM     77  C   UNL A   1      44.104  25.953  26.037  1.00  0.00     0.041 A 
ATOM     78  F   UNL A   1      43.943  27.966  27.226  1.00  0.00    -0.206 F 
ATOM     79  C   UNL A   1      43.752  24.617  25.872  1.00  0.00     0.022 A 
BRANCH  76  80
ATOM     80  S   UNL A   1      42.434  22.279  26.624  1.00  0.00     0.124 S 
ATOM     81  O   UNL A   1      43.441  21.815  25.677  1.00  0.00    -0.237 OA
ATOM     82  O   UNL A   1      42.597  21.833  28.004  1.00  0.00    -0.237 OA
ATOM     83  O   UNL A   1      41.060  22.273  26.128  1.00  0.00    -0.744 OA
ENDBRANCH  76  80
ENDBRANCH  49  73
BRANCH  61  84
ATOM     84  C   UNL A   1      44.956  27.501  34.394  1.00  0.00     0.023 A 
ATOM     85  C   UNL A   1      44.920  26.330  35.172  1.00  0.00     0.031 A 
ATOM     86  C   UNL A   1      46.158  28.228  34.348  1.00  0.00     0.131 A 
ATOM     87  C   UNL A   1      46.049  25.947  35.911  1.00  0.00     0.055 A 
ATOM     88  C   UNL A   1      47.295  27.813  35.043  1.00  0.00     0.041 A 
ATOM     89  F   UNL A   1      46.248  29.354  33.622  1.00  0.00    -0.206 F 
ATOM     90  C   UNL A   1      47.241  26.674  35.840  1.00  0.00     0.022 A 
BRANCH  87  91
ATOM     91  S   UNL A   1      45.917  24.528  37.033  1.00  0.00     0.124 S 
ATOM     92  O   UNL A   1      47.136  24.650  37.824  1.00  0.00    -0.237 OA
ATOM     93  O   UNL A   1      44.669  24.802  37.738  1.00  0.00    -0.237 OA
ATOM     94  O   UNL A   1      45.876  23.379  36.129  1.00  0.00    -0.744 OA
ENDBRANCH  87  91
ENDBRANCH  61  84
ENDBRANCH  35  36
ENDBRANCH  28  30
ENDBRANCH  27  28
ENDBRANCH  26  27
ENDBRANCH  25  26
ENDBRANCH   1  25
TORSDOF 20
ENDMDL
MODEL 2
REMARK VINA RESULT:     -10.8      1.573      7.598
REMARK SMILES CC1(C)CCC[C@@H]1NC(=O)CC1(C(=O)OCCOCCOC(=O)c2ccc(-c3c4nc(c(-c5cc(S(=O)(=O)[O-])ccc5F)c5ccc([nH]5)c(-c5cc(S(=O)(=O)[O-])ccc5F)c5nc(c(-c6cc(S(=O)(=O)[O-])ccc6F)c6ccc3[nH]6)C=C5)C=C4)cc2)CCCCC1
REMARK SMILES IDX 18 1 17 2 16 3 15 4 13 5 14 6 12 7 87 8 91 9 88 10 90 11
REMARK SMILES IDX 89 12 11 13 9 14 8 15 10 17 7 18 1 19 2 20 3 21 4 22 5 23
REMARK SMILES IDX 6 24 19 25 20 26 21 27 22 28 23 29 24 30 25 31 86 32 26 33
REMARK SMILES IDX 85 34 27 35 28 36 29 37 79 38 30 39 84 40 78 41 80 42 31 43
REMARK SMILES IDX 83 44 77 45 76 46 32 48 64 49 44 50 63 51 45 52 48 53 62 54
REMARK SMILES IDX 81 55 46 56 47 57 61 59 82 60 49 61 33 62 34 63 42 64 35 65
REMARK SMILES IDX 41 66 43 67 40 68 36 69 37 70 38 71 39 72 65 73 66 74 74 75
REMARK SMILES IDX 67 76 73 77 75 78 72 79 68 80 69 81 70 82 71 83 50 84 51 85
REMARK SMILES IDX 59 86 52 87 58 88 60 89 57 90 53 91 54 92 55 93 56 94
REMARK H PARENT 8 16 80 47 48 58
REMARK Flexibility Score: inf
ROOT
ATOM      1  O   UNL A   1      31.586  27.998  23.977  1.00  0.00    -0.374 OA
ENDROOT
BRANCH   1   2
ATOM      2  C   UNL A   1      32.310  26.986  23.275  1.00  0.00     0.202 C 
BRANCH   2   3
ATOM      3  C   UNL A   1      31.923  25.544  23.616  1.00  0.00     0.261 C 
BRANCH   3   4
ATOM      4  O   UNL A   1      32.963  24.851  24.329  1.00  0.00    -0.463 OA
BRANCH   4   5
ATOM      5  C   UNL A   1      33.399  23.681  23.793  1.00  0.00     0.312 C 
ATOM      6  O   UNL A   1      33.301  23.384  22.607  1.00  0.00    -0.252 OA
BRANCH   5   7
ATOM      7  C   UNL A   1      34.075  22.758  24.825  1.00  0.00     0.077 C 
ATOM      8  C   UNL A   1      34.656  23.677  25.928  1.00  0.00     0.019 C 
ATOM      9  C   UNL A   1      35.193  21.881  24.232  1.00  0.00     0.019 C 
ATOM     10  C   UNL A   1      35.897  24.439  25.453  1.00  0.00     0.001 C 
ATOM     11  C   UNL A   1      36.500  22.584  23.877  1.00  0.00     0.001 C 
ATOM     12  C   UNL A   1      36.991  23.480  25.002  1.00  0.00     0.000 C 
BRANCH   7  13
ATOM     13  C   UNL A   1      32.916  21.860  25.361  1.00  0.00     0.118 C 
BRANCH  13  14
ATOM     14  C   UNL A   1      33.290  20.794  26.375  1.00  0.00     0.221 C 
ATOM     15  N   UNL A   1      33.033  19.472  26.157  1.00  0.00    -0.353 N 
ATOM     16  H   UNL A   1      33.224  18.897  26.934  1.00  0.00     0.163 HD
ATOM     17  O   UNL A   1      33.826  21.104  27.442  1.00  0.00    -0.275 OA
BRANCH  15  18
ATOM     18  C   UNL A   1      32.531  18.740  24.995  1.00  0.00     0.087 C 
ATOM     19  C   UNL A   1      33.355  16.338  25.376  1.00  0.00     0.013 C 
ATOM     20  C   UNL A   1      33.463  17.593  24.508  1.00  0.00    -0.015 C 
ATOM     21  C   UNL A   1      34.947  18.003  24.403  1.00  0.00     0.013 C 
ATOM     22  C   UNL A   1      32.906  17.326  23.097  1.00  0.00     0.008 C 
ATOM     23  C   UNL A   1      32.528  18.694  22.543  1.00  0.00     0.003 C 
ATOM     24  C   UNL A   1      32.432  19.629  23.744  1.00  0.00     0.025 C 
ENDBRANCH  15  18
ENDBRANCH  13  14
ENDBRANCH   7  13
ENDBRANCH   5   7
ENDBRANCH   4   5
ENDBRANCH   3   4
ENDBRANCH   2   3
ENDBRANCH   1   2
BRANCH   1  25
ATOM     25  C   UNL A   1      32.111  28.417  25.237  1.00  0.00     0.202 C 
BRANCH  25  26
ATOM     26  C   UNL A   1      31.963  29.906  25.541  1.00  0.00     0.261 C 
BRANCH  26  27
ATOM     27  O   UNL A   1      32.221  30.158  26.930  1.00  0.00    -0.460 OA
BRANCH  27  28
ATOM     28  C   UNL A   1      32.898  31.307  27.148  1.00  0.00     0.338 C 
ATOM     29  O   UNL A   1      32.462  32.443  27.042  1.00  0.00    -0.246 OA
BRANCH  28  30
ATOM     30  C   UNL A   1      34.245  30.984  27.642  1.00  0.00     0.060 A 
ATOM     31  C   UNL A   1      34.577  29.644  27.869  1.00  0.00     0.016 A 
ATOM     32  C   UNL A   1      35.126  32.008  27.987  1.00  0.00     0.016 A 
ATOM     33  C   UNL A   1      35.786  29.328  28.494  1.00  0.00     0.010 A 
ATOM     34  C   UNL A   1      36.343  31.686  28.599  1.00  0.00     0.010 A 
ATOM     35  C   UNL A   1      36.663  30.348  28.890  1.00  0.00    -0.014 A 
BRANCH  35  36
ATOM     36  C   UNL A   1      37.856  30.023  29.717  1.00  0.00     0.031 A 
ATOM     37  C   UNL A   1      38.882  29.058  29.183  1.00  0.00     0.074 A 
ATOM     38  C   UNL A   1      38.027  30.592  30.923  1.00  0.00     0.049 A 
ATOM     39  N   UNL A   1      39.986  28.629  29.739  1.00  0.00    -0.248 NA
ATOM     40  C   UNL A   1      38.624  28.500  27.847  1.00  0.00     0.031 C 
ATOM     41  C   UNL A   1      37.111  31.551  31.539  1.00  0.00     0.029 A 
ATOM     42  N   UNL A   1      39.026  30.438  31.853  1.00  0.00    -0.354 N 
ATOM     43  C   UNL A   1      40.557  27.751  28.822  1.00  0.00     0.074 A 
ATOM     44  C   UNL A   1      39.654  27.680  27.692  1.00  0.00     0.031 C 
ATOM     45  C   UNL A   1      37.586  31.895  32.748  1.00  0.00     0.029 A 
ATOM     46  C   UNL A   1      38.822  31.159  33.006  1.00  0.00     0.049 A 
ATOM     47  H   UNL A   1      39.814  29.868  31.706  1.00  0.00     0.167 HD
ATOM     48  C   UNL A   1      41.730  27.074  28.911  1.00  0.00     0.034 A 
ATOM     49  C   UNL A   1      39.540  31.203  34.148  1.00  0.00     0.034 A 
ATOM     50  C   UNL A   1      42.616  27.145  30.048  1.00  0.00     0.049 A 
ATOM     51  C   UNL A   1      40.807  30.390  34.251  1.00  0.00     0.074 A 
ATOM     52  C   UNL A   1      43.845  26.533  30.223  1.00  0.00     0.029 A 
ATOM     53  N   UNL A   1      42.359  27.856  31.213  1.00  0.00    -0.354 N 
ATOM     54  N   UNL A   1      41.354  29.596  33.358  1.00  0.00    -0.248 NA
ATOM     55  C   UNL A   1      41.558  30.488  35.509  1.00  0.00     0.031 C 
ATOM     56  C   UNL A   1      44.299  26.819  31.516  1.00  0.00     0.029 A 
ATOM     57  C   UNL A   1      43.387  27.666  32.125  1.00  0.00     0.049 A 
ATOM     58  H   UNL A   1      41.564  28.414  31.369  1.00  0.00     0.167 HD
ATOM     59  C   UNL A   1      42.526  29.119  33.943  1.00  0.00     0.074 A 
ATOM     60  C   UNL A   1      42.611  29.726  35.255  1.00  0.00     0.031 C 
ATOM     61  C   UNL A   1      43.449  28.262  33.439  1.00  0.00     0.034 A 
BRANCH  48  62
ATOM     62  C   UNL A   1      42.092  26.162  27.764  1.00  0.00     0.023 A 
ATOM     63  C   UNL A   1      41.636  24.834  27.700  1.00  0.00     0.031 A 
ATOM     64  C   UNL A   1      42.922  26.624  26.727  1.00  0.00     0.131 A 
ATOM     65  C   UNL A   1      42.064  23.996  26.658  1.00  0.00     0.055 A 
ATOM     66  C   UNL A   1      43.287  25.806  25.656  1.00  0.00     0.041 A 
ATOM     67  F   UNL A   1      43.405  27.877  26.746  1.00  0.00    -0.206 F 
ATOM     68  C   UNL A   1      42.868  24.480  25.625  1.00  0.00     0.022 A 
BRANCH  65  69
ATOM     69  S   UNL A   1      41.657  22.230  26.741  1.00  0.00     0.124 S 
ATOM     70  O   UNL A   1      42.297  21.837  27.994  1.00  0.00    -0.237 OA
ATOM     71  O   UNL A   1      40.199  22.242  26.744  1.00  0.00    -0.237 OA
ATOM     72  O   UNL A   1      42.274  21.680  25.535  1.00  0.00    -0.744 OA
ENDBRANCH  65  69
ENDBRANCH  48  62
BRANCH  49  73
ATOM     73  C   UNL A   1      39.061  32.011  35.305  1.00  0.00     0.023 A 
ATOM     74  C   UNL A   1      38.452  31.405  36.416  1.00  0.00     0.031 A 
ATOM     75  C   UNL A   1      39.166  33.413  35.292  1.00  0.00     0.131 A 
ATOM     76  C   UNL A   1      37.937  32.203  37.450  1.00  0.00     0.055 A 
ATOM     77  C   UNL A   1      38.694  34.199  36.346  1.00  0.00     0.041 A 
ATOM     78  F   UNL A   1      39.740  34.041  34.254  1.00  0.00    -0.206 F 
ATOM     79  C   UNL A   1      38.064  33.594  37.428  1.00  0.00     0.022 A 
BRANCH  76  80
ATOM     80  S   UNL A   1      37.028  31.398  38.798  1.00  0.00     0.124 S 
ATOM     81  O   UNL A   1      36.895  30.035  38.296  1.00  0.00    -0.237 OA
ATOM     82  O   UNL A   1      37.937  31.581  39.926  1.00  0.00    -0.237 OA
ATOM     83  O   UNL A   1      35.784  32.161  38.873  1.00  0.00    -0.744 OA
ENDBRANCH  76  80
ENDBRANCH  49  73
BRANCH  61  84
ATOM     84  C   UNL A   1      44.647  27.960  34.304  1.00  0.00     0.023 A 
ATOM     85  C   UNL A   1      44.663  26.865  35.186  1.00  0.00     0.031 A 
ATOM     86  C   UNL A   1      45.784  28.785  34.253  1.00  0.00     0.131 A 
ATOM     87  C   UNL A   1      45.773  26.653  36.017  1.00  0.00     0.055 A 
ATOM     88  C   UNL A   1      46.907  28.539  35.043  1.00  0.00     0.041 A 
ATOM     89  F   UNL A   1      45.823  29.845  33.429  1.00  0.00    -0.206 F 
ATOM     90  C   UNL A   1      46.901  27.475  35.940  1.00  0.00     0.022 A 
BRANCH  87  91
ATOM     91  S   UNL A   1      45.693  25.334  37.260  1.00  0.00     0.124 S 
ATOM     92  O   UNL A   1      46.330  25.964  38.412  1.00  0.00    -0.237 OA
ATOM     93  O   UNL A   1      44.258  25.099  37.373  1.00  0.00    -0.237 OA
ATOM     94  O   UNL A   1      46.453  24.243  36.652  1.00  0.00    -0.744 OA
ENDBRANCH  87  91
ENDBRANCH  61  84
ENDBRANCH  35  36
ENDBRANCH  28  30
ENDBRANCH  27  28
ENDBRANCH  26  27
ENDBRANCH  25  26
ENDBRANCH   1  25
TORSDOF 20
ENDMDL
MODEL 3
REMARK VINA RESULT:     -10.8      4.874     10.495
REMARK SMILES CC1(C)CCC[C@@H]1NC(=O)CC1(C(=O)OCCOCCOC(=O)c2ccc(-c3c4nc(c(-c5cc(S(=O)(=O)[O-])ccc5F)c5ccc([nH]5)c(-c5cc(S(=O)(=O)[O-])ccc5F)c5nc(c(-c6cc(S(=O)(=O)[O-])ccc6F)c6ccc3[nH]6)C=C5)C=C4)cc2)CCCCC1
REMARK SMILES IDX 18 1 17 2 16 3 15 4 13 5 14 6 12 7 87 8 91 9 88 10 90 11
REMARK SMILES IDX 89 12 11 13 9 14 8 15 10 17 7 18 1 19 2 20 3 21 4 22 5 23
REMARK SMILES IDX 6 24 19 25 20 26 21 27 22 28 23 29 24 30 25 31 86 32 26 33
REMARK SMILES IDX 85 34 27 35 28 36 29 37 79 38 30 39 84 40 78 41 80 42 31 43
REMARK SMILES IDX 83 44 77 45 76 46 32 48 64 49 44 50 63 51 45 52 48 53 62 54
REMARK SMILES IDX 81 55 46 56 47 57 61 59 82 60 49 61 33 62 34 63 42 64 35 65
REMARK SMILES IDX 41 66 43 67 40 68 36 69 37 70 38 71 39 72 65 73 66 74 74 75
REMARK SMILES IDX 67 76 73 77 75 78 72 79 68 80 69 81 70 82 71 83 50 84 51 85
REMARK SMILES IDX 59 86 52 87 58 88 60 89 57 90 53 91 54 92 55 93 56 94
REMARK H PARENT 8 16 80 47 48 58
REMARK Flexibility Score: inf
ROOT
ATOM      1  O   UNL A   1      37.891  21.304  25.067  1.00  0.00    -0.374 OA
ENDROOT
BRANCH   1   2
ATOM      2  C   UNL A   1      36.658  21.835  25.555  1.00  0.00     0.202 C 
BRANCH   2   3
ATOM      3  C   UNL A   1      36.713  23.289  26.033  1.00  0.00     0.261 C 
BRANCH   3   4
ATOM      4  O   UNL A   1      35.676  24.099  25.449  1.00  0.00    -0.463 OA
BRANCH   4   5
ATOM      5  C   UNL A   1      34.901  23.511  24.501  1.00  0.00     0.312 C 
ATOM      6  O   UNL A   1      35.306  23.151  23.401  1.00  0.00    -0.252 OA
BRANCH   5   7
ATOM      7  C   UNL A   1      33.443  23.303  24.956  1.00  0.00     0.077 C 
ATOM      8  C   UNL A   1      33.345  21.848  25.474  1.00  0.00     0.019 C 
ATOM      9  C   UNL A   1      32.409  23.533  23.840  1.00  0.00     0.019 C 
ATOM     10  C   UNL A   1      33.379  20.824  24.334  1.00  0.00     0.001 C 
ATOM     11  C   UNL A   1      32.315  22.459  22.759  1.00  0.00     0.001 C 
ATOM     12  C   UNL A   1      32.242  21.060  23.349  1.00  0.00     0.000 C 
BRANCH   7  13
ATOM     13  C   UNL A   1      33.241  24.347  26.098  1.00  0.00     0.118 C 
BRANCH  13  14
ATOM     14  C   UNL A   1      31.809  24.721  26.437  1.00  0.00     0.221 C 
ATOM     15  N   UNL A   1      31.279  25.930  26.091  1.00  0.00    -0.353 N 
ATOM     16  H   UNL A   1      30.381  26.090  26.463  1.00  0.00     0.163 HD
ATOM     17  O   UNL A   1      31.086  23.936  27.056  1.00  0.00    -0.275 OA
BRANCH  15  18
ATOM     18  C   UNL A   1      31.783  27.034  25.276  1.00  0.00     0.087 C 
ATOM     19  C   UNL A   1      33.882  27.817  26.530  1.00  0.00     0.013 C 
ATOM     20  C   UNL A   1      32.461  28.173  26.090  1.00  0.00    -0.015 C 
ATOM     21  C   UNL A   1      31.651  28.620  27.325  1.00  0.00     0.013 C 
ATOM     22  C   UNL A   1      32.485  29.315  25.055  1.00  0.00     0.008 C 
ATOM     23  C   UNL A   1      31.175  29.194  24.285  1.00  0.00     0.003 C 
ATOM     24  C   UNL A   1      30.656  27.784  24.547  1.00  0.00     0.025 C 
ENDBRANCH  15  18
ENDBRANCH  13  14
ENDBRANCH   7  13
ENDBRANCH   5   7
ENDBRANCH   4   5
ENDBRANCH   3   4
ENDBRANCH   2   3
ENDBRANCH   1   2
BRANCH   1  25
ATOM     25  C   UNL A   1      37.991  19.882  24.966  1.00  0.00     0.202 C 
BRANCH  25  26
ATOM     26  C   UNL A   1      39.282  19.280  25.518  1.00  0.00     0.261 C 
BRANCH  26  27
ATOM     27  O   UNL A   1      39.637  19.916  26.754  1.00  0.00    -0.460 OA
BRANCH  27  28
ATOM     28  C   UNL A   1      40.942  20.259  26.823  1.00  0.00     0.338 C 
ATOM     29  O   UNL A   1      41.898  19.559  26.527  1.00  0.00    -0.246 OA
BRANCH  28  30
ATOM     30  C   UNL A   1      41.046  21.670  27.222  1.00  0.00     0.060 A 
ATOM     31  C   UNL A   1      40.488  22.650  26.392  1.00  0.00     0.016 A 
ATOM     32  C   UNL A   1      41.791  22.025  28.346  1.00  0.00     0.016 A 
ATOM     33  C   UNL A   1      40.720  24.000  26.664  1.00  0.00     0.010 A 
ATOM     34  C   UNL A   1      42.008  23.379  28.624  1.00  0.00     0.010 A 
ATOM     35  C   UNL A   1      41.506  24.373  27.764  1.00  0.00    -0.014 A 
BRANCH  35  36
ATOM     36  C   UNL A   1      41.904  25.795  27.944  1.00  0.00     0.031 A 
ATOM     37  C   UNL A   1      43.228  26.264  27.400  1.00  0.00     0.074 A 
ATOM     38  C   UNL A   1      41.088  26.659  28.574  1.00  0.00     0.049 A 
ATOM     39  N   UNL A   1      43.773  27.453  27.454  1.00  0.00    -0.248 NA
ATOM     40  C   UNL A   1      44.046  25.257  26.708  1.00  0.00     0.031 C 
ATOM     41  C   UNL A   1      39.777  26.325  29.129  1.00  0.00     0.029 A 
ATOM     42  N   UNL A   1      41.245  27.992  28.862  1.00  0.00    -0.354 N 
ATOM     43  C   UNL A   1      44.998  27.339  26.803  1.00  0.00     0.074 A 
ATOM     44  C   UNL A   1      45.130  25.954  26.399  1.00  0.00     0.031 C 
ATOM     45  C   UNL A   1      39.252  27.424  29.698  1.00  0.00     0.029 A 
ATOM     46  C   UNL A   1      40.200  28.529  29.576  1.00  0.00     0.049 A 
ATOM     47  H   UNL A   1      42.031  28.514  28.581  1.00  0.00     0.167 HD
ATOM     48  C   UNL A   1      45.922  28.302  26.557  1.00  0.00     0.034 A 
ATOM     49  C   UNL A   1      40.037  29.765  30.091  1.00  0.00     0.034 A 
ATOM     50  C   UNL A   1      45.783  29.676  26.975  1.00  0.00     0.049 A 
ATOM     51  C   UNL A   1      41.108  30.803  29.862  1.00  0.00     0.074 A 
ATOM     52  C   UNL A   1      46.639  30.739  26.742  1.00  0.00     0.029 A 
ATOM     53  N   UNL A   1      44.729  30.175  27.728  1.00  0.00    -0.354 N 
ATOM     54  N   UNL A   1      42.242  30.690  29.210  1.00  0.00    -0.248 NA
ATOM     55  C   UNL A   1      40.872  32.137  30.431  1.00  0.00     0.031 C 
ATOM     56  C   UNL A   1      46.137  31.862  27.411  1.00  0.00     0.029 A 
ATOM     57  C   UNL A   1      44.932  31.520  28.002  1.00  0.00     0.049 A 
ATOM     58  H   UNL A   1      43.949  29.652  28.023  1.00  0.00     0.167 HD
ATOM     59  C   UNL A   1      42.842  31.946  29.271  1.00  0.00     0.074 A 
ATOM     60  C   UNL A   1      41.937  32.803  30.011  1.00  0.00     0.031 C 
ATOM     61  C   UNL A   1      44.030  32.357  28.758  1.00  0.00     0.034 A 
BRANCH  48  62
ATOM     62  C   UNL A   1      47.186  27.884  25.844  1.00  0.00     0.023 A 
ATOM     63  C   UNL A   1      47.344  28.050  24.457  1.00  0.00     0.031 A 
ATOM     64  C   UNL A   1      48.241  27.294  26.561  1.00  0.00     0.131 A 
ATOM     65  C   UNL A   1      48.501  27.573  23.823  1.00  0.00     0.055 A 
ATOM     66  C   UNL A   1      49.420  26.886  25.935  1.00  0.00     0.041 A 
ATOM     67  F   UNL A   1      48.139  27.092  27.885  1.00  0.00    -0.206 F 
ATOM     68  C   UNL A   1      49.549  27.012  24.555  1.00  0.00     0.022 A 
BRANCH  65  69
ATOM     69  S   UNL A   1      48.563  27.581  22.010  1.00  0.00     0.124 S 
ATOM     70  O   UNL A   1      48.680  26.156  21.711  1.00  0.00    -0.237 OA
ATOM     71  O   UNL A   1      47.296  28.208  21.653  1.00  0.00    -0.237 OA
ATOM     72  O   UNL A   1      49.756  28.372  21.711  1.00  0.00    -0.744 OA
ENDBRANCH  65  69
ENDBRANCH  48  62
BRANCH  49  73
ATOM     73  C   UNL A   1      38.833  30.085  30.910  1.00  0.00     0.023 A 
ATOM     74  C   UNL A   1      37.764  30.824  30.379  1.00  0.00     0.031 A 
ATOM     75  C   UNL A   1      38.759  29.691  32.258  1.00  0.00     0.131 A 
ATOM     76  C   UNL A   1      36.684  31.179  31.203  1.00  0.00     0.055 A 
ATOM     77  C   UNL A   1      37.660  30.006  33.060  1.00  0.00     0.041 A 
ATOM     78  F   UNL A   1      39.754  28.983  32.814  1.00  0.00    -0.206 F 
ATOM     79  C   UNL A   1      36.619  30.766  32.536  1.00  0.00     0.022 A 
BRANCH  76  80
ATOM     80  S   UNL A   1      35.392  32.257  30.525  1.00  0.00     0.124 S 
ATOM     81  O   UNL A   1      34.412  32.264  31.606  1.00  0.00    -0.237 OA
ATOM     82  O   UNL A   1      36.120  33.503  30.312  1.00  0.00    -0.237 OA
ATOM     83  O   UNL A   1      34.974  31.565  29.308  1.00  0.00    -0.744 OA
ENDBRANCH  76  80
ENDBRANCH  49  73
BRANCH  61  84
ATOM     84  C   UNL A   1      44.398  33.806  28.957  1.00  0.00     0.023 A 
ATOM     85  C   UNL A   1      43.716  34.839  28.289  1.00  0.00     0.031 A 
ATOM     86  C   UNL A   1      45.453  34.157  29.816  1.00  0.00     0.131 A 
ATOM     87  C   UNL A   1      44.128  36.169  28.454  1.00  0.00     0.055 A 
ATOM     88  C   UNL A   1      45.825  35.487  30.018  1.00  0.00     0.041 A 
ATOM     89  F   UNL A   1      46.139  33.211  30.478  1.00  0.00    -0.206 F 
ATOM     90  C   UNL A   1      45.169  36.501  29.326  1.00  0.00     0.022 A 
BRANCH  87  91
ATOM     91  S   UNL A   1      43.338  37.458  27.452  1.00  0.00     0.124 S 
ATOM     92  O   UNL A   1      44.461  38.338  27.148  1.00  0.00    -0.237 OA
ATOM     93  O   UNL A   1      42.802  36.696  26.329  1.00  0.00    -0.237 OA
ATOM     94  O   UNL A   1      42.333  38.024  28.351  1.00  0.00    -0.744 OA
ENDBRANCH  87  91
ENDBRANCH  61  84
ENDBRANCH  35  36
ENDBRANCH  28  30
ENDBRANCH  27  28
ENDBRANCH  26  27
ENDBRANCH  25  26
ENDBRANCH   1  25
TORSDOF 20
ENDMDL
