MODEL 1
REMARK VINA RESULT:     -12.4      0.000      0.000
REMARK SMILES O=C(OCCOCCOC(=O)[C@@H]1CCCN1S(=O)(=O)c1ccc2c3c(cccc13)C(=O)N2)c1ccc(-c2c3nc(c(-c4cc(S(=O)(=O)[O-])ccc4F)c4ccc([nH]4)c(-c4cc(S(=O)(=O)[O-])ccc4F)c4nc(c(-c5cc(S(=O)(=O)[O-])ccc5F)c5ccc2[nH]5)C=C4)C=C3)cc1
REMARK SMILES IDX 5 1 4 2 3 3 2 4 1 5 33 6 34 7 95 8 35 9 94 10 36 11 37 12
REMARK SMILES IDX 38 13 88 14 39 15 93 16 87 17 89 18 40 19 92 20 86 21 85 22
REMARK SMILES IDX 41 24 73 25 53 26 72 27 54 28 57 29 71 30 90 31 55 32 56 33
REMARK SMILES IDX 70 35 91 36 58 37 42 38 43 39 51 40 44 41 50 42 52 43 49 44
REMARK SMILES IDX 45 45 46 46 47 47 48 48 74 49 75 50 83 51 76 52 82 53 84 54
REMARK SMILES IDX 81 55 77 56 78 57 79 58 80 59 59 60 60 61 68 62 61 63 67 64
REMARK SMILES IDX 69 65 66 66 62 67 63 68 64 69 65 70 6 71 7 72 8 73 9 74
REMARK SMILES IDX 10 75 11 76 12 77 13 78 16 79 14 80 15 81 17 82 18 83 19 84
REMARK SMILES IDX 20 85 21 86 29 87 22 88 24 89 28 90 23 91 25 92 27 93 32 94
REMARK SMILES IDX 26 95 30 96 31 98
REMARK H PARENT 89 23 57 34 32 97
REMARK Flexibility Score: inf
ROOT
ATOM      1  C   UNL A   1      31.759  31.598  26.906  1.00  0.00     0.202 C 
ENDROOT
BRANCH   1   2
ATOM      2  C   UNL A   1      32.089  33.069  26.666  1.00  0.00     0.261 C 
BRANCH   2   3
ATOM      3  O   UNL A   1      32.171  33.812  27.877  1.00  0.00    -0.460 OA
BRANCH   3   4
ATOM      4  C   UNL A   1      33.294  34.353  28.408  1.00  0.00     0.338 C 
ATOM      5  O   UNL A   1      33.369  35.582  28.428  1.00  0.00    -0.246 OA
BRANCH   4   6
ATOM      6  C   UNL A   1      34.482  33.562  28.890  1.00  0.00     0.060 A 
ATOM      7  C   UNL A   1      34.450  32.375  29.627  1.00  0.00     0.016 A 
ATOM      8  C   UNL A   1      35.749  34.039  28.506  1.00  0.00     0.016 A 
ATOM      9  C   UNL A   1      35.579  31.601  29.830  1.00  0.00     0.010 A 
ATOM     10  C   UNL A   1      36.915  33.333  28.817  1.00  0.00     0.010 A 
ATOM     11  C   UNL A   1      36.819  32.106  29.472  1.00  0.00    -0.014 A 
BRANCH  11  12
ATOM     12  C   UNL A   1      37.969  31.430  30.079  1.00  0.00     0.031 A 
ATOM     13  C   UNL A   1      38.262  31.759  31.511  1.00  0.00     0.074 A 
ATOM     14  C   UNL A   1      38.592  30.433  29.435  1.00  0.00     0.049 A 
ATOM     15  N   UNL A   1      39.155  31.247  32.306  1.00  0.00    -0.248 NA
ATOM     16  C   UNL A   1      37.390  32.765  32.148  1.00  0.00     0.031 C 
ATOM     17  C   UNL A   1      38.245  29.938  28.104  1.00  0.00     0.029 A 
ATOM     18  N   UNL A   1      39.634  29.642  29.834  1.00  0.00    -0.354 N 
ATOM     19  C   UNL A   1      38.935  31.843  33.539  1.00  0.00     0.074 A 
ATOM     20  C   UNL A   1      37.831  32.759  33.394  1.00  0.00     0.031 C 
ATOM     21  C   UNL A   1      39.082  28.936  27.786  1.00  0.00     0.029 A 
ATOM     22  C   UNL A   1      40.044  28.753  28.874  1.00  0.00     0.049 A 
ATOM     23  H   UNL A   1      40.050  29.707  30.724  1.00  0.00     0.167 HD
ATOM     24  C   UNL A   1      39.615  31.653  34.689  1.00  0.00     0.034 A 
ATOM     25  C   UNL A   1      41.101  27.917  28.875  1.00  0.00     0.034 A 
ATOM     26  C   UNL A   1      40.769  30.809  34.777  1.00  0.00     0.049 A 
ATOM     27  C   UNL A   1      41.970  27.861  30.108  1.00  0.00     0.074 A 
ATOM     28  C   UNL A   1      41.628  30.642  35.846  1.00  0.00     0.029 A 
ATOM     29  N   UNL A   1      41.236  30.002  33.748  1.00  0.00    -0.354 N 
ATOM     30  N   UNL A   1      41.821  28.494  31.249  1.00  0.00    -0.248 NA
ATOM     31  C   UNL A   1      43.152  26.992  30.058  1.00  0.00     0.031 C 
ATOM     32  C   UNL A   1      42.653  29.788  35.439  1.00  0.00     0.029 A 
ATOM     33  C   UNL A   1      42.388  29.353  34.148  1.00  0.00     0.049 A 
ATOM     34  H   UNL A   1      40.810  29.907  32.866  1.00  0.00     0.167 HD
ATOM     35  C   UNL A   1      42.861  28.065  32.068  1.00  0.00     0.074 A 
ATOM     36  C   UNL A   1      43.641  27.129  31.285  1.00  0.00     0.031 C 
ATOM     37  C   UNL A   1      43.139  28.409  33.352  1.00  0.00     0.034 A 
BRANCH  24  38
ATOM     38  C   UNL A   1      39.178  32.435  35.892  1.00  0.00     0.023 A 
ATOM     39  C   UNL A   1      39.679  33.732  36.094  1.00  0.00     0.031 A 
ATOM     40  C   UNL A   1      38.295  31.898  36.844  1.00  0.00     0.131 A 
ATOM     41  C   UNL A   1      39.316  34.442  37.242  1.00  0.00     0.055 A 
ATOM     42  C   UNL A   1      37.907  32.626  37.969  1.00  0.00     0.041 A 
ATOM     43  F   UNL A   1      37.764  30.676  36.671  1.00  0.00    -0.206 F 
ATOM     44  C   UNL A   1      38.427  33.900  38.176  1.00  0.00     0.022 A 
BRANCH  41  45
ATOM     45  S   UNL A   1      40.000  36.086  37.571  1.00  0.00     0.124 S 
ATOM     46  O   UNL A   1      39.766  36.771  36.301  1.00  0.00    -0.237 OA
ATOM     47  O   UNL A   1      39.175  36.540  38.686  1.00  0.00    -0.237 OA
ATOM     48  O   UNL A   1      41.401  35.828  37.884  1.00  0.00    -0.744 OA
ENDBRANCH  41  45
ENDBRANCH  24  38
BRANCH  25  49
ATOM     49  C   UNL A   1      41.365  27.086  27.668  1.00  0.00     0.023 A 
ATOM     50  C   UNL A   1      41.201  25.688  27.713  1.00  0.00     0.031 A 
ATOM     51  C   UNL A   1      41.888  27.654  26.497  1.00  0.00     0.131 A 
ATOM     52  C   UNL A   1      41.629  24.900  26.635  1.00  0.00     0.055 A 
ATOM     53  C   UNL A   1      42.255  26.870  25.401  1.00  0.00     0.041 A 
ATOM     54  F   UNL A   1      42.065  28.981  26.409  1.00  0.00    -0.206 F 
ATOM     55  C   UNL A   1      42.142  25.484  25.474  1.00  0.00     0.022 A 
BRANCH  52  56
ATOM     56  S   UNL A   1      41.622  23.090  26.753  1.00  0.00     0.124 S 
ATOM     57  O   UNL A   1      40.218  22.803  27.028  1.00  0.00    -0.237 OA
ATOM     58  O   UNL A   1      42.095  22.711  25.423  1.00  0.00    -0.237 OA
ATOM     59  O   UNL A   1      42.546  22.812  27.847  1.00  0.00    -0.744 OA
ENDBRANCH  52  56
ENDBRANCH  25  49
BRANCH  37  60
ATOM     60  C   UNL A   1      44.316  27.768  34.040  1.00  0.00     0.023 A 
ATOM     61  C   UNL A   1      44.092  26.695  34.926  1.00  0.00     0.031 A 
ATOM     62  C   UNL A   1      45.597  28.336  33.986  1.00  0.00     0.131 A 
ATOM     63  C   UNL A   1      45.120  26.264  35.769  1.00  0.00     0.055 A 
ATOM     64  C   UNL A   1      46.635  27.867  34.793  1.00  0.00     0.041 A 
ATOM     65  F   UNL A   1      45.853  29.369  33.168  1.00  0.00    -0.206 F 
ATOM     66  C   UNL A   1      46.394  26.839  35.701  1.00  0.00     0.022 A 
BRANCH  63  67
ATOM     67  S   UNL A   1      44.818  25.013  37.046  1.00  0.00     0.124 S 
ATOM     68  O   UNL A   1      45.150  25.742  38.268  1.00  0.00    -0.237 OA
ATOM     69  O   UNL A   1      43.398  24.723  36.860  1.00  0.00    -0.237 OA
ATOM     70  O   UNL A   1      45.732  23.928  36.705  1.00  0.00    -0.744 OA
ENDBRANCH  63  67
ENDBRANCH  37  60
ENDBRANCH  11  12
ENDBRANCH   4   6
ENDBRANCH   3   4
ENDBRANCH   2   3
ENDBRANCH   1   2
BRANCH   1  71
ATOM     71  O   UNL A   1      31.740  30.710  25.796  1.00  0.00    -0.374 OA
BRANCH  71  72
ATOM     72  C   UNL A   1      32.902  29.903  25.630  1.00  0.00     0.202 C 
BRANCH  72  73
ATOM     73  C   UNL A   1      33.282  29.186  26.934  1.00  0.00     0.261 C 
BRANCH  73  74
ATOM     74  O   UNL A   1      33.126  27.762  26.741  1.00  0.00    -0.462 OA
BRANCH  74  75
ATOM     75  C   UNL A   1      31.861  27.274  26.695  1.00  0.00     0.324 C 
ATOM     76  O   UNL A   1      31.029  27.449  27.578  1.00  0.00    -0.250 OA
BRANCH  75  77
ATOM     77  C   UNL A   1      31.573  26.501  25.430  1.00  0.00     0.183 C 
ATOM     78  C   UNL A   1      30.203  26.734  24.793  1.00  0.00     0.034 C 
ATOM     79  N   UNL A   1      31.923  25.080  25.095  1.00  0.00    -0.184 NA
ATOM     80  C   UNL A   1      30.367  26.082  23.442  1.00  0.00     0.019 C 
ATOM     81  C   UNL A   1      31.296  24.894  23.699  1.00  0.00     0.103 C 
BRANCH  79  82
ATOM     82  S   UNL A   1      31.666  23.614  25.968  1.00  0.00     0.244 S 
ATOM     83  O   UNL A   1      31.699  23.979  27.371  1.00  0.00    -0.207 OA
ATOM     84  O   UNL A   1      30.416  23.130  25.406  1.00  0.00    -0.207 OA
BRANCH  82  85
ATOM     85  C   UNL A   1      32.837  22.275  25.750  1.00  0.00     0.090 A 
ATOM     86  C   UNL A   1      32.401  20.973  25.456  1.00  0.00     0.024 A 
ATOM     87  C   UNL A   1      34.252  22.553  25.713  1.00  0.00     0.005 A 
ATOM     88  C   UNL A   1      33.262  19.900  25.149  1.00  0.00     0.028 A 
ATOM     89  C   UNL A   1      35.050  21.474  25.425  1.00  0.00     0.019 A 
ATOM     90  C   UNL A   1      34.992  23.757  25.882  1.00  0.00     0.010 A 
ATOM     91  C   UNL A   1      34.601  20.204  25.148  1.00  0.00     0.050 A 
ATOM     92  C   UNL A   1      36.433  21.460  25.312  1.00  0.00     0.050 A 
ATOM     93  C   UNL A   1      36.405  23.785  25.778  1.00  0.00     0.002 A 
ATOM     94  N   UNL A   1      35.699  19.415  24.868  1.00  0.00    -0.321 N 
ATOM     95  C   UNL A   1      37.153  22.633  25.495  1.00  0.00     0.014 A 
ATOM     96  C   UNL A   1      36.895  20.126  24.985  1.00  0.00     0.256 C 
ATOM     97  H   UNL A   1      35.645  18.464  24.616  1.00  0.00     0.170 HD
ATOM     98  O   UNL A   1      38.013  19.644  24.853  1.00  0.00    -0.269 OA
ENDBRANCH  82  85
ENDBRANCH  79  82
ENDBRANCH  75  77
ENDBRANCH  74  75
ENDBRANCH  73  74
ENDBRANCH  72  73
ENDBRANCH  71  72
ENDBRANCH   1  71
TORSDOF 19
ENDMDL
MODEL 2
REMARK VINA RESULT:     -12.3      1.602      4.118
REMARK SMILES O=C(OCCOCCOC(=O)[C@@H]1CCCN1S(=O)(=O)c1ccc2c3c(cccc13)C(=O)N2)c1ccc(-c2c3nc(c(-c4cc(S(=O)(=O)[O-])ccc4F)c4ccc([nH]4)c(-c4cc(S(=O)(=O)[O-])ccc4F)c4nc(c(-c5cc(S(=O)(=O)[O-])ccc5F)c5ccc2[nH]5)C=C4)C=C3)cc1
REMARK SMILES IDX 5 1 4 2 3 3 2 4 1 5 33 6 34 7 95 8 35 9 94 10 36 11 37 12
REMARK SMILES IDX 38 13 88 14 39 15 93 16 87 17 89 18 40 19 92 20 86 21 85 22
REMARK SMILES IDX 41 24 73 25 53 26 72 27 54 28 57 29 71 30 90 31 55 32 56 33
REMARK SMILES IDX 70 35 91 36 58 37 42 38 43 39 51 40 44 41 50 42 52 43 49 44
REMARK SMILES IDX 45 45 46 46 47 47 48 48 74 49 75 50 83 51 76 52 82 53 84 54
REMARK SMILES IDX 81 55 77 56 78 57 79 58 80 59 59 60 60 61 68 62 61 63 67 64
REMARK SMILES IDX 69 65 66 66 62 67 63 68 64 69 65 70 6 71 7 72 8 73 9 74
REMARK SMILES IDX 10 75 11 76 12 77 13 78 16 79 14 80 15 81 17 82 18 83 19 84
REMARK SMILES IDX 20 85 21 86 29 87 22 88 24 89 28 90 23 91 25 92 27 93 32 94
REMARK SMILES IDX 26 95 30 96 31 98
REMARK H PARENT 89 23 57 34 32 97
REMARK Flexibility Score: inf
ROOT
ATOM      1  C   UNL A   1      31.978  31.922  27.118  1.00  0.00     0.202 C 
ENDROOT
BRANCH   1   2
ATOM      2  C   UNL A   1      32.234  33.402  26.847  1.00  0.00     0.261 C 
BRANCH   2   3
ATOM      3  O   UNL A   1      32.238  34.179  28.040  1.00  0.00    -0.460 OA
BRANCH   3   4
ATOM      4  C   UNL A   1      33.333  34.672  28.669  1.00  0.00     0.338 C 
ATOM      5  O   UNL A   1      33.401  35.895  28.797  1.00  0.00    -0.246 OA
BRANCH   4   6
ATOM      6  C   UNL A   1      34.500  33.843  29.136  1.00  0.00     0.060 A 
ATOM      7  C   UNL A   1      34.446  32.723  29.971  1.00  0.00     0.016 A 
ATOM      8  C   UNL A   1      35.764  34.200  28.632  1.00  0.00     0.016 A 
ATOM      9  C   UNL A   1      35.535  31.892  30.164  1.00  0.00     0.010 A 
ATOM     10  C   UNL A   1      36.902  33.443  28.925  1.00  0.00     0.010 A 
ATOM     11  C   UNL A   1      36.776  32.281  29.685  1.00  0.00    -0.014 A 
BRANCH  11  12
ATOM     12  C   UNL A   1      37.922  31.579  30.270  1.00  0.00     0.031 A 
ATOM     13  C   UNL A   1      38.256  31.909  31.692  1.00  0.00     0.074 A 
ATOM     14  C   UNL A   1      38.503  30.561  29.619  1.00  0.00     0.049 A 
ATOM     15  N   UNL A   1      39.154  31.379  32.470  1.00  0.00    -0.248 NA
ATOM     16  C   UNL A   1      37.427  32.943  32.343  1.00  0.00     0.031 C 
ATOM     17  C   UNL A   1      38.112  30.067  28.300  1.00  0.00     0.029 A 
ATOM     18  N   UNL A   1      39.532  29.746  29.999  1.00  0.00    -0.354 N 
ATOM     19  C   UNL A   1      38.978  31.989  33.704  1.00  0.00     0.074 A 
ATOM     20  C   UNL A   1      37.896  32.933  33.578  1.00  0.00     0.031 C 
ATOM     21  C   UNL A   1      38.914  29.041  27.970  1.00  0.00     0.029 A 
ATOM     22  C   UNL A   1      39.896  28.839  29.037  1.00  0.00     0.049 A 
ATOM     23  H   UNL A   1      39.970  29.805  30.879  1.00  0.00     0.167 HD
ATOM     24  C   UNL A   1      39.679  31.788  34.839  1.00  0.00     0.034 A 
ATOM     25  C   UNL A   1      40.930  27.975  29.020  1.00  0.00     0.034 A 
ATOM     26  C   UNL A   1      40.813  30.914  34.907  1.00  0.00     0.049 A 
ATOM     27  C   UNL A   1      41.825  27.904  30.232  1.00  0.00     0.074 A 
ATOM     28  C   UNL A   1      41.691  30.731  35.957  1.00  0.00     0.029 A 
ATOM     29  N   UNL A   1      41.234  30.088  33.873  1.00  0.00    -0.354 N 
ATOM     30  N   UNL A   1      41.720  28.548  31.372  1.00  0.00    -0.248 NA
ATOM     31  C   UNL A   1      42.982  27.003  30.162  1.00  0.00     0.031 C 
ATOM     32  C   UNL A   1      42.683  29.847  35.533  1.00  0.00     0.029 A 
ATOM     33  C   UNL A   1      42.377  29.411  34.251  1.00  0.00     0.049 A 
ATOM     34  H   UNL A   1      40.785  29.999  33.001  1.00  0.00     0.167 HD
ATOM     35  C   UNL A   1      42.767  28.097  32.170  1.00  0.00     0.074 A 
ATOM     36  C   UNL A   1      43.503  27.135  31.376  1.00  0.00     0.031 C 
ATOM     37  C   UNL A   1      43.083  28.442  33.445  1.00  0.00     0.034 A 
BRANCH  24  38
ATOM     38  C   UNL A   1      39.291  32.589  36.046  1.00  0.00     0.023 A 
ATOM     39  C   UNL A   1      39.814  33.882  36.216  1.00  0.00     0.031 A 
ATOM     40  C   UNL A   1      38.434  32.075  37.033  1.00  0.00     0.131 A 
ATOM     41  C   UNL A   1      39.498  34.610  37.367  1.00  0.00     0.055 A 
ATOM     42  C   UNL A   1      38.091  32.820  38.161  1.00  0.00     0.041 A 
ATOM     43  F   UNL A   1      37.882  30.858  36.892  1.00  0.00    -0.206 F 
ATOM     44  C   UNL A   1      38.633  34.090  38.336  1.00  0.00     0.022 A 
BRANCH  41  45
ATOM     45  S   UNL A   1      40.212  36.249  37.654  1.00  0.00     0.124 S 
ATOM     46  O   UNL A   1      39.223  36.859  38.539  1.00  0.00    -0.237 OA
ATOM     47  O   UNL A   1      41.490  35.918  38.277  1.00  0.00    -0.237 OA
ATOM     48  O   UNL A   1      40.292  36.836  36.321  1.00  0.00    -0.744 OA
ENDBRANCH  41  45
ENDBRANCH  24  38
BRANCH  25  49
ATOM     49  C   UNL A   1      41.144  27.130  27.813  1.00  0.00     0.023 A 
ATOM     50  C   UNL A   1      40.808  25.762  27.829  1.00  0.00     0.031 A 
ATOM     51  C   UNL A   1      41.784  27.640  26.674  1.00  0.00     0.131 A 
ATOM     52  C   UNL A   1      41.184  24.938  26.760  1.00  0.00     0.055 A 
ATOM     53  C   UNL A   1      42.100  26.828  25.583  1.00  0.00     0.041 A 
ATOM     54  F   UNL A   1      42.125  28.936  26.613  1.00  0.00    -0.206 F 
ATOM     55  C   UNL A   1      41.815  25.465  25.630  1.00  0.00     0.022 A 
BRANCH  52  56
ATOM     56  S   UNL A   1      40.950  23.142  26.850  1.00  0.00     0.124 S 
ATOM     57  O   UNL A   1      41.890  22.655  25.846  1.00  0.00    -0.237 OA
ATOM     58  O   UNL A   1      41.314  22.870  28.239  1.00  0.00    -0.237 OA
ATOM     59  O   UNL A   1      39.539  22.961  26.528  1.00  0.00    -0.744 OA
ENDBRANCH  52  56
ENDBRANCH  25  49
BRANCH  37  60
ATOM     60  C   UNL A   1      44.259  27.774  34.110  1.00  0.00     0.023 A 
ATOM     61  C   UNL A   1      44.044  26.608  34.871  1.00  0.00     0.031 A 
ATOM     62  C   UNL A   1      45.518  28.389  34.167  1.00  0.00     0.131 A 
ATOM     63  C   UNL A   1      45.057  26.127  35.706  1.00  0.00     0.055 A 
ATOM     64  C   UNL A   1      46.543  27.875  34.962  1.00  0.00     0.041 A 
ATOM     65  F   UNL A   1      45.763  29.510  33.470  1.00  0.00    -0.206 F 
ATOM     66  C   UNL A   1      46.309  26.750  35.750  1.00  0.00     0.022 A 
BRANCH  63  67
ATOM     67  S   UNL A   1      44.757  24.740  36.834  1.00  0.00     0.124 S 
ATOM     68  O   UNL A   1      45.591  25.096  37.981  1.00  0.00    -0.237 OA
ATOM     69  O   UNL A   1      43.317  24.834  37.059  1.00  0.00    -0.237 OA
ATOM     70  O   UNL A   1      45.203  23.569  36.086  1.00  0.00    -0.744 OA
ENDBRANCH  63  67
ENDBRANCH  37  60
ENDBRANCH  11  12
ENDBRANCH   4   6
ENDBRANCH   3   4
ENDBRANCH   2   3
ENDBRANCH   1   2
BRANCH   1  71
ATOM     71  O   UNL A   1      31.251  31.165  26.158  1.00  0.00    -0.374 OA
BRANCH  71  72
ATOM     72  C   UNL A   1      31.744  29.854  25.903  1.00  0.00     0.202 C 
BRANCH  72  73
ATOM     73  C   UNL A   1      32.058  29.105  27.207  1.00  0.00     0.261 C 
BRANCH  73  74
ATOM     74  O   UNL A   1      32.137  27.691  26.920  1.00  0.00    -0.462 OA
BRANCH  74  75
ATOM     75  C   UNL A   1      33.334  27.205  26.501  1.00  0.00     0.324 C 
ATOM     76  O   UNL A   1      34.380  27.843  26.540  1.00  0.00    -0.250 OA
BRANCH  75  77
ATOM     77  C   UNL A   1      33.250  25.785  25.996  1.00  0.00     0.183 C 
ATOM     78  C   UNL A   1      34.303  25.370  24.969  1.00  0.00     0.034 C 
ATOM     79  N   UNL A   1      32.030  24.980  25.652  1.00  0.00    -0.184 NA
ATOM     80  C   UNL A   1      34.128  23.871  24.924  1.00  0.00     0.019 C 
ATOM     81  C   UNL A   1      32.630  23.653  25.143  1.00  0.00     0.103 C 
BRANCH  79  82
ATOM     82  S   UNL A   1      30.677  25.346  24.645  1.00  0.00     0.244 S 
ATOM     83  O   UNL A   1      30.639  24.301  23.640  1.00  0.00    -0.207 OA
ATOM     84  O   UNL A   1      29.587  25.427  25.603  1.00  0.00    -0.207 OA
BRANCH  82  85
ATOM     85  C   UNL A   1      30.663  26.910  23.771  1.00  0.00     0.090 A 
ATOM     86  C   UNL A   1      31.836  27.428  23.197  1.00  0.00     0.024 A 
ATOM     87  C   UNL A   1      29.413  27.578  23.505  1.00  0.00     0.005 A 
ATOM     88  C   UNL A   1      31.880  28.583  22.391  1.00  0.00     0.028 A 
ATOM     89  C   UNL A   1      29.509  28.706  22.730  1.00  0.00     0.019 A 
ATOM     90  C   UNL A   1      28.071  27.268  23.866  1.00  0.00     0.010 A 
ATOM     91  C   UNL A   1      30.671  29.200  22.184  1.00  0.00     0.050 A 
ATOM     92  C   UNL A   1      28.471  29.527  22.311  1.00  0.00     0.050 A 
ATOM     93  C   UNL A   1      26.984  28.082  23.462  1.00  0.00     0.002 A 
ATOM     94  N   UNL A   1      30.350  30.317  21.437  1.00  0.00    -0.321 N 
ATOM     95  C   UNL A   1      27.165  29.231  22.679  1.00  0.00     0.014 A 
ATOM     96  C   UNL A   1      28.986  30.609  21.496  1.00  0.00     0.256 C 
ATOM     97  H   UNL A   1      31.005  30.844  20.925  1.00  0.00     0.170 HD
ATOM     98  O   UNL A   1      28.454  31.582  20.976  1.00  0.00    -0.269 OA
ENDBRANCH  82  85
ENDBRANCH  79  82
ENDBRANCH  75  77
ENDBRANCH  74  75
ENDBRANCH  73  74
ENDBRANCH  72  73
ENDBRANCH  71  72
ENDBRANCH   1  71
TORSDOF 19
ENDMDL
MODEL 3
REMARK VINA RESULT:     -12.3      4.532     10.428
REMARK SMILES O=C(OCCOCCOC(=O)[C@@H]1CCCN1S(=O)(=O)c1ccc2c3c(cccc13)C(=O)N2)c1ccc(-c2c3nc(c(-c4cc(S(=O)(=O)[O-])ccc4F)c4ccc([nH]4)c(-c4cc(S(=O)(=O)[O-])ccc4F)c4nc(c(-c5cc(S(=O)(=O)[O-])ccc5F)c5ccc2[nH]5)C=C4)C=C3)cc1
REMARK SMILES IDX 5 1 4 2 3 3 2 4 1 5 33 6 34 7 95 8 35 9 94 10 36 11 37 12
REMARK SMILES IDX 38 13 88 14 39 15 93 16 87 17 89 18 40 19 92 20 86 21 85 22
REMARK SMILES IDX 41 24 73 25 53 26 72 27 54 28 57 29 71 30 90 31 55 32 56 33
REMARK SMILES IDX 70 35 91 36 58 37 42 38 43 39 51 40 44 41 50 42 52 43 49 44
REMARK SMILES IDX 45 45 46 46 47 47 48 48 74 49 75 50 83 51 76 52 82 53 84 54
REMARK SMILES IDX 81 55 77 56 78 57 79 58 80 59 59 60 60 61 68 62 61 63 67 64
REMARK SMILES IDX 69 65 66 66 62 67 63 68 64 69 65 70 6 71 7 72 8 73 9 74
REMARK SMILES IDX 10 75 11 76 12 77 13 78 16 79 14 80 15 81 17 82 18 83 19 84
REMARK SMILES IDX 20 85 21 86 29 87 22 88 24 89 28 90 23 91 25 92 27 93 32 94
REMARK SMILES IDX 26 95 30 96 31 98
REMARK H PARENT 89 23 57 34 32 97
REMARK Flexibility Score: inf
ROOT
ATOM      1  C   UNL A   1      36.971  20.215  25.004  1.00  0.00     0.202 C 
ENDROOT
BRANCH   1   2
ATOM      2  C   UNL A   1      38.323  19.523  24.845  1.00  0.00     0.261 C 
BRANCH   2   3
ATOM      3  O   UNL A   1      39.089  19.548  26.044  1.00  0.00    -0.460 OA
BRANCH   3   4
ATOM      4  C   UNL A   1      40.349  20.029  26.177  1.00  0.00     0.338 C 
ATOM      5  O   UNL A   1      41.274  19.235  25.994  1.00  0.00    -0.246 OA
BRANCH   4   6
ATOM      6  C   UNL A   1      40.691  21.428  26.616  1.00  0.00     0.060 A 
ATOM      7  C   UNL A   1      40.245  22.618  26.032  1.00  0.00     0.016 A 
ATOM      8  C   UNL A   1      41.493  21.545  27.766  1.00  0.00     0.016 A 
ATOM      9  C   UNL A   1      40.424  23.849  26.635  1.00  0.00     0.010 A 
ATOM     10  C   UNL A   1      41.794  22.795  28.315  1.00  0.00     0.010 A 
ATOM     11  C   UNL A   1      41.245  23.944  27.748  1.00  0.00    -0.014 A 
BRANCH  11  12
ATOM     12  C   UNL A   1      41.709  25.296  28.071  1.00  0.00     0.031 A 
ATOM     13  C   UNL A   1      43.089  25.660  27.616  1.00  0.00     0.074 A 
ATOM     14  C   UNL A   1      40.861  26.207  28.572  1.00  0.00     0.049 A 
ATOM     15  N   UNL A   1      43.706  26.802  27.693  1.00  0.00    -0.248 NA
ATOM     16  C   UNL A   1      43.857  24.601  26.931  1.00  0.00     0.031 C 
ATOM     17  C   UNL A   1      39.451  25.973  28.875  1.00  0.00     0.029 A 
ATOM     18  N   UNL A   1      41.066  27.521  28.888  1.00  0.00    -0.354 N 
ATOM     19  C   UNL A   1      44.917  26.610  27.043  1.00  0.00     0.074 A 
ATOM     20  C   UNL A   1      44.957  25.245  26.581  1.00  0.00     0.031 C 
ATOM     21  C   UNL A   1      38.921  27.108  29.358  1.00  0.00     0.029 A 
ATOM     22  C   UNL A   1      39.966  28.130  29.436  1.00  0.00     0.049 A 
ATOM     23  H   UNL A   1      41.922  27.984  28.738  1.00  0.00     0.167 HD
ATOM     24  C   UNL A   1      45.917  27.499  26.867  1.00  0.00     0.034 A 
ATOM     25  C   UNL A   1      39.844  29.362  29.967  1.00  0.00     0.034 A 
ATOM     26  C   UNL A   1      45.889  28.819  27.423  1.00  0.00     0.049 A 
ATOM     27  C   UNL A   1      41.042  30.279  29.936  1.00  0.00     0.074 A 
ATOM     28  C   UNL A   1      46.896  29.763  27.437  1.00  0.00     0.029 A 
ATOM     29  N   UNL A   1      44.799  29.374  28.080  1.00  0.00    -0.354 N 
ATOM     30  N   UNL A   1      42.225  30.070  29.403  1.00  0.00    -0.248 NA
ATOM     31  C   UNL A   1      40.902  31.591  30.581  1.00  0.00     0.031 C 
ATOM     32  C   UNL A   1      46.438  30.863  28.163  1.00  0.00     0.029 A 
ATOM     33  C   UNL A   1      45.117  30.641  28.527  1.00  0.00     0.049 A 
ATOM     34  H   UNL A   1      43.929  28.931  28.208  1.00  0.00     0.167 HD
ATOM     35  C   UNL A   1      42.953  31.238  29.607  1.00  0.00     0.074 A 
ATOM     36  C   UNL A   1      42.081  32.145  30.325  1.00  0.00     0.031 C 
ATOM     37  C   UNL A   1      44.222  31.534  29.227  1.00  0.00     0.034 A 
BRANCH  24  38
ATOM     38  C   UNL A   1      47.137  27.034  26.130  1.00  0.00     0.023 A 
ATOM     39  C   UNL A   1      48.190  26.434  26.841  1.00  0.00     0.031 A 
ATOM     40  C   UNL A   1      47.274  27.202  24.742  1.00  0.00     0.131 A 
ATOM     41  C   UNL A   1      49.352  26.049  26.165  1.00  0.00     0.055 A 
ATOM     42  C   UNL A   1      48.419  26.782  24.065  1.00  0.00     0.041 A 
ATOM     43  F   UNL A   1      46.277  27.738  24.018  1.00  0.00    -0.206 F 
ATOM     44  C   UNL A   1      49.469  26.212  24.780  1.00  0.00     0.022 A 
BRANCH  41  45
ATOM     45  S   UNL A   1      50.756  25.341  27.061  1.00  0.00     0.124 S 
ATOM     46  O   UNL A   1      51.243  26.491  27.819  1.00  0.00    -0.237 OA
ATOM     47  O   UNL A   1      50.114  24.296  27.854  1.00  0.00    -0.237 OA
ATOM     48  O   UNL A   1      51.649  24.875  26.005  1.00  0.00    -0.744 OA
ENDBRANCH  41  45
ENDBRANCH  24  38
BRANCH  25  49
ATOM     49  C   UNL A   1      38.539  29.766  30.559  1.00  0.00     0.023 A 
ATOM     50  C   UNL A   1      37.597  30.478  29.792  1.00  0.00     0.031 A 
ATOM     51  C   UNL A   1      38.260  29.551  31.917  1.00  0.00     0.131 A 
ATOM     52  C   UNL A   1      36.457  31.015  30.408  1.00  0.00     0.055 A 
ATOM     53  C   UNL A   1      37.092  30.033  32.512  1.00  0.00     0.041 A 
ATOM     54  F   UNL A   1      39.129  28.880  32.688  1.00  0.00    -0.206 F 
ATOM     55  C   UNL A   1      36.192  30.784  31.760  1.00  0.00     0.022 A 
BRANCH  52  56
ATOM     56  S   UNL A   1      35.338  32.108  29.490  1.00  0.00     0.124 S 
ATOM     57  O   UNL A   1      34.397  32.527  30.524  1.00  0.00    -0.237 OA
ATOM     58  O   UNL A   1      36.261  33.141  29.021  1.00  0.00    -0.237 OA
ATOM     59  O   UNL A   1      34.786  31.245  28.452  1.00  0.00    -0.744 OA
ENDBRANCH  52  56
ENDBRANCH  25  49
BRANCH  37  60
ATOM     60  C   UNL A   1      44.776  32.901  29.537  1.00  0.00     0.023 A 
ATOM     61  C   UNL A   1      45.286  33.158  30.825  1.00  0.00     0.031 A 
ATOM     62  C   UNL A   1      44.611  33.978  28.654  1.00  0.00     0.131 A 
ATOM     63  C   UNL A   1      45.556  34.473  31.216  1.00  0.00     0.055 A 
ATOM     64  C   UNL A   1      44.930  35.283  29.032  1.00  0.00     0.041 A 
ATOM     65  F   UNL A   1      44.114  33.782  27.423  1.00  0.00    -0.206 F 
ATOM     66  C   UNL A   1      45.388  35.537  30.323  1.00  0.00     0.022 A 
BRANCH  63  67
ATOM     67  S   UNL A   1      46.038  34.860  32.920  1.00  0.00     0.124 S 
ATOM     68  O   UNL A   1      44.973  34.219  33.689  1.00  0.00    -0.237 OA
ATOM     69  O   UNL A   1      47.348  34.224  33.020  1.00  0.00    -0.237 OA
ATOM     70  O   UNL A   1      46.041  36.319  32.966  1.00  0.00    -0.744 OA
ENDBRANCH  63  67
ENDBRANCH  37  60
ENDBRANCH  11  12
ENDBRANCH   4   6
ENDBRANCH   3   4
ENDBRANCH   2   3
ENDBRANCH   1   2
BRANCH   1  71
ATOM     71  O   UNL A   1      36.944  21.598  25.332  1.00  0.00    -0.374 OA
BRANCH  71  72
ATOM     72  C   UNL A   1      37.183  22.495  24.252  1.00  0.00     0.202 C 
BRANCH  72  73
ATOM     73  C   UNL A   1      36.040  23.508  24.096  1.00  0.00     0.261 C 
BRANCH  73  74
ATOM     74  O   UNL A   1      35.455  23.347  22.785  1.00  0.00    -0.462 OA
BRANCH  74  75
ATOM     75  C   UNL A   1      34.100  23.312  22.706  1.00  0.00     0.324 C 
ATOM     76  O   UNL A   1      33.470  23.556  21.682  1.00  0.00    -0.250 OA
BRANCH  75  77
ATOM     77  C   UNL A   1      33.443  22.923  24.008  1.00  0.00     0.183 C 
ATOM     78  C   UNL A   1      33.002  21.466  24.134  1.00  0.00     0.034 C 
ATOM     79  N   UNL A   1      32.460  23.702  24.835  1.00  0.00    -0.184 NA
ATOM     80  C   UNL A   1      32.692  21.354  25.607  1.00  0.00     0.019 C 
ATOM     81  C   UNL A   1      32.139  22.729  25.988  1.00  0.00     0.103 C 
BRANCH  79  82
ATOM     82  S   UNL A   1      30.985  24.484  24.402  1.00  0.00     0.244 S 
ATOM     83  O   UNL A   1      30.383  23.653  23.378  1.00  0.00    -0.207 OA
ATOM     84  O   UNL A   1      30.308  24.606  25.683  1.00  0.00    -0.207 OA
BRANCH  82  85
ATOM     85  C   UNL A   1      31.064  26.148  23.743  1.00  0.00     0.090 A 
ATOM     86  C   UNL A   1      32.267  26.670  23.240  1.00  0.00     0.024 A 
ATOM     87  C   UNL A   1      29.855  26.915  23.570  1.00  0.00     0.005 A 
ATOM     88  C   UNL A   1      32.380  27.918  22.593  1.00  0.00     0.028 A 
ATOM     89  C   UNL A   1      30.017  28.129  22.950  1.00  0.00     0.019 A 
ATOM     90  C   UNL A   1      28.496  26.636  23.889  1.00  0.00     0.010 A 
ATOM     91  C   UNL A   1      31.208  28.623  22.472  1.00  0.00     0.050 A 
ATOM     92  C   UNL A   1      29.030  29.055  22.646  1.00  0.00     0.050 A 
ATOM     93  C   UNL A   1      27.458  27.557  23.599  1.00  0.00     0.002 A 
ATOM     94  N   UNL A   1      30.955  29.846  21.880  1.00  0.00    -0.321 N 
ATOM     95  C   UNL A   1      27.707  28.787  22.974  1.00  0.00     0.014 A 
ATOM     96  C   UNL A   1      29.609  30.204  21.979  1.00  0.00     0.256 C 
ATOM     97  H   UNL A   1      31.642  30.398  21.441  1.00  0.00     0.170 HD
ATOM     98  O   UNL A   1      29.136  31.265  21.594  1.00  0.00    -0.269 OA
ENDBRANCH  82  85
ENDBRANCH  79  82
ENDBRANCH  75  77
ENDBRANCH  74  75
ENDBRANCH  73  74
ENDBRANCH  72  73
ENDBRANCH  71  72
ENDBRANCH   1  71
TORSDOF 19
ENDMDL
