MODEL 1
REMARK VINA RESULT:     -11.0      0.000      0.000
REMARK SMILES Nc1cc(C(=O)OCCOCCOC(=O)c2ccc(-c3c4nc(c(-c5cc(S(=O)(=O)[O-])ccc5F)c5ccc([nH]5)c(-c5cc(S(=O)(=O)[O-])ccc5F)c5nc(c(-c6cc(S(=O)(=O)[O-])ccc6F)c6ccc3[nH]6)C=C5)C=C4)cc2)c(O)c([N+](=O)[O-])c1
REMARK SMILES IDX 11 1 10 2 9 3 8 4 7 5 5 6 6 7 4 8 2 9 3 10 85 11 81 12 79 13
REMARK SMILES IDX 1 14 82 17 83 18 84 19 80 20 12 22 13 23 14 24 15 25 16 26
REMARK SMILES IDX 17 27 78 28 18 29 77 30 19 31 20 32 21 33 71 34 22 35 76 36
REMARK SMILES IDX 70 37 72 38 23 39 75 40 69 41 68 42 24 44 56 45 36 46 55 47
REMARK SMILES IDX 37 48 40 49 54 50 73 51 38 52 39 53 53 55 74 56 41 57 25 58
REMARK SMILES IDX 26 59 34 60 27 61 33 62 35 63 32 64 28 65 29 66 30 67 31 68
REMARK SMILES IDX 57 69 58 70 66 71 59 72 65 73 67 74 64 75 60 76 61 77 62 78
REMARK SMILES IDX 63 79 42 80 43 81 51 82 44 83 50 84 52 85 49 86 45 87 46 88
REMARK SMILES IDX 47 89 48 90
REMARK H PARENT 1 15 1 16 80 21 72 43 40 54
REMARK Flexibility Score: inf
ROOT
ATOM      1  C   UNL A   1      36.341  20.594  24.987  1.00  0.00     0.202 C 
ENDROOT
BRANCH   1   2
ATOM      2  O   UNL A   1      36.196  21.814  24.256  1.00  0.00    -0.374 OA
BRANCH   2   3
ATOM      3  C   UNL A   1      36.103  23.017  25.023  1.00  0.00     0.202 C 
BRANCH   3   4
ATOM      4  C   UNL A   1      35.031  23.017  26.115  1.00  0.00     0.261 C 
BRANCH   4   5
ATOM      5  O   UNL A   1      33.740  23.303  25.551  1.00  0.00    -0.460 OA
BRANCH   5   6
ATOM      6  C   UNL A   1      32.737  22.480  25.929  1.00  0.00     0.342 C 
ATOM      7  O   UNL A   1      31.904  22.688  26.801  1.00  0.00    -0.246 OA
BRANCH   6   8
ATOM      8  C   UNL A   1      32.610  21.346  24.988  1.00  0.00     0.111 A 
ATOM      9  C   UNL A   1      32.059  20.718  22.693  1.00  0.00     0.039 A 
ATOM     10  C   UNL A   1      32.257  21.690  23.670  1.00  0.00     0.045 A 
ATOM     11  C   UNL A   1      32.262  19.384  23.032  1.00  0.00     0.115 A 
ATOM     12  C   UNL A   1      32.622  19.029  24.347  1.00  0.00     0.313 A 
ATOM     13  C   UNL A   1      32.808  20.006  25.338  1.00  0.00     0.209 A 
BRANCH   9  14
ATOM     14  N   UNL A   1      31.783  21.082  21.387  1.00  0.00    -0.398 N 
ATOM     15  H   UNL A   1      31.302  20.459  20.794  1.00  0.00     0.156 HD
ATOM     16  H   UNL A   1      32.067  21.962  21.050  1.00  0.00     0.156 HD
ENDBRANCH   9  14
BRANCH  12  17
ATOM     17  N   UNL A   1      32.772  17.607  24.653  1.00  0.00     0.066 N 
ATOM     18  O   UNL A   1      32.019  17.127  25.512  1.00  0.00    -0.258 OA
ATOM     19  O   UNL A   1      33.640  16.969  24.037  1.00  0.00    -0.258 OA
ENDBRANCH  12  17
BRANCH  13  20
ATOM     20  O   UNL A   1      33.139  19.712  26.632  1.00  0.00    -0.501 OA
ATOM     21  H   UNL A   1      32.615  19.111  27.126  1.00  0.00     0.293 HD
ENDBRANCH  13  20
ENDBRANCH   6   8
ENDBRANCH   5   6
ENDBRANCH   4   5
ENDBRANCH   3   4
ENDBRANCH   2   3
ENDBRANCH   1   2
BRANCH   1  22
ATOM     22  C   UNL A   1      37.760  20.018  25.074  1.00  0.00     0.261 C 
BRANCH  22  23
ATOM     23  O   UNL A   1      38.761  21.044  25.196  1.00  0.00    -0.460 OA
BRANCH  23  24
ATOM     24  C   UNL A   1      39.629  20.869  26.224  1.00  0.00     0.338 C 
ATOM     25  O   UNL A   1      40.154  19.819  26.567  1.00  0.00    -0.246 OA
BRANCH  24  26
ATOM     26  C   UNL A   1      40.016  22.175  26.793  1.00  0.00     0.060 A 
ATOM     27  C   UNL A   1      39.288  23.300  26.386  1.00  0.00     0.016 A 
ATOM     28  C   UNL A   1      41.109  22.314  27.652  1.00  0.00     0.016 A 
ATOM     29  C   UNL A   1      39.676  24.573  26.800  1.00  0.00     0.010 A 
ATOM     30  C   UNL A   1      41.502  23.595  28.060  1.00  0.00     0.010 A 
ATOM     31  C   UNL A   1      40.807  24.732  27.610  1.00  0.00    -0.014 A 
BRANCH  31  32
ATOM     32  C   UNL A   1      41.341  26.095  27.866  1.00  0.00     0.031 A 
ATOM     33  C   UNL A   1      42.713  26.447  27.355  1.00  0.00     0.074 A 
ATOM     34  C   UNL A   1      40.604  27.014  28.516  1.00  0.00     0.049 A 
ATOM     35  N   UNL A   1      43.393  27.555  27.496  1.00  0.00    -0.248 NA
ATOM     36  C   UNL A   1      43.410  25.406  26.584  1.00  0.00     0.031 C 
ATOM     37  C   UNL A   1      39.245  26.804  29.015  1.00  0.00     0.029 A 
ATOM     38  N   UNL A   1      40.897  28.307  28.873  1.00  0.00    -0.354 N 
ATOM     39  C   UNL A   1      44.601  27.345  26.838  1.00  0.00     0.074 A 
ATOM     40  C   UNL A   1      44.571  25.992  26.326  1.00  0.00     0.031 C 
ATOM     41  C   UNL A   1      38.825  27.929  29.622  1.00  0.00     0.029 A 
ATOM     42  C   UNL A   1      39.897  28.923  29.590  1.00  0.00     0.049 A 
ATOM     43  H   UNL A   1      41.742  28.751  28.638  1.00  0.00     0.167 HD
ATOM     44  C   UNL A   1      45.637  28.205  26.672  1.00  0.00     0.034 A 
ATOM     45  C   UNL A   1      39.863  30.137  30.175  1.00  0.00     0.034 A 
ATOM     46  C   UNL A   1      45.654  29.551  27.191  1.00  0.00     0.049 A 
ATOM     47  C   UNL A   1      41.064  31.046  30.048  1.00  0.00     0.074 A 
ATOM     48  C   UNL A   1      46.643  30.511  27.061  1.00  0.00     0.029 A 
ATOM     49  N   UNL A   1      44.643  30.125  27.951  1.00  0.00    -0.354 N 
ATOM     50  N   UNL A   1      42.195  30.839  29.412  1.00  0.00    -0.248 NA
ATOM     51  C   UNL A   1      40.980  32.354  30.711  1.00  0.00     0.031 C 
ATOM     52  C   UNL A   1      46.262  31.637  27.800  1.00  0.00     0.029 A 
ATOM     53  C   UNL A   1      45.000  31.412  28.326  1.00  0.00     0.049 A 
ATOM     54  H   UNL A   1      43.796  29.683  28.188  1.00  0.00     0.167 HD
ATOM     55  C   UNL A   1      42.938  32.007  29.570  1.00  0.00     0.074 A 
ATOM     56  C   UNL A   1      42.124  32.916  30.349  1.00  0.00     0.031 C 
ATOM     57  C   UNL A   1      44.180  32.305  29.108  1.00  0.00     0.034 A 
BRANCH  44  58
ATOM     58  C   UNL A   1      46.856  27.696  25.943  1.00  0.00     0.023 A 
ATOM     59  C   UNL A   1      47.096  27.998  24.592  1.00  0.00     0.031 A 
ATOM     60  C   UNL A   1      47.790  26.887  26.614  1.00  0.00     0.131 A 
ATOM     61  C   UNL A   1      48.212  27.450  23.940  1.00  0.00     0.055 A 
ATOM     62  C   UNL A   1      48.936  26.402  25.980  1.00  0.00     0.041 A 
ATOM     63  F   UNL A   1      47.601  26.546  27.900  1.00  0.00    -0.206 F 
ATOM     64  C   UNL A   1      49.146  26.674  24.632  1.00  0.00     0.022 A 
BRANCH  61  65
ATOM     65  S   UNL A   1      48.363  27.664  22.145  1.00  0.00     0.124 S 
ATOM     66  O   UNL A   1      47.064  28.239  21.806  1.00  0.00    -0.237 OA
ATOM     67  O   UNL A   1      49.509  28.559  22.030  1.00  0.00    -0.237 OA
ATOM     68  O   UNL A   1      48.582  26.305  21.656  1.00  0.00    -0.744 OA
ENDBRANCH  61  65
ENDBRANCH  44  58
BRANCH  45  69
ATOM     69  C   UNL A   1      38.679  30.563  30.978  1.00  0.00     0.023 A 
ATOM     70  C   UNL A   1      37.576  31.187  30.372  1.00  0.00     0.031 A 
ATOM     71  C   UNL A   1      38.669  30.425  32.378  1.00  0.00     0.131 A 
ATOM     72  C   UNL A   1      36.538  31.698  31.166  1.00  0.00     0.055 A 
ATOM     73  C   UNL A   1      37.605  30.883  33.158  1.00  0.00     0.041 A 
ATOM     74  F   UNL A   1      39.699  29.841  33.011  1.00  0.00    -0.206 F 
ATOM     75  C   UNL A   1      36.539  31.539  32.553  1.00  0.00     0.022 A 
BRANCH  72  76
ATOM     76  S   UNL A   1      35.234  32.675  30.366  1.00  0.00     0.124 S 
ATOM     77  O   UNL A   1      34.811  31.782  29.293  1.00  0.00    -0.237 OA
ATOM     78  O   UNL A   1      34.284  32.862  31.458  1.00  0.00    -0.237 OA
ATOM     79  O   UNL A   1      35.931  33.884  29.934  1.00  0.00    -0.744 OA
ENDBRANCH  72  76
ENDBRANCH  45  69
BRANCH  57  80
ATOM     80  C   UNL A   1      44.704  33.694  29.387  1.00  0.00     0.023 A 
ATOM     81  C   UNL A   1      44.492  34.761  28.497  1.00  0.00     0.031 A 
ATOM     82  C   UNL A   1      45.437  33.947  30.560  1.00  0.00     0.131 A 
ATOM     83  C   UNL A   1      45.053  36.019  28.768  1.00  0.00     0.055 A 
ATOM     84  C   UNL A   1      45.942  35.215  30.854  1.00  0.00     0.041 A 
ATOM     85  F   UNL A   1      45.672  32.965  31.445  1.00  0.00    -0.206 F 
ATOM     86  C   UNL A   1      45.762  36.257  29.948  1.00  0.00     0.022 A 
BRANCH  83  87
ATOM     87  S   UNL A   1      44.920  37.322  27.512  1.00  0.00     0.124 S 
ATOM     88  O   UNL A   1      43.585  37.089  26.972  1.00  0.00    -0.237 OA
ATOM     89  O   UNL A   1      45.086  38.536  28.304  1.00  0.00    -0.237 OA
ATOM     90  O   UNL A   1      46.020  37.028  26.594  1.00  0.00    -0.744 OA
ENDBRANCH  83  87
ENDBRANCH  57  80
ENDBRANCH  31  32
ENDBRANCH  24  26
ENDBRANCH  23  24
ENDBRANCH  22  23
ENDBRANCH   1  22
TORSDOF 20
ENDMDL
MODEL 2
REMARK VINA RESULT:     -10.8      6.133      8.782
REMARK SMILES Nc1cc(C(=O)OCCOCCOC(=O)c2ccc(-c3c4nc(c(-c5cc(S(=O)(=O)[O-])ccc5F)c5ccc([nH]5)c(-c5cc(S(=O)(=O)[O-])ccc5F)c5nc(c(-c6cc(S(=O)(=O)[O-])ccc6F)c6ccc3[nH]6)C=C5)C=C4)cc2)c(O)c([N+](=O)[O-])c1
REMARK SMILES IDX 11 1 10 2 9 3 8 4 7 5 5 6 6 7 4 8 2 9 3 10 85 11 81 12 79 13
REMARK SMILES IDX 1 14 82 17 83 18 84 19 80 20 12 22 13 23 14 24 15 25 16 26
REMARK SMILES IDX 17 27 78 28 18 29 77 30 19 31 20 32 21 33 71 34 22 35 76 36
REMARK SMILES IDX 70 37 72 38 23 39 75 40 69 41 68 42 24 44 56 45 36 46 55 47
REMARK SMILES IDX 37 48 40 49 54 50 73 51 38 52 39 53 53 55 74 56 41 57 25 58
REMARK SMILES IDX 26 59 34 60 27 61 33 62 35 63 32 64 28 65 29 66 30 67 31 68
REMARK SMILES IDX 57 69 58 70 66 71 59 72 65 73 67 74 64 75 60 76 61 77 62 78
REMARK SMILES IDX 63 79 42 80 43 81 51 82 44 83 50 84 52 85 49 86 45 87 46 88
REMARK SMILES IDX 47 89 48 90
REMARK H PARENT 1 15 1 16 80 21 72 43 40 54
REMARK Flexibility Score: inf
ROOT
ATOM      1  C   UNL A   1      32.596  29.700  24.987  1.00  0.00     0.202 C 
ENDROOT
BRANCH   1   2
ATOM      2  O   UNL A   1      33.281  28.600  25.589  1.00  0.00    -0.374 OA
BRANCH   2   3
ATOM      3  C   UNL A   1      32.654  27.318  25.492  1.00  0.00     0.202 C 
BRANCH   3   4
ATOM      4  C   UNL A   1      32.557  26.741  24.078  1.00  0.00     0.261 C 
BRANCH   4   5
ATOM      5  O   UNL A   1      31.186  26.682  23.653  1.00  0.00    -0.460 OA
BRANCH   5   6
ATOM      6  C   UNL A   1      30.914  27.250  22.457  1.00  0.00     0.342 C 
ATOM      7  O   UNL A   1      31.384  26.938  21.371  1.00  0.00    -0.246 OA
BRANCH   6   8
ATOM      8  C   UNL A   1      29.773  28.185  22.571  1.00  0.00     0.111 A 
ATOM      9  C   UNL A   1      27.437  28.398  23.250  1.00  0.00     0.039 A 
ATOM     10  C   UNL A   1      28.599  27.642  23.126  1.00  0.00     0.045 A 
ATOM     11  C   UNL A   1      27.465  29.731  22.850  1.00  0.00     0.115 A 
ATOM     12  C   UNL A   1      28.636  30.285  22.298  1.00  0.00     0.313 A 
ATOM     13  C   UNL A   1      29.807  29.522  22.160  1.00  0.00     0.209 A 
BRANCH   9  14
ATOM     14  N   UNL A   1      26.317  27.867  23.865  1.00  0.00    -0.398 N 
ATOM     15  H   UNL A   1      25.453  27.859  23.390  1.00  0.00     0.156 HD
ATOM     16  H   UNL A   1      26.383  27.498  24.774  1.00  0.00     0.156 HD
ENDBRANCH   9  14
BRANCH  12  17
ATOM     17  N   UNL A   1      28.587  31.677  21.852  1.00  0.00     0.066 N 
ATOM     18  O   UNL A   1      29.152  32.522  22.563  1.00  0.00    -0.258 OA
ATOM     19  O   UNL A   1      27.988  31.928  20.796  1.00  0.00    -0.258 OA
ENDBRANCH  12  17
BRANCH  13  20
ATOM     20  O   UNL A   1      30.963  30.007  21.614  1.00  0.00    -0.501 OA
ATOM     21  H   UNL A   1      31.748  29.496  21.648  1.00  0.00     0.293 HD
ENDBRANCH  13  20
ENDBRANCH   6   8
ENDBRANCH   5   6
ENDBRANCH   4   5
ENDBRANCH   3   4
ENDBRANCH   2   3
ENDBRANCH   1   2
BRANCH   1  22
ATOM     22  C   UNL A   1      31.715  30.543  25.918  1.00  0.00     0.261 C 
BRANCH  22  23
ATOM     23  O   UNL A   1      32.314  30.739  27.211  1.00  0.00    -0.460 OA
BRANCH  23  24
ATOM     24  C   UNL A   1      33.107  31.835  27.308  1.00  0.00     0.338 C 
ATOM     25  O   UNL A   1      32.766  33.000  27.155  1.00  0.00    -0.246 OA
BRANCH  24  26
ATOM     26  C   UNL A   1      34.442  31.457  27.812  1.00  0.00     0.060 A 
ATOM     27  C   UNL A   1      34.648  30.114  28.153  1.00  0.00     0.016 A 
ATOM     28  C   UNL A   1      35.452  32.401  28.013  1.00  0.00     0.016 A 
ATOM     29  C   UNL A   1      35.849  29.718  28.740  1.00  0.00     0.010 A 
ATOM     30  C   UNL A   1      36.655  32.001  28.610  1.00  0.00     0.010 A 
ATOM     31  C   UNL A   1      36.846  30.664  29.005  1.00  0.00    -0.014 A 
BRANCH  31  32
ATOM     32  C   UNL A   1      38.026  30.279  29.823  1.00  0.00     0.031 A 
ATOM     33  C   UNL A   1      39.011  29.290  29.257  1.00  0.00     0.074 A 
ATOM     34  C   UNL A   1      38.234  30.825  31.035  1.00  0.00     0.049 A 
ATOM     35  N   UNL A   1      40.084  28.781  29.805  1.00  0.00    -0.248 NA
ATOM     36  C   UNL A   1      38.745  28.811  27.892  1.00  0.00     0.031 C 
ATOM     37  C   UNL A   1      37.376  31.828  31.665  1.00  0.00     0.029 A 
ATOM     38  N   UNL A   1      39.229  30.608  31.955  1.00  0.00    -0.354 N 
ATOM     39  C   UNL A   1      40.619  27.916  28.856  1.00  0.00     0.074 A 
ATOM     40  C   UNL A   1      39.734  27.947  27.711  1.00  0.00     0.031 C 
ATOM     41  C   UNL A   1      37.879  32.133  32.875  1.00  0.00     0.029 A 
ATOM     42  C   UNL A   1      39.069  31.320  33.121  1.00  0.00     0.049 A 
ATOM     43  H   UNL A   1      39.986  30.000  31.795  1.00  0.00     0.167 HD
ATOM     44  C   UNL A   1      41.749  27.169  28.931  1.00  0.00     0.034 A 
ATOM     45  C   UNL A   1      39.785  31.297  34.264  1.00  0.00     0.034 A 
ATOM     46  C   UNL A   1      42.621  27.146  30.080  1.00  0.00     0.049 A 
ATOM     47  C   UNL A   1      40.993  30.393  34.355  1.00  0.00     0.074 A 
ATOM     48  C   UNL A   1      43.801  26.442  30.251  1.00  0.00     0.029 A 
ATOM     49  N   UNL A   1      42.403  27.845  31.260  1.00  0.00    -0.354 N 
ATOM     50  N   UNL A   1      41.495  29.589  33.444  1.00  0.00    -0.248 NA
ATOM     51  C   UNL A   1      41.733  30.398  35.623  1.00  0.00     0.031 C 
ATOM     52  C   UNL A   1      44.257  26.659  31.556  1.00  0.00     0.029 A 
ATOM     53  C   UNL A   1      43.407  27.561  32.175  1.00  0.00     0.049 A 
ATOM     54  H   UNL A   1      41.647  28.454  31.423  1.00  0.00     0.167 HD
ATOM     55  C   UNL A   1      42.630  29.025  34.021  1.00  0.00     0.074 A 
ATOM     56  C   UNL A   1      42.745  29.587  35.350  1.00  0.00     0.031 C 
ATOM     57  C   UNL A   1      43.505  28.127  33.499  1.00  0.00     0.034 A 
BRANCH  44  58
ATOM     58  C   UNL A   1      42.076  26.278  27.758  1.00  0.00     0.023 A 
ATOM     59  C   UNL A   1      41.657  24.938  27.701  1.00  0.00     0.031 A 
ATOM     60  C   UNL A   1      42.827  26.781  26.680  1.00  0.00     0.131 A 
ATOM     61  C   UNL A   1      42.039  24.131  26.618  1.00  0.00     0.055 A 
ATOM     62  C   UNL A   1      43.143  25.993  25.571  1.00  0.00     0.041 A 
ATOM     63  F   UNL A   1      43.273  28.047  26.690  1.00  0.00    -0.206 F 
ATOM     64  C   UNL A   1      42.758  24.656  25.541  1.00  0.00     0.022 A 
BRANCH  61  65
ATOM     65  S   UNL A   1      41.686  22.353  26.690  1.00  0.00     0.124 S 
ATOM     66  O   UNL A   1      40.242  22.347  26.910  1.00  0.00    -0.237 OA
ATOM     67  O   UNL A   1      42.136  21.889  25.384  1.00  0.00    -0.237 OA
ATOM     68  O   UNL A   1      42.484  21.892  27.824  1.00  0.00    -0.744 OA
ENDBRANCH  61  65
ENDBRANCH  44  58
BRANCH  45  69
ATOM     69  C   UNL A   1      39.368  32.115  35.441  1.00  0.00     0.023 A 
ATOM     70  C   UNL A   1      39.874  33.410  35.642  1.00  0.00     0.031 A 
ATOM     71  C   UNL A   1      38.518  31.581  36.425  1.00  0.00     0.131 A 
ATOM     72  C   UNL A   1      39.571  34.103  36.825  1.00  0.00     0.055 A 
ATOM     73  C   UNL A   1      38.172  32.298  37.572  1.00  0.00     0.041 A 
ATOM     74  F   UNL A   1      38.009  30.346  36.287  1.00  0.00    -0.206 F 
ATOM     75  C   UNL A   1      38.713  33.561  37.785  1.00  0.00     0.022 A 
BRANCH  72  76
ATOM     76  S   UNL A   1      40.404  35.684  37.142  1.00  0.00     0.124 S 
ATOM     77  O   UNL A   1      40.224  35.830  38.582  1.00  0.00    -0.237 OA
ATOM     78  O   UNL A   1      41.762  35.405  36.688  1.00  0.00    -0.237 OA
ATOM     79  O   UNL A   1      39.656  36.633  36.319  1.00  0.00    -0.744 OA
ENDBRANCH  72  76
ENDBRANCH  45  69
BRANCH  57  80
ATOM     80  C   UNL A   1      44.692  27.744  34.351  1.00  0.00     0.023 A 
ATOM     81  C   UNL A   1      44.667  26.623  35.200  1.00  0.00     0.031 A 
ATOM     82  C   UNL A   1      45.863  28.522  34.318  1.00  0.00     0.131 A 
ATOM     83  C   UNL A   1      45.771  26.343  36.020  1.00  0.00     0.055 A 
ATOM     84  C   UNL A   1      46.980  28.204  35.091  1.00  0.00     0.041 A 
ATOM     85  F   UNL A   1      45.942  29.604  33.527  1.00  0.00    -0.206 F 
ATOM     86  C   UNL A   1      46.933  27.116  35.959  1.00  0.00     0.022 A 
BRANCH  83  87
ATOM     87  S   UNL A   1      45.636  25.004  37.237  1.00  0.00     0.124 S 
ATOM     88  O   UNL A   1      44.416  24.327  36.809  1.00  0.00    -0.237 OA
ATOM     89  O   UNL A   1      46.880  24.269  37.032  1.00  0.00    -0.237 OA
ATOM     90  O   UNL A   1      45.538  25.710  38.514  1.00  0.00    -0.744 OA
ENDBRANCH  83  87
ENDBRANCH  57  80
ENDBRANCH  31  32
ENDBRANCH  24  26
ENDBRANCH  23  24
ENDBRANCH  22  23
ENDBRANCH   1  22
TORSDOF 20
ENDMDL
MODEL 3
REMARK VINA RESULT:     -10.7      5.158      7.600
REMARK SMILES Nc1cc(C(=O)OCCOCCOC(=O)c2ccc(-c3c4nc(c(-c5cc(S(=O)(=O)[O-])ccc5F)c5ccc([nH]5)c(-c5cc(S(=O)(=O)[O-])ccc5F)c5nc(c(-c6cc(S(=O)(=O)[O-])ccc6F)c6ccc3[nH]6)C=C5)C=C4)cc2)c(O)c([N+](=O)[O-])c1
REMARK SMILES IDX 11 1 10 2 9 3 8 4 7 5 5 6 6 7 4 8 2 9 3 10 85 11 81 12 79 13
REMARK SMILES IDX 1 14 82 17 83 18 84 19 80 20 12 22 13 23 14 24 15 25 16 26
REMARK SMILES IDX 17 27 78 28 18 29 77 30 19 31 20 32 21 33 71 34 22 35 76 36
REMARK SMILES IDX 70 37 72 38 23 39 75 40 69 41 68 42 24 44 56 45 36 46 55 47
REMARK SMILES IDX 37 48 40 49 54 50 73 51 38 52 39 53 53 55 74 56 41 57 25 58
REMARK SMILES IDX 26 59 34 60 27 61 33 62 35 63 32 64 28 65 29 66 30 67 31 68
REMARK SMILES IDX 57 69 58 70 66 71 59 72 65 73 67 74 64 75 60 76 61 77 62 78
REMARK SMILES IDX 63 79 42 80 43 81 51 82 44 83 50 84 52 85 49 86 45 87 46 88
REMARK SMILES IDX 47 89 48 90
REMARK H PARENT 1 15 1 16 80 21 72 43 40 54
REMARK Flexibility Score: inf
ROOT
ATOM      1  C   UNL A   1      32.046  29.106  25.000  1.00  0.00     0.202 C 
ENDROOT
BRANCH   1   2
ATOM      2  O   UNL A   1      30.983  28.172  24.800  1.00  0.00    -0.374 OA
BRANCH   2   3
ATOM      3  C   UNL A   1      31.317  26.785  24.892  1.00  0.00     0.202 C 
BRANCH   3   4
ATOM      4  C   UNL A   1      31.715  26.299  26.288  1.00  0.00     0.261 C 
BRANCH   4   5
ATOM      5  O   UNL A   1      32.644  25.207  26.192  1.00  0.00    -0.460 OA
BRANCH   5   6
ATOM      6  C   UNL A   1      32.232  24.034  26.725  1.00  0.00     0.342 C 
ATOM      7  O   UNL A   1      31.170  23.817  27.292  1.00  0.00    -0.246 OA
BRANCH   6   8
ATOM      8  C   UNL A   1      33.146  22.937  26.340  1.00  0.00     0.111 A 
ATOM      9  C   UNL A   1      35.489  22.309  26.052  1.00  0.00     0.039 A 
ATOM     10  C   UNL A   1      34.519  23.235  26.426  1.00  0.00     0.045 A 
ATOM     11  C   UNL A   1      35.077  21.050  25.626  1.00  0.00     0.115 A 
ATOM     12  C   UNL A   1      33.706  20.739  25.542  1.00  0.00     0.313 A 
ATOM     13  C   UNL A   1      32.724  21.676  25.906  1.00  0.00     0.209 A 
BRANCH   9  14
ATOM     14  N   UNL A   1      36.833  22.597  26.212  1.00  0.00    -0.398 N 
ATOM     15  H   UNL A   1      37.107  23.405  26.704  1.00  0.00     0.156 HD
ATOM     16  H   UNL A   1      37.514  21.994  25.836  1.00  0.00     0.156 HD
ENDBRANCH   9  14
BRANCH  12  17
ATOM     17  N   UNL A   1      33.335  19.416  25.040  1.00  0.00     0.066 N 
ATOM     18  O   UNL A   1      34.225  18.744  24.497  1.00  0.00    -0.258 OA
ATOM     19  O   UNL A   1      32.161  19.048  25.187  1.00  0.00    -0.258 OA
ENDBRANCH  12  17
BRANCH  13  20
ATOM     20  O   UNL A   1      31.381  21.430  25.825  1.00  0.00    -0.501 OA
ATOM     21  H   UNL A   1      31.013  20.689  26.266  1.00  0.00     0.293 HD
ENDBRANCH  13  20
ENDBRANCH   6   8
ENDBRANCH   5   6
ENDBRANCH   4   5
ENDBRANCH   3   4
ENDBRANCH   2   3
ENDBRANCH   1   2
BRANCH   1  22
ATOM     22  C   UNL A   1      31.673  30.421  25.697  1.00  0.00     0.261 C 
BRANCH  22  23
ATOM     23  O   UNL A   1      32.253  30.529  27.009  1.00  0.00    -0.460 OA
BRANCH  23  24
ATOM     24  C   UNL A   1      32.960  31.667  27.224  1.00  0.00     0.338 C 
ATOM     25  O   UNL A   1      32.535  32.813  27.166  1.00  0.00    -0.246 OA
BRANCH  24  26
ATOM     26  C   UNL A   1      34.309  31.343  27.727  1.00  0.00     0.060 A 
ATOM     27  C   UNL A   1      34.569  30.010  28.069  1.00  0.00     0.016 A 
ATOM     28  C   UNL A   1      35.280  32.326  27.927  1.00  0.00     0.016 A 
ATOM     29  C   UNL A   1      35.785  29.662  28.655  1.00  0.00     0.010 A 
ATOM     30  C   UNL A   1      36.498  31.976  28.524  1.00  0.00     0.010 A 
ATOM     31  C   UNL A   1      36.743  30.648  28.920  1.00  0.00    -0.014 A 
BRANCH  31  32
ATOM     32  C   UNL A   1      37.938  30.311  29.736  1.00  0.00     0.031 A 
ATOM     33  C   UNL A   1      38.950  29.343  29.181  1.00  0.00     0.074 A 
ATOM     34  C   UNL A   1      38.135  30.880  30.939  1.00  0.00     0.049 A 
ATOM     35  N   UNL A   1      40.040  28.875  29.730  1.00  0.00    -0.248 NA
ATOM     36  C   UNL A   1      38.693  28.837  27.824  1.00  0.00     0.031 C 
ATOM     37  C   UNL A   1      37.250  31.866  31.559  1.00  0.00     0.029 A 
ATOM     38  N   UNL A   1      39.141  30.707  31.858  1.00  0.00    -0.354 N 
ATOM     39  C   UNL A   1      40.597  28.013  28.791  1.00  0.00     0.074 A 
ATOM     40  C   UNL A   1      39.707  28.001  27.651  1.00  0.00     0.031 C 
ATOM     41  C   UNL A   1      37.749  32.204  32.762  1.00  0.00     0.029 A 
ATOM     42  C   UNL A   1      38.964  31.431  33.014  1.00  0.00     0.049 A 
ATOM     43  H   UNL A   1      39.915  30.120  31.703  1.00  0.00     0.167 HD
ATOM     44  C   UNL A   1      41.750  27.302  28.872  1.00  0.00     0.034 A 
ATOM     45  C   UNL A   1      39.686  31.447  34.153  1.00  0.00     0.034 A 
ATOM     46  C   UNL A   1      42.627  27.321  30.017  1.00  0.00     0.049 A 
ATOM     47  C   UNL A   1      40.921  30.581  34.251  1.00  0.00     0.074 A 
ATOM     48  C   UNL A   1      43.829  26.656  30.192  1.00  0.00     0.029 A 
ATOM     49  N   UNL A   1      42.394  28.031  31.187  1.00  0.00    -0.354 N 
ATOM     50  N   UNL A   1      41.443  29.779  33.350  1.00  0.00    -0.248 NA
ATOM     51  C   UNL A   1      41.666  30.627  35.516  1.00  0.00     0.031 C 
ATOM     52  C   UNL A   1      44.284  26.907  31.492  1.00  0.00     0.029 A 
ATOM     53  C   UNL A   1      43.409  27.792  32.101  1.00  0.00     0.049 A 
ATOM     54  H   UNL A   1      41.620  28.619  31.345  1.00  0.00     0.167 HD
ATOM     55  C   UNL A   1      42.597  29.258  33.930  1.00  0.00     0.074 A 
ATOM     56  C   UNL A   1      42.701  29.843  35.250  1.00  0.00     0.031 C 
ATOM     57  C   UNL A   1      43.496  28.379  33.417  1.00  0.00     0.034 A 
BRANCH  44  58
ATOM     58  C   UNL A   1      42.098  26.404  27.710  1.00  0.00     0.023 A 
ATOM     59  C   UNL A   1      41.611  25.089  27.613  1.00  0.00     0.031 A 
ATOM     60  C   UNL A   1      42.939  26.873  26.685  1.00  0.00     0.131 A 
ATOM     61  C   UNL A   1      42.013  24.271  26.545  1.00  0.00     0.055 A 
ATOM     62  C   UNL A   1      43.278  26.079  25.588  1.00  0.00     0.041 A 
ATOM     63  F   UNL A   1      43.452  28.113  26.736  1.00  0.00    -0.206 F 
ATOM     64  C   UNL A   1      42.824  24.765  25.520  1.00  0.00     0.022 A 
BRANCH  61  65
ATOM     65  S   UNL A   1      41.560  22.515  26.576  1.00  0.00     0.124 S 
ATOM     66  O   UNL A   1      40.104  22.584  26.492  1.00  0.00    -0.237 OA
ATOM     67  O   UNL A   1      42.245  21.993  25.399  1.00  0.00    -0.237 OA
ATOM     68  O   UNL A   1      42.083  22.049  27.859  1.00  0.00    -0.744 OA
ENDBRANCH  61  65
ENDBRANCH  44  58
BRANCH  45  69
ATOM     69  C   UNL A   1      39.250  32.269  35.320  1.00  0.00     0.023 A 
ATOM     70  C   UNL A   1      39.658  33.606  35.462  1.00  0.00     0.031 A 
ATOM     71  C   UNL A   1      38.482  31.703  36.354  1.00  0.00     0.131 A 
ATOM     72  C   UNL A   1      39.346  34.312  36.634  1.00  0.00     0.055 A 
ATOM     73  C   UNL A   1      38.123  32.430  37.491  1.00  0.00     0.041 A 
ATOM     74  F   UNL A   1      38.067  30.428  36.274  1.00  0.00    -0.206 F 
ATOM     75  C   UNL A   1      38.570  33.738  37.643  1.00  0.00     0.022 A 
BRANCH  72  76
ATOM     76  S   UNL A   1      40.062  35.963  36.869  1.00  0.00     0.124 S 
ATOM     77  O   UNL A   1      39.739  36.609  35.602  1.00  0.00    -0.237 OA
ATOM     78  O   UNL A   1      39.337  36.443  38.039  1.00  0.00    -0.237 OA
ATOM     79  O   UNL A   1      41.482  35.689  37.085  1.00  0.00    -0.744 OA
ENDBRANCH  72  76
ENDBRANCH  45  69
BRANCH  57  80
ATOM     80  C   UNL A   1      44.699  28.045  34.268  1.00  0.00     0.023 A 
ATOM     81  C   UNL A   1      44.661  27.029  35.240  1.00  0.00     0.031 A 
ATOM     82  C   UNL A   1      45.896  28.764  34.108  1.00  0.00     0.131 A 
ATOM     83  C   UNL A   1      45.783  26.797  36.051  1.00  0.00     0.055 A 
ATOM     84  C   UNL A   1      47.028  28.489  34.877  1.00  0.00     0.041 A 
ATOM     85  F   UNL A   1      45.988  29.746  33.197  1.00  0.00    -0.206 F 
ATOM     86  C   UNL A   1      46.971  27.509  35.865  1.00  0.00     0.022 A 
BRANCH  83  87
ATOM     87  S   UNL A   1      45.642  25.611  37.416  1.00  0.00     0.124 S 
ATOM     88  O   UNL A   1      46.795  25.956  38.240  1.00  0.00    -0.237 OA
ATOM     89  O   UNL A   1      44.335  25.938  37.979  1.00  0.00    -0.237 OA
ATOM     90  O   UNL A   1      45.721  24.311  36.751  1.00  0.00    -0.744 OA
ENDBRANCH  83  87
ENDBRANCH  57  80
ENDBRANCH  31  32
ENDBRANCH  24  26
ENDBRANCH  23  24
ENDBRANCH  22  23
ENDBRANCH   1  22
TORSDOF 20
ENDMDL
