MODEL 1
REMARK VINA RESULT:     -12.3      0.000      0.000
REMARK SMILES O=C(OCCOCCOC(=O)c1nnn(-c2cccc(C(F)(F)F)c2)c1[C@H]1COc2ccccc2O1)c1ccc(-c2c3nc(c(-c4cc(S(=O)(=O)[O-])ccc4F)c4ccc([nH]4)c(-c4cc(S(=O)(=O)[O-])ccc4F)c4nc(c(-c5cc(S(=O)(=O)[O-])ccc5F)c5ccc2[nH]5)C=C4)C=C3)cc1
REMARK SMILES IDX 5 1 4 2 3 3 2 4 1 5 37 6 38 7 99 8 39 9 98 10 40 11 41 12
REMARK SMILES IDX 42 13 92 14 43 15 97 16 91 17 93 18 44 19 96 20 90 21 89 22
REMARK SMILES IDX 45 24 77 25 57 26 76 27 58 28 61 29 75 30 94 31 59 32 60 33
REMARK SMILES IDX 74 35 95 36 62 37 46 38 47 39 55 40 48 41 54 42 56 43 53 44
REMARK SMILES IDX 49 45 50 46 51 47 52 48 78 49 79 50 87 51 80 52 86 53 88 54
REMARK SMILES IDX 85 55 81 56 82 57 83 58 84 59 63 60 64 61 72 62 65 63 71 64
REMARK SMILES IDX 73 65 70 66 66 67 67 68 68 69 69 70 6 71 7 72 8 73 9 74
REMARK SMILES IDX 10 75 11 76 12 77 13 78 26 79 14 80 15 81 27 82 28 83 36 84
REMARK SMILES IDX 29 85 35 86 30 87 34 88 31 89 33 90 32 91 16 92 17 93 25 94
REMARK SMILES IDX 18 95 20 96 19 97 21 98 22 99 23 100 24 101
REMARK H PARENT 93 23 61 34
REMARK Flexibility Score: inf
ROOT
ATOM      1  C   UNL A   1      32.338  30.010  27.099  1.00  0.00     0.202 C 
ENDROOT
BRANCH   1   2
ATOM      2  C   UNL A   1      33.810  30.364  26.862  1.00  0.00     0.261 C 
BRANCH   2   3
ATOM      3  O   UNL A   1      34.262  31.430  27.708  1.00  0.00    -0.460 OA
BRANCH   3   4
ATOM      4  C   UNL A   1      35.177  31.437  28.701  1.00  0.00     0.338 C 
ATOM      5  O   UNL A   1      34.916  32.111  29.699  1.00  0.00    -0.246 OA
BRANCH   4   6
ATOM      6  C   UNL A   1      36.497  30.723  28.667  1.00  0.00     0.060 A 
ATOM      7  C   UNL A   1      36.745  29.449  28.155  1.00  0.00     0.016 A 
ATOM      8  C   UNL A   1      37.583  31.427  29.224  1.00  0.00     0.016 A 
ATOM      9  C   UNL A   1      37.953  28.810  28.403  1.00  0.00     0.010 A 
ATOM     10  C   UNL A   1      38.820  30.819  29.410  1.00  0.00     0.010 A 
ATOM     11  C   UNL A   1      38.967  29.478  29.083  1.00  0.00    -0.014 A 
BRANCH  11  12
ATOM     12  C   UNL A   1      40.168  28.715  29.403  1.00  0.00     0.031 A 
ATOM     13  C   UNL A   1      40.509  28.610  30.845  1.00  0.00     0.074 A 
ATOM     14  C   UNL A   1      40.907  28.097  28.463  1.00  0.00     0.049 A 
ATOM     15  N   UNL A   1      41.568  29.038  31.452  1.00  0.00    -0.248 NA
ATOM     16  C   UNL A   1      39.487  28.059  31.744  1.00  0.00     0.031 C 
ATOM     17  C   UNL A   1      40.575  27.903  27.050  1.00  0.00     0.029 A 
ATOM     18  N   UNL A   1      42.072  27.406  28.609  1.00  0.00    -0.354 N 
ATOM     19  C   UNL A   1      41.447  28.629  32.779  1.00  0.00     0.074 A 
ATOM     20  C   UNL A   1      40.087  28.184  32.928  1.00  0.00     0.031 C 
ATOM     21  C   UNL A   1      41.381  26.952  26.535  1.00  0.00     0.029 A 
ATOM     22  C   UNL A   1      42.362  26.572  27.538  1.00  0.00     0.049 A 
ATOM     23  H   UNL A   1      42.654  27.489  29.399  1.00  0.00     0.167 HD
ATOM     24  C   UNL A   1      42.535  28.500  33.589  1.00  0.00     0.034 A 
ATOM     25  C   UNL A   1      43.279  25.573  27.505  1.00  0.00     0.034 A 
ATOM     26  C   UNL A   1      43.655  29.266  33.085  1.00  0.00     0.049 A 
ATOM     27  C   UNL A   1      44.290  25.863  28.549  1.00  0.00     0.074 A 
ATOM     28  C   UNL A   1      43.861  30.602  32.796  1.00  0.00     0.029 A 
ATOM     29  N   UNL A   1      44.700  28.601  32.483  1.00  0.00    -0.354 N 
ATOM     30  N   UNL A   1      45.101  26.886  28.502  1.00  0.00    -0.248 NA
ATOM     31  C   UNL A   1      44.117  25.276  29.870  1.00  0.00     0.031 C 
ATOM     32  C   UNL A   1      44.701  30.609  31.644  1.00  0.00     0.029 A 
ATOM     33  C   UNL A   1      45.003  29.283  31.332  1.00  0.00     0.049 A 
ATOM     34  H   UNL A   1      45.147  27.790  32.817  1.00  0.00     0.167 HD
ATOM     35  C   UNL A   1      45.195  27.331  29.812  1.00  0.00     0.074 A 
ATOM     36  C   UNL A   1      44.667  26.237  30.620  1.00  0.00     0.031 C 
ATOM     37  C   UNL A   1      45.428  28.647  30.100  1.00  0.00     0.034 A 
BRANCH  24  38
ATOM     38  C   UNL A   1      42.709  27.400  34.623  1.00  0.00     0.023 A 
ATOM     39  C   UNL A   1      43.555  26.329  34.271  1.00  0.00     0.031 A 
ATOM     40  C   UNL A   1      41.889  27.176  35.751  1.00  0.00     0.131 A 
ATOM     41  C   UNL A   1      43.436  25.074  34.893  1.00  0.00     0.055 A 
ATOM     42  C   UNL A   1      41.829  25.947  36.417  1.00  0.00     0.041 A 
ATOM     43  F   UNL A   1      41.041  28.091  36.231  1.00  0.00    -0.206 F 
ATOM     44  C   UNL A   1      42.570  24.872  35.960  1.00  0.00     0.022 A 
BRANCH  41  45
ATOM     45  S   UNL A   1      44.265  23.662  34.120  1.00  0.00     0.124 S 
ATOM     46  O   UNL A   1      43.212  23.153  33.248  1.00  0.00    -0.237 OA
ATOM     47  O   UNL A   1      45.396  24.306  33.460  1.00  0.00    -0.237 OA
ATOM     48  O   UNL A   1      44.605  22.809  35.255  1.00  0.00    -0.744 OA
ENDBRANCH  41  45
ENDBRANCH  24  38
BRANCH  25  49
ATOM     49  C   UNL A   1      43.101  24.257  26.837  1.00  0.00     0.023 A 
ATOM     50  C   UNL A   1      44.075  23.694  25.992  1.00  0.00     0.031 A 
ATOM     51  C   UNL A   1      42.017  23.423  27.200  1.00  0.00     0.131 A 
ATOM     52  C   UNL A   1      43.931  22.365  25.533  1.00  0.00     0.055 A 
ATOM     53  C   UNL A   1      41.870  22.118  26.731  1.00  0.00     0.041 A 
ATOM     54  F   UNL A   1      41.099  23.821  28.096  1.00  0.00    -0.206 F 
ATOM     55  C   UNL A   1      42.833  21.580  25.897  1.00  0.00     0.022 A 
BRANCH  52  56
ATOM     56  S   UNL A   1      45.240  21.596  24.528  1.00  0.00     0.124 S 
ATOM     57  O   UNL A   1      44.502  20.580  23.785  1.00  0.00    -0.237 OA
ATOM     58  O   UNL A   1      45.749  22.724  23.758  1.00  0.00    -0.237 OA
ATOM     59  O   UNL A   1      46.172  21.070  25.528  1.00  0.00    -0.744 OA
ENDBRANCH  52  56
ENDBRANCH  25  49
BRANCH  37  60
ATOM     60  C   UNL A   1      45.918  29.560  28.997  1.00  0.00     0.023 A 
ATOM     61  C   UNL A   1      47.278  29.770  28.678  1.00  0.00     0.031 A 
ATOM     62  C   UNL A   1      44.952  30.131  28.149  1.00  0.00     0.131 A 
ATOM     63  C   UNL A   1      47.626  30.539  27.551  1.00  0.00     0.055 A 
ATOM     64  C   UNL A   1      45.301  30.878  27.024  1.00  0.00     0.041 A 
ATOM     65  F   UNL A   1      43.642  29.936  28.377  1.00  0.00    -0.206 F 
ATOM     66  C   UNL A   1      46.641  31.089  26.723  1.00  0.00     0.022 A 
BRANCH  63  67
ATOM     67  S   UNL A   1      49.374  30.837  27.138  1.00  0.00     0.124 S 
ATOM     68  O   UNL A   1      49.350  32.121  26.448  1.00  0.00    -0.237 OA
ATOM     69  O   UNL A   1      50.014  30.827  28.451  1.00  0.00    -0.237 OA
ATOM     70  O   UNL A   1      49.721  29.697  26.287  1.00  0.00    -0.744 OA
ENDBRANCH  63  67
ENDBRANCH  37  60
ENDBRANCH  11  12
ENDBRANCH   4   6
ENDBRANCH   3   4
ENDBRANCH   2   3
ENDBRANCH   1   2
BRANCH   1  71
ATOM     71  O   UNL A   1      31.741  28.957  26.348  1.00  0.00    -0.374 OA
BRANCH  71  72
ATOM     72  C   UNL A   1      31.473  27.693  26.953  1.00  0.00     0.202 C 
BRANCH  72  73
ATOM     73  C   UNL A   1      31.218  26.469  26.072  1.00  0.00     0.261 C 
BRANCH  73  74
ATOM     74  O   UNL A   1      30.882  26.825  24.725  1.00  0.00    -0.458 OA
BRANCH  74  75
ATOM     75  C   UNL A   1      31.761  26.400  23.769  1.00  0.00     0.361 C 
ATOM     76  O   UNL A   1      32.540  27.113  23.164  1.00  0.00    -0.244 OA
BRANCH  75  77
ATOM     77  C   UNL A   1      31.726  24.957  23.603  1.00  0.00     0.198 A 
ATOM     78  N   UNL A   1      30.577  24.274  23.278  1.00  0.00    -0.122 NA
ATOM     79  C   UNL A   1      32.757  24.050  23.759  1.00  0.00     0.123 A 
ATOM     80  N   UNL A   1      30.861  22.978  23.242  1.00  0.00    -0.061 NA
ATOM     81  N   UNL A   1      32.115  22.833  23.718  1.00  0.00    -0.213 N 
BRANCH  79  82
ATOM     82  C   UNL A   1      34.228  24.192  23.951  1.00  0.00     0.262 C 
ATOM     83  C   UNL A   1      34.551  24.707  25.360  1.00  0.00     0.281 C 
ATOM     84  O   UNL A   1      34.791  22.905  23.681  1.00  0.00    -0.477 OA
ATOM     85  O   UNL A   1      35.971  24.788  25.536  1.00  0.00    -0.485 OA
ATOM     86  C   UNL A   1      35.941  22.655  24.378  1.00  0.00     0.162 A 
ATOM     87  C   UNL A   1      36.523  23.562  25.266  1.00  0.00     0.161 A 
ATOM     88  C   UNL A   1      36.513  21.400  24.189  1.00  0.00     0.050 A 
ATOM     89  C   UNL A   1      37.697  23.233  25.936  1.00  0.00     0.050 A 
ATOM     90  C   UNL A   1      37.665  21.051  24.891  1.00  0.00     0.004 A 
ATOM     91  C   UNL A   1      38.261  21.969  25.759  1.00  0.00     0.004 A 
ENDBRANCH  79  82
BRANCH  81  92
ATOM     92  C   UNL A   1      32.499  21.658  24.384  1.00  0.00     0.067 A 
ATOM     93  C   UNL A   1      32.839  21.683  25.733  1.00  0.00     0.028 A 
ATOM     94  C   UNL A   1      32.526  20.465  23.647  1.00  0.00     0.041 A 
ATOM     95  C   UNL A   1      33.121  20.474  26.369  1.00  0.00     0.003 A 
ATOM     96  C   UNL A   1      32.845  19.259  24.271  1.00  0.00     0.058 A 
ATOM     97  C   UNL A   1      33.117  19.271  25.647  1.00  0.00     0.013 A 
BRANCH  96  98
ATOM     98  C   UNL A   1      32.877  17.978  23.475  1.00  0.00     0.416 C 
ATOM     99  F   UNL A   1      32.525  16.890  24.213  1.00  0.00    -0.166 F 
ATOM    100  F   UNL A   1      32.026  18.006  22.414  1.00  0.00    -0.166 F 
ATOM    101  F   UNL A   1      34.105  17.693  22.959  1.00  0.00    -0.166 F 
ENDBRANCH  96  98
ENDBRANCH  81  92
ENDBRANCH  75  77
ENDBRANCH  74  75
ENDBRANCH  73  74
ENDBRANCH  72  73
ENDBRANCH  71  72
ENDBRANCH   1  71
TORSDOF 20
ENDMDL
MODEL 2
REMARK VINA RESULT:     -11.9      2.319      6.574
REMARK SMILES O=C(OCCOCCOC(=O)c1nnn(-c2cccc(C(F)(F)F)c2)c1[C@H]1COc2ccccc2O1)c1ccc(-c2c3nc(c(-c4cc(S(=O)(=O)[O-])ccc4F)c4ccc([nH]4)c(-c4cc(S(=O)(=O)[O-])ccc4F)c4nc(c(-c5cc(S(=O)(=O)[O-])ccc5F)c5ccc2[nH]5)C=C4)C=C3)cc1
REMARK SMILES IDX 5 1 4 2 3 3 2 4 1 5 37 6 38 7 99 8 39 9 98 10 40 11 41 12
REMARK SMILES IDX 42 13 92 14 43 15 97 16 91 17 93 18 44 19 96 20 90 21 89 22
REMARK SMILES IDX 45 24 77 25 57 26 76 27 58 28 61 29 75 30 94 31 59 32 60 33
REMARK SMILES IDX 74 35 95 36 62 37 46 38 47 39 55 40 48 41 54 42 56 43 53 44
REMARK SMILES IDX 49 45 50 46 51 47 52 48 78 49 79 50 87 51 80 52 86 53 88 54
REMARK SMILES IDX 85 55 81 56 82 57 83 58 84 59 63 60 64 61 72 62 65 63 71 64
REMARK SMILES IDX 73 65 70 66 66 67 67 68 68 69 69 70 6 71 7 72 8 73 9 74
REMARK SMILES IDX 10 75 11 76 12 77 13 78 26 79 14 80 15 81 27 82 28 83 36 84
REMARK SMILES IDX 29 85 35 86 30 87 34 88 31 89 33 90 32 91 16 92 17 93 25 94
REMARK SMILES IDX 18 95 20 96 19 97 21 98 22 99 23 100 24 101
REMARK H PARENT 93 23 61 34
REMARK Flexibility Score: inf
ROOT
ATOM      1  C   UNL A   1      33.798  29.411  27.246  1.00  0.00     0.202 C 
ENDROOT
BRANCH   1   2
ATOM      2  C   UNL A   1      35.118  30.187  27.192  1.00  0.00     0.261 C 
BRANCH   2   3
ATOM      3  O   UNL A   1      35.532  30.658  28.482  1.00  0.00    -0.460 OA
BRANCH   3   4
ATOM      4  C   UNL A   1      36.343  30.097  29.404  1.00  0.00     0.338 C 
ATOM      5  O   UNL A   1      36.047  30.267  30.589  1.00  0.00    -0.246 OA
BRANCH   4   6
ATOM      6  C   UNL A   1      37.591  29.321  29.102  1.00  0.00     0.060 A 
ATOM      7  C   UNL A   1      38.155  28.310  29.881  1.00  0.00     0.016 A 
ATOM      8  C   UNL A   1      38.251  29.671  27.907  1.00  0.00     0.016 A 
ATOM      9  C   UNL A   1      39.435  27.842  29.613  1.00  0.00     0.010 A 
ATOM     10  C   UNL A   1      39.502  29.151  27.593  1.00  0.00     0.010 A 
ATOM     11  C   UNL A   1      40.129  28.309  28.501  1.00  0.00    -0.014 A 
BRANCH  11  12
ATOM     12  C   UNL A   1      41.506  27.858  28.338  1.00  0.00     0.031 A 
ATOM     13  C   UNL A   1      41.690  26.566  27.628  1.00  0.00     0.074 A 
ATOM     14  C   UNL A   1      42.561  28.581  28.758  1.00  0.00     0.049 A 
ATOM     15  N   UNL A   1      42.211  25.471  28.076  1.00  0.00    -0.248 NA
ATOM     16  C   UNL A   1      41.114  26.447  26.282  1.00  0.00     0.031 C 
ATOM     17  C   UNL A   1      42.560  29.961  29.248  1.00  0.00     0.029 A 
ATOM     18  N   UNL A   1      43.885  28.260  28.726  1.00  0.00    -0.354 N 
ATOM     19  C   UNL A   1      42.222  24.580  27.005  1.00  0.00     0.074 A 
ATOM     20  C   UNL A   1      41.392  25.176  25.992  1.00  0.00     0.031 C 
ATOM     21  C   UNL A   1      43.824  30.434  29.232  1.00  0.00     0.029 A 
ATOM     22  C   UNL A   1      44.725  29.356  28.862  1.00  0.00     0.049 A 
ATOM     23  H   UNL A   1      44.214  27.339  28.614  1.00  0.00     0.167 HD
ATOM     24  C   UNL A   1      43.078  23.521  26.965  1.00  0.00     0.034 A 
ATOM     25  C   UNL A   1      46.055  29.404  28.599  1.00  0.00     0.034 A 
ATOM     26  C   UNL A   1      43.562  23.190  28.288  1.00  0.00     0.049 A 
ATOM     27  C   UNL A   1      46.576  28.019  28.688  1.00  0.00     0.074 A 
ATOM     28  C   UNL A   1      42.956  22.826  29.477  1.00  0.00     0.029 A 
ATOM     29  N   UNL A   1      44.853  23.527  28.630  1.00  0.00    -0.354 N 
ATOM     30  N   UNL A   1      46.613  27.334  29.800  1.00  0.00    -0.248 NA
ATOM     31  C   UNL A   1      46.652  27.221  27.472  1.00  0.00     0.031 C 
ATOM     32  C   UNL A   1      43.740  23.441  30.497  1.00  0.00     0.029 A 
ATOM     33  C   UNL A   1      44.806  24.094  29.878  1.00  0.00     0.049 A 
ATOM     34  H   UNL A   1      45.659  23.387  28.082  1.00  0.00     0.167 HD
ATOM     35  C   UNL A   1      46.285  26.037  29.435  1.00  0.00     0.074 A 
ATOM     36  C   UNL A   1      46.436  26.005  27.983  1.00  0.00     0.031 C 
ATOM     37  C   UNL A   1      45.652  25.192  30.303  1.00  0.00     0.034 A 
BRANCH  24  38
ATOM     38  C   UNL A   1      43.768  23.022  25.706  1.00  0.00     0.023 A 
ATOM     39  C   UNL A   1      43.677  21.642  25.438  1.00  0.00     0.031 A 
ATOM     40  C   UNL A   1      44.738  23.720  24.953  1.00  0.00     0.131 A 
ATOM     41  C   UNL A   1      44.619  20.996  24.619  1.00  0.00     0.055 A 
ATOM     42  C   UNL A   1      45.626  23.085  24.078  1.00  0.00     0.041 A 
ATOM     43  F   UNL A   1      44.945  25.036  25.069  1.00  0.00    -0.206 F 
ATOM     44  C   UNL A   1      45.602  21.708  23.943  1.00  0.00     0.022 A 
BRANCH  41  45
ATOM     45  S   UNL A   1      44.672  19.186  24.650  1.00  0.00     0.124 S 
ATOM     46  O   UNL A   1      45.509  18.943  25.820  1.00  0.00    -0.237 OA
ATOM     47  O   UNL A   1      43.259  18.850  24.785  1.00  0.00    -0.237 OA
ATOM     48  O   UNL A   1      45.277  18.846  23.366  1.00  0.00    -0.744 OA
ENDBRANCH  41  45
ENDBRANCH  24  38
BRANCH  25  49
ATOM     49  C   UNL A   1      46.771  30.540  27.963  1.00  0.00     0.023 A 
ATOM     50  C   UNL A   1      46.111  31.536  27.219  1.00  0.00     0.031 A 
ATOM     51  C   UNL A   1      48.135  30.772  28.264  1.00  0.00     0.131 A 
ATOM     52  C   UNL A   1      46.815  32.686  26.794  1.00  0.00     0.055 A 
ATOM     53  C   UNL A   1      48.830  31.900  27.828  1.00  0.00     0.041 A 
ATOM     54  F   UNL A   1      48.823  29.945  29.068  1.00  0.00    -0.206 F 
ATOM     55  C   UNL A   1      48.169  32.867  27.093  1.00  0.00     0.022 A 
BRANCH  52  56
ATOM     56  S   UNL A   1      45.942  34.026  25.926  1.00  0.00     0.124 S 
ATOM     57  O   UNL A   1      44.822  33.319  25.313  1.00  0.00    -0.237 OA
ATOM     58  O   UNL A   1      45.617  34.944  27.011  1.00  0.00    -0.237 OA
ATOM     59  O   UNL A   1      46.942  34.528  24.981  1.00  0.00    -0.744 OA
ENDBRANCH  52  56
ENDBRANCH  25  49
BRANCH  37  60
ATOM     60  C   UNL A   1      45.610  25.554  31.772  1.00  0.00     0.023 A 
ATOM     61  C   UNL A   1      46.626  25.242  32.702  1.00  0.00     0.031 A 
ATOM     62  C   UNL A   1      44.552  26.371  32.210  1.00  0.00     0.131 A 
ATOM     63  C   UNL A   1      46.552  25.736  34.019  1.00  0.00     0.055 A 
ATOM     64  C   UNL A   1      44.490  26.873  33.510  1.00  0.00     0.041 A 
ATOM     65  F   UNL A   1      43.575  26.735  31.363  1.00  0.00    -0.206 F 
ATOM     66  C   UNL A   1      45.489  26.551  34.422  1.00  0.00     0.022 A 
BRANCH  63  67
ATOM     67  S   UNL A   1      47.843  25.325  35.236  1.00  0.00     0.124 S 
ATOM     68  O   UNL A   1      48.885  24.698  34.432  1.00  0.00    -0.237 OA
ATOM     69  O   UNL A   1      48.168  26.630  35.803  1.00  0.00    -0.237 OA
ATOM     70  O   UNL A   1      47.160  24.416  36.160  1.00  0.00    -0.744 OA
ENDBRANCH  63  67
ENDBRANCH  37  60
ENDBRANCH  11  12
ENDBRANCH   4   6
ENDBRANCH   3   4
ENDBRANCH   2   3
ENDBRANCH   1   2
BRANCH   1  71
ATOM     71  O   UNL A   1      32.729  29.786  26.383  1.00  0.00    -0.374 OA
BRANCH  71  72
ATOM     72  C   UNL A   1      31.953  28.794  25.713  1.00  0.00     0.202 C 
BRANCH  72  73
ATOM     73  C   UNL A   1      32.382  28.302  24.329  1.00  0.00     0.261 C 
BRANCH  73  74
ATOM     74  O   UNL A   1      32.955  26.989  24.370  1.00  0.00    -0.458 OA
BRANCH  74  75
ATOM     75  C   UNL A   1      33.153  26.396  23.154  1.00  0.00     0.361 C 
ATOM     76  O   UNL A   1      33.548  26.964  22.152  1.00  0.00    -0.244 OA
BRANCH  75  77
ATOM     77  C   UNL A   1      32.919  24.963  23.205  1.00  0.00     0.198 A 
ATOM     78  N   UNL A   1      31.712  24.396  22.871  1.00  0.00    -0.122 NA
ATOM     79  C   UNL A   1      33.790  23.965  23.599  1.00  0.00     0.123 A 
ATOM     80  N   UNL A   1      31.803  23.085  23.059  1.00  0.00    -0.061 NA
ATOM     81  N   UNL A   1      32.980  22.854  23.676  1.00  0.00    -0.213 N 
BRANCH  79  82
ATOM     82  C   UNL A   1      35.245  23.940  23.915  1.00  0.00     0.262 C 
ATOM     83  C   UNL A   1      35.502  24.384  25.361  1.00  0.00     0.281 C 
ATOM     84  O   UNL A   1      35.687  22.605  23.652  1.00  0.00    -0.477 OA
ATOM     85  O   UNL A   1      36.901  24.303  25.656  1.00  0.00    -0.485 OA
ATOM     86  C   UNL A   1      36.739  22.213  24.432  1.00  0.00     0.162 A 
ATOM     87  C   UNL A   1      37.338  23.031  25.394  1.00  0.00     0.161 A 
ATOM     88  C   UNL A   1      37.186  20.907  24.251  1.00  0.00     0.050 A 
ATOM     89  C   UNL A   1      38.409  22.559  26.147  1.00  0.00     0.050 A 
ATOM     90  C   UNL A   1      38.230  20.417  25.034  1.00  0.00     0.004 A 
ATOM     91  C   UNL A   1      38.846  21.244  25.976  1.00  0.00     0.004 A 
ENDBRANCH  79  82
BRANCH  81  92
ATOM     92  C   UNL A   1      33.133  21.763  24.546  1.00  0.00     0.067 A 
ATOM     93  C   UNL A   1      33.271  21.959  25.917  1.00  0.00     0.028 A 
ATOM     94  C   UNL A   1      33.140  20.476  23.990  1.00  0.00     0.041 A 
ATOM     95  C   UNL A   1      33.324  20.839  26.746  1.00  0.00     0.003 A 
ATOM     96  C   UNL A   1      33.231  19.353  24.813  1.00  0.00     0.058 A 
ATOM     97  C   UNL A   1      33.297  19.546  26.201  1.00  0.00     0.013 A 
BRANCH  96  98
ATOM     98  C   UNL A   1      33.242  17.970  24.211  1.00  0.00     0.416 C 
ATOM     99  F   UNL A   1      33.299  16.987  25.151  1.00  0.00    -0.166 F 
ATOM    100  F   UNL A   1      32.130  17.719  23.468  1.00  0.00    -0.166 F 
ATOM    101  F   UNL A   1      34.300  17.750  23.381  1.00  0.00    -0.166 F 
ENDBRANCH  96  98
ENDBRANCH  81  92
ENDBRANCH  75  77
ENDBRANCH  74  75
ENDBRANCH  73  74
ENDBRANCH  72  73
ENDBRANCH  71  72
ENDBRANCH   1  71
TORSDOF 20
ENDMDL
MODEL 3
REMARK VINA RESULT:     -11.9      5.141      9.789
REMARK SMILES O=C(OCCOCCOC(=O)c1nnn(-c2cccc(C(F)(F)F)c2)c1[C@H]1COc2ccccc2O1)c1ccc(-c2c3nc(c(-c4cc(S(=O)(=O)[O-])ccc4F)c4ccc([nH]4)c(-c4cc(S(=O)(=O)[O-])ccc4F)c4nc(c(-c5cc(S(=O)(=O)[O-])ccc5F)c5ccc2[nH]5)C=C4)C=C3)cc1
REMARK SMILES IDX 5 1 4 2 3 3 2 4 1 5 37 6 38 7 99 8 39 9 98 10 40 11 41 12
REMARK SMILES IDX 42 13 92 14 43 15 97 16 91 17 93 18 44 19 96 20 90 21 89 22
REMARK SMILES IDX 45 24 77 25 57 26 76 27 58 28 61 29 75 30 94 31 59 32 60 33
REMARK SMILES IDX 74 35 95 36 62 37 46 38 47 39 55 40 48 41 54 42 56 43 53 44
REMARK SMILES IDX 49 45 50 46 51 47 52 48 78 49 79 50 87 51 80 52 86 53 88 54
REMARK SMILES IDX 85 55 81 56 82 57 83 58 84 59 63 60 64 61 72 62 65 63 71 64
REMARK SMILES IDX 73 65 70 66 66 67 67 68 68 69 69 70 6 71 7 72 8 73 9 74
REMARK SMILES IDX 10 75 11 76 12 77 13 78 26 79 14 80 15 81 27 82 28 83 36 84
REMARK SMILES IDX 29 85 35 86 30 87 34 88 31 89 33 90 32 91 16 92 17 93 25 94
REMARK SMILES IDX 18 95 20 96 19 97 21 98 22 99 23 100 24 101
REMARK H PARENT 93 23 61 34
REMARK Flexibility Score: inf
ROOT
ATOM      1  C   UNL A   1      34.844  34.106  30.059  1.00  0.00     0.202 C 
ENDROOT
BRANCH   1   2
ATOM      2  C   UNL A   1      34.859  34.234  28.532  1.00  0.00     0.261 C 
BRANCH   2   3
ATOM      3  O   UNL A   1      35.779  33.323  27.914  1.00  0.00    -0.460 OA
BRANCH   3   4
ATOM      4  C   UNL A   1      35.851  31.975  27.966  1.00  0.00     0.338 C 
ATOM      5  O   UNL A   1      34.923  31.345  27.456  1.00  0.00    -0.246 OA
BRANCH   4   6
ATOM      6  C   UNL A   1      36.947  31.191  28.626  1.00  0.00     0.060 A 
ATOM      7  C   UNL A   1      37.988  31.702  29.402  1.00  0.00     0.016 A 
ATOM      8  C   UNL A   1      36.907  29.798  28.420  1.00  0.00     0.016 A 
ATOM      9  C   UNL A   1      39.068  30.901  29.752  1.00  0.00     0.010 A 
ATOM     10  C   UNL A   1      37.950  28.976  28.832  1.00  0.00     0.010 A 
ATOM     11  C   UNL A   1      39.072  29.551  29.413  1.00  0.00    -0.014 A 
BRANCH  11  12
ATOM     12  C   UNL A   1      40.281  28.793  29.714  1.00  0.00     0.031 A 
ATOM     13  C   UNL A   1      40.616  28.645  31.154  1.00  0.00     0.074 A 
ATOM     14  C   UNL A   1      41.032  28.214  28.759  1.00  0.00     0.049 A 
ATOM     15  N   UNL A   1      41.666  29.066  31.780  1.00  0.00    -0.248 NA
ATOM     16  C   UNL A   1      39.596  28.053  32.029  1.00  0.00     0.031 C 
ATOM     17  C   UNL A   1      40.709  28.063  27.338  1.00  0.00     0.029 A 
ATOM     18  N   UNL A   1      42.205  27.534  28.888  1.00  0.00    -0.354 N 
ATOM     19  C   UNL A   1      41.543  28.612  33.092  1.00  0.00     0.074 A 
ATOM     20  C   UNL A   1      40.188  28.147  33.220  1.00  0.00     0.031 C 
ATOM     21  C   UNL A   1      41.530  27.138  26.797  1.00  0.00     0.029 A 
ATOM     22  C   UNL A   1      42.510  26.738  27.792  1.00  0.00     0.049 A 
ATOM     23  H   UNL A   1      42.781  27.598  29.684  1.00  0.00     0.167 HD
ATOM     24  C   UNL A   1      42.628  28.471  33.904  1.00  0.00     0.034 A 
ATOM     25  C   UNL A   1      43.440  25.752  27.732  1.00  0.00     0.034 A 
ATOM     26  C   UNL A   1      43.741  29.266  33.432  1.00  0.00     0.049 A 
ATOM     27  C   UNL A   1      44.442  26.020  28.791  1.00  0.00     0.074 A 
ATOM     28  C   UNL A   1      43.933  30.614  33.187  1.00  0.00     0.029 A 
ATOM     29  N   UNL A   1      44.798  28.634  32.814  1.00  0.00    -0.354 N 
ATOM     30  N   UNL A   1      45.240  27.054  28.781  1.00  0.00    -0.248 NA
ATOM     31  C   UNL A   1      44.269  25.389  30.091  1.00  0.00     0.031 C 
ATOM     32  C   UNL A   1      44.779  30.667  32.040  1.00  0.00     0.029 A 
ATOM     33  C   UNL A   1      45.099  29.357  31.687  1.00  0.00     0.049 A 
ATOM     34  H   UNL A   1      45.253  27.818  33.123  1.00  0.00     0.167 HD
ATOM     35  C   UNL A   1      45.323  27.458  30.105  1.00  0.00     0.074 A 
ATOM     36  C   UNL A   1      44.804  26.331  30.875  1.00  0.00     0.031 C 
ATOM     37  C   UNL A   1      45.537  28.766  30.438  1.00  0.00     0.034 A 
BRANCH  24  38
ATOM     38  C   UNL A   1      42.811  27.340  34.902  1.00  0.00     0.023 A 
ATOM     39  C   UNL A   1      43.642  26.273  34.506  1.00  0.00     0.031 A 
ATOM     40  C   UNL A   1      42.008  27.089  36.037  1.00  0.00     0.131 A 
ATOM     41  C   UNL A   1      43.524  25.002  35.093  1.00  0.00     0.055 A 
ATOM     42  C   UNL A   1      41.950  25.842  36.669  1.00  0.00     0.041 A 
ATOM     43  F   UNL A   1      41.175  27.996  36.557  1.00  0.00    -0.206 F 
ATOM     44  C   UNL A   1      42.674  24.776  36.169  1.00  0.00     0.022 A 
BRANCH  41  45
ATOM     45  S   UNL A   1      44.330  23.607  34.266  1.00  0.00     0.124 S 
ATOM     46  O   UNL A   1      44.244  22.576  35.295  1.00  0.00    -0.237 OA
ATOM     47  O   UNL A   1      43.479  23.424  33.095  1.00  0.00    -0.237 OA
ATOM     48  O   UNL A   1      45.673  24.108  33.993  1.00  0.00    -0.744 OA
ENDBRANCH  41  45
ENDBRANCH  24  38
BRANCH  25  49
ATOM     49  C   UNL A   1      43.281  24.457  27.021  1.00  0.00     0.023 A 
ATOM     50  C   UNL A   1      44.195  24.003  26.052  1.00  0.00     0.031 A 
ATOM     51  C   UNL A   1      42.302  23.531  27.453  1.00  0.00     0.131 A 
ATOM     52  C   UNL A   1      44.094  22.688  25.544  1.00  0.00     0.055 A 
ATOM     53  C   UNL A   1      42.195  22.240  26.937  1.00  0.00     0.041 A 
ATOM     54  F   UNL A   1      41.460  23.821  28.458  1.00  0.00    -0.206 F 
ATOM     55  C   UNL A   1      43.098  21.810  25.981  1.00  0.00     0.022 A 
BRANCH  52  56
ATOM     56  S   UNL A   1      45.336  22.060  24.371  1.00  0.00     0.124 S 
ATOM     57  O   UNL A   1      46.229  21.304  25.242  1.00  0.00    -0.237 OA
ATOM     58  O   UNL A   1      44.526  21.285  23.440  1.00  0.00    -0.237 OA
ATOM     59  O   UNL A   1      45.917  23.279  23.805  1.00  0.00    -0.744 OA
ENDBRANCH  52  56
ENDBRANCH  25  49
BRANCH  37  60
ATOM     60  C   UNL A   1      46.021  29.720  29.368  1.00  0.00     0.023 A 
ATOM     61  C   UNL A   1      45.174  30.447  28.502  1.00  0.00     0.031 A 
ATOM     62  C   UNL A   1      47.398  30.002  29.322  1.00  0.00     0.131 A 
ATOM     63  C   UNL A   1      45.718  31.407  27.626  1.00  0.00     0.055 A 
ATOM     64  C   UNL A   1      47.932  30.966  28.466  1.00  0.00     0.041 A 
ATOM     65  F   UNL A   1      48.251  29.372  30.148  1.00  0.00    -0.206 F 
ATOM     66  C   UNL A   1      47.092  31.668  27.610  1.00  0.00     0.022 A 
BRANCH  63  67
ATOM     67  S   UNL A   1      44.642  32.337  26.488  1.00  0.00     0.124 S 
ATOM     68  O   UNL A   1      44.020  33.338  27.346  1.00  0.00    -0.237 OA
ATOM     69  O   UNL A   1      45.590  32.840  25.498  1.00  0.00    -0.237 OA
ATOM     70  O   UNL A   1      43.723  31.315  25.981  1.00  0.00    -0.744 OA
ENDBRANCH  63  67
ENDBRANCH  37  60
ENDBRANCH  11  12
ENDBRANCH   4   6
ENDBRANCH   3   4
ENDBRANCH   2   3
ENDBRANCH   1   2
BRANCH   1  71
ATOM     71  O   UNL A   1      33.738  34.621  30.793  1.00  0.00    -0.374 OA
BRANCH  71  72
ATOM     72  C   UNL A   1      33.939  35.557  31.851  1.00  0.00     0.202 C 
BRANCH  72  73
ATOM     73  C   UNL A   1      34.405  35.064  33.223  1.00  0.00     0.261 C 
BRANCH  73  74
ATOM     74  O   UNL A   1      35.833  35.027  33.333  1.00  0.00    -0.458 OA
BRANCH  74  75
ATOM     75  C   UNL A   1      36.376  33.788  33.530  1.00  0.00     0.361 C 
ATOM     76  O   UNL A   1      36.464  32.917  32.683  1.00  0.00    -0.244 OA
BRANCH  75  77
ATOM     77  C   UNL A   1      36.928  33.643  34.866  1.00  0.00     0.198 A 
ATOM     78  N   UNL A   1      36.140  33.477  35.981  1.00  0.00    -0.122 NA
ATOM     79  C   UNL A   1      38.254  33.673  35.254  1.00  0.00     0.123 A 
ATOM     80  N   UNL A   1      36.933  33.418  37.044  1.00  0.00    -0.061 NA
ATOM     81  N   UNL A   1      38.178  33.728  36.628  1.00  0.00    -0.213 N 
BRANCH  79  82
ATOM     82  C   UNL A   1      39.542  33.671  34.506  1.00  0.00     0.262 C 
ATOM     83  C   UNL A   1      40.006  32.238  34.213  1.00  0.00     0.281 C 
ATOM     84  O   UNL A   1      39.316  34.440  33.322  1.00  0.00    -0.477 OA
ATOM     85  O   UNL A   1      41.219  32.264  33.452  1.00  0.00    -0.485 OA
ATOM     86  C   UNL A   1      40.089  34.052  32.262  1.00  0.00     0.162 A 
ATOM     87  C   UNL A   1      41.017  33.010  32.320  1.00  0.00     0.161 A 
ATOM     88  C   UNL A   1      39.883  34.737  31.068  1.00  0.00     0.050 A 
ATOM     89  C   UNL A   1      41.769  32.677  31.197  1.00  0.00     0.050 A 
ATOM     90  C   UNL A   1      40.603  34.377  29.930  1.00  0.00     0.004 A 
ATOM     91  C   UNL A   1      41.551  33.353  29.996  1.00  0.00     0.004 A 
ENDBRANCH  79  82
BRANCH  81  92
ATOM     92  C   UNL A   1      39.090  34.351  37.495  1.00  0.00     0.067 A 
ATOM     93  C   UNL A   1      39.264  35.731  37.474  1.00  0.00     0.028 A 
ATOM     94  C   UNL A   1      39.816  33.538  38.378  1.00  0.00     0.041 A 
ATOM     95  C   UNL A   1      40.113  36.308  38.419  1.00  0.00     0.003 A 
ATOM     96  C   UNL A   1      40.694  34.108  39.300  1.00  0.00     0.058 A 
ATOM     97  C   UNL A   1      40.816  35.505  39.330  1.00  0.00     0.013 A 
BRANCH  96  98
ATOM     98  C   UNL A   1      41.476  33.231  40.247  1.00  0.00     0.416 C 
ATOM     99  F   UNL A   1      42.627  33.814  40.676  1.00  0.00    -0.166 F 
ATOM    100  F   UNL A   1      40.769  32.919  41.367  1.00  0.00    -0.166 F 
ATOM    101  F   UNL A   1      41.845  32.039  39.698  1.00  0.00    -0.166 F 
ENDBRANCH  96  98
ENDBRANCH  81  92
ENDBRANCH  75  77
ENDBRANCH  74  75
ENDBRANCH  73  74
ENDBRANCH  72  73
ENDBRANCH  71  72
ENDBRANCH   1  71
TORSDOF 20
ENDMDL
