MODEL 1
REMARK VINA RESULT:     -11.4      0.000      0.000
REMARK SMILES CC1(C)[C@H](C(=O)OCCOCCOC(=O)c2ccc(-c3c4nc(c(-c5cc(S(=O)(=O)[O-])ccc5F)c5ccc([nH]5)c(-c5cc(S(=O)(=O)[O-])ccc5F)c5nc(c(-c6cc(S(=O)(=O)[O-])ccc6F)c6ccc3[nH]6)C=C5)C=C4)cc2)[C@@H]1c1nc2ccc(F)cc2s1
REMARK SMILES IDX 11 1 10 2 9 3 8 4 7 5 5 6 6 7 4 8 1 9 2 10 3 11 79 12 80 13
REMARK SMILES IDX 81 14 89 15 82 16 88 17 83 18 87 19 84 20 85 21 86 22 12 23
REMARK SMILES IDX 13 24 14 25 15 26 16 27 17 28 78 29 18 30 77 31 19 32 20 33
REMARK SMILES IDX 21 34 71 35 22 36 76 37 70 38 72 39 23 40 75 41 69 42 68 43
REMARK SMILES IDX 24 45 56 46 36 47 55 48 37 49 40 50 54 51 73 52 38 53 39 54
REMARK SMILES IDX 53 56 74 57 41 58 25 59 26 60 34 61 27 62 33 63 35 64 32 65
REMARK SMILES IDX 28 66 29 67 30 68 31 69 57 70 58 71 66 72 59 73 65 74 67 75
REMARK SMILES IDX 64 76 60 77 61 78 62 79 63 80 42 81 43 82 51 83 44 84 50 85
REMARK SMILES IDX 52 86 49 87 45 88 46 89 47 90 48 91
REMARK H PARENT 72 44 40 55
REMARK Flexibility Score: inf
ROOT
ATOM      1  C   UNL A   1      31.424  31.331  26.382  1.00  0.00     0.202 C 
ENDROOT
BRANCH   1   2
ATOM      2  O   UNL A   1      32.549  30.451  26.350  1.00  0.00    -0.374 OA
BRANCH   2   3
ATOM      3  C   UNL A   1      32.452  29.226  27.079  1.00  0.00     0.202 C 
BRANCH   3   4
ATOM      4  C   UNL A   1      33.643  28.272  26.953  1.00  0.00     0.261 C 
BRANCH   4   5
ATOM      5  O   UNL A   1      33.704  27.694  25.641  1.00  0.00    -0.463 OA
BRANCH   5   6
ATOM      6  C   UNL A   1      33.160  26.460  25.523  1.00  0.00     0.310 C 
ATOM      7  O   UNL A   1      32.419  25.920  26.334  1.00  0.00    -0.252 OA
BRANCH   6   8
ATOM      8  C   UNL A   1      33.429  25.792  24.224  1.00  0.00     0.116 C 
ATOM      9  C   UNL A   1      33.421  23.841  22.542  1.00  0.00     0.013 C 
ATOM     10  C   UNL A   1      32.614  24.802  23.394  1.00  0.00    -0.011 C 
ATOM     11  C   UNL A   1      31.369  24.145  23.933  1.00  0.00     0.013 C 
ATOM     12  C   UNL A   1      32.671  26.267  22.997  1.00  0.00     0.070 C 
BRANCH  12  13
ATOM     13  C   UNL A   1      31.572  27.312  23.191  1.00  0.00     0.098 A 
ATOM     14  N   UNL A   1      30.338  26.892  23.347  1.00  0.00    -0.241 NA
ATOM     15  S   UNL A   1      31.793  29.003  23.211  1.00  0.00    -0.118 S 
ATOM     16  C   UNL A   1      29.474  27.971  23.284  1.00  0.00     0.082 A 
ATOM     17  C   UNL A   1      30.089  29.225  23.234  1.00  0.00     0.057 A 
ATOM     18  C   UNL A   1      28.067  27.900  23.251  1.00  0.00     0.033 A 
ATOM     19  C   UNL A   1      29.350  30.416  23.194  1.00  0.00     0.060 A 
ATOM     20  C   UNL A   1      27.319  29.079  23.182  1.00  0.00     0.041 A 
ATOM     21  C   UNL A   1      27.961  30.309  23.164  1.00  0.00     0.124 A 
ATOM     22  F   UNL A   1      27.226  31.426  23.111  1.00  0.00    -0.207 F 
ENDBRANCH  12  13
ENDBRANCH   6   8
ENDBRANCH   5   6
ENDBRANCH   4   5
ENDBRANCH   3   4
ENDBRANCH   2   3
ENDBRANCH   1   2
BRANCH   1  23
ATOM     23  C   UNL A   1      31.610  32.673  27.100  1.00  0.00     0.261 C 
BRANCH  23  24
ATOM     24  O   UNL A   1      32.954  33.175  26.993  1.00  0.00    -0.460 OA
BRANCH  24  25
ATOM     25  C   UNL A   1      33.507  33.548  28.175  1.00  0.00     0.338 C 
ATOM     26  O   UNL A   1      32.988  34.241  29.035  1.00  0.00    -0.246 OA
BRANCH  25  27
ATOM     27  C   UNL A   1      34.791  32.852  28.394  1.00  0.00     0.060 A 
ATOM     28  C   UNL A   1      34.728  31.521  28.825  1.00  0.00     0.016 A 
ATOM     29  C   UNL A   1      36.023  33.501  28.281  1.00  0.00     0.016 A 
ATOM     30  C   UNL A   1      35.888  30.853  29.207  1.00  0.00     0.010 A 
ATOM     31  C   UNL A   1      37.189  32.829  28.672  1.00  0.00     0.010 A 
ATOM     32  C   UNL A   1      37.122  31.517  29.177  1.00  0.00    -0.014 A 
BRANCH  32  33
ATOM     33  C   UNL A   1      38.291  30.884  29.840  1.00  0.00     0.031 A 
ATOM     34  C   UNL A   1      38.596  31.239  31.272  1.00  0.00     0.074 A 
ATOM     35  C   UNL A   1      39.027  29.955  29.204  1.00  0.00     0.049 A 
ATOM     36  N   UNL A   1      39.533  30.782  32.062  1.00  0.00    -0.248 NA
ATOM     37  C   UNL A   1      37.724  32.247  31.894  1.00  0.00     0.031 C 
ATOM     38  C   UNL A   1      38.805  29.498  27.832  1.00  0.00     0.029 A 
ATOM     39  N   UNL A   1      40.105  29.222  29.632  1.00  0.00    -0.354 N 
ATOM     40  C   UNL A   1      39.360  31.439  33.276  1.00  0.00     0.074 A 
ATOM     41  C   UNL A   1      38.258  32.360  33.100  1.00  0.00     0.031 C 
ATOM     42  C   UNL A   1      39.723  28.563  27.531  1.00  0.00     0.029 A 
ATOM     43  C   UNL A   1      40.611  28.372  28.677  1.00  0.00     0.049 A 
ATOM     44  H   UNL A   1      40.482  29.300  30.539  1.00  0.00     0.167 HD
ATOM     45  C   UNL A   1      40.047  31.280  34.435  1.00  0.00     0.034 A 
ATOM     46  C   UNL A   1      41.676  27.546  28.720  1.00  0.00     0.034 A 
ATOM     47  C   UNL A   1      41.153  30.368  34.595  1.00  0.00     0.049 A 
ATOM     48  C   UNL A   1      42.476  27.444  29.996  1.00  0.00     0.074 A 
ATOM     49  C   UNL A   1      41.910  30.119  35.727  1.00  0.00     0.029 A 
ATOM     50  N   UNL A   1      41.673  29.563  33.589  1.00  0.00    -0.354 N 
ATOM     51  N   UNL A   1      42.290  28.058  31.142  1.00  0.00    -0.248 NA
ATOM     52  C   UNL A   1      43.625  26.527  29.986  1.00  0.00     0.031 C 
ATOM     53  C   UNL A   1      42.925  29.216  35.389  1.00  0.00     0.029 A 
ATOM     54  C   UNL A   1      42.759  28.845  34.065  1.00  0.00     0.049 A 
ATOM     55  H   UNL A   1      41.320  29.510  32.672  1.00  0.00     0.167 HD
ATOM     56  C   UNL A   1      43.281  27.577  31.996  1.00  0.00     0.074 A 
ATOM     57  C   UNL A   1      44.052  26.614  31.237  1.00  0.00     0.031 C 
ATOM     58  C   UNL A   1      43.530  27.899  33.291  1.00  0.00     0.034 A 
BRANCH  45  59
ATOM     59  C   UNL A   1      39.645  32.152  35.599  1.00  0.00     0.023 A 
ATOM     60  C   UNL A   1      38.809  31.678  36.626  1.00  0.00     0.031 A 
ATOM     61  C   UNL A   1      40.076  33.489  35.666  1.00  0.00     0.131 A 
ATOM     62  C   UNL A   1      38.373  32.553  37.633  1.00  0.00     0.055 A 
ATOM     63  C   UNL A   1      39.699  34.334  36.712  1.00  0.00     0.041 A 
ATOM     64  F   UNL A   1      40.857  34.004  34.703  1.00  0.00    -0.206 F 
ATOM     65  C   UNL A   1      38.830  33.870  37.696  1.00  0.00     0.022 A 
BRANCH  62  66
ATOM     66  S   UNL A   1      37.087  31.984  38.780  1.00  0.00     0.124 S 
ATOM     67  O   UNL A   1      37.685  32.306  40.075  1.00  0.00    -0.237 OA
ATOM     68  O   UNL A   1      35.936  32.789  38.390  1.00  0.00    -0.237 OA
ATOM     69  O   UNL A   1      36.979  30.556  38.492  1.00  0.00    -0.744 OA
ENDBRANCH  62  66
ENDBRANCH  45  59
BRANCH  46  70
ATOM     70  C   UNL A   1      42.079  26.772  27.511  1.00  0.00     0.023 A 
ATOM     71  C   UNL A   1      41.817  25.396  27.404  1.00  0.00     0.031 A 
ATOM     72  C   UNL A   1      42.788  27.392  26.466  1.00  0.00     0.131 A 
ATOM     73  C   UNL A   1      42.301  24.677  26.300  1.00  0.00     0.055 A 
ATOM     74  C   UNL A   1      43.224  26.681  25.347  1.00  0.00     0.041 A 
ATOM     75  F   UNL A   1      43.065  28.704  26.520  1.00  0.00    -0.206 F 
ATOM     76  C   UNL A   1      42.992  25.313  25.266  1.00  0.00     0.022 A 
BRANCH  73  77
ATOM     77  S   UNL A   1      42.086  22.875  26.274  1.00  0.00     0.124 S 
ATOM     78  O   UNL A   1      42.640  22.528  24.971  1.00  0.00    -0.237 OA
ATOM     79  O   UNL A   1      42.867  22.461  27.435  1.00  0.00    -0.237 OA
ATOM     80  O   UNL A   1      40.642  22.703  26.404  1.00  0.00    -0.744 OA
ENDBRANCH  73  77
ENDBRANCH  46  70
BRANCH  58  81
ATOM     81  C   UNL A   1      44.662  27.169  33.974  1.00  0.00     0.023 A 
ATOM     82  C   UNL A   1      44.438  26.023  34.756  1.00  0.00     0.031 A 
ATOM     83  C   UNL A   1      45.981  27.641  33.854  1.00  0.00     0.131 A 
ATOM     84  C   UNL A   1      45.509  25.417  35.433  1.00  0.00     0.055 A 
ATOM     85  C   UNL A   1      47.051  27.000  34.482  1.00  0.00     0.041 A 
ATOM     86  F   UNL A   1      46.253  28.732  33.120  1.00  0.00    -0.206 F 
ATOM     87  C   UNL A   1      46.817  25.890  35.287  1.00  0.00     0.022 A 
BRANCH  84  88
ATOM     88  S   UNL A   1      45.159  24.056  36.578  1.00  0.00     0.124 S 
ATOM     89  O   UNL A   1      44.539  23.070  35.699  1.00  0.00    -0.237 OA
ATOM     90  O   UNL A   1      46.488  23.719  37.078  1.00  0.00    -0.237 OA
ATOM     91  O   UNL A   1      44.263  24.658  37.564  1.00  0.00    -0.744 OA
ENDBRANCH  84  88
ENDBRANCH  58  81
ENDBRANCH  32  33
ENDBRANCH  25  27
ENDBRANCH  24  25
ENDBRANCH  23  24
ENDBRANCH   1  23
TORSDOF 18
ENDMDL
MODEL 2
REMARK VINA RESULT:     -11.4      2.572      3.827
REMARK SMILES CC1(C)[C@H](C(=O)OCCOCCOC(=O)c2ccc(-c3c4nc(c(-c5cc(S(=O)(=O)[O-])ccc5F)c5ccc([nH]5)c(-c5cc(S(=O)(=O)[O-])ccc5F)c5nc(c(-c6cc(S(=O)(=O)[O-])ccc6F)c6ccc3[nH]6)C=C5)C=C4)cc2)[C@@H]1c1nc2ccc(F)cc2s1
REMARK SMILES IDX 11 1 10 2 9 3 8 4 7 5 5 6 6 7 4 8 1 9 2 10 3 11 79 12 80 13
REMARK SMILES IDX 81 14 89 15 82 16 88 17 83 18 87 19 84 20 85 21 86 22 12 23
REMARK SMILES IDX 13 24 14 25 15 26 16 27 17 28 78 29 18 30 77 31 19 32 20 33
REMARK SMILES IDX 21 34 71 35 22 36 76 37 70 38 72 39 23 40 75 41 69 42 68 43
REMARK SMILES IDX 24 45 56 46 36 47 55 48 37 49 40 50 54 51 73 52 38 53 39 54
REMARK SMILES IDX 53 56 74 57 41 58 25 59 26 60 34 61 27 62 33 63 35 64 32 65
REMARK SMILES IDX 28 66 29 67 30 68 31 69 57 70 58 71 66 72 59 73 65 74 67 75
REMARK SMILES IDX 64 76 60 77 61 78 62 79 63 80 42 81 43 82 51 83 44 84 50 85
REMARK SMILES IDX 52 86 49 87 45 88 46 89 47 90 48 91
REMARK H PARENT 72 44 40 55
REMARK Flexibility Score: inf
ROOT
ATOM      1  C   UNL A   1      31.531  31.213  26.103  1.00  0.00     0.202 C 
ENDROOT
BRANCH   1   2
ATOM      2  O   UNL A   1      32.283  30.040  26.416  1.00  0.00    -0.374 OA
BRANCH   2   3
ATOM      3  C   UNL A   1      31.716  28.776  26.066  1.00  0.00     0.202 C 
BRANCH   3   4
ATOM      4  C   UNL A   1      31.941  27.638  27.065  1.00  0.00     0.261 C 
BRANCH   4   5
ATOM      5  O   UNL A   1      32.641  26.545  26.453  1.00  0.00    -0.463 OA
BRANCH   5   6
ATOM      6  C   UNL A   1      31.867  25.503  26.064  1.00  0.00     0.310 C 
ATOM      7  O   UNL A   1      31.472  24.594  26.782  1.00  0.00    -0.252 OA
BRANCH   6   8
ATOM      8  C   UNL A   1      31.392  25.583  24.659  1.00  0.00     0.116 C 
ATOM      9  C   UNL A   1      31.138  26.640  22.324  1.00  0.00     0.013 C 
ATOM     10  C   UNL A   1      32.066  26.064  23.376  1.00  0.00    -0.011 C 
ATOM     11  C   UNL A   1      33.390  26.784  23.393  1.00  0.00     0.013 C 
ATOM     12  C   UNL A   1      31.929  24.578  23.656  1.00  0.00     0.070 C 
BRANCH  12  13
ATOM     13  C   UNL A   1      33.035  23.626  24.114  1.00  0.00     0.098 A 
ATOM     14  N   UNL A   1      34.271  24.067  24.114  1.00  0.00    -0.241 NA
ATOM     15  S   UNL A   1      32.818  22.013  24.621  1.00  0.00    -0.118 S 
ATOM     16  C   UNL A   1      35.135  23.011  24.340  1.00  0.00     0.082 A 
ATOM     17  C   UNL A   1      34.522  21.797  24.666  1.00  0.00     0.057 A 
ATOM     18  C   UNL A   1      36.541  23.062  24.255  1.00  0.00     0.033 A 
ATOM     19  C   UNL A   1      35.262  20.641  24.950  1.00  0.00     0.060 A 
ATOM     20  C   UNL A   1      37.289  21.908  24.507  1.00  0.00     0.041 A 
ATOM     21  C   UNL A   1      36.649  20.728  24.857  1.00  0.00     0.124 A 
ATOM     22  F   UNL A   1      37.386  19.638  25.107  1.00  0.00    -0.207 F 
ENDBRANCH  12  13
ENDBRANCH   6   8
ENDBRANCH   5   6
ENDBRANCH   4   5
ENDBRANCH   3   4
ENDBRANCH   2   3
ENDBRANCH   1   2
BRANCH   1  23
ATOM     23  C   UNL A   1      31.533  32.340  27.141  1.00  0.00     0.261 C 
BRANCH  23  24
ATOM     24  O   UNL A   1      32.550  33.325  26.883  1.00  0.00    -0.460 OA
BRANCH  24  25
ATOM     25  C   UNL A   1      33.156  33.807  27.998  1.00  0.00     0.338 C 
ATOM     26  O   UNL A   1      32.686  34.601  28.798  1.00  0.00    -0.246 OA
BRANCH  25  27
ATOM     27  C   UNL A   1      34.432  33.106  28.244  1.00  0.00     0.060 A 
ATOM     28  C   UNL A   1      34.354  31.784  28.702  1.00  0.00     0.016 A 
ATOM     29  C   UNL A   1      35.671  33.742  28.128  1.00  0.00     0.016 A 
ATOM     30  C   UNL A   1      35.506  31.115  29.109  1.00  0.00     0.010 A 
ATOM     31  C   UNL A   1      36.828  33.069  28.545  1.00  0.00     0.010 A 
ATOM     32  C   UNL A   1      36.745  31.768  29.077  1.00  0.00    -0.014 A 
BRANCH  32  33
ATOM     33  C   UNL A   1      37.903  31.140  29.763  1.00  0.00     0.031 A 
ATOM     34  C   UNL A   1      38.180  31.502  31.200  1.00  0.00     0.074 A 
ATOM     35  C   UNL A   1      38.652  30.210  29.145  1.00  0.00     0.049 A 
ATOM     36  N   UNL A   1      39.103  31.050  32.009  1.00  0.00    -0.248 NA
ATOM     37  C   UNL A   1      37.295  32.511  31.801  1.00  0.00     0.031 C 
ATOM     38  C   UNL A   1      38.456  29.748  27.771  1.00  0.00     0.029 A 
ATOM     39  N   UNL A   1      39.723  29.481  29.596  1.00  0.00    -0.354 N 
ATOM     40  C   UNL A   1      38.907  31.711  33.217  1.00  0.00     0.074 A 
ATOM     41  C   UNL A   1      37.806  32.630  33.017  1.00  0.00     0.031 C 
ATOM     42  C   UNL A   1      39.381  28.813  27.492  1.00  0.00     0.029 A 
ATOM     43  C   UNL A   1      40.248  28.628  28.654  1.00  0.00     0.049 A 
ATOM     44  H   UNL A   1      40.083  29.563  30.509  1.00  0.00     0.167 HD
ATOM     45  C   UNL A   1      39.572  31.558  34.389  1.00  0.00     0.034 A 
ATOM     46  C   UNL A   1      41.313  27.804  28.720  1.00  0.00     0.034 A 
ATOM     47  C   UNL A   1      40.677  30.649  34.573  1.00  0.00     0.049 A 
ATOM     48  C   UNL A   1      42.090  27.708  30.011  1.00  0.00     0.074 A 
ATOM     49  C   UNL A   1      41.413  30.405  35.720  1.00  0.00     0.029 A 
ATOM     50  N   UNL A   1      41.217  29.841  33.580  1.00  0.00    -0.354 N 
ATOM     51  N   UNL A   1      41.882  28.327  31.151  1.00  0.00    -0.248 NA
ATOM     52  C   UNL A   1      43.241  26.794  30.026  1.00  0.00     0.031 C 
ATOM     53  C   UNL A   1      42.436  29.503  35.405  1.00  0.00     0.029 A 
ATOM     54  C   UNL A   1      42.295  29.127  34.079  1.00  0.00     0.049 A 
ATOM     55  H   UNL A   1      40.881  29.783  32.657  1.00  0.00     0.167 HD
ATOM     56  C   UNL A   1      42.858  27.852  32.025  1.00  0.00     0.074 A 
ATOM     57  C   UNL A   1      43.644  26.887  31.284  1.00  0.00     0.031 C 
ATOM     58  C   UNL A   1      43.082  28.179  33.324  1.00  0.00     0.034 A 
BRANCH  45  59
ATOM     59  C   UNL A   1      39.148  32.434  35.542  1.00  0.00     0.023 A 
ATOM     60  C   UNL A   1      39.596  33.761  35.668  1.00  0.00     0.031 A 
ATOM     61  C   UNL A   1      38.310  31.924  36.550  1.00  0.00     0.131 A 
ATOM     62  C   UNL A   1      39.264  34.506  36.810  1.00  0.00     0.055 A 
ATOM     63  C   UNL A   1      37.922  32.695  37.646  1.00  0.00     0.041 A 
ATOM     64  F   UNL A   1      37.869  30.657  36.495  1.00  0.00    -0.206 F 
ATOM     65  C   UNL A   1      38.411  33.991  37.788  1.00  0.00     0.022 A 
BRANCH  62  66
ATOM     66  S   UNL A   1      40.076  36.108  37.068  1.00  0.00     0.124 S 
ATOM     67  O   UNL A   1      39.876  36.751  35.771  1.00  0.00    -0.237 OA
ATOM     68  O   UNL A   1      39.321  36.669  38.182  1.00  0.00    -0.237 OA
ATOM     69  O   UNL A   1      41.459  35.747  37.369  1.00  0.00    -0.744 OA
ENDBRANCH  62  66
ENDBRANCH  45  59
BRANCH  46  70
ATOM     70  C   UNL A   1      41.740  27.026  27.522  1.00  0.00     0.023 A 
ATOM     71  C   UNL A   1      41.535  25.639  27.441  1.00  0.00     0.031 A 
ATOM     72  C   UNL A   1      42.417  27.656  26.461  1.00  0.00     0.131 A 
ATOM     73  C   UNL A   1      42.041  24.921  26.346  1.00  0.00     0.055 A 
ATOM     74  C   UNL A   1      42.874  26.944  25.351  1.00  0.00     0.041 A 
ATOM     75  F   UNL A   1      42.640  28.979  26.490  1.00  0.00    -0.206 F 
ATOM     76  C   UNL A   1      42.698  25.566  25.296  1.00  0.00     0.022 A 
BRANCH  73  77
ATOM     77  S   UNL A   1      41.899  23.112  26.353  1.00  0.00     0.124 S 
ATOM     78  O   UNL A   1      42.683  22.757  27.531  1.00  0.00    -0.237 OA
ATOM     79  O   UNL A   1      40.457  22.922  26.460  1.00  0.00    -0.237 OA
ATOM     80  O   UNL A   1      42.484  22.719  25.073  1.00  0.00    -0.744 OA
ENDBRANCH  73  77
ENDBRANCH  46  70
BRANCH  58  81
ATOM     81  C   UNL A   1      44.202  27.454  34.030  1.00  0.00     0.023 A 
ATOM     82  C   UNL A   1      44.010  26.195  34.625  1.00  0.00     0.031 A 
ATOM     83  C   UNL A   1      45.476  28.042  34.124  1.00  0.00     0.131 A 
ATOM     84  C   UNL A   1      45.059  25.589  35.334  1.00  0.00     0.055 A 
ATOM     85  C   UNL A   1      46.532  27.408  34.781  1.00  0.00     0.041 A 
ATOM     86  F   UNL A   1      45.716  29.244  33.575  1.00  0.00    -0.206 F 
ATOM     87  C   UNL A   1      46.323  26.181  35.403  1.00  0.00     0.022 A 
BRANCH  84  88
ATOM     88  S   UNL A   1      44.724  24.056  36.244  1.00  0.00     0.124 S 
ATOM     89  O   UNL A   1      43.595  23.503  35.505  1.00  0.00    -0.237 OA
ATOM     90  O   UNL A   1      45.986  23.335  36.115  1.00  0.00    -0.237 OA
ATOM     91  O   UNL A   1      44.413  24.520  37.596  1.00  0.00    -0.744 OA
ENDBRANCH  84  88
ENDBRANCH  58  81
ENDBRANCH  32  33
ENDBRANCH  25  27
ENDBRANCH  24  25
ENDBRANCH  23  24
ENDBRANCH   1  23
TORSDOF 18
ENDMDL
MODEL 3
REMARK VINA RESULT:     -11.1      4.985     10.340
REMARK SMILES CC1(C)[C@H](C(=O)OCCOCCOC(=O)c2ccc(-c3c4nc(c(-c5cc(S(=O)(=O)[O-])ccc5F)c5ccc([nH]5)c(-c5cc(S(=O)(=O)[O-])ccc5F)c5nc(c(-c6cc(S(=O)(=O)[O-])ccc6F)c6ccc3[nH]6)C=C5)C=C4)cc2)[C@@H]1c1nc2ccc(F)cc2s1
REMARK SMILES IDX 11 1 10 2 9 3 8 4 7 5 5 6 6 7 4 8 1 9 2 10 3 11 79 12 80 13
REMARK SMILES IDX 81 14 89 15 82 16 88 17 83 18 87 19 84 20 85 21 86 22 12 23
REMARK SMILES IDX 13 24 14 25 15 26 16 27 17 28 78 29 18 30 77 31 19 32 20 33
REMARK SMILES IDX 21 34 71 35 22 36 76 37 70 38 72 39 23 40 75 41 69 42 68 43
REMARK SMILES IDX 24 45 56 46 36 47 55 48 37 49 40 50 54 51 73 52 38 53 39 54
REMARK SMILES IDX 53 56 74 57 41 58 25 59 26 60 34 61 27 62 33 63 35 64 32 65
REMARK SMILES IDX 28 66 29 67 30 68 31 69 57 70 58 71 66 72 59 73 65 74 67 75
REMARK SMILES IDX 64 76 60 77 61 78 62 79 63 80 42 81 43 82 51 83 44 84 50 85
REMARK SMILES IDX 52 86 49 87 45 88 46 89 47 90 48 91
REMARK H PARENT 72 44 40 55
REMARK Flexibility Score: inf
ROOT
ATOM      1  C   UNL A   1      36.953  19.546  24.633  1.00  0.00     0.202 C 
ENDROOT
BRANCH   1   2
ATOM      2  O   UNL A   1      36.072  20.528  25.180  1.00  0.00    -0.374 OA
BRANCH   2   3
ATOM      3  C   UNL A   1      36.603  21.831  25.429  1.00  0.00     0.202 C 
BRANCH   3   4
ATOM      4  C   UNL A   1      36.415  22.859  24.311  1.00  0.00     0.261 C 
BRANCH   4   5
ATOM      5  O   UNL A   1      35.148  23.523  24.428  1.00  0.00    -0.463 OA
BRANCH   5   6
ATOM      6  C   UNL A   1      34.304  23.353  23.383  1.00  0.00     0.310 C 
ATOM      7  O   UNL A   1      34.347  23.956  22.319  1.00  0.00    -0.252 OA
BRANCH   6   8
ATOM      8  C   UNL A   1      33.329  22.246  23.555  1.00  0.00     0.116 C 
ATOM      9  C   UNL A   1      32.267  20.216  24.734  1.00  0.00     0.013 C 
ATOM     10  C   UNL A   1      32.616  21.692  24.787  1.00  0.00    -0.011 C 
ATOM     11  C   UNL A   1      32.990  22.117  26.183  1.00  0.00     0.013 C 
ATOM     12  C   UNL A   1      31.876  22.595  23.816  1.00  0.00     0.070 C 
BRANCH  12  13
ATOM     13  C   UNL A   1      31.516  24.067  24.027  1.00  0.00     0.098 A 
ATOM     14  N   UNL A   1      31.095  24.756  22.993  1.00  0.00    -0.241 NA
ATOM     15  S   UNL A   1      31.625  24.920  25.499  1.00  0.00    -0.118 S 
ATOM     16  C   UNL A   1      31.036  26.097  23.328  1.00  0.00     0.082 A 
ATOM     17  C   UNL A   1      31.270  26.386  24.675  1.00  0.00     0.057 A 
ATOM     18  C   UNL A   1      30.780  27.159  22.437  1.00  0.00     0.033 A 
ATOM     19  C   UNL A   1      31.219  27.694  25.177  1.00  0.00     0.060 A 
ATOM     20  C   UNL A   1      30.756  28.471  22.919  1.00  0.00     0.041 A 
ATOM     21  C   UNL A   1      30.964  28.720  24.269  1.00  0.00     0.124 A 
ATOM     22  F   UNL A   1      30.923  29.983  24.711  1.00  0.00    -0.207 F 
ENDBRANCH  12  13
ENDBRANCH   6   8
ENDBRANCH   5   6
ENDBRANCH   4   5
ENDBRANCH   3   4
ENDBRANCH   2   3
ENDBRANCH   1   2
BRANCH   1  23
ATOM     23  C   UNL A   1      38.260  19.283  25.390  1.00  0.00     0.261 C 
BRANCH  23  24
ATOM     24  O   UNL A   1      39.127  20.433  25.410  1.00  0.00    -0.460 OA
BRANCH  24  25
ATOM     25  C   UNL A   1      40.146  20.348  26.302  1.00  0.00     0.338 C 
ATOM     26  O   UNL A   1      40.876  19.387  26.486  1.00  0.00    -0.246 OA
BRANCH  25  27
ATOM     27  C   UNL A   1      40.398  21.659  26.933  1.00  0.00     0.060 A 
ATOM     28  C   UNL A   1      39.784  22.775  26.349  1.00  0.00     0.016 A 
ATOM     29  C   UNL A   1      41.283  21.818  28.002  1.00  0.00     0.016 A 
ATOM     30  C   UNL A   1      40.104  24.058  26.787  1.00  0.00     0.010 A 
ATOM     31  C   UNL A   1      41.608  23.110  28.437  1.00  0.00     0.010 A 
ATOM     32  C   UNL A   1      41.051  24.237  27.802  1.00  0.00    -0.014 A 
BRANCH  32  33
ATOM     33  C   UNL A   1      41.573  25.604  28.061  1.00  0.00     0.031 A 
ATOM     34  C   UNL A   1      42.942  25.969  27.548  1.00  0.00     0.074 A 
ATOM     35  C   UNL A   1      40.815  26.528  28.678  1.00  0.00     0.049 A 
ATOM     36  N   UNL A   1      43.580  27.109  27.618  1.00  0.00    -0.248 NA
ATOM     37  C   UNL A   1      43.689  24.902  26.866  1.00  0.00     0.031 C 
ATOM     38  C   UNL A   1      39.460  26.306  29.182  1.00  0.00     0.029 A 
ATOM     39  N   UNL A   1      41.074  27.841  28.977  1.00  0.00    -0.354 N 
ATOM     40  C   UNL A   1      44.800  26.900  26.983  1.00  0.00     0.074 A 
ATOM     41  C   UNL A   1      44.829  25.511  26.577  1.00  0.00     0.031 C 
ATOM     42  C   UNL A   1      39.008  27.447  29.731  1.00  0.00     0.029 A 
ATOM     43  C   UNL A   1      40.047  28.471  29.640  1.00  0.00     0.049 A 
ATOM     44  H   UNL A   1      41.918  28.291  28.739  1.00  0.00     0.167 HD
ATOM     45  C   UNL A   1      45.799  27.788  26.746  1.00  0.00     0.034 A 
ATOM     46  C   UNL A   1      39.962  29.725  30.128  1.00  0.00     0.034 A 
ATOM     47  C   UNL A   1      45.765  29.167  27.166  1.00  0.00     0.049 A 
ATOM     48  C   UNL A   1      41.119  30.674  29.923  1.00  0.00     0.074 A 
ATOM     49  C   UNL A   1      46.716  30.154  26.967  1.00  0.00     0.029 A 
ATOM     50  N   UNL A   1      44.732  29.754  27.885  1.00  0.00    -0.354 N 
ATOM     51  N   UNL A   1      42.260  30.468  29.304  1.00  0.00    -0.248 NA
ATOM     52  C   UNL A   1      40.971  32.028  30.475  1.00  0.00     0.031 C 
ATOM     53  C   UNL A   1      46.288  31.316  27.621  1.00  0.00     0.029 A 
ATOM     54  C   UNL A   1      45.037  31.077  28.166  1.00  0.00     0.049 A 
ATOM     55  H   UNL A   1      43.902  29.298  28.154  1.00  0.00     0.167 HD
ATOM     56  C   UNL A   1      42.950  31.677  29.368  1.00  0.00     0.074 A 
ATOM     57  C   UNL A   1      42.093  32.608  30.072  1.00  0.00     0.031 C 
ATOM     58  C   UNL A   1      44.179  31.991  28.885  1.00  0.00     0.034 A 
BRANCH  45  59
ATOM     59  C   UNL A   1      47.029  27.269  26.042  1.00  0.00     0.023 A 
ATOM     60  C   UNL A   1      48.033  26.564  26.729  1.00  0.00     0.031 A 
ATOM     61  C   UNL A   1      47.217  27.513  24.670  1.00  0.00     0.131 A 
ATOM     62  C   UNL A   1      49.210  26.193  26.060  1.00  0.00     0.055 A 
ATOM     63  C   UNL A   1      48.356  27.074  23.992  1.00  0.00     0.041 A 
ATOM     64  F   UNL A   1      46.303  28.200  23.967  1.00  0.00    -0.206 F 
ATOM     65  C   UNL A   1      49.368  26.422  24.692  1.00  0.00     0.022 A 
BRANCH  62  66
ATOM     66  S   UNL A   1      50.590  25.530  27.033  1.00  0.00     0.124 S 
ATOM     67  O   UNL A   1      49.959  24.396  27.705  1.00  0.00    -0.237 OA
ATOM     68  O   UNL A   1      51.572  25.201  26.007  1.00  0.00    -0.237 OA
ATOM     69  O   UNL A   1      50.953  26.640  27.911  1.00  0.00    -0.744 OA
ENDBRANCH  62  66
ENDBRANCH  45  59
BRANCH  46  70
ATOM     70  C   UNL A   1      38.757  30.158  30.891  1.00  0.00     0.023 A 
ATOM     71  C   UNL A   1      37.711  30.859  30.269  1.00  0.00     0.031 A 
ATOM     72  C   UNL A   1      38.663  29.924  32.276  1.00  0.00     0.131 A 
ATOM     73  C   UNL A   1      36.640  31.342  31.037  1.00  0.00     0.055 A 
ATOM     74  C   UNL A   1      37.571  30.364  33.025  1.00  0.00     0.041 A 
ATOM     75  F   UNL A   1      39.636  29.260  32.918  1.00  0.00    -0.206 F 
ATOM     76  C   UNL A   1      36.558  31.089  32.408  1.00  0.00     0.022 A 
BRANCH  73  77
ATOM     77  S   UNL A   1      35.391  32.382  30.230  1.00  0.00     0.124 S 
ATOM     78  O   UNL A   1      34.384  32.506  31.278  1.00  0.00    -0.237 OA
ATOM     79  O   UNL A   1      36.153  33.588  29.925  1.00  0.00    -0.237 OA
ATOM     80  O   UNL A   1      34.989  31.592  29.069  1.00  0.00    -0.744 OA
ENDBRANCH  73  77
ENDBRANCH  46  70
BRANCH  58  81
ATOM     81  C   UNL A   1      44.647  33.414  29.072  1.00  0.00     0.023 A 
ATOM     82  C   UNL A   1      44.093  34.478  28.339  1.00  0.00     0.031 A 
ATOM     83  C   UNL A   1      45.674  33.706  29.988  1.00  0.00     0.131 A 
ATOM     84  C   UNL A   1      44.607  35.776  28.491  1.00  0.00     0.055 A 
ATOM     85  C   UNL A   1      46.141  35.008  30.178  1.00  0.00     0.041 A 
ATOM     86  F   UNL A   1      46.239  32.729  30.715  1.00  0.00    -0.206 F 
ATOM     87  C   UNL A   1      45.617  36.049  29.418  1.00  0.00     0.022 A 
BRANCH  84  88
ATOM     88  S   UNL A   1      43.999  37.089  27.398  1.00  0.00     0.124 S 
ATOM     89  O   UNL A   1      43.195  36.339  26.439  1.00  0.00    -0.237 OA
ATOM     90  O   UNL A   1      43.259  37.944  28.319  1.00  0.00    -0.237 OA
ATOM     91  O   UNL A   1      45.222  37.677  26.855  1.00  0.00    -0.744 OA
ENDBRANCH  84  88
ENDBRANCH  58  81
ENDBRANCH  32  33
ENDBRANCH  25  27
ENDBRANCH  24  25
ENDBRANCH  23  24
ENDBRANCH   1  23
TORSDOF 18
ENDMDL
