MODEL 1
REMARK VINA RESULT:     -10.8      0.000      0.000
REMARK SMILES CN(Cc1ccc(C(=O)OCCOCCOC(=O)c2ccc(-c3c4nc(c(-c5cc(S(=O)(=O)[O-])ccc5F)c5ccc([nH]5)c(-c5cc(S(=O)(=O)[O-])ccc5F)c5nc(c(-c6cc(S(=O)(=O)[O-])ccc6F)c6ccc3[nH]6)C=C5)C=C4)cc2)cc1)c1ccccc1N
REMARK SMILES IDX 12 1 11 2 10 3 8 4 9 5 7 6 4 7 5 8 83 9 6 10 82 11 3 12 2 13
REMARK SMILES IDX 1 14 84 15 85 16 89 17 86 18 88 19 87 20 90 21 13 24 14 25
REMARK SMILES IDX 15 26 16 27 17 28 18 29 19 30 20 31 81 32 21 33 80 34 22 35
REMARK SMILES IDX 23 36 24 37 74 38 25 39 79 40 73 41 75 42 26 43 78 44 72 45
REMARK SMILES IDX 71 46 27 48 59 49 39 50 58 51 40 52 43 53 57 54 76 55 41 56
REMARK SMILES IDX 42 57 56 59 77 60 44 61 28 62 29 63 37 64 30 65 36 66 38 67
REMARK SMILES IDX 35 68 31 69 32 70 33 71 34 72 60 73 61 74 69 75 62 76 68 77
REMARK SMILES IDX 70 78 67 79 63 80 64 81 65 82 66 83 45 84 46 85 54 86 47 87
REMARK SMILES IDX 53 88 55 89 52 90 48 91 49 92 50 93 51 94
REMARK H PARENT 90 22 90 23 75 47 43 58
REMARK Flexibility Score: inf
ROOT
ATOM      1  C   UNL A   1      35.439  20.878  25.584  1.00  0.00     0.202 C 
ENDROOT
BRANCH   1   2
ATOM      2  C   UNL A   1      35.377  22.370  25.245  1.00  0.00     0.261 C 
BRANCH   2   3
ATOM      3  O   UNL A   1      34.656  23.098  26.250  1.00  0.00    -0.460 OA
BRANCH   3   4
ATOM      4  C   UNL A   1      33.375  23.384  25.924  1.00  0.00     0.338 C 
ATOM      5  O   UNL A   1      32.501  22.588  25.609  1.00  0.00    -0.246 OA
BRANCH   4   6
ATOM      6  C   UNL A   1      33.095  24.819  26.138  1.00  0.00     0.060 A 
ATOM      7  C   UNL A   1      32.274  27.485  26.129  1.00  0.00    -0.029 A 
ATOM      8  C   UNL A   1      31.399  26.485  26.582  1.00  0.00     0.006 A 
ATOM      9  C   UNL A   1      33.617  27.157  25.866  1.00  0.00     0.006 A 
ATOM     10  C   UNL A   1      31.802  25.154  26.559  1.00  0.00     0.016 A 
ATOM     11  C   UNL A   1      34.030  25.822  25.869  1.00  0.00     0.016 A 
BRANCH   7  12
ATOM     12  C   UNL A   1      31.732  28.843  25.727  1.00  0.00     0.151 C 
BRANCH  12  13
ATOM     13  N   UNL A   1      31.366  28.917  24.301  1.00  0.00    -0.369 N 
ATOM     14  C   UNL A   1      30.273  29.794  23.897  1.00  0.00     0.144 C 
BRANCH  13  15
ATOM     15  C   UNL A   1      31.834  28.002  23.349  1.00  0.00     0.060 A 
ATOM     16  C   UNL A   1      33.102  28.138  22.756  1.00  0.00     0.028 A 
ATOM     17  C   UNL A   1      31.078  26.866  22.962  1.00  0.00     0.055 A 
ATOM     18  C   UNL A   1      33.617  27.220  21.838  1.00  0.00     0.002 A 
ATOM     19  C   UNL A   1      31.628  25.911  22.087  1.00  0.00     0.027 A 
ATOM     20  C   UNL A   1      32.880  26.098  21.508  1.00  0.00     0.002 A 
BRANCH  17  21
ATOM     21  N   UNL A   1      29.818  26.612  23.520  1.00  0.00    -0.397 N 
ATOM     22  H   UNL A   1      29.275  27.355  23.869  1.00  0.00     0.156 HD
ATOM     23  H   UNL A   1      29.476  25.690  23.562  1.00  0.00     0.156 HD
ENDBRANCH  17  21
ENDBRANCH  13  15
ENDBRANCH  12  13
ENDBRANCH   7  12
ENDBRANCH   4   6
ENDBRANCH   3   4
ENDBRANCH   2   3
ENDBRANCH   1   2
BRANCH   1  24
ATOM     24  O   UNL A   1      36.380  20.095  24.850  1.00  0.00    -0.374 OA
BRANCH  24  25
ATOM     25  C   UNL A   1      37.753  20.486  24.913  1.00  0.00     0.202 C 
BRANCH  25  26
ATOM     26  C   UNL A   1      38.778  19.398  25.254  1.00  0.00     0.261 C 
BRANCH  26  27
ATOM     27  O   UNL A   1      39.490  19.683  26.470  1.00  0.00    -0.460 OA
BRANCH  27  28
ATOM     28  C   UNL A   1      40.757  20.126  26.290  1.00  0.00     0.338 C 
ATOM     29  O   UNL A   1      41.645  19.567  25.660  1.00  0.00    -0.246 OA
BRANCH  28  30
ATOM     30  C   UNL A   1      40.893  21.502  26.805  1.00  0.00     0.060 A 
ATOM     31  C   UNL A   1      40.259  22.525  26.088  1.00  0.00     0.016 A 
ATOM     32  C   UNL A   1      41.678  21.798  27.922  1.00  0.00     0.016 A 
ATOM     33  C   UNL A   1      40.452  23.855  26.452  1.00  0.00     0.010 A 
ATOM     34  C   UNL A   1      41.878  23.135  28.278  1.00  0.00     0.010 A 
ATOM     35  C   UNL A   1      41.297  24.171  27.523  1.00  0.00    -0.014 A 
BRANCH  35  36
ATOM     36  C   UNL A   1      41.710  25.579  27.742  1.00  0.00     0.031 A 
ATOM     37  C   UNL A   1      43.049  26.026  27.220  1.00  0.00     0.074 A 
ATOM     38  C   UNL A   1      40.901  26.448  28.372  1.00  0.00     0.049 A 
ATOM     39  N   UNL A   1      43.651  27.179  27.353  1.00  0.00    -0.248 NA
ATOM     40  C   UNL A   1      43.811  25.033  26.448  1.00  0.00     0.031 C 
ATOM     41  C   UNL A   1      39.560  26.143  28.871  1.00  0.00     0.029 A 
ATOM     42  N   UNL A   1      41.093  27.765  28.707  1.00  0.00    -0.354 N 
ATOM     43  C   UNL A   1      44.867  27.050  26.689  1.00  0.00     0.074 A 
ATOM     44  C   UNL A   1      44.929  25.692  26.187  1.00  0.00     0.031 C 
ATOM     45  C   UNL A   1      39.056  27.241  29.462  1.00  0.00     0.029 A 
ATOM     46  C   UNL A   1      40.052  28.310  29.421  1.00  0.00     0.049 A 
ATOM     47  H   UNL A   1      41.900  28.271  28.458  1.00  0.00     0.167 HD
ATOM     48  C   UNL A   1      45.838  27.978  26.509  1.00  0.00     0.034 A 
ATOM     49  C   UNL A   1      39.933  29.522  30.000  1.00  0.00     0.034 A 
ATOM     50  C   UNL A   1      45.764  29.324  27.026  1.00  0.00     0.049 A 
ATOM     51  C   UNL A   1      41.066  30.511  29.867  1.00  0.00     0.074 A 
ATOM     52  C   UNL A   1      46.683  30.350  26.896  1.00  0.00     0.029 A 
ATOM     53  N   UNL A   1      44.713  29.827  27.784  1.00  0.00    -0.354 N 
ATOM     54  N   UNL A   1      42.213  30.378  29.239  1.00  0.00    -0.248 NA
ATOM     55  C   UNL A   1      40.887  31.816  30.517  1.00  0.00     0.031 C 
ATOM     56  C   UNL A   1      46.225  31.446  27.635  1.00  0.00     0.029 A 
ATOM     57  C   UNL A   1      44.980  31.136  28.158  1.00  0.00     0.049 A 
ATOM     58  H   UNL A   1      43.899  29.327  28.021  1.00  0.00     0.167 HD
ATOM     59  C   UNL A   1      42.875  31.595  29.393  1.00  0.00     0.074 A 
ATOM     60  C   UNL A   1      41.994  32.450  30.161  1.00  0.00     0.031 C 
ATOM     61  C   UNL A   1      44.096  31.974  28.934  1.00  0.00     0.034 A 
BRANCH  48  62
ATOM     62  C   UNL A   1      47.082  27.546  25.772  1.00  0.00     0.023 A 
ATOM     63  C   UNL A   1      47.301  27.880  24.424  1.00  0.00     0.031 A 
ATOM     64  C   UNL A   1      48.048  26.753  26.418  1.00  0.00     0.131 A 
ATOM     65  C   UNL A   1      48.418  27.366  23.748  1.00  0.00     0.055 A 
ATOM     66  C   UNL A   1      49.198  26.312  25.761  1.00  0.00     0.041 A 
ATOM     67  F   UNL A   1      47.882  26.380  27.697  1.00  0.00    -0.206 F 
ATOM     68  C   UNL A   1      49.381  26.604  24.414  1.00  0.00     0.022 A 
BRANCH  65  69
ATOM     69  S   UNL A   1      48.520  27.585  21.950  1.00  0.00     0.124 S 
ATOM     70  O   UNL A   1      48.732  26.212  21.498  1.00  0.00    -0.237 OA
ATOM     71  O   UNL A   1      47.223  28.169  21.629  1.00  0.00    -0.237 OA
ATOM     72  O   UNL A   1      49.667  28.474  21.776  1.00  0.00    -0.744 OA
ENDBRANCH  65  69
ENDBRANCH  48  62
BRANCH  49  73
ATOM     73  C   UNL A   1      38.722  29.860  30.802  1.00  0.00     0.023 A 
ATOM     74  C   UNL A   1      37.784  30.798  30.343  1.00  0.00     0.031 A 
ATOM     75  C   UNL A   1      38.516  29.291  32.071  1.00  0.00     0.131 A 
ATOM     76  C   UNL A   1      36.710  31.173  31.165  1.00  0.00     0.055 A 
ATOM     77  C   UNL A   1      37.417  29.626  32.863  1.00  0.00     0.041 A 
ATOM     78  F   UNL A   1      39.384  28.390  32.560  1.00  0.00    -0.206 F 
ATOM     79  C   UNL A   1      36.513  30.585  32.415  1.00  0.00     0.022 A 
BRANCH  76  80
ATOM     80  S   UNL A   1      35.617  32.512  30.611  1.00  0.00     0.124 S 
ATOM     81  O   UNL A   1      34.481  32.361  31.512  1.00  0.00    -0.237 OA
ATOM     82  O   UNL A   1      36.453  33.689  30.821  1.00  0.00    -0.237 OA
ATOM     83  O   UNL A   1      35.355  32.178  29.212  1.00  0.00    -0.744 OA
ENDBRANCH  76  80
ENDBRANCH  49  73
BRANCH  61  84
ATOM     84  C   UNL A   1      44.524  33.395  29.213  1.00  0.00     0.023 A 
ATOM     85  C   UNL A   1      44.285  34.436  28.299  1.00  0.00     0.031 A 
ATOM     86  C   UNL A   1      45.188  33.709  30.412  1.00  0.00     0.131 A 
ATOM     87  C   UNL A   1      44.756  35.730  28.574  1.00  0.00     0.055 A 
ATOM     88  C   UNL A   1      45.600  35.009  30.708  1.00  0.00     0.041 A 
ATOM     89  F   UNL A   1      45.445  32.754  31.321  1.00  0.00    -0.206 F 
ATOM     90  C   UNL A   1      45.396  36.025  29.780  1.00  0.00     0.022 A 
BRANCH  87  91
ATOM     91  S   UNL A   1      44.599  37.005  27.293  1.00  0.00     0.124 S 
ATOM     92  O   UNL A   1      45.812  36.800  26.511  1.00  0.00    -0.237 OA
ATOM     93  O   UNL A   1      43.348  36.638  26.638  1.00  0.00    -0.237 OA
ATOM     94  O   UNL A   1      44.556  38.252  28.055  1.00  0.00    -0.744 OA
ENDBRANCH  87  91
ENDBRANCH  61  84
ENDBRANCH  35  36
ENDBRANCH  28  30
ENDBRANCH  27  28
ENDBRANCH  26  27
ENDBRANCH  25  26
ENDBRANCH  24  25
ENDBRANCH   1  24
TORSDOF 21
ENDMDL
MODEL 2
REMARK VINA RESULT:     -10.7      1.777      7.767
REMARK SMILES CN(Cc1ccc(C(=O)OCCOCCOC(=O)c2ccc(-c3c4nc(c(-c5cc(S(=O)(=O)[O-])ccc5F)c5ccc([nH]5)c(-c5cc(S(=O)(=O)[O-])ccc5F)c5nc(c(-c6cc(S(=O)(=O)[O-])ccc6F)c6ccc3[nH]6)C=C5)C=C4)cc2)cc1)c1ccccc1N
REMARK SMILES IDX 12 1 11 2 10 3 8 4 9 5 7 6 4 7 5 8 83 9 6 10 82 11 3 12 2 13
REMARK SMILES IDX 1 14 84 15 85 16 89 17 86 18 88 19 87 20 90 21 13 24 14 25
REMARK SMILES IDX 15 26 16 27 17 28 18 29 19 30 20 31 81 32 21 33 80 34 22 35
REMARK SMILES IDX 23 36 24 37 74 38 25 39 79 40 73 41 75 42 26 43 78 44 72 45
REMARK SMILES IDX 71 46 27 48 59 49 39 50 58 51 40 52 43 53 57 54 76 55 41 56
REMARK SMILES IDX 42 57 56 59 77 60 44 61 28 62 29 63 37 64 30 65 36 66 38 67
REMARK SMILES IDX 35 68 31 69 32 70 33 71 34 72 60 73 61 74 69 75 62 76 68 77
REMARK SMILES IDX 70 78 67 79 63 80 64 81 65 82 66 83 45 84 46 85 54 86 47 87
REMARK SMILES IDX 53 88 55 89 52 90 48 91 49 92 50 93 51 94
REMARK H PARENT 90 22 90 23 75 47 43 58
REMARK Flexibility Score: inf
ROOT
ATOM      1  C   UNL A   1      34.467  21.174  25.685  1.00  0.00     0.202 C 
ENDROOT
BRANCH   1   2
ATOM      2  C   UNL A   1      34.959  22.546  26.153  1.00  0.00     0.261 C 
BRANCH   2   3
ATOM      3  O   UNL A   1      34.087  23.093  27.153  1.00  0.00    -0.460 OA
BRANCH   3   4
ATOM      4  C   UNL A   1      32.860  23.436  26.699  1.00  0.00     0.338 C 
ATOM      5  O   UNL A   1      31.794  23.298  27.282  1.00  0.00    -0.246 OA
BRANCH   4   6
ATOM      6  C   UNL A   1      32.969  24.162  25.416  1.00  0.00     0.060 A 
ATOM      7  C   UNL A   1      32.848  25.858  23.204  1.00  0.00    -0.029 A 
ATOM      8  C   UNL A   1      33.601  26.228  24.330  1.00  0.00     0.006 A 
ATOM      9  C   UNL A   1      32.322  24.555  23.127  1.00  0.00     0.006 A 
ATOM     10  C   UNL A   1      33.636  25.393  25.441  1.00  0.00     0.016 A 
ATOM     11  C   UNL A   1      32.380  23.704  24.234  1.00  0.00     0.016 A 
BRANCH   7  12
ATOM     12  C   UNL A   1      32.431  26.906  22.191  1.00  0.00     0.151 C 
BRANCH  12  13
ATOM     13  N   UNL A   1      31.778  28.076  22.808  1.00  0.00    -0.369 N 
ATOM     14  C   UNL A   1      32.572  28.969  23.643  1.00  0.00     0.144 C 
BRANCH  13  15
ATOM     15  C   UNL A   1      30.386  28.233  22.848  1.00  0.00     0.060 A 
ATOM     16  C   UNL A   1      29.564  27.346  23.566  1.00  0.00     0.028 A 
ATOM     17  C   UNL A   1      29.733  29.315  22.206  1.00  0.00     0.055 A 
ATOM     18  C   UNL A   1      28.179  27.499  23.663  1.00  0.00     0.002 A 
ATOM     19  C   UNL A   1      28.347  29.502  22.361  1.00  0.00     0.027 A 
ATOM     20  C   UNL A   1      27.569  28.585  23.065  1.00  0.00     0.002 A 
BRANCH  17  21
ATOM     21  N   UNL A   1      30.459  30.280  21.497  1.00  0.00    -0.397 N 
ATOM     22  H   UNL A   1      30.416  31.225  21.766  1.00  0.00     0.156 HD
ATOM     23  H   UNL A   1      31.014  30.012  20.728  1.00  0.00     0.156 HD
ENDBRANCH  17  21
ENDBRANCH  13  15
ENDBRANCH  12  13
ENDBRANCH   7  12
ENDBRANCH   4   6
ENDBRANCH   3   4
ENDBRANCH   2   3
ENDBRANCH   1   2
BRANCH   1  24
ATOM     24  O   UNL A   1      35.440  20.316  25.088  1.00  0.00    -0.374 OA
BRANCH  24  25
ATOM     25  C   UNL A   1      36.675  20.906  24.677  1.00  0.00     0.202 C 
BRANCH  25  26
ATOM     26  C   UNL A   1      37.943  20.059  24.829  1.00  0.00     0.261 C 
BRANCH  26  27
ATOM     27  O   UNL A   1      38.481  20.118  26.161  1.00  0.00    -0.460 OA
BRANCH  27  28
ATOM     28  C   UNL A   1      39.830  20.222  26.219  1.00  0.00     0.338 C 
ATOM     29  O   UNL A   1      40.646  19.444  25.743  1.00  0.00    -0.246 OA
BRANCH  28  30
ATOM     30  C   UNL A   1      40.214  21.531  26.782  1.00  0.00     0.060 A 
ATOM     31  C   UNL A   1      39.747  22.679  26.127  1.00  0.00     0.016 A 
ATOM     32  C   UNL A   1      41.066  21.639  27.883  1.00  0.00     0.016 A 
ATOM     33  C   UNL A   1      40.176  23.939  26.536  1.00  0.00     0.010 A 
ATOM     34  C   UNL A   1      41.503  22.906  28.285  1.00  0.00     0.010 A 
ATOM     35  C   UNL A   1      41.090  24.058  27.590  1.00  0.00    -0.014 A 
BRANCH  35  36
ATOM     36  C   UNL A   1      41.745  25.364  27.850  1.00  0.00     0.031 A 
ATOM     37  C   UNL A   1      40.954  26.440  28.543  1.00  0.00     0.074 A 
ATOM     38  C   UNL A   1      43.024  25.579  27.497  1.00  0.00     0.049 A 
ATOM     39  N   UNL A   1      41.287  27.676  28.811  1.00  0.00    -0.248 NA
ATOM     40  C   UNL A   1      39.602  26.069  28.988  1.00  0.00     0.031 C 
ATOM     41  C   UNL A   1      43.905  24.594  26.872  1.00  0.00     0.029 A 
ATOM     42  N   UNL A   1      43.803  26.704  27.610  1.00  0.00    -0.354 N 
ATOM     43  C   UNL A   1      40.184  28.235  29.449  1.00  0.00     0.074 A 
ATOM     44  C   UNL A   1      39.160  27.210  29.493  1.00  0.00     0.031 C 
ATOM     45  C   UNL A   1      45.101  25.163  26.642  1.00  0.00     0.029 A 
ATOM     46  C   UNL A   1      45.057  26.562  27.064  1.00  0.00     0.049 A 
ATOM     47  H   UNL A   1      43.492  27.533  28.041  1.00  0.00     0.167 HD
ATOM     48  C   UNL A   1      40.041  29.483  29.956  1.00  0.00     0.034 A 
ATOM     49  C   UNL A   1      46.043  27.467  26.899  1.00  0.00     0.034 A 
ATOM     50  C   UNL A   1      41.069  30.495  29.894  1.00  0.00     0.049 A 
ATOM     51  C   UNL A   1      45.829  28.880  27.388  1.00  0.00     0.074 A 
ATOM     52  C   UNL A   1      41.036  31.789  30.383  1.00  0.00     0.029 A 
ATOM     53  N   UNL A   1      42.311  30.330  29.293  1.00  0.00    -0.354 N 
ATOM     54  N   UNL A   1      44.781  29.399  27.988  1.00  0.00    -0.248 NA
ATOM     55  C   UNL A   1      46.932  29.827  27.182  1.00  0.00     0.031 C 
ATOM     56  C   UNL A   1      42.226  32.427  30.016  1.00  0.00     0.029 A 
ATOM     57  C   UNL A   1      43.038  31.509  29.369  1.00  0.00     0.049 A 
ATOM     58  H   UNL A   1      42.629  29.497  28.876  1.00  0.00     0.167 HD
ATOM     59  C   UNL A   1      45.116  30.724  28.259  1.00  0.00     0.074 A 
ATOM     60  C   UNL A   1      46.464  30.919  27.769  1.00  0.00     0.031 C 
ATOM     61  C   UNL A   1      44.379  31.691  28.865  1.00  0.00     0.034 A 
BRANCH  48  62
ATOM     62  C   UNL A   1      38.706  29.834  30.568  1.00  0.00     0.023 A 
ATOM     63  C   UNL A   1      37.745  30.590  29.874  1.00  0.00     0.031 A 
ATOM     64  C   UNL A   1      38.404  29.436  31.884  1.00  0.00     0.131 A 
ATOM     65  C   UNL A   1      36.564  30.984  30.520  1.00  0.00     0.055 A 
ATOM     66  C   UNL A   1      37.192  29.764  32.493  1.00  0.00     0.041 A 
ATOM     67  F   UNL A   1      39.292  28.734  32.606  1.00  0.00    -0.206 F 
ATOM     68  C   UNL A   1      36.269  30.556  31.817  1.00  0.00     0.022 A 
BRANCH  65  69
ATOM     69  S   UNL A   1      35.483  32.185  29.696  1.00  0.00     0.124 S 
ATOM     70  O   UNL A   1      36.388  33.318  29.512  1.00  0.00    -0.237 OA
ATOM     71  O   UNL A   1      35.092  31.477  28.482  1.00  0.00    -0.237 OA
ATOM     72  O   UNL A   1      34.411  32.404  30.665  1.00  0.00    -0.744 OA
ENDBRANCH  65  69
ENDBRANCH  48  62
BRANCH  49  73
ATOM     73  C   UNL A   1      47.303  27.091  26.197  1.00  0.00     0.023 A 
ATOM     74  C   UNL A   1      48.307  26.357  26.848  1.00  0.00     0.031 A 
ATOM     75  C   UNL A   1      47.549  27.514  24.878  1.00  0.00     0.131 A 
ATOM     76  C   UNL A   1      49.526  26.107  26.197  1.00  0.00     0.055 A 
ATOM     77  C   UNL A   1      48.740  27.217  24.216  1.00  0.00     0.041 A 
ATOM     78  F   UNL A   1      46.624  28.222  24.210  1.00  0.00    -0.206 F 
ATOM     79  C   UNL A   1      49.744  26.521  24.882  1.00  0.00     0.022 A 
BRANCH  76  80
ATOM     80  S   UNL A   1      50.861  25.307  27.130  1.00  0.00     0.124 S 
ATOM     81  O   UNL A   1      51.736  24.846  26.059  1.00  0.00    -0.237 OA
ATOM     82  O   UNL A   1      51.364  26.410  27.942  1.00  0.00    -0.237 OA
ATOM     83  O   UNL A   1      50.172  24.253  27.872  1.00  0.00    -0.744 OA
ENDBRANCH  76  80
ENDBRANCH  49  73
BRANCH  61  84
ATOM     84  C   UNL A   1      45.042  33.032  29.073  1.00  0.00     0.023 A 
ATOM     85  C   UNL A   1      45.073  34.010  28.064  1.00  0.00     0.031 A 
ATOM     86  C   UNL A   1      45.657  33.331  30.302  1.00  0.00     0.131 A 
ATOM     87  C   UNL A   1      45.755  35.218  28.282  1.00  0.00     0.055 A 
ATOM     88  C   UNL A   1      46.280  34.558  30.535  1.00  0.00     0.041 A 
ATOM     89  F   UNL A   1      45.658  32.434  31.302  1.00  0.00    -0.206 F 
ATOM     90  C   UNL A   1      46.343  35.504  29.517  1.00  0.00     0.022 A 
BRANCH  87  91
ATOM     91  S   UNL A   1      45.940  36.377  26.898  1.00  0.00     0.124 S 
ATOM     92  O   UNL A   1      44.827  37.293  27.120  1.00  0.00    -0.237 OA
ATOM     93  O   UNL A   1      47.273  36.925  27.127  1.00  0.00    -0.237 OA
ATOM     94  O   UNL A   1      45.816  35.524  25.718  1.00  0.00    -0.744 OA
ENDBRANCH  87  91
ENDBRANCH  61  84
ENDBRANCH  35  36
ENDBRANCH  28  30
ENDBRANCH  27  28
ENDBRANCH  26  27
ENDBRANCH  25  26
ENDBRANCH  24  25
ENDBRANCH   1  24
TORSDOF 21
ENDMDL
MODEL 3
REMARK VINA RESULT:     -10.6      1.672      2.370
REMARK SMILES CN(Cc1ccc(C(=O)OCCOCCOC(=O)c2ccc(-c3c4nc(c(-c5cc(S(=O)(=O)[O-])ccc5F)c5ccc([nH]5)c(-c5cc(S(=O)(=O)[O-])ccc5F)c5nc(c(-c6cc(S(=O)(=O)[O-])ccc6F)c6ccc3[nH]6)C=C5)C=C4)cc2)cc1)c1ccccc1N
REMARK SMILES IDX 12 1 11 2 10 3 8 4 9 5 7 6 4 7 5 8 83 9 6 10 82 11 3 12 2 13
REMARK SMILES IDX 1 14 84 15 85 16 89 17 86 18 88 19 87 20 90 21 13 24 14 25
REMARK SMILES IDX 15 26 16 27 17 28 18 29 19 30 20 31 81 32 21 33 80 34 22 35
REMARK SMILES IDX 23 36 24 37 74 38 25 39 79 40 73 41 75 42 26 43 78 44 72 45
REMARK SMILES IDX 71 46 27 48 59 49 39 50 58 51 40 52 43 53 57 54 76 55 41 56
REMARK SMILES IDX 42 57 56 59 77 60 44 61 28 62 29 63 37 64 30 65 36 66 38 67
REMARK SMILES IDX 35 68 31 69 32 70 33 71 34 72 60 73 61 74 69 75 62 76 68 77
REMARK SMILES IDX 70 78 67 79 63 80 64 81 65 82 66 83 45 84 46 85 54 86 47 87
REMARK SMILES IDX 53 88 55 89 52 90 48 91 49 92 50 93 51 94
REMARK H PARENT 90 22 90 23 75 47 43 58
REMARK Flexibility Score: inf
ROOT
ATOM      1  C   UNL A   1      36.308  21.154  24.649  1.00  0.00     0.202 C 
ENDROOT
BRANCH   1   2
ATOM      2  C   UNL A   1      35.036  20.362  24.963  1.00  0.00     0.261 C 
BRANCH   2   3
ATOM      3  O   UNL A   1      33.965  21.237  25.347  1.00  0.00    -0.460 OA
BRANCH   3   4
ATOM      4  C   UNL A   1      32.985  21.360  24.423  1.00  0.00     0.338 C 
ATOM      5  O   UNL A   1      32.322  20.459  23.929  1.00  0.00    -0.246 OA
BRANCH   4   6
ATOM      6  C   UNL A   1      32.690  22.786  24.168  1.00  0.00     0.060 A 
ATOM      7  C   UNL A   1      31.998  25.318  23.226  1.00  0.00    -0.029 A 
ATOM      8  C   UNL A   1      30.994  24.410  23.595  1.00  0.00     0.006 A 
ATOM      9  C   UNL A   1      33.341  25.014  23.516  1.00  0.00     0.006 A 
ATOM     10  C   UNL A   1      31.342  23.139  24.038  1.00  0.00     0.016 A 
ATOM     11  C   UNL A   1      33.691  23.745  23.987  1.00  0.00     0.016 A 
BRANCH   7  12
ATOM     12  C   UNL A   1      31.664  26.505  22.343  1.00  0.00     0.151 C 
BRANCH  12  13
ATOM     13  N   UNL A   1      31.186  27.673  23.106  1.00  0.00    -0.369 N 
ATOM     14  C   UNL A   1      31.871  28.039  24.341  1.00  0.00     0.144 C 
BRANCH  13  15
ATOM     15  C   UNL A   1      29.956  28.294  22.851  1.00  0.00     0.060 A 
ATOM     16  C   UNL A   1      28.757  27.810  23.404  1.00  0.00     0.028 A 
ATOM     17  C   UNL A   1      29.856  29.465  22.058  1.00  0.00     0.055 A 
ATOM     18  C   UNL A   1      27.521  28.430  23.204  1.00  0.00     0.002 A 
ATOM     19  C   UNL A   1      28.619  30.122  21.915  1.00  0.00     0.027 A 
ATOM     20  C   UNL A   1      27.453  29.595  22.463  1.00  0.00     0.002 A 
BRANCH  17  21
ATOM     21  N   UNL A   1      30.992  30.054  21.491  1.00  0.00    -0.397 N 
ATOM     22  H   UNL A   1      31.081  31.034  21.470  1.00  0.00     0.156 HD
ATOM     23  H   UNL A   1      31.704  29.488  21.114  1.00  0.00     0.156 HD
ENDBRANCH  17  21
ENDBRANCH  13  15
ENDBRANCH  12  13
ENDBRANCH   7  12
ENDBRANCH   4   6
ENDBRANCH   3   4
ENDBRANCH   2   3
ENDBRANCH   1   2
BRANCH   1  24
ATOM     24  O   UNL A   1      37.074  21.603  25.767  1.00  0.00    -0.374 OA
BRANCH  24  25
ATOM     25  C   UNL A   1      38.496  21.605  25.633  1.00  0.00     0.202 C 
BRANCH  25  26
ATOM     26  C   UNL A   1      39.201  20.244  25.609  1.00  0.00     0.261 C 
BRANCH  26  27
ATOM     27  O   UNL A   1      40.126  20.091  26.700  1.00  0.00    -0.460 OA
BRANCH  27  28
ATOM     28  C   UNL A   1      41.430  20.084  26.335  1.00  0.00     0.338 C 
ATOM     29  O   UNL A   1      42.018  19.194  25.735  1.00  0.00    -0.246 OA
BRANCH  28  30
ATOM     30  C   UNL A   1      42.035  21.404  26.592  1.00  0.00     0.060 A 
ATOM     31  C   UNL A   1      42.272  21.759  27.926  1.00  0.00     0.016 A 
ATOM     32  C   UNL A   1      42.304  22.306  25.559  1.00  0.00     0.016 A 
ATOM     33  C   UNL A   1      42.725  23.038  28.239  1.00  0.00     0.010 A 
ATOM     34  C   UNL A   1      42.749  23.593  25.877  1.00  0.00     0.010 A 
ATOM     35  C   UNL A   1      42.926  23.977  27.219  1.00  0.00    -0.014 A 
BRANCH  35  36
ATOM     36  C   UNL A   1      43.149  25.402  27.567  1.00  0.00     0.031 A 
ATOM     37  C   UNL A   1      44.538  25.966  27.434  1.00  0.00     0.074 A 
ATOM     38  C   UNL A   1      42.133  26.184  27.972  1.00  0.00     0.049 A 
ATOM     39  N   UNL A   1      44.987  27.154  27.745  1.00  0.00    -0.248 NA
ATOM     40  C   UNL A   1      45.556  25.062  26.878  1.00  0.00     0.031 C 
ATOM     41  C   UNL A   1      40.738  25.762  28.085  1.00  0.00     0.029 A 
ATOM     42  N   UNL A   1      42.122  27.497  28.370  1.00  0.00    -0.354 N 
ATOM     43  C   UNL A   1      46.342  27.140  27.431  1.00  0.00     0.074 A 
ATOM     44  C   UNL A   1      46.646  25.811  26.940  1.00  0.00     0.031 C 
ATOM     45  C   UNL A   1      40.007  26.796  28.539  1.00  0.00     0.029 A 
ATOM     46  C   UNL A   1      40.887  27.936  28.786  1.00  0.00     0.049 A 
ATOM     47  H   UNL A   1      42.922  28.070  28.357  1.00  0.00     0.167 HD
ATOM     48  C   UNL A   1      47.248  28.143  27.537  1.00  0.00     0.034 A 
ATOM     49  C   UNL A   1      40.519  29.112  29.334  1.00  0.00     0.034 A 
ATOM     50  C   UNL A   1      46.929  29.459  28.039  1.00  0.00     0.049 A 
ATOM     51  C   UNL A   1      41.563  30.186  29.530  1.00  0.00     0.074 A 
ATOM     52  C   UNL A   1      47.764  30.553  28.181  1.00  0.00     0.029 A 
ATOM     53  N   UNL A   1      45.677  29.854  28.495  1.00  0.00    -0.354 N 
ATOM     54  N   UNL A   1      42.843  30.162  29.232  1.00  0.00    -0.248 NA
ATOM     55  C   UNL A   1      41.111  31.448  30.131  1.00  0.00     0.031 C 
ATOM     56  C   UNL A   1      47.037  31.583  28.788  1.00  0.00     0.029 A 
ATOM     57  C   UNL A   1      45.727  31.162  28.950  1.00  0.00     0.049 A 
ATOM     58  H   UNL A   1      44.873  29.286  28.494  1.00  0.00     0.167 HD
ATOM     59  C   UNL A   1      43.339  31.417  29.581  1.00  0.00     0.074 A 
ATOM     60  C   UNL A   1      42.219  32.175  30.098  1.00  0.00     0.031 C 
ATOM     61  C   UNL A   1      44.603  31.902  29.475  1.00  0.00     0.034 A 
BRANCH  48  62
ATOM     62  C   UNL A   1      48.675  27.832  27.154  1.00  0.00     0.023 A 
ATOM     63  C   UNL A   1      49.146  28.004  25.840  1.00  0.00     0.031 A 
ATOM     64  C   UNL A   1      49.569  27.320  28.112  1.00  0.00     0.131 A 
ATOM     65  C   UNL A   1      50.447  27.600  25.506  1.00  0.00     0.055 A 
ATOM     66  C   UNL A   1      50.888  26.996  27.790  1.00  0.00     0.041 A 
ATOM     67  F   UNL A   1      49.169  27.110  29.377  1.00  0.00    -0.206 F 
ATOM     68  C   UNL A   1      51.330  27.120  26.477  1.00  0.00     0.022 A 
BRANCH  65  69
ATOM     69  S   UNL A   1      50.925  27.574  23.756  1.00  0.00     0.124 S 
ATOM     70  O   UNL A   1      49.796  26.869  23.153  1.00  0.00    -0.237 OA
ATOM     71  O   UNL A   1      51.035  28.993  23.438  1.00  0.00    -0.237 OA
ATOM     72  O   UNL A   1      52.185  26.833  23.755  1.00  0.00    -0.744 OA
ENDBRANCH  65  69
ENDBRANCH  48  62
BRANCH  49  73
ATOM     73  C   UNL A   1      39.115  29.329  29.786  1.00  0.00     0.023 A 
ATOM     74  C   UNL A   1      38.215  30.090  29.024  1.00  0.00     0.031 A 
ATOM     75  C   UNL A   1      38.669  28.825  31.021  1.00  0.00     0.131 A 
ATOM     76  C   UNL A   1      36.932  30.364  29.524  1.00  0.00     0.055 A 
ATOM     77  C   UNL A   1      37.376  29.054  31.489  1.00  0.00     0.041 A 
ATOM     78  F   UNL A   1      39.490  28.093  31.791  1.00  0.00    -0.206 F 
ATOM     79  C   UNL A   1      36.502  29.841  30.745  1.00  0.00     0.022 A 
BRANCH  76  80
ATOM     80  S   UNL A   1      35.859  31.493  28.592  1.00  0.00     0.124 S 
ATOM     81  O   UNL A   1      35.378  30.628  27.521  1.00  0.00    -0.237 OA
ATOM     82  O   UNL A   1      34.876  31.875  29.600  1.00  0.00    -0.237 OA
ATOM     83  O   UNL A   1      36.768  32.558  28.175  1.00  0.00    -0.744 OA
ENDBRANCH  76  80
ENDBRANCH  49  73
BRANCH  61  84
ATOM     84  C   UNL A   1      44.824  33.339  29.885  1.00  0.00     0.023 A 
ATOM     85  C   UNL A   1      44.836  34.385  28.946  1.00  0.00     0.031 A 
ATOM     86  C   UNL A   1      45.033  33.662  31.237  1.00  0.00     0.131 A 
ATOM     87  C   UNL A   1      45.107  35.698  29.366  1.00  0.00     0.055 A 
ATOM     88  C   UNL A   1      45.242  34.977  31.657  1.00  0.00     0.041 A 
ATOM     89  F   UNL A   1      45.035  32.702  32.177  1.00  0.00    -0.206 F 
ATOM     90  C   UNL A   1      45.292  36.001  30.717  1.00  0.00     0.022 A 
BRANCH  87  91
ATOM     91  S   UNL A   1      45.302  36.992  28.110  1.00  0.00     0.124 S 
ATOM     92  O   UNL A   1      46.550  36.602  27.463  1.00  0.00    -0.237 OA
ATOM     93  O   UNL A   1      44.093  36.836  27.309  1.00  0.00    -0.237 OA
ATOM     94  O   UNL A   1      45.370  38.224  28.895  1.00  0.00    -0.744 OA
ENDBRANCH  87  91
ENDBRANCH  61  84
ENDBRANCH  35  36
ENDBRANCH  28  30
ENDBRANCH  27  28
ENDBRANCH  26  27
ENDBRANCH  25  26
ENDBRANCH  24  25
ENDBRANCH   1  24
TORSDOF 21
ENDMDL
