MODEL 1
REMARK VINA RESULT:     -11.8      0.000      0.000
REMARK SMILES O=C(OCCOCCOC(=O)c1c(C2CC2)nn(-c2ccc(Cl)c(F)c2)c1Cl)c1ccc(-c2c3nc(c(-c4cc(S(=O)(=O)[O-])ccc4F)c4ccc([nH]4)c(-c4cc(S(=O)(=O)[O-])ccc4F)c4nc(c(-c5cc(S(=O)(=O)[O-])ccc5F)c5ccc2[nH]5)C=C4)C=C3)cc1
REMARK SMILES IDX 5 1 4 2 3 3 2 4 1 5 29 6 30 7 91 8 31 9 90 10 32 11 33 12
REMARK SMILES IDX 34 13 84 14 35 15 89 16 83 17 85 18 36 19 88 20 82 21 81 22
REMARK SMILES IDX 37 24 69 25 49 26 68 27 50 28 53 29 67 30 86 31 51 32 52 33
REMARK SMILES IDX 66 35 87 36 54 37 38 38 39 39 47 40 40 41 46 42 48 43 45 44
REMARK SMILES IDX 41 45 42 46 43 47 44 48 70 49 71 50 79 51 72 52 78 53 80 54
REMARK SMILES IDX 77 55 73 56 74 57 75 58 76 59 55 60 56 61 64 62 57 63 63 64
REMARK SMILES IDX 65 65 62 66 58 67 59 68 60 69 61 70 6 71 7 72 8 73 9 74
REMARK SMILES IDX 10 75 11 76 12 77 13 78 27 79 17 80 18 81 28 82 14 83 15 84
REMARK SMILES IDX 16 85 19 86 20 87 26 88 21 89 24 90 22 91 25 92 23 93
REMARK H PARENT 85 23 53 34
REMARK Flexibility Score: inf
ROOT
ATOM      1  C   UNL A   1      32.809  30.995  26.937  1.00  0.00     0.202 C 
ENDROOT
BRANCH   1   2
ATOM      2  C   UNL A   1      33.674  31.908  27.787  1.00  0.00     0.261 C 
BRANCH   2   3
ATOM      3  O   UNL A   1      34.790  31.242  28.387  1.00  0.00    -0.460 OA
BRANCH   3   4
ATOM      4  C   UNL A   1      36.026  31.765  28.215  1.00  0.00     0.338 C 
ATOM      5  O   UNL A   1      36.221  32.948  27.975  1.00  0.00    -0.246 OA
BRANCH   4   6
ATOM      6  C   UNL A   1      37.066  30.883  28.772  1.00  0.00     0.060 A 
ATOM      7  C   UNL A   1      38.260  31.365  29.309  1.00  0.00     0.016 A 
ATOM      8  C   UNL A   1      36.867  29.512  28.588  1.00  0.00     0.016 A 
ATOM      9  C   UNL A   1      39.337  30.521  29.415  1.00  0.00     0.010 A 
ATOM     10  C   UNL A   1      37.924  28.646  28.775  1.00  0.00     0.010 A 
ATOM     11  C   UNL A   1      39.170  29.169  29.109  1.00  0.00    -0.014 A 
BRANCH  11  12
ATOM     12  C   UNL A   1      40.303  28.309  29.377  1.00  0.00     0.031 A 
ATOM     13  C   UNL A   1      40.621  28.248  30.825  1.00  0.00     0.074 A 
ATOM     14  C   UNL A   1      40.950  27.603  28.436  1.00  0.00     0.049 A 
ATOM     15  N   UNL A   1      41.635  28.779  31.421  1.00  0.00    -0.248 NA
ATOM     16  C   UNL A   1      39.576  27.764  31.742  1.00  0.00     0.031 C 
ATOM     17  C   UNL A   1      40.588  27.415  27.033  1.00  0.00     0.029 A 
ATOM     18  N   UNL A   1      42.047  26.812  28.577  1.00  0.00    -0.354 N 
ATOM     19  C   UNL A   1      41.489  28.458  32.764  1.00  0.00     0.074 A 
ATOM     20  C   UNL A   1      40.121  28.047  32.925  1.00  0.00     0.031 C 
ATOM     21  C   UNL A   1      41.300  26.381  26.526  1.00  0.00     0.029 A 
ATOM     22  C   UNL A   1      42.257  25.928  27.525  1.00  0.00     0.049 A 
ATOM     23  H   UNL A   1      42.642  26.861  29.360  1.00  0.00     0.167 HD
ATOM     24  C   UNL A   1      42.586  28.294  33.553  1.00  0.00     0.034 A 
ATOM     25  C   UNL A   1      43.107  24.863  27.515  1.00  0.00     0.034 A 
ATOM     26  C   UNL A   1      43.741  28.938  32.959  1.00  0.00     0.049 A 
ATOM     27  C   UNL A   1      44.134  25.126  28.558  1.00  0.00     0.074 A 
ATOM     28  C   UNL A   1      44.016  30.231  32.552  1.00  0.00     0.029 A 
ATOM     29  N   UNL A   1      44.677  28.148  32.324  1.00  0.00    -0.354 N 
ATOM     30  N   UNL A   1      45.003  26.096  28.472  1.00  0.00    -0.248 NA
ATOM     31  C   UNL A   1      43.871  24.656  29.913  1.00  0.00     0.031 C 
ATOM     32  C   UNL A   1      44.735  30.086  31.329  1.00  0.00     0.029 A 
ATOM     33  C   UNL A   1      44.954  28.725  31.109  1.00  0.00     0.049 A 
ATOM     34  H   UNL A   1      45.076  27.320  32.678  1.00  0.00     0.167 HD
ATOM     35  C   UNL A   1      45.049  26.653  29.741  1.00  0.00     0.074 A 
ATOM     36  C   UNL A   1      44.401  25.668  30.608  1.00  0.00     0.031 C 
ATOM     37  C   UNL A   1      45.340  27.975  29.927  1.00  0.00     0.034 A 
BRANCH  24  38
ATOM     38  C   UNL A   1      42.711  27.199  34.594  1.00  0.00     0.023 A 
ATOM     39  C   UNL A   1      43.507  26.093  34.242  1.00  0.00     0.031 A 
ATOM     40  C   UNL A   1      41.880  27.016  35.723  1.00  0.00     0.131 A 
ATOM     41  C   UNL A   1      43.332  24.850  34.870  1.00  0.00     0.055 A 
ATOM     42  C   UNL A   1      41.760  25.793  36.390  1.00  0.00     0.041 A 
ATOM     43  F   UNL A   1      41.077  27.969  36.207  1.00  0.00    -0.206 F 
ATOM     44  C   UNL A   1      42.455  24.688  35.937  1.00  0.00     0.022 A 
BRANCH  41  45
ATOM     45  S   UNL A   1      44.122  23.408  34.119  1.00  0.00     0.124 S 
ATOM     46  O   UNL A   1      45.413  23.963  33.728  1.00  0.00    -0.237 OA
ATOM     47  O   UNL A   1      44.137  22.463  35.231  1.00  0.00    -0.237 OA
ATOM     48  O   UNL A   1      43.224  23.065  33.019  1.00  0.00    -0.744 OA
ENDBRANCH  41  45
ENDBRANCH  24  38
BRANCH  25  49
ATOM     49  C   UNL A   1      42.868  23.519  26.913  1.00  0.00     0.023 A 
ATOM     50  C   UNL A   1      43.832  22.840  26.134  1.00  0.00     0.031 A 
ATOM     51  C   UNL A   1      41.742  22.764  27.316  1.00  0.00     0.131 A 
ATOM     52  C   UNL A   1      43.647  21.476  25.794  1.00  0.00     0.055 A 
ATOM     53  C   UNL A   1      41.565  21.421  26.978  1.00  0.00     0.041 A 
ATOM     54  F   UNL A   1      40.809  23.282  28.130  1.00  0.00    -0.206 F 
ATOM     55  C   UNL A   1      42.524  20.767  26.224  1.00  0.00     0.022 A 
BRANCH  52  56
ATOM     56  S   UNL A   1      44.918  20.562  24.855  1.00  0.00     0.124 S 
ATOM     57  O   UNL A   1      44.629  20.955  23.480  1.00  0.00    -0.237 OA
ATOM     58  O   UNL A   1      46.160  21.068  25.428  1.00  0.00    -0.237 OA
ATOM     59  O   UNL A   1      44.630  19.161  25.164  1.00  0.00    -0.744 OA
ENDBRANCH  52  56
ENDBRANCH  25  49
BRANCH  37  60
ATOM     60  C   UNL A   1      45.934  28.763  28.775  1.00  0.00     0.023 A 
ATOM     61  C   UNL A   1      47.309  28.836  28.449  1.00  0.00     0.031 A 
ATOM     62  C   UNL A   1      45.027  29.393  27.902  1.00  0.00     0.131 A 
ATOM     63  C   UNL A   1      47.725  29.536  27.297  1.00  0.00     0.055 A 
ATOM     64  C   UNL A   1      45.440  30.062  26.752  1.00  0.00     0.041 A 
ATOM     65  F   UNL A   1      43.706  29.343  28.139  1.00  0.00    -0.206 F 
ATOM     66  C   UNL A   1      46.792  30.144  26.449  1.00  0.00     0.022 A 
BRANCH  63  67
ATOM     67  S   UNL A   1      49.493  29.705  26.885  1.00  0.00     0.124 S 
ATOM     68  O   UNL A   1      50.174  29.289  28.105  1.00  0.00    -0.237 OA
ATOM     69  O   UNL A   1      49.634  28.814  25.737  1.00  0.00    -0.237 OA
ATOM     70  O   UNL A   1      49.629  31.129  26.567  1.00  0.00    -0.744 OA
ENDBRANCH  63  67
ENDBRANCH  37  60
ENDBRANCH  11  12
ENDBRANCH   4   6
ENDBRANCH   3   4
ENDBRANCH   2   3
ENDBRANCH   1   2
BRANCH   1  71
ATOM     71  O   UNL A   1      33.254  29.652  26.779  1.00  0.00    -0.374 OA
BRANCH  71  72
ATOM     72  C   UNL A   1      32.574  28.708  27.622  1.00  0.00     0.202 C 
BRANCH  72  73
ATOM     73  C   UNL A   1      31.499  27.826  26.967  1.00  0.00     0.261 C 
BRANCH  73  74
ATOM     74  O   UNL A   1      31.827  26.425  27.024  1.00  0.00    -0.460 OA
BRANCH  74  75
ATOM     75  C   UNL A   1      31.141  25.539  26.236  1.00  0.00     0.343 C 
ATOM     76  O   UNL A   1      29.926  25.442  26.201  1.00  0.00    -0.246 OA
BRANCH  75  77
ATOM     77  C   UNL A   1      32.048  24.746  25.424  1.00  0.00     0.121 A 
ATOM     78  C   UNL A   1      32.631  24.899  24.127  1.00  0.00     0.082 A 
ATOM     79  C   UNL A   1      32.485  23.495  25.806  1.00  0.00     0.147 A 
ATOM     80  N   UNL A   1      33.385  23.840  23.780  1.00  0.00    -0.170 NA
ATOM     81  N   UNL A   1      33.211  22.960  24.779  1.00  0.00    -0.221 N 
ATOM     82  Cl  UNL A   1      32.255  22.605  27.256  1.00  0.00    -0.061 Cl
BRANCH  78  83
ATOM     83  C   UNL A   1      32.565  26.016  23.082  1.00  0.00     0.041 C 
ATOM     84  C   UNL A   1      32.942  25.907  21.635  1.00  0.00     0.011 C 
ATOM     85  C   UNL A   1      31.496  25.959  22.020  1.00  0.00     0.011 C 
ENDBRANCH  78  83
BRANCH  81  86
ATOM     86  C   UNL A   1      33.598  21.618  24.609  1.00  0.00     0.069 A 
ATOM     87  C   UNL A   1      34.899  21.223  24.928  1.00  0.00     0.030 A 
ATOM     88  C   UNL A   1      32.641  20.694  24.175  1.00  0.00     0.069 A 
ATOM     89  C   UNL A   1      35.212  19.860  24.906  1.00  0.00     0.026 A 
ATOM     90  C   UNL A   1      32.976  19.351  24.128  1.00  0.00     0.143 A 
ATOM     91  C   UNL A   1      34.245  18.925  24.517  1.00  0.00     0.076 A 
ATOM     92  F   UNL A   1      32.047  18.476  23.720  1.00  0.00    -0.205 F 
ATOM     93  Cl  UNL A   1      34.627  17.247  24.540  1.00  0.00    -0.081 Cl
ENDBRANCH  81  86
ENDBRANCH  75  77
ENDBRANCH  74  75
ENDBRANCH  73  74
ENDBRANCH  72  73
ENDBRANCH  71  72
ENDBRANCH   1  71
TORSDOF 19
ENDMDL
MODEL 2
REMARK VINA RESULT:     -11.6      1.491      1.876
REMARK SMILES O=C(OCCOCCOC(=O)c1c(C2CC2)nn(-c2ccc(Cl)c(F)c2)c1Cl)c1ccc(-c2c3nc(c(-c4cc(S(=O)(=O)[O-])ccc4F)c4ccc([nH]4)c(-c4cc(S(=O)(=O)[O-])ccc4F)c4nc(c(-c5cc(S(=O)(=O)[O-])ccc5F)c5ccc2[nH]5)C=C4)C=C3)cc1
REMARK SMILES IDX 5 1 4 2 3 3 2 4 1 5 29 6 30 7 91 8 31 9 90 10 32 11 33 12
REMARK SMILES IDX 34 13 84 14 35 15 89 16 83 17 85 18 36 19 88 20 82 21 81 22
REMARK SMILES IDX 37 24 69 25 49 26 68 27 50 28 53 29 67 30 86 31 51 32 52 33
REMARK SMILES IDX 66 35 87 36 54 37 38 38 39 39 47 40 40 41 46 42 48 43 45 44
REMARK SMILES IDX 41 45 42 46 43 47 44 48 70 49 71 50 79 51 72 52 78 53 80 54
REMARK SMILES IDX 77 55 73 56 74 57 75 58 76 59 55 60 56 61 64 62 57 63 63 64
REMARK SMILES IDX 65 65 62 66 58 67 59 68 60 69 61 70 6 71 7 72 8 73 9 74
REMARK SMILES IDX 10 75 11 76 12 77 13 78 27 79 17 80 18 81 28 82 14 83 15 84
REMARK SMILES IDX 16 85 19 86 20 87 26 88 21 89 24 90 22 91 25 92 23 93
REMARK H PARENT 85 23 53 34
REMARK Flexibility Score: inf
ROOT
ATOM      1  C   UNL A   1      33.277  30.422  26.667  1.00  0.00     0.202 C 
ENDROOT
BRANCH   1   2
ATOM      2  C   UNL A   1      33.718  31.538  27.597  1.00  0.00     0.261 C 
BRANCH   2   3
ATOM      3  O   UNL A   1      34.565  31.093  28.662  1.00  0.00    -0.460 OA
BRANCH   3   4
ATOM      4  C   UNL A   1      35.642  31.843  28.990  1.00  0.00     0.338 C 
ATOM      5  O   UNL A   1      35.558  32.886  29.622  1.00  0.00    -0.246 OA
BRANCH   4   6
ATOM      6  C   UNL A   1      36.889  31.064  28.899  1.00  0.00     0.060 A 
ATOM      7  C   UNL A   1      36.923  29.738  28.468  1.00  0.00     0.016 A 
ATOM      8  C   UNL A   1      38.030  31.674  29.425  1.00  0.00     0.016 A 
ATOM      9  C   UNL A   1      38.000  28.953  28.797  1.00  0.00     0.010 A 
ATOM     10  C   UNL A   1      39.148  30.908  29.681  1.00  0.00     0.010 A 
ATOM     11  C   UNL A   1      39.092  29.539  29.439  1.00  0.00    -0.014 A 
BRANCH  11  12
ATOM     12  C   UNL A   1      40.250  28.690  29.630  1.00  0.00     0.031 A 
ATOM     13  C   UNL A   1      40.577  28.515  31.066  1.00  0.00     0.074 A 
ATOM     14  C   UNL A   1      40.913  28.085  28.631  1.00  0.00     0.049 A 
ATOM     15  N   UNL A   1      41.578  29.021  31.703  1.00  0.00    -0.248 NA
ATOM     16  C   UNL A   1      39.549  27.926  31.941  1.00  0.00     0.031 C 
ATOM     17  C   UNL A   1      40.549  28.007  27.218  1.00  0.00     0.029 A 
ATOM     18  N   UNL A   1      42.031  27.316  28.701  1.00  0.00    -0.354 N 
ATOM     19  C   UNL A   1      41.447  28.583  33.015  1.00  0.00     0.074 A 
ATOM     20  C   UNL A   1      40.092  28.123  33.143  1.00  0.00     0.031 C 
ATOM     21  C   UNL A   1      41.287  27.040  26.623  1.00  0.00     0.029 A 
ATOM     22  C   UNL A   1      42.261  26.531  27.578  1.00  0.00     0.049 A 
ATOM     23  H   UNL A   1      42.628  27.315  29.484  1.00  0.00     0.167 HD
ATOM     24  C   UNL A   1      42.552  28.383  33.784  1.00  0.00     0.034 A 
ATOM     25  C   UNL A   1      43.140  25.495  27.475  1.00  0.00     0.034 A 
ATOM     26  C   UNL A   1      43.686  29.107  33.245  1.00  0.00     0.049 A 
ATOM     27  C   UNL A   1      44.164  25.696  28.534  1.00  0.00     0.074 A 
ATOM     28  C   UNL A   1      43.923  30.437  32.949  1.00  0.00     0.029 A 
ATOM     29  N   UNL A   1      44.640  28.400  32.543  1.00  0.00    -0.354 N 
ATOM     30  N   UNL A   1      45.006  26.694  28.529  1.00  0.00    -0.248 NA
ATOM     31  C   UNL A   1      43.919  25.106  29.844  1.00  0.00     0.031 C 
ATOM     32  C   UNL A   1      44.640  30.417  31.717  1.00  0.00     0.029 A 
ATOM     33  C   UNL A   1      44.896  29.086  31.381  1.00  0.00     0.049 A 
ATOM     34  H   UNL A   1      45.063  27.556  32.824  1.00  0.00     0.167 HD
ATOM     35  C   UNL A   1      45.041  27.142  29.841  1.00  0.00     0.074 A 
ATOM     36  C   UNL A   1      44.425  26.069  30.622  1.00  0.00     0.031 C 
ATOM     37  C   UNL A   1      45.297  28.451  30.139  1.00  0.00     0.034 A 
BRANCH  24  38
ATOM     38  C   UNL A   1      42.712  27.207  34.728  1.00  0.00     0.023 A 
ATOM     39  C   UNL A   1      43.530  26.155  34.278  1.00  0.00     0.031 A 
ATOM     40  C   UNL A   1      41.895  26.909  35.843  1.00  0.00     0.131 A 
ATOM     41  C   UNL A   1      43.390  24.859  34.799  1.00  0.00     0.055 A 
ATOM     42  C   UNL A   1      41.809  25.632  36.404  1.00  0.00     0.041 A 
ATOM     43  F   UNL A   1      41.074  27.798  36.410  1.00  0.00    -0.206 F 
ATOM     44  C   UNL A   1      42.527  24.586  35.855  1.00  0.00     0.022 A 
BRANCH  41  45
ATOM     45  S   UNL A   1      44.208  23.505  33.924  1.00  0.00     0.124 S 
ATOM     46  O   UNL A   1      43.293  23.296  32.807  1.00  0.00    -0.237 OA
ATOM     47  O   UNL A   1      45.500  24.099  33.596  1.00  0.00    -0.237 OA
ATOM     48  O   UNL A   1      44.246  22.435  34.917  1.00  0.00    -0.744 OA
ENDBRANCH  41  45
ENDBRANCH  24  38
BRANCH  25  49
ATOM     49  C   UNL A   1      42.935  24.201  26.761  1.00  0.00     0.023 A 
ATOM     50  C   UNL A   1      43.787  23.745  25.730  1.00  0.00     0.031 A 
ATOM     51  C   UNL A   1      42.009  23.261  27.271  1.00  0.00     0.131 A 
ATOM     52  C   UNL A   1      43.692  22.411  25.258  1.00  0.00     0.055 A 
ATOM     53  C   UNL A   1      41.919  21.949  26.802  1.00  0.00     0.041 A 
ATOM     54  F   UNL A   1      41.212  23.559  28.309  1.00  0.00    -0.206 F 
ATOM     55  C   UNL A   1      42.769  21.514  25.800  1.00  0.00     0.022 A 
BRANCH  52  56
ATOM     56  S   UNL A   1      44.836  21.783  23.982  1.00  0.00     0.124 S 
ATOM     57  O   UNL A   1      44.209  22.245  22.749  1.00  0.00    -0.237 OA
ATOM     58  O   UNL A   1      46.097  22.418  24.347  1.00  0.00    -0.237 OA
ATOM     59  O   UNL A   1      44.805  20.334  24.179  1.00  0.00    -0.744 OA
ENDBRANCH  52  56
ENDBRANCH  25  49
BRANCH  37  60
ATOM     60  C   UNL A   1      45.864  29.350  29.056  1.00  0.00     0.023 A 
ATOM     61  C   UNL A   1      45.165  30.388  28.397  1.00  0.00     0.031 A 
ATOM     62  C   UNL A   1      47.232  29.198  28.757  1.00  0.00     0.131 A 
ATOM     63  C   UNL A   1      45.835  31.210  27.466  1.00  0.00     0.055 A 
ATOM     64  C   UNL A   1      47.895  30.028  27.856  1.00  0.00     0.041 A 
ATOM     65  F   UNL A   1      47.961  28.248  29.364  1.00  0.00    -0.206 F 
ATOM     66  C   UNL A   1      47.197  31.032  27.200  1.00  0.00     0.022 A 
BRANCH  63  67
ATOM     67  S   UNL A   1      44.947  32.513  26.551  1.00  0.00     0.124 S 
ATOM     68  O   UNL A   1      45.998  33.183  25.796  1.00  0.00    -0.237 OA
ATOM     69  O   UNL A   1      43.986  31.744  25.765  1.00  0.00    -0.237 OA
ATOM     70  O   UNL A   1      44.349  33.324  27.615  1.00  0.00    -0.744 OA
ENDBRANCH  63  67
ENDBRANCH  37  60
ENDBRANCH  11  12
ENDBRANCH   4   6
ENDBRANCH   3   4
ENDBRANCH   2   3
ENDBRANCH   1   2
BRANCH   1  71
ATOM     71  O   UNL A   1      32.002  29.841  26.920  1.00  0.00    -0.374 OA
BRANCH  71  72
ATOM     72  C   UNL A   1      31.720  28.681  26.120  1.00  0.00     0.202 C 
BRANCH  72  73
ATOM     73  C   UNL A   1      32.410  27.367  26.519  1.00  0.00     0.261 C 
BRANCH  73  74
ATOM     74  O   UNL A   1      31.471  26.354  26.927  1.00  0.00    -0.460 OA
BRANCH  74  75
ATOM     75  C   UNL A   1      30.736  25.694  25.977  1.00  0.00     0.343 C 
ATOM     76  O   UNL A   1      29.543  25.858  25.789  1.00  0.00    -0.246 OA
BRANCH  75  77
ATOM     77  C   UNL A   1      31.568  24.788  25.204  1.00  0.00     0.121 A 
ATOM     78  C   UNL A   1      31.964  24.712  23.831  1.00  0.00     0.082 A 
ATOM     79  C   UNL A   1      32.120  23.645  25.741  1.00  0.00     0.147 A 
ATOM     80  N   UNL A   1      32.722  23.630  23.580  1.00  0.00    -0.170 NA
ATOM     81  N   UNL A   1      32.731  22.948  24.737  1.00  0.00    -0.221 N 
ATOM     82  Cl  UNL A   1      32.135  23.037  27.347  1.00  0.00    -0.061 Cl
BRANCH  78  83
ATOM     83  C   UNL A   1      31.698  25.611  22.621  1.00  0.00     0.041 C 
ATOM     84  C   UNL A   1      31.062  26.968  22.641  1.00  0.00     0.011 C 
ATOM     85  C   UNL A   1      32.539  26.848  22.432  1.00  0.00     0.011 C 
ENDBRANCH  78  83
BRANCH  81  86
ATOM     86  C   UNL A   1      33.164  21.610  24.760  1.00  0.00     0.069 A 
ATOM     87  C   UNL A   1      32.247  20.577  24.549  1.00  0.00     0.030 A 
ATOM     88  C   UNL A   1      34.527  21.348  24.939  1.00  0.00     0.069 A 
ATOM     89  C   UNL A   1      32.726  19.270  24.415  1.00  0.00     0.026 A 
ATOM     90  C   UNL A   1      34.981  20.044  24.835  1.00  0.00     0.143 A 
ATOM     91  C   UNL A   1      34.095  19.008  24.547  1.00  0.00     0.076 A 
ATOM     92  F   UNL A   1      36.291  19.810  24.999  1.00  0.00    -0.205 F 
ATOM     93  Cl  UNL A   1      34.678  17.404  24.333  1.00  0.00    -0.081 Cl
ENDBRANCH  81  86
ENDBRANCH  75  77
ENDBRANCH  74  75
ENDBRANCH  73  74
ENDBRANCH  72  73
ENDBRANCH  71  72
ENDBRANCH   1  71
TORSDOF 19
ENDMDL
MODEL 3
REMARK VINA RESULT:     -11.6      4.344      9.663
REMARK SMILES O=C(OCCOCCOC(=O)c1c(C2CC2)nn(-c2ccc(Cl)c(F)c2)c1Cl)c1ccc(-c2c3nc(c(-c4cc(S(=O)(=O)[O-])ccc4F)c4ccc([nH]4)c(-c4cc(S(=O)(=O)[O-])ccc4F)c4nc(c(-c5cc(S(=O)(=O)[O-])ccc5F)c5ccc2[nH]5)C=C4)C=C3)cc1
REMARK SMILES IDX 5 1 4 2 3 3 2 4 1 5 29 6 30 7 91 8 31 9 90 10 32 11 33 12
REMARK SMILES IDX 34 13 84 14 35 15 89 16 83 17 85 18 36 19 88 20 82 21 81 22
REMARK SMILES IDX 37 24 69 25 49 26 68 27 50 28 53 29 67 30 86 31 51 32 52 33
REMARK SMILES IDX 66 35 87 36 54 37 38 38 39 39 47 40 40 41 46 42 48 43 45 44
REMARK SMILES IDX 41 45 42 46 43 47 44 48 70 49 71 50 79 51 72 52 78 53 80 54
REMARK SMILES IDX 77 55 73 56 74 57 75 58 76 59 55 60 56 61 64 62 57 63 63 64
REMARK SMILES IDX 65 65 62 66 58 67 59 68 60 69 61 70 6 71 7 72 8 73 9 74
REMARK SMILES IDX 10 75 11 76 12 77 13 78 27 79 17 80 18 81 28 82 14 83 15 84
REMARK SMILES IDX 16 85 19 86 20 87 26 88 21 89 24 90 22 91 25 92 23 93
REMARK H PARENT 85 23 53 34
REMARK Flexibility Score: inf
ROOT
ATOM      1  C   UNL A   1      37.868  21.800  25.035  1.00  0.00     0.202 C 
ENDROOT
BRANCH   1   2
ATOM      2  C   UNL A   1      38.896  21.734  26.149  1.00  0.00     0.261 C 
BRANCH   2   3
ATOM      3  O   UNL A   1      39.599  22.965  26.350  1.00  0.00    -0.460 OA
BRANCH   3   4
ATOM      4  C   UNL A   1      40.300  23.132  27.496  1.00  0.00     0.338 C 
ATOM      5  O   UNL A   1      40.938  22.232  28.022  1.00  0.00    -0.246 OA
BRANCH   4   6
ATOM      6  C   UNL A   1      40.558  24.556  27.767  1.00  0.00     0.060 A 
ATOM      7  C   UNL A   1      41.738  25.013  28.355  1.00  0.00     0.016 A 
ATOM      8  C   UNL A   1      39.484  25.424  27.552  1.00  0.00     0.016 A 
ATOM      9  C   UNL A   1      41.754  26.246  28.957  1.00  0.00     0.010 A 
ATOM     10  C   UNL A   1      39.528  26.696  28.083  1.00  0.00     0.010 A 
ATOM     11  C   UNL A   1      40.629  27.066  28.849  1.00  0.00    -0.014 A 
BRANCH  11  12
ATOM     12  C   UNL A   1      40.762  28.405  29.383  1.00  0.00     0.031 A 
ATOM     13  C   UNL A   1      41.798  29.188  28.665  1.00  0.00     0.074 A 
ATOM     14  C   UNL A   1      39.997  28.901  30.369  1.00  0.00     0.049 A 
ATOM     15  N   UNL A   1      42.960  29.531  29.110  1.00  0.00    -0.248 NA
ATOM     16  C   UNL A   1      41.630  29.391  27.217  1.00  0.00     0.031 C 
ATOM     17  C   UNL A   1      38.814  28.305  30.986  1.00  0.00     0.029 A 
ATOM     18  N   UNL A   1      40.075  30.117  30.969  1.00  0.00    -0.354 N 
ATOM     19  C   UNL A   1      43.563  30.236  28.076  1.00  0.00     0.074 A 
ATOM     20  C   UNL A   1      42.810  29.920  26.893  1.00  0.00     0.031 C 
ATOM     21  C   UNL A   1      38.153  29.256  31.687  1.00  0.00     0.029 A 
ATOM     22  C   UNL A   1      38.935  30.484  31.676  1.00  0.00     0.049 A 
ATOM     23  H   UNL A   1      40.872  30.692  30.908  1.00  0.00     0.167 HD
ATOM     24  C   UNL A   1      44.450  31.230  28.351  1.00  0.00     0.034 A 
ATOM     25  C   UNL A   1      38.636  31.726  32.150  1.00  0.00     0.034 A 
ATOM     26  C   UNL A   1      44.976  31.086  29.694  1.00  0.00     0.049 A 
ATOM     27  C   UNL A   1      39.924  32.459  32.272  1.00  0.00     0.074 A 
ATOM     28  C   UNL A   1      45.642  30.075  30.362  1.00  0.00     0.029 A 
ATOM     29  N   UNL A   1      44.483  31.914  30.682  1.00  0.00    -0.354 N 
ATOM     30  N   UNL A   1      40.856  32.123  33.122  1.00  0.00    -0.248 NA
ATOM     31  C   UNL A   1      40.389  33.222  31.121  1.00  0.00     0.031 C 
ATOM     32  C   UNL A   1      45.077  30.065  31.671  1.00  0.00     0.029 A 
ATOM     33  C   UNL A   1      44.180  31.131  31.769  1.00  0.00     0.049 A 
ATOM     34  H   UNL A   1      44.369  32.890  30.619  1.00  0.00     0.167 HD
ATOM     35  C   UNL A   1      42.043  32.222  32.413  1.00  0.00     0.074 A 
ATOM     36  C   UNL A   1      41.703  32.992  31.216  1.00  0.00     0.031 C 
ATOM     37  C   UNL A   1      43.118  31.432  32.711  1.00  0.00     0.034 A 
BRANCH  24  38
ATOM     38  C   UNL A   1      44.494  32.544  27.597  1.00  0.00     0.023 A 
ATOM     39  C   UNL A   1      43.897  33.647  28.234  1.00  0.00     0.031 A 
ATOM     40  C   UNL A   1      44.771  32.713  26.220  1.00  0.00     0.131 A 
ATOM     41  C   UNL A   1      43.451  34.754  27.493  1.00  0.00     0.055 A 
ATOM     42  C   UNL A   1      44.386  33.847  25.500  1.00  0.00     0.041 A 
ATOM     43  F   UNL A   1      45.354  31.775  25.468  1.00  0.00    -0.206 F 
ATOM     44  C   UNL A   1      43.683  34.858  26.126  1.00  0.00     0.022 A 
BRANCH  41  45
ATOM     45  S   UNL A   1      42.379  35.948  28.325  1.00  0.00     0.124 S 
ATOM     46  O   UNL A   1      42.554  37.123  27.479  1.00  0.00    -0.237 OA
ATOM     47  O   UNL A   1      41.081  35.287  28.250  1.00  0.00    -0.237 OA
ATOM     48  O   UNL A   1      42.955  36.044  29.664  1.00  0.00    -0.744 OA
ENDBRANCH  41  45
ENDBRANCH  24  38
BRANCH  25  49
ATOM     49  C   UNL A   1      37.302  32.395  32.159  1.00  0.00     0.023 A 
ATOM     50  C   UNL A   1      36.649  32.829  30.983  1.00  0.00     0.031 A 
ATOM     51  C   UNL A   1      36.527  32.392  33.342  1.00  0.00     0.131 A 
ATOM     52  C   UNL A   1      35.290  33.232  31.025  1.00  0.00     0.055 A 
ATOM     53  C   UNL A   1      35.190  32.791  33.378  1.00  0.00     0.041 A 
ATOM     54  F   UNL A   1      37.019  31.918  34.497  1.00  0.00    -0.206 F 
ATOM     55  C   UNL A   1      34.561  33.202  32.216  1.00  0.00     0.022 A 
BRANCH  52  56
ATOM     56  S   UNL A   1      34.408  33.721  29.503  1.00  0.00     0.124 S 
ATOM     57  O   UNL A   1      33.287  34.492  30.028  1.00  0.00    -0.237 OA
ATOM     58  O   UNL A   1      35.427  34.468  28.774  1.00  0.00    -0.237 OA
ATOM     59  O   UNL A   1      34.040  32.442  28.896  1.00  0.00    -0.744 OA
ENDBRANCH  52  56
ENDBRANCH  25  49
BRANCH  37  60
ATOM     60  C   UNL A   1      43.126  30.673  34.025  1.00  0.00     0.023 A 
ATOM     61  C   UNL A   1      42.472  29.443  34.271  1.00  0.00     0.031 A 
ATOM     62  C   UNL A   1      43.936  31.194  35.053  1.00  0.00     0.131 A 
ATOM     63  C   UNL A   1      42.629  28.797  35.515  1.00  0.00     0.055 A 
ATOM     64  C   UNL A   1      44.108  30.539  36.271  1.00  0.00     0.041 A 
ATOM     65  F   UNL A   1      44.604  32.345  34.878  1.00  0.00    -0.206 F 
ATOM     66  C   UNL A   1      43.449  29.342  36.510  1.00  0.00     0.022 A 
BRANCH  63  67
ATOM     67  S   UNL A   1      41.748  27.245  35.887  1.00  0.00     0.124 S 
ATOM     68  O   UNL A   1      42.796  26.359  36.377  1.00  0.00    -0.237 OA
ATOM     69  O   UNL A   1      40.760  27.674  36.873  1.00  0.00    -0.237 OA
ATOM     70  O   UNL A   1      41.181  26.861  34.591  1.00  0.00    -0.744 OA
ENDBRANCH  63  67
ENDBRANCH  37  60
ENDBRANCH  11  12
ENDBRANCH   4   6
ENDBRANCH   3   4
ENDBRANCH   2   3
ENDBRANCH   1   2
BRANCH   1  71
ATOM     71  O   UNL A   1      36.598  21.212  25.297  1.00  0.00    -0.374 OA
BRANCH  71  72
ATOM     72  C   UNL A   1      35.525  21.768  24.520  1.00  0.00     0.202 C 
BRANCH  72  73
ATOM     73  C   UNL A   1      35.367  23.297  24.530  1.00  0.00     0.261 C 
BRANCH  73  74
ATOM     74  O   UNL A   1      34.985  23.819  23.243  1.00  0.00    -0.460 OA
BRANCH  74  75
ATOM     75  C   UNL A   1      33.691  23.677  22.815  1.00  0.00     0.343 C 
ATOM     76  O   UNL A   1      33.328  22.883  21.964  1.00  0.00    -0.246 OA
BRANCH  75  77
ATOM     77  C   UNL A   1      32.801  24.579  23.525  1.00  0.00     0.121 A 
ATOM     78  C   UNL A   1      31.811  24.417  24.545  1.00  0.00     0.082 A 
ATOM     79  C   UNL A   1      32.702  25.919  23.218  1.00  0.00     0.147 A 
ATOM     80  N   UNL A   1      31.198  25.576  24.847  1.00  0.00    -0.170 NA
ATOM     81  N   UNL A   1      31.693  26.460  23.966  1.00  0.00    -0.221 N 
ATOM     82  Cl  UNL A   1      33.586  26.902  22.123  1.00  0.00    -0.061 Cl
BRANCH  78  83
ATOM     83  C   UNL A   1      31.330  23.204  25.344  1.00  0.00     0.041 C 
ATOM     84  C   UNL A   1      31.821  21.794  25.206  1.00  0.00     0.011 C 
ATOM     85  C   UNL A   1      32.240  22.610  26.390  1.00  0.00     0.011 C 
ENDBRANCH  78  83
BRANCH  81  86
ATOM     86  C   UNL A   1      31.055  27.699  23.779  1.00  0.00     0.069 A 
ATOM     87  C   UNL A   1      30.050  27.826  22.817  1.00  0.00     0.030 A 
ATOM     88  C   UNL A   1      31.407  28.768  24.610  1.00  0.00     0.069 A 
ATOM     89  C   UNL A   1      29.320  29.018  22.761  1.00  0.00     0.026 A 
ATOM     90  C   UNL A   1      30.695  29.952  24.521  1.00  0.00     0.143 A 
ATOM     91  C   UNL A   1      29.638  30.075  23.622  1.00  0.00     0.076 A 
ATOM     92  F   UNL A   1      31.038  30.965  25.331  1.00  0.00    -0.205 F 
ATOM     93  Cl  UNL A   1      28.702  31.519  23.578  1.00  0.00    -0.081 Cl
ENDBRANCH  81  86
ENDBRANCH  75  77
ENDBRANCH  74  75
ENDBRANCH  73  74
ENDBRANCH  72  73
ENDBRANCH  71  72
ENDBRANCH   1  71
TORSDOF 19
ENDMDL
