MODEL 1
REMARK VINA RESULT:     -11.2      0.000      0.000
REMARK SMILES CC(C)N1C(=O)C[C@@H]([N@@H+]2CC[C@H](C(=O)OCCOCCOC(=O)c3ccc(-c4c5nc(c(-c6cc(S(=O)(=O)[O-])ccc6F)c6ccc([nH]6)c(-c6cc(S(=O)(=O)[O-])ccc6F)c6nc(c(-c7cc(S(=O)(=O)[O-])ccc7F)c7ccc4[nH]7)C=C6)C=C5)cc3)[C@@H]2C)C1=O
REMARK SMILES IDX 19 1 18 2 17 3 16 4 15 5 13 6 14 7 12 8 9 9 10 10 87 11
REMARK SMILES IDX 11 13 88 14 8 15 4 16 5 17 89 18 6 19 7 20 90 21 2 22 1 23
REMARK SMILES IDX 3 24 20 25 21 26 22 27 23 28 24 29 25 30 86 31 26 32 85 33
REMARK SMILES IDX 27 34 28 35 29 36 79 37 30 38 84 39 78 40 80 41 31 42 83 43
REMARK SMILES IDX 77 44 76 45 32 47 64 48 44 49 63 50 45 51 48 52 62 53 81 54
REMARK SMILES IDX 46 55 47 56 61 58 82 59 49 60 33 61 34 62 42 63 35 64 41 65
REMARK SMILES IDX 43 66 40 67 36 68 37 69 38 70 39 71 65 72 66 73 74 74 67 75
REMARK SMILES IDX 73 76 75 77 72 78 68 79 69 80 70 81 71 82 50 83 51 84 59 85
REMARK SMILES IDX 52 86 58 87 60 88 57 89 53 90 54 91 55 92 56 93
REMARK H PARENT 9 12 80 46 48 57
REMARK Flexibility Score: inf
ROOT
ATOM      1  C   UNL A   1      31.281  29.684  25.010  1.00  0.00     0.202 C 
ENDROOT
BRANCH   1   2
ATOM      2  O   UNL A   1      31.390  28.972  23.778  1.00  0.00    -0.374 OA
BRANCH   2   3
ATOM      3  C   UNL A   1      30.403  27.963  23.555  1.00  0.00     0.202 C 
BRANCH   3   4
ATOM      4  C   UNL A   1      30.396  26.856  24.607  1.00  0.00     0.261 C 
BRANCH   4   5
ATOM      5  O   UNL A   1      30.574  25.563  23.992  1.00  0.00    -0.463 OA
BRANCH   5   6
ATOM      6  C   UNL A   1      31.841  25.095  23.916  1.00  0.00     0.315 C 
ATOM      7  O   UNL A   1      32.821  25.661  24.393  1.00  0.00    -0.252 OA
BRANCH   6   8
ATOM      8  C   UNL A   1      31.965  23.741  23.240  1.00  0.00     0.162 C 
ATOM      9  N   UNL A   1      33.063  21.712  23.947  1.00  0.00    -0.321 N 
ATOM     10  C   UNL A   1      34.081  22.577  23.367  1.00  0.00     0.264 C 
ATOM     11  C   UNL A   1      31.779  22.432  24.026  1.00  0.00     0.196 C 
ATOM     12  H   UNL A   1      32.905  20.942  23.297  1.00  0.00     0.349 HD
ATOM     13  C   UNL A   1      33.315  23.596  22.543  1.00  0.00     0.083 C 
ATOM     14  C   UNL A   1      31.053  22.509  25.367  1.00  0.00     0.076 C 
BRANCH   9  15
ATOM     15  C   UNL A   1      33.467  20.863  25.078  1.00  0.00     0.284 C 
ATOM     16  N   UNL A   1      34.155  18.612  24.864  1.00  0.00    -0.275 N 
ATOM     17  C   UNL A   1      35.295  19.354  24.906  1.00  0.00     0.236 C 
ATOM     18  C   UNL A   1      33.039  19.409  24.870  1.00  0.00     0.288 C 
ATOM     19  O   UNL A   1      36.423  18.973  24.635  1.00  0.00    -0.274 OA
ATOM     20  C   UNL A   1      34.966  20.752  25.329  1.00  0.00     0.176 C 
ATOM     21  O   UNL A   1      31.890  19.027  24.680  1.00  0.00    -0.267 OA
BRANCH  16  22
ATOM     22  C   UNL A   1      34.092  17.174  24.591  1.00  0.00     0.087 C 
ATOM     23  C   UNL A   1      34.192  16.898  23.091  1.00  0.00     0.031 C 
ATOM     24  C   UNL A   1      35.137  16.358  25.358  1.00  0.00     0.031 C 
ENDBRANCH  16  22
ENDBRANCH   9  15
ENDBRANCH   6   8
ENDBRANCH   5   6
ENDBRANCH   4   5
ENDBRANCH   3   4
ENDBRANCH   2   3
ENDBRANCH   1   2
BRANCH   1  25
ATOM     25  C   UNL A   1      32.613  30.128  25.622  1.00  0.00     0.261 C 
BRANCH  25  26
ATOM     26  O   UNL A   1      32.435  30.631  26.958  1.00  0.00    -0.460 OA
BRANCH  26  27
ATOM     27  C   UNL A   1      33.135  31.750  27.256  1.00  0.00     0.338 C 
ATOM     28  O   UNL A   1      32.714  32.899  27.270  1.00  0.00    -0.246 OA
BRANCH  27  29
ATOM     29  C   UNL A   1      34.468  31.377  27.766  1.00  0.00     0.060 A 
ATOM     30  C   UNL A   1      34.691  30.039  28.113  1.00  0.00     0.016 A 
ATOM     31  C   UNL A   1      35.467  32.332  27.958  1.00  0.00     0.016 A 
ATOM     32  C   UNL A   1      35.904  29.660  28.690  1.00  0.00     0.010 A 
ATOM     33  C   UNL A   1      36.686  31.949  28.524  1.00  0.00     0.010 A 
ATOM     34  C   UNL A   1      36.897  30.619  28.928  1.00  0.00    -0.014 A 
BRANCH  34  35
ATOM     35  C   UNL A   1      38.086  30.281  29.752  1.00  0.00     0.031 A 
ATOM     36  C   UNL A   1      39.088  29.302  29.200  1.00  0.00     0.074 A 
ATOM     37  C   UNL A   1      38.268  30.827  30.967  1.00  0.00     0.049 A 
ATOM     38  N   UNL A   1      40.137  28.772  29.775  1.00  0.00    -0.248 NA
ATOM     39  C   UNL A   1      38.868  28.854  27.816  1.00  0.00     0.031 C 
ATOM     40  C   UNL A   1      37.391  31.820  31.588  1.00  0.00     0.029 A 
ATOM     41  N   UNL A   1      39.249  30.613  31.905  1.00  0.00    -0.354 N 
ATOM     42  C   UNL A   1      40.694  27.917  28.829  1.00  0.00     0.074 A 
ATOM     43  C   UNL A   1      39.843  27.973  27.658  1.00  0.00     0.031 C 
ATOM     44  C   UNL A   1      37.867  32.118  32.810  1.00  0.00     0.029 A 
ATOM     45  C   UNL A   1      39.053  31.306  33.077  1.00  0.00     0.049 A 
ATOM     46  H   UNL A   1      40.019  30.020  31.752  1.00  0.00     0.167 HD
ATOM     47  C   UNL A   1      41.815  27.161  28.926  1.00  0.00     0.034 A 
ATOM     48  C   UNL A   1      39.732  31.263  34.242  1.00  0.00     0.034 A 
ATOM     49  C   UNL A   1      42.651  27.118  30.099  1.00  0.00     0.049 A 
ATOM     50  C   UNL A   1      40.933  30.352  34.356  1.00  0.00     0.074 A 
ATOM     51  C   UNL A   1      43.820  26.402  30.298  1.00  0.00     0.029 A 
ATOM     52  N   UNL A   1      42.405  27.812  31.277  1.00  0.00    -0.354 N 
ATOM     53  N   UNL A   1      41.450  29.547  33.454  1.00  0.00    -0.248 NA
ATOM     54  C   UNL A   1      41.643  30.346  35.642  1.00  0.00     0.031 C 
ATOM     55  C   UNL A   1      44.240  26.609  31.617  1.00  0.00     0.029 A 
ATOM     56  C   UNL A   1      43.380  27.516  32.216  1.00  0.00     0.049 A 
ATOM     57  H   UNL A   1      41.649  28.423  31.423  1.00  0.00     0.167 HD
ATOM     58  C   UNL A   1      42.567  28.972  34.055  1.00  0.00     0.074 A 
ATOM     59  C   UNL A   1      42.651  29.523  35.391  1.00  0.00     0.031 C 
ATOM     60  C   UNL A   1      43.449  28.074  33.546  1.00  0.00     0.034 A 
BRANCH  47  61
ATOM     61  C   UNL A   1      42.165  26.284  27.747  1.00  0.00     0.023 A 
ATOM     62  C   UNL A   1      41.667  24.977  27.620  1.00  0.00     0.031 A 
ATOM     63  C   UNL A   1      43.034  26.758  26.748  1.00  0.00     0.131 A 
ATOM     64  C   UNL A   1      42.093  24.165  26.558  1.00  0.00     0.055 A 
ATOM     65  C   UNL A   1      43.393  25.972  25.651  1.00  0.00     0.041 A 
ATOM     66  F   UNL A   1      43.561  27.991  26.828  1.00  0.00    -0.206 F 
ATOM     67  C   UNL A   1      42.934  24.662  25.559  1.00  0.00     0.022 A 
BRANCH  64  68
ATOM     68  S   UNL A   1      41.644  22.407  26.574  1.00  0.00     0.124 S 
ATOM     69  O   UNL A   1      42.329  21.917  25.381  1.00  0.00    -0.237 OA
ATOM     70  O   UNL A   1      42.183  21.957  27.851  1.00  0.00    -0.237 OA
ATOM     71  O   UNL A   1      40.185  22.425  26.483  1.00  0.00    -0.744 OA
ENDBRANCH  64  68
ENDBRANCH  47  61
BRANCH  48  72
ATOM     72  C   UNL A   1      39.277  32.064  35.414  1.00  0.00     0.023 A 
ATOM     73  C   UNL A   1      39.689  33.394  35.589  1.00  0.00     0.031 A 
ATOM     74  C   UNL A   1      38.470  31.487  36.412  1.00  0.00     0.131 A 
ATOM     75  C   UNL A   1      39.333  34.089  36.756  1.00  0.00     0.055 A 
ATOM     76  C   UNL A   1      38.075  32.200  37.546  1.00  0.00     0.041 A 
ATOM     77  F   UNL A   1      38.049  30.218  36.296  1.00  0.00    -0.206 F 
ATOM     78  C   UNL A   1      38.518  33.506  37.729  1.00  0.00     0.022 A 
BRANCH  75  79
ATOM     79  S   UNL A   1      40.030  35.742  37.029  1.00  0.00     0.124 S 
ATOM     80  O   UNL A   1      39.350  36.153  38.252  1.00  0.00    -0.237 OA
ATOM     81  O   UNL A   1      41.455  35.451  37.151  1.00  0.00    -0.237 OA
ATOM     82  O   UNL A   1      39.647  36.475  35.824  1.00  0.00    -0.744 OA
ENDBRANCH  75  79
ENDBRANCH  48  72
BRANCH  60  83
ATOM     83  C   UNL A   1      44.618  27.680  34.418  1.00  0.00     0.023 A 
ATOM     84  C   UNL A   1      44.573  26.555  35.258  1.00  0.00     0.031 A 
ATOM     85  C   UNL A   1      45.799  28.443  34.394  1.00  0.00     0.131 A 
ATOM     86  C   UNL A   1      45.674  26.249  36.074  1.00  0.00     0.055 A 
ATOM     87  C   UNL A   1      46.911  28.102  35.164  1.00  0.00     0.041 A 
ATOM     88  F   UNL A   1      45.895  29.529  33.610  1.00  0.00    -0.206 F 
ATOM     89  C   UNL A   1      46.849  27.005  36.019  1.00  0.00     0.022 A 
BRANCH  86  90
ATOM     90  S   UNL A   1      45.528  24.889  37.265  1.00  0.00     0.124 S 
ATOM     91  O   UNL A   1      44.116  24.954  37.628  1.00  0.00    -0.237 OA
ATOM     92  O   UNL A   1      45.928  23.732  36.470  1.00  0.00    -0.237 OA
ATOM     93  O   UNL A   1      46.461  25.261  38.327  1.00  0.00    -0.744 OA
ENDBRANCH  86  90
ENDBRANCH  60  83
ENDBRANCH  34  35
ENDBRANCH  27  29
ENDBRANCH  26  27
ENDBRANCH  25  26
ENDBRANCH   1  25
TORSDOF 19
ENDMDL
MODEL 2
REMARK VINA RESULT:     -11.1      4.655      8.504
REMARK SMILES CC(C)N1C(=O)C[C@@H]([N@@H+]2CC[C@H](C(=O)OCCOCCOC(=O)c3ccc(-c4c5nc(c(-c6cc(S(=O)(=O)[O-])ccc6F)c6ccc([nH]6)c(-c6cc(S(=O)(=O)[O-])ccc6F)c6nc(c(-c7cc(S(=O)(=O)[O-])ccc7F)c7ccc4[nH]7)C=C6)C=C5)cc3)[C@@H]2C)C1=O
REMARK SMILES IDX 19 1 18 2 17 3 16 4 15 5 13 6 14 7 12 8 9 9 10 10 87 11
REMARK SMILES IDX 11 13 88 14 8 15 4 16 5 17 89 18 6 19 7 20 90 21 2 22 1 23
REMARK SMILES IDX 3 24 20 25 21 26 22 27 23 28 24 29 25 30 86 31 26 32 85 33
REMARK SMILES IDX 27 34 28 35 29 36 79 37 30 38 84 39 78 40 80 41 31 42 83 43
REMARK SMILES IDX 77 44 76 45 32 47 64 48 44 49 63 50 45 51 48 52 62 53 81 54
REMARK SMILES IDX 46 55 47 56 61 58 82 59 49 60 33 61 34 62 42 63 35 64 41 65
REMARK SMILES IDX 43 66 40 67 36 68 37 69 38 70 39 71 65 72 66 73 74 74 67 75
REMARK SMILES IDX 73 76 75 77 72 78 68 79 69 80 70 81 71 82 50 83 51 84 59 85
REMARK SMILES IDX 52 86 58 87 60 88 57 89 53 90 54 91 55 92 56 93
REMARK H PARENT 9 12 80 46 48 57
REMARK Flexibility Score: inf
ROOT
ATOM      1  C   UNL A   1      37.670  19.939  24.842  1.00  0.00     0.202 C 
ENDROOT
BRANCH   1   2
ATOM      2  O   UNL A   1      37.283  20.976  25.743  1.00  0.00    -0.374 OA
BRANCH   2   3
ATOM      3  C   UNL A   1      35.965  21.497  25.559  1.00  0.00     0.202 C 
BRANCH   3   4
ATOM      4  C   UNL A   1      35.005  20.533  24.868  1.00  0.00     0.261 C 
BRANCH   4   5
ATOM      5  O   UNL A   1      33.776  20.408  25.615  1.00  0.00    -0.463 OA
BRANCH   5   6
ATOM      6  C   UNL A   1      32.679  20.992  25.081  1.00  0.00     0.315 C 
ATOM      7  O   UNL A   1      31.527  20.613  25.272  1.00  0.00    -0.252 OA
BRANCH   6   8
ATOM      8  C   UNL A   1      32.973  22.235  24.260  1.00  0.00     0.162 C 
ATOM      9  N   UNL A   1      31.917  24.404  24.235  1.00  0.00    -0.321 N 
ATOM     10  C   UNL A   1      31.111  23.520  23.404  1.00  0.00     0.264 C 
ATOM     11  C   UNL A   1      32.985  23.634  24.897  1.00  0.00     0.196 C 
ATOM     12  H   UNL A   1      32.395  25.058  23.616  1.00  0.00     0.349 HD
ATOM     13  C   UNL A   1      32.019  22.349  23.073  1.00  0.00     0.083 C 
ATOM     14  C   UNL A   1      33.127  23.718  26.415  1.00  0.00     0.076 C 
BRANCH   9  15
ATOM     15  C   UNL A   1      31.205  25.433  25.008  1.00  0.00     0.284 C 
ATOM     16  N   UNL A   1      31.084  27.710  24.384  1.00  0.00    -0.275 N 
ATOM     17  C   UNL A   1      29.935  27.133  23.936  1.00  0.00     0.236 C 
ATOM     18  C   UNL A   1      31.925  26.782  24.943  1.00  0.00     0.288 C 
ATOM     19  O   UNL A   1      29.130  27.620  23.157  1.00  0.00    -0.274 OA
ATOM     20  C   UNL A   1      29.795  25.768  24.536  1.00  0.00     0.176 C 
ATOM     21  O   UNL A   1      33.085  26.985  25.282  1.00  0.00    -0.267 OA
BRANCH  16  22
ATOM     22  C   UNL A   1      31.509  29.082  24.095  1.00  0.00     0.087 C 
ATOM     23  C   UNL A   1      31.668  29.887  25.384  1.00  0.00     0.031 C 
ATOM     24  C   UNL A   1      32.784  29.164  23.250  1.00  0.00     0.031 C 
ENDBRANCH  16  22
ENDBRANCH   9  15
ENDBRANCH   6   8
ENDBRANCH   5   6
ENDBRANCH   4   5
ENDBRANCH   3   4
ENDBRANCH   2   3
ENDBRANCH   1   2
BRANCH   1  25
ATOM     25  C   UNL A   1      38.850  19.081  25.308  1.00  0.00     0.261 C 
BRANCH  25  26
ATOM     26  O   UNL A   1      39.422  19.592  26.524  1.00  0.00    -0.460 OA
BRANCH  26  27
ATOM     27  C   UNL A   1      40.730  19.933  26.454  1.00  0.00     0.338 C 
ATOM     28  O   UNL A   1      41.636  19.272  25.964  1.00  0.00    -0.246 OA
BRANCH  27  29
ATOM     29  C   UNL A   1      40.899  21.332  26.887  1.00  0.00     0.060 A 
ATOM     30  C   UNL A   1      40.289  22.337  26.127  1.00  0.00     0.016 A 
ATOM     31  C   UNL A   1      41.693  21.663  27.986  1.00  0.00     0.016 A 
ATOM     32  C   UNL A   1      40.504  23.679  26.443  1.00  0.00     0.010 A 
ATOM     33  C   UNL A   1      41.898  23.007  28.310  1.00  0.00     0.010 A 
ATOM     34  C   UNL A   1      41.335  24.023  27.517  1.00  0.00    -0.014 A 
BRANCH  34  35
ATOM     35  C   UNL A   1      41.761  25.432  27.717  1.00  0.00     0.031 A 
ATOM     36  C   UNL A   1      43.134  25.840  27.251  1.00  0.00     0.074 A 
ATOM     37  C   UNL A   1      40.949  26.328  28.305  1.00  0.00     0.049 A 
ATOM     38  N   UNL A   1      43.765  26.974  27.415  1.00  0.00    -0.248 NA
ATOM     39  C   UNL A   1      43.900  24.825  26.511  1.00  0.00     0.031 C 
ATOM     40  C   UNL A   1      39.583  26.063  28.755  1.00  0.00     0.029 A 
ATOM     41  N   UNL A   1      41.162  27.644  28.635  1.00  0.00    -0.354 N 
ATOM     42  C   UNL A   1      45.007  26.805  26.812  1.00  0.00     0.074 A 
ATOM     43  C   UNL A   1      45.051  25.446  26.313  1.00  0.00     0.031 C 
ATOM     44  C   UNL A   1      39.085  27.178  29.317  1.00  0.00     0.029 A 
ATOM     45  C   UNL A   1      40.110  28.221  29.308  1.00  0.00     0.049 A 
ATOM     46  H   UNL A   1      41.989  28.128  28.412  1.00  0.00     0.167 HD
ATOM     47  C   UNL A   1      46.015  27.702  26.681  1.00  0.00     0.034 A 
ATOM     48  C   UNL A   1      40.000  29.438  29.880  1.00  0.00     0.034 A 
ATOM     49  C   UNL A   1      45.954  29.052  27.183  1.00  0.00     0.049 A 
ATOM     50  C   UNL A   1      41.167  30.397  29.791  1.00  0.00     0.074 A 
ATOM     51  C   UNL A   1      46.908  30.051  27.088  1.00  0.00     0.029 A 
ATOM     52  N   UNL A   1      44.883  29.592  27.884  1.00  0.00    -0.354 N 
ATOM     53  N   UNL A   1      42.336  30.225  29.218  1.00  0.00    -0.248 NA
ATOM     54  C   UNL A   1      40.996  31.712  30.423  1.00  0.00     0.031 C 
ATOM     55  C   UNL A   1      46.443  31.169  27.790  1.00  0.00     0.029 A 
ATOM     56  C   UNL A   1      45.166  30.897  28.255  1.00  0.00     0.049 A 
ATOM     57  H   UNL A   1      44.046  29.117  28.087  1.00  0.00     0.167 HD
ATOM     58  C   UNL A   1      43.023  31.425  29.389  1.00  0.00     0.074 A 
ATOM     59  C   UNL A   1      42.136  32.312  30.113  1.00  0.00     0.031 C 
ATOM     60  C   UNL A   1      44.270  31.768  28.978  1.00  0.00     0.034 A 
BRANCH  47  61
ATOM     61  C   UNL A   1      47.283  27.229  26.011  1.00  0.00     0.023 A 
ATOM     62  C   UNL A   1      48.246  26.469  26.696  1.00  0.00     0.031 A 
ATOM     63  C   UNL A   1      47.543  27.569  24.671  1.00  0.00     0.131 A 
ATOM     64  C   UNL A   1      49.452  26.132  26.063  1.00  0.00     0.055 A 
ATOM     65  C   UNL A   1      48.710  27.163  24.022  1.00  0.00     0.041 A 
ATOM     66  F   UNL A   1      46.670  28.313  23.972  1.00  0.00    -0.206 F 
ATOM     67  C   UNL A   1      49.680  26.453  24.722  1.00  0.00     0.022 A 
BRANCH  64  68
ATOM     68  S   UNL A   1      50.776  25.390  27.056  1.00  0.00     0.124 S 
ATOM     69  O   UNL A   1      50.047  24.367  27.802  1.00  0.00    -0.237 OA
ATOM     70  O   UNL A   1      51.697  24.902  26.037  1.00  0.00    -0.237 OA
ATOM     71  O   UNL A   1      51.268  26.506  27.860  1.00  0.00    -0.744 OA
ENDBRANCH  64  68
ENDBRANCH  47  61
BRANCH  48  72
ATOM     72  C   UNL A   1      38.768  29.815  30.629  1.00  0.00     0.023 A 
ATOM     73  C   UNL A   1      37.767  30.599  30.034  1.00  0.00     0.031 A 
ATOM     74  C   UNL A   1      38.602  29.446  31.976  1.00  0.00     0.131 A 
ATOM     75  C   UNL A   1      36.669  31.029  30.797  1.00  0.00     0.055 A 
ATOM     76  C   UNL A   1      37.482  29.832  32.716  1.00  0.00     0.041 A 
ATOM     77  F   UNL A   1      39.529  28.698  32.595  1.00  0.00    -0.206 F 
ATOM     78  C   UNL A   1      36.513  30.640  32.129  1.00  0.00     0.022 A 
BRANCH  75  79
ATOM     79  S   UNL A   1      35.490  32.186  30.046  1.00  0.00     0.124 S 
ATOM     80  O   UNL A   1      36.336  33.344  29.785  1.00  0.00    -0.237 OA
ATOM     81  O   UNL A   1      35.040  31.440  28.876  1.00  0.00    -0.237 OA
ATOM     82  O   UNL A   1      34.483  32.370  31.090  1.00  0.00    -0.744 OA
ENDBRANCH  75  79
ENDBRANCH  48  72
BRANCH  60  83
ATOM     83  C   UNL A   1      44.725  33.182  29.249  1.00  0.00     0.023 A 
ATOM     84  C   UNL A   1      44.478  34.229  28.345  1.00  0.00     0.031 A 
ATOM     85  C   UNL A   1      45.411  33.482  30.440  1.00  0.00     0.131 A 
ATOM     86  C   UNL A   1      44.950  35.521  28.627  1.00  0.00     0.055 A 
ATOM     87  C   UNL A   1      45.829  34.778  30.741  1.00  0.00     0.041 A 
ATOM     88  F   UNL A   1      45.675  32.519  31.337  1.00  0.00    -0.206 F 
ATOM     89  C   UNL A   1      45.608  35.805  29.828  1.00  0.00     0.022 A 
BRANCH  86  90
ATOM     90  S   UNL A   1      44.758  36.815  27.371  1.00  0.00     0.124 S 
ATOM     91  O   UNL A   1      44.720  38.025  28.186  1.00  0.00    -0.237 OA
ATOM     92  O   UNL A   1      45.952  36.636  26.552  1.00  0.00    -0.237 OA
ATOM     93  O   UNL A   1      43.499  36.470  26.713  1.00  0.00    -0.744 OA
ENDBRANCH  86  90
ENDBRANCH  60  83
ENDBRANCH  34  35
ENDBRANCH  27  29
ENDBRANCH  26  27
ENDBRANCH  25  26
ENDBRANCH   1  25
TORSDOF 19
ENDMDL
MODEL 3
REMARK VINA RESULT:     -11.0      4.961      8.645
REMARK SMILES CC(C)N1C(=O)C[C@@H]([N@@H+]2CC[C@H](C(=O)OCCOCCOC(=O)c3ccc(-c4c5nc(c(-c6cc(S(=O)(=O)[O-])ccc6F)c6ccc([nH]6)c(-c6cc(S(=O)(=O)[O-])ccc6F)c6nc(c(-c7cc(S(=O)(=O)[O-])ccc7F)c7ccc4[nH]7)C=C6)C=C5)cc3)[C@@H]2C)C1=O
REMARK SMILES IDX 19 1 18 2 17 3 16 4 15 5 13 6 14 7 12 8 9 9 10 10 87 11
REMARK SMILES IDX 11 13 88 14 8 15 4 16 5 17 89 18 6 19 7 20 90 21 2 22 1 23
REMARK SMILES IDX 3 24 20 25 21 26 22 27 23 28 24 29 25 30 86 31 26 32 85 33
REMARK SMILES IDX 27 34 28 35 29 36 79 37 30 38 84 39 78 40 80 41 31 42 83 43
REMARK SMILES IDX 77 44 76 45 32 47 64 48 44 49 63 50 45 51 48 52 62 53 81 54
REMARK SMILES IDX 46 55 47 56 61 58 82 59 49 60 33 61 34 62 42 63 35 64 41 65
REMARK SMILES IDX 43 66 40 67 36 68 37 69 38 70 39 71 65 72 66 73 74 74 67 75
REMARK SMILES IDX 73 76 75 77 72 78 68 79 69 80 70 81 71 82 50 83 51 84 59 85
REMARK SMILES IDX 52 86 58 87 60 88 57 89 53 90 54 91 55 92 56 93
REMARK H PARENT 9 12 80 46 48 57
REMARK Flexibility Score: inf
ROOT
ATOM      1  C   UNL A   1      38.251  19.729  24.969  1.00  0.00     0.202 C 
ENDROOT
BRANCH   1   2
ATOM      2  O   UNL A   1      37.743  21.016  24.619  1.00  0.00    -0.374 OA
BRANCH   2   3
ATOM      3  C   UNL A   1      37.550  21.923  25.706  1.00  0.00     0.202 C 
BRANCH   3   4
ATOM      4  C   UNL A   1      36.149  22.527  25.771  1.00  0.00     0.261 C 
BRANCH   4   5
ATOM      5  O   UNL A   1      35.202  21.573  26.296  1.00  0.00    -0.463 OA
BRANCH   5   6
ATOM      6  C   UNL A   1      34.371  20.988  25.403  1.00  0.00     0.315 C 
ATOM      7  O   UNL A   1      34.630  19.961  24.782  1.00  0.00    -0.252 OA
BRANCH   6   8
ATOM      8  C   UNL A   1      33.022  21.670  25.270  1.00  0.00     0.162 C 
ATOM      9  N   UNL A   1      32.443  23.997  24.997  1.00  0.00    -0.321 N 
ATOM     10  C   UNL A   1      32.673  23.771  26.418  1.00  0.00     0.264 C 
ATOM     11  C   UNL A   1      32.783  22.782  24.235  1.00  0.00     0.196 C 
ATOM     12  H   UNL A   1      31.442  24.132  24.864  1.00  0.00     0.349 HD
ATOM     13  C   UNL A   1      32.573  22.268  26.602  1.00  0.00     0.083 C 
ATOM     14  C   UNL A   1      33.767  22.887  23.072  1.00  0.00     0.076 C 
BRANCH   9  15
ATOM     15  C   UNL A   1      32.837  25.305  24.452  1.00  0.00     0.284 C 
ATOM     16  N   UNL A   1      31.364  27.138  24.213  1.00  0.00    -0.275 N 
ATOM     17  C   UNL A   1      32.025  27.334  25.387  1.00  0.00     0.236 C 
ATOM     18  C   UNL A   1      31.706  25.939  23.641  1.00  0.00     0.288 C 
ATOM     19  O   UNL A   1      31.741  28.143  26.257  1.00  0.00    -0.274 OA
ATOM     20  C   UNL A   1      33.177  26.382  25.476  1.00  0.00     0.176 C 
ATOM     21  O   UNL A   1      31.156  25.430  22.672  1.00  0.00    -0.267 OA
BRANCH  16  22
ATOM     22  C   UNL A   1      30.245  27.949  23.728  1.00  0.00     0.087 C 
ATOM     23  C   UNL A   1      30.596  28.626  22.403  1.00  0.00     0.031 C 
ATOM     24  C   UNL A   1      28.932  27.171  23.601  1.00  0.00     0.031 C 
ENDBRANCH  16  22
ENDBRANCH   9  15
ENDBRANCH   6   8
ENDBRANCH   5   6
ENDBRANCH   4   5
ENDBRANCH   3   4
ENDBRANCH   2   3
ENDBRANCH   1   2
BRANCH   1  25
ATOM     25  C   UNL A   1      39.276  19.724  26.107  1.00  0.00     0.261 C 
BRANCH  25  26
ATOM     26  O   UNL A   1      40.589  19.382  25.630  1.00  0.00    -0.460 OA
BRANCH  26  27
ATOM     27  C   UNL A   1      41.605  19.647  26.484  1.00  0.00     0.338 C 
ATOM     28  O   UNL A   1      42.500  18.883  26.822  1.00  0.00    -0.246 OA
BRANCH  27  29
ATOM     29  C   UNL A   1      41.606  21.083  26.819  1.00  0.00     0.060 A 
ATOM     30  C   UNL A   1      41.214  21.993  25.830  1.00  0.00     0.016 A 
ATOM     31  C   UNL A   1      42.042  21.539  28.065  1.00  0.00     0.016 A 
ATOM     32  C   UNL A   1      41.292  23.365  26.072  1.00  0.00     0.010 A 
ATOM     33  C   UNL A   1      42.109  22.914  28.310  1.00  0.00     0.010 A 
ATOM     34  C   UNL A   1      41.770  23.834  27.303  1.00  0.00    -0.014 A 
BRANCH  34  35
ATOM     35  C   UNL A   1      42.084  25.274  27.487  1.00  0.00     0.031 A 
ATOM     36  C   UNL A   1      43.379  25.804  26.932  1.00  0.00     0.074 A 
ATOM     37  C   UNL A   1      41.239  26.092  28.140  1.00  0.00     0.049 A 
ATOM     38  N   UNL A   1      43.918  26.989  27.064  1.00  0.00    -0.248 NA
ATOM     39  C   UNL A   1      44.178  24.865  26.129  1.00  0.00     0.031 C 
ATOM     40  C   UNL A   1      39.937  25.704  28.682  1.00  0.00     0.029 A 
ATOM     41  N   UNL A   1      41.358  27.420  28.469  1.00  0.00    -0.354 N 
ATOM     42  C   UNL A   1      45.125  26.934  26.374  1.00  0.00     0.074 A 
ATOM     43  C   UNL A   1      45.254  25.587  25.858  1.00  0.00     0.031 C 
ATOM     44  C   UNL A   1      39.384  26.769  29.289  1.00  0.00     0.029 A 
ATOM     45  C   UNL A   1      40.309  27.898  29.221  1.00  0.00     0.049 A 
ATOM     46  H   UNL A   1      42.122  27.976  28.195  1.00  0.00     0.167 HD
ATOM     47  C   UNL A   1      46.038  27.917  26.183  1.00  0.00     0.034 A 
ATOM     48  C   UNL A   1      40.134  29.098  29.812  1.00  0.00     0.034 A 
ATOM     49  C   UNL A   1      45.894  29.254  26.703  1.00  0.00     0.049 A 
ATOM     50  C   UNL A   1      41.202  30.157  29.653  1.00  0.00     0.074 A 
ATOM     51  C   UNL A   1      46.747  30.334  26.553  1.00  0.00     0.029 A 
ATOM     52  N   UNL A   1      44.831  29.693  27.482  1.00  0.00    -0.354 N 
ATOM     53  N   UNL A   1      42.339  30.092  28.998  1.00  0.00    -0.248 NA
ATOM     54  C   UNL A   1      40.961  31.448  30.310  1.00  0.00     0.031 C 
ATOM     55  C   UNL A   1      46.236  31.403  27.298  1.00  0.00     0.029 A 
ATOM     56  C   UNL A   1      45.024  31.017  27.847  1.00  0.00     0.049 A 
ATOM     57  H   UNL A   1      44.055  29.145  27.738  1.00  0.00     0.167 HD
ATOM     58  C   UNL A   1      42.927  31.347  29.134  1.00  0.00     0.074 A 
ATOM     59  C   UNL A   1      42.018  32.148  29.928  1.00  0.00     0.031 C 
ATOM     60  C   UNL A   1      44.108  31.801  28.641  1.00  0.00     0.034 A 
BRANCH  47  61
ATOM     61  C   UNL A   1      47.292  27.562  25.422  1.00  0.00     0.023 A 
ATOM     62  C   UNL A   1      47.440  27.854  24.055  1.00  0.00     0.031 A 
ATOM     63  C   UNL A   1      48.348  26.896  26.070  1.00  0.00     0.131 A 
ATOM     64  C   UNL A   1      48.583  27.422  23.366  1.00  0.00     0.055 A 
ATOM     65  C   UNL A   1      49.517  26.538  25.397  1.00  0.00     0.041 A 
ATOM     66  F   UNL A   1      48.255  26.569  27.370  1.00  0.00    -0.206 F 
ATOM     67  C   UNL A   1      49.634  26.788  24.034  1.00  0.00     0.022 A 
BRANCH  64  68
ATOM     68  S   UNL A   1      48.618  27.578  21.559  1.00  0.00     0.124 S 
ATOM     69  O   UNL A   1      48.910  26.206  21.151  1.00  0.00    -0.237 OA
ATOM     70  O   UNL A   1      47.277  28.063  21.259  1.00  0.00    -0.237 OA
ATOM     71  O   UNL A   1      49.697  28.534  21.318  1.00  0.00    -0.744 OA
ENDBRANCH  64  68
ENDBRANCH  47  61
BRANCH  48  72
ATOM     72  C   UNL A   1      38.928  29.361  30.649  1.00  0.00     0.023 A 
ATOM     73  C   UNL A   1      37.955  30.290  30.250  1.00  0.00     0.031 A 
ATOM     74  C   UNL A   1      38.764  28.727  31.894  1.00  0.00     0.131 A 
ATOM     75  C   UNL A   1      36.886  30.596  31.109  1.00  0.00     0.055 A 
ATOM     76  C   UNL A   1      37.671  28.996  32.721  1.00  0.00     0.041 A 
ATOM     77  F   UNL A   1      39.665  27.830  32.325  1.00  0.00    -0.206 F 
ATOM     78  C   UNL A   1      36.731  29.946  32.335  1.00  0.00     0.022 A 
BRANCH  75  79
ATOM     79  S   UNL A   1      35.750  31.929  30.639  1.00  0.00     0.124 S 
ATOM     80  O   UNL A   1      36.676  32.992  30.266  1.00  0.00    -0.237 OA
ATOM     81  O   UNL A   1      35.001  31.316  29.547  1.00  0.00    -0.237 OA
ATOM     82  O   UNL A   1      34.983  32.168  31.860  1.00  0.00    -0.744 OA
ENDBRANCH  75  79
ENDBRANCH  48  72
BRANCH  60  83
ATOM     83  C   UNL A   1      44.454  33.249  28.895  1.00  0.00     0.023 A 
ATOM     84  C   UNL A   1      43.840  34.296  28.188  1.00  0.00     0.031 A 
ATOM     85  C   UNL A   1      45.412  33.580  29.872  1.00  0.00     0.131 A 
ATOM     86  C   UNL A   1      44.221  35.624  28.438  1.00  0.00     0.055 A 
ATOM     87  C   UNL A   1      45.745  34.904  30.155  1.00  0.00     0.041 A 
ATOM     88  F   UNL A   1      46.030  32.618  30.575  1.00  0.00    -0.206 F 
ATOM     89  C   UNL A   1      45.156  35.936  29.429  1.00  0.00     0.022 A 
BRANCH  86  90
ATOM     90  S   UNL A   1      43.530  36.941  27.399  1.00  0.00     0.124 S 
ATOM     91  O   UNL A   1      42.993  36.188  26.271  1.00  0.00    -0.237 OA
ATOM     92  O   UNL A   1      42.543  37.552  28.284  1.00  0.00    -0.237 OA
ATOM     93  O   UNL A   1      44.687  37.779  27.092  1.00  0.00    -0.744 OA
ENDBRANCH  86  90
ENDBRANCH  60  83
ENDBRANCH  34  35
ENDBRANCH  27  29
ENDBRANCH  26  27
ENDBRANCH  25  26
ENDBRANCH   1  25
TORSDOF 19
ENDMDL
