MODEL 1
REMARK VINA RESULT:     -12.4      0.000      0.000
REMARK SMILES Cc1cccc(OC2(C(=O)OCCOCCOC(=O)c3ccc(-c4c5nc(c(-c6cc(S(=O)(=O)[O-])ccc6F)c6ccc([nH]6)c(-c6cc(S(=O)(=O)[O-])ccc6F)c6nc(c(-c7cc(S(=O)(=O)[O-])ccc7F)c7ccc4[nH]7)C=C6)C=C5)cc3)CCN(C(=O)c3cnc[nH]c3=O)CC2)c1
REMARK SMILES IDX 15 1 14 2 13 3 12 4 11 5 9 6 10 7 8 8 83 9 96 10 84 11 95 12
REMARK SMILES IDX 85 13 86 14 87 15 7 16 6 17 1 18 2 19 3 20 97 21 4 22 5 23
REMARK SMILES IDX 88 24 89 25 93 26 90 27 92 28 94 29 91 30 16 32 17 33 18 34
REMARK SMILES IDX 19 35 20 36 21 37 82 38 22 39 81 40 23 41 24 42 25 43 75 44
REMARK SMILES IDX 26 45 80 46 74 47 76 48 27 49 79 50 73 51 72 52 28 54 60 55
REMARK SMILES IDX 40 56 59 57 41 58 44 59 58 60 77 61 42 62 43 63 57 65 78 66
REMARK SMILES IDX 45 67 29 68 30 69 38 70 31 71 37 72 39 73 36 74 32 75 33 76
REMARK SMILES IDX 34 77 35 78 61 79 62 80 70 81 63 82 69 83 71 84 68 85 64 86
REMARK SMILES IDX 65 87 66 88 67 89 46 90 47 91 55 92 48 93 54 94 56 95 53 96
REMARK SMILES IDX 49 97 50 98 51 99 52 100
REMARK H PARENT 92 31 76 53 44 64
REMARK Flexibility Score: inf
ROOT
ATOM      1  C   UNL A   1      34.536  32.065  27.703  1.00  0.00     0.202 C 
ENDROOT
BRANCH   1   2
ATOM      2  O   UNL A   1      35.216  31.070  28.424  1.00  0.00    -0.374 OA
BRANCH   2   3
ATOM      3  C   UNL A   1      35.518  29.900  27.684  1.00  0.00     0.202 C 
BRANCH   3   4
ATOM      4  C   UNL A   1      34.249  29.547  26.984  1.00  0.00     0.261 C 
BRANCH   4   5
ATOM      5  O   UNL A   1      34.391  28.508  25.914  1.00  0.00    -0.460 OA
BRANCH   5   6
ATOM      6  C   UNL A   1      33.776  28.060  24.794  1.00  0.00     0.350 C 
ATOM      7  O   UNL A   1      33.839  28.751  23.773  1.00  0.00    -0.247 OA
BRANCH   6   8
ATOM      8  C   UNL A   1      33.010  26.722  24.766  1.00  0.00     0.209 C 
ATOM      9  C   UNL A   1      32.929  26.209  23.338  1.00  0.00     0.082 C 
ATOM     10  C   UNL A   1      33.759  25.642  25.594  1.00  0.00     0.082 C 
ATOM     11  C   UNL A   1      32.433  24.825  23.082  1.00  0.00     0.124 C 
ATOM     12  C   UNL A   1      33.060  24.283  25.395  1.00  0.00     0.124 C 
ATOM     13  N   UNL A   1      33.094  23.926  23.984  1.00  0.00    -0.338 N 
ATOM     14  C   UNL A   1      33.909  22.939  23.467  1.00  0.00     0.261 C 
ATOM     15  O   UNL A   1      34.678  23.068  22.542  1.00  0.00    -0.269 OA
BRANCH   8  16
ATOM     16  O   UNL A   1      31.762  26.808  25.498  1.00  0.00    -0.475 OA
BRANCH  16  17
ATOM     17  C   UNL A   1      30.643  27.165  24.820  1.00  0.00     0.121 A 
ATOM     18  C   UNL A   1      29.587  30.014  22.595  1.00  0.00     0.044 C 
ATOM     19  C   UNL A   1      29.558  28.688  23.288  1.00  0.00    -0.047 A 
ATOM     20  C   UNL A   1      28.480  27.807  23.186  1.00  0.00     0.003 A 
ATOM     21  C   UNL A   1      30.656  28.325  24.063  1.00  0.00     0.050 A 
ATOM     22  C   UNL A   1      28.488  26.603  23.899  1.00  0.00     0.004 A 
ATOM     23  C   UNL A   1      29.568  26.285  24.727  1.00  0.00     0.046 A 
ENDBRANCH  16  17
ENDBRANCH   8  16
BRANCH  14  24
ATOM     24  C   UNL A   1      33.684  21.639  24.111  1.00  0.00     0.123 A 
ATOM     25  C   UNL A   1      32.468  21.084  24.074  1.00  0.00     0.132 A 
ATOM     26  C   UNL A   1      34.762  20.906  24.798  1.00  0.00     0.263 A 
ATOM     27  N   UNL A   1      32.163  19.840  24.579  1.00  0.00    -0.246 NA
ATOM     28  N   UNL A   1      34.408  19.669  25.247  1.00  0.00    -0.312 N 
ATOM     29  O   UNL A   1      35.898  21.333  24.982  1.00  0.00    -0.269 OA
ATOM     30  C   UNL A   1      33.136  19.195  25.126  1.00  0.00     0.199 A 
ATOM     31  H   UNL A   1      35.091  19.101  25.671  1.00  0.00     0.171 HD
ENDBRANCH  14  24
ENDBRANCH   6   8
ENDBRANCH   5   6
ENDBRANCH   4   5
ENDBRANCH   3   4
ENDBRANCH   2   3
ENDBRANCH   1   2
BRANCH   1  32
ATOM     32  C   UNL A   1      33.942  33.147  28.603  1.00  0.00     0.261 C 
BRANCH  32  33
ATOM     33  O   UNL A   1      34.069  32.767  29.989  1.00  0.00    -0.460 OA
BRANCH  33  34
ATOM     34  C   UNL A   1      34.559  33.740  30.812  1.00  0.00     0.338 C 
ATOM     35  O   UNL A   1      33.965  34.764  31.102  1.00  0.00    -0.246 OA
BRANCH  34  36
ATOM     36  C   UNL A   1      35.970  33.441  31.192  1.00  0.00     0.060 A 
ATOM     37  C   UNL A   1      37.033  33.857  30.368  1.00  0.00     0.016 A 
ATOM     38  C   UNL A   1      36.200  32.514  32.205  1.00  0.00     0.016 A 
ATOM     39  C   UNL A   1      38.291  33.244  30.478  1.00  0.00     0.010 A 
ATOM     40  C   UNL A   1      37.384  31.813  32.203  1.00  0.00     0.010 A 
ATOM     41  C   UNL A   1      38.438  32.166  31.347  1.00  0.00    -0.014 A 
BRANCH  41  42
ATOM     42  C   UNL A   1      39.616  31.304  31.461  1.00  0.00     0.031 A 
ATOM     43  C   UNL A   1      39.683  30.142  30.566  1.00  0.00     0.074 A 
ATOM     44  C   UNL A   1      40.719  31.709  32.131  1.00  0.00     0.049 A 
ATOM     45  N   UNL A   1      40.509  29.173  30.714  1.00  0.00    -0.248 NA
ATOM     46  C   UNL A   1      38.762  29.925  29.452  1.00  0.00     0.031 C 
ATOM     47  C   UNL A   1      42.126  31.347  31.958  1.00  0.00     0.029 A 
ATOM     48  N   UNL A   1      40.793  32.686  33.116  1.00  0.00    -0.354 N 
ATOM     49  C   UNL A   1      40.524  28.479  29.530  1.00  0.00     0.074 A 
ATOM     50  C   UNL A   1      39.288  28.836  28.892  1.00  0.00     0.031 C 
ATOM     51  C   UNL A   1      42.858  31.872  32.967  1.00  0.00     0.029 A 
ATOM     52  C   UNL A   1      41.929  32.497  33.902  1.00  0.00     0.049 A 
ATOM     53  H   UNL A   1      40.137  33.409  33.241  1.00  0.00     0.167 HD
ATOM     54  C   UNL A   1      41.680  27.851  29.172  1.00  0.00     0.034 A 
ATOM     55  C   UNL A   1      41.768  32.272  35.235  1.00  0.00     0.034 A 
ATOM     56  C   UNL A   1      42.677  27.954  30.268  1.00  0.00     0.049 A 
ATOM     57  C   UNL A   1      42.124  30.804  35.425  1.00  0.00     0.074 A 
ATOM     58  C   UNL A   1      43.899  28.595  30.401  1.00  0.00     0.029 A 
ATOM     59  N   UNL A   1      42.299  27.599  31.570  1.00  0.00    -0.354 N 
ATOM     60  N   UNL A   1      42.074  29.926  34.452  1.00  0.00    -0.248 NA
ATOM     61  C   UNL A   1      42.717  30.253  36.636  1.00  0.00     0.031 C 
ATOM     62  C   UNL A   1      44.198  28.690  31.799  1.00  0.00     0.029 A 
ATOM     63  C   UNL A   1      43.176  28.089  32.520  1.00  0.00     0.049 A 
ATOM     64  H   UNL A   1      41.502  27.063  31.783  1.00  0.00     0.167 HD
ATOM     65  C   UNL A   1      42.732  28.791  34.814  1.00  0.00     0.074 A 
ATOM     66  C   UNL A   1      43.064  29.022  36.215  1.00  0.00     0.031 C 
ATOM     67  C   UNL A   1      42.993  27.767  33.940  1.00  0.00     0.034 A 
BRANCH  54  68
ATOM     68  C   UNL A   1      42.010  27.359  27.764  1.00  0.00     0.023 A 
ATOM     69  C   UNL A   1      42.301  25.990  27.576  1.00  0.00     0.031 A 
ATOM     70  C   UNL A   1      42.103  28.136  26.584  1.00  0.00     0.131 A 
ATOM     71  C   UNL A   1      42.676  25.475  26.315  1.00  0.00     0.055 A 
ATOM     72  C   UNL A   1      42.467  27.625  25.331  1.00  0.00     0.041 A 
ATOM     73  F   UNL A   1      41.846  29.442  26.541  1.00  0.00    -0.206 F 
ATOM     74  C   UNL A   1      42.760  26.285  25.189  1.00  0.00     0.022 A 
BRANCH  71  75
ATOM     75  S   UNL A   1      43.049  23.710  26.151  1.00  0.00     0.124 S 
ATOM     76  O   UNL A   1      41.851  23.091  26.709  1.00  0.00    -0.237 OA
ATOM     77  O   UNL A   1      43.247  23.565  24.715  1.00  0.00    -0.237 OA
ATOM     78  O   UNL A   1      44.260  23.543  26.957  1.00  0.00    -0.744 OA
ENDBRANCH  71  75
ENDBRANCH  54  68
BRANCH  55  79
ATOM     79  C   UNL A   1      40.585  33.053  35.787  1.00  0.00     0.023 A 
ATOM     80  C   UNL A   1      39.501  32.366  36.430  1.00  0.00     0.031 A 
ATOM     81  C   UNL A   1      40.718  34.421  36.075  1.00  0.00     0.131 A 
ATOM     82  C   UNL A   1      38.697  33.018  37.401  1.00  0.00     0.055 A 
ATOM     83  C   UNL A   1      39.916  35.057  37.037  1.00  0.00     0.041 A 
ATOM     84  F   UNL A   1      41.709  35.139  35.528  1.00  0.00    -0.206 F 
ATOM     85  C   UNL A   1      38.931  34.354  37.727  1.00  0.00     0.022 A 
BRANCH  82  86
ATOM     86  S   UNL A   1      37.422  32.111  38.367  1.00  0.00     0.124 S 
ATOM     87  O   UNL A   1      37.947  32.166  39.723  1.00  0.00    -0.237 OA
ATOM     88  O   UNL A   1      36.203  32.870  38.107  1.00  0.00    -0.237 OA
ATOM     89  O   UNL A   1      37.414  30.779  37.761  1.00  0.00    -0.744 OA
ENDBRANCH  82  86
ENDBRANCH  55  79
BRANCH  67  90
ATOM     90  C   UNL A   1      43.160  26.336  34.384  1.00  0.00     0.023 A 
ATOM     91  C   UNL A   1      44.409  25.709  34.413  1.00  0.00     0.031 A 
ATOM     92  C   UNL A   1      42.089  25.588  34.931  1.00  0.00     0.131 A 
ATOM     93  C   UNL A   1      44.551  24.387  34.846  1.00  0.00     0.055 A 
ATOM     94  C   UNL A   1      42.254  24.313  35.475  1.00  0.00     0.041 A 
ATOM     95  F   UNL A   1      40.837  26.062  34.988  1.00  0.00    -0.206 F 
ATOM     96  C   UNL A   1      43.489  23.691  35.413  1.00  0.00     0.022 A 
BRANCH  93  97
ATOM     97  S   UNL A   1      46.141  23.586  34.544  1.00  0.00     0.124 S 
ATOM     98  O   UNL A   1      46.716  23.552  35.887  1.00  0.00    -0.237 OA
ATOM     99  O   UNL A   1      45.744  22.293  33.996  1.00  0.00    -0.237 OA
ATOM    100  O   UNL A   1      46.805  24.486  33.606  1.00  0.00    -0.744 OA
ENDBRANCH  93  97
ENDBRANCH  67  90
ENDBRANCH  41  42
ENDBRANCH  34  36
ENDBRANCH  33  34
ENDBRANCH  32  33
ENDBRANCH   1  32
TORSDOF 20
ENDMDL
MODEL 2
REMARK VINA RESULT:     -12.0      4.124      9.917
REMARK SMILES Cc1cccc(OC2(C(=O)OCCOCCOC(=O)c3ccc(-c4c5nc(c(-c6cc(S(=O)(=O)[O-])ccc6F)c6ccc([nH]6)c(-c6cc(S(=O)(=O)[O-])ccc6F)c6nc(c(-c7cc(S(=O)(=O)[O-])ccc7F)c7ccc4[nH]7)C=C6)C=C5)cc3)CCN(C(=O)c3cnc[nH]c3=O)CC2)c1
REMARK SMILES IDX 15 1 14 2 13 3 12 4 11 5 9 6 10 7 8 8 83 9 96 10 84 11 95 12
REMARK SMILES IDX 85 13 86 14 87 15 7 16 6 17 1 18 2 19 3 20 97 21 4 22 5 23
REMARK SMILES IDX 88 24 89 25 93 26 90 27 92 28 94 29 91 30 16 32 17 33 18 34
REMARK SMILES IDX 19 35 20 36 21 37 82 38 22 39 81 40 23 41 24 42 25 43 75 44
REMARK SMILES IDX 26 45 80 46 74 47 76 48 27 49 79 50 73 51 72 52 28 54 60 55
REMARK SMILES IDX 40 56 59 57 41 58 44 59 58 60 77 61 42 62 43 63 57 65 78 66
REMARK SMILES IDX 45 67 29 68 30 69 38 70 31 71 37 72 39 73 36 74 32 75 33 76
REMARK SMILES IDX 34 77 35 78 61 79 62 80 70 81 63 82 69 83 71 84 68 85 64 86
REMARK SMILES IDX 65 87 66 88 67 89 46 90 47 91 55 92 48 93 54 94 56 95 53 96
REMARK SMILES IDX 49 97 50 98 51 99 52 100
REMARK H PARENT 92 31 76 53 44 64
REMARK Flexibility Score: inf
ROOT
ATOM      1  C   UNL A   1      39.542  20.760  26.088  1.00  0.00     0.202 C 
ENDROOT
BRANCH   1   2
ATOM      2  O   UNL A   1      38.689  21.603  25.357  1.00  0.00    -0.374 OA
BRANCH   2   3
ATOM      3  C   UNL A   1      37.530  20.974  24.840  1.00  0.00     0.202 C 
BRANCH   3   4
ATOM      4  C   UNL A   1      36.787  22.056  24.130  1.00  0.00     0.261 C 
BRANCH   4   5
ATOM      5  O   UNL A   1      35.328  22.135  24.459  1.00  0.00    -0.460 OA
BRANCH   5   6
ATOM      6  C   UNL A   1      34.495  22.507  25.459  1.00  0.00     0.350 C 
ATOM      7  O   UNL A   1      34.754  22.137  26.608  1.00  0.00    -0.247 OA
BRANCH   6   8
ATOM      8  C   UNL A   1      33.247  23.374  25.198  1.00  0.00     0.209 C 
ATOM      9  C   UNL A   1      33.086  24.388  26.318  1.00  0.00     0.082 C 
ATOM     10  C   UNL A   1      33.401  24.178  23.878  1.00  0.00     0.082 C 
ATOM     11  C   UNL A   1      32.082  25.484  26.177  1.00  0.00     0.124 C 
ATOM     12  C   UNL A   1      32.219  25.158  23.746  1.00  0.00     0.124 C 
ATOM     13  N   UNL A   1      32.226  26.074  24.877  1.00  0.00    -0.338 N 
ATOM     14  C   UNL A   1      32.598  27.400  24.783  1.00  0.00     0.261 C 
ATOM     15  O   UNL A   1      33.429  27.954  25.466  1.00  0.00    -0.269 OA
BRANCH   8  16
ATOM     16  O   UNL A   1      32.089  22.560  24.887  1.00  0.00    -0.475 OA
BRANCH  16  17
ATOM     17  C   UNL A   1      32.293  21.337  24.336  1.00  0.00     0.121 A 
ATOM     18  C   UNL A   1      32.763  17.817  25.589  1.00  0.00     0.044 C 
ATOM     19  C   UNL A   1      32.526  18.951  24.641  1.00  0.00    -0.047 A 
ATOM     20  C   UNL A   1      32.429  18.771  23.260  1.00  0.00     0.003 A 
ATOM     21  C   UNL A   1      32.398  20.233  25.166  1.00  0.00     0.050 A 
ATOM     22  C   UNL A   1      32.260  19.876  22.419  1.00  0.00     0.004 A 
ATOM     23  C   UNL A   1      32.202  21.165  22.957  1.00  0.00     0.046 A 
ENDBRANCH  16  17
ENDBRANCH   8  16
BRANCH  14  24
ATOM     24  C   UNL A   1      31.796  28.132  23.795  1.00  0.00     0.123 A 
ATOM     25  C   UNL A   1      30.461  28.115  23.882  1.00  0.00     0.132 A 
ATOM     26  C   UNL A   1      32.410  28.905  22.701  1.00  0.00     0.263 A 
ATOM     27  N   UNL A   1      29.617  28.823  23.057  1.00  0.00    -0.246 NA
ATOM     28  N   UNL A   1      31.527  29.609  21.939  1.00  0.00    -0.312 N 
ATOM     29  O   UNL A   1      33.612  28.937  22.450  1.00  0.00    -0.269 OA
ATOM     30  C   UNL A   1      30.181  29.535  22.142  1.00  0.00     0.199 A 
ATOM     31  H   UNL A   1      31.870  30.188  21.221  1.00  0.00     0.171 HD
ENDBRANCH  14  24
ENDBRANCH   6   8
ENDBRANCH   5   6
ENDBRANCH   4   5
ENDBRANCH   3   4
ENDBRANCH   2   3
ENDBRANCH   1   2
BRANCH   1  32
ATOM     32  C   UNL A   1      40.366  21.510  27.132  1.00  0.00     0.261 C 
BRANCH  32  33
ATOM     33  O   UNL A   1      39.944  22.888  27.203  1.00  0.00    -0.460 OA
BRANCH  33  34
ATOM     34  C   UNL A   1      40.830  23.791  26.689  1.00  0.00     0.338 C 
ATOM     35  O   UNL A   1      41.845  23.495  26.084  1.00  0.00    -0.246 OA
BRANCH  34  36
ATOM     36  C   UNL A   1      40.454  25.178  27.091  1.00  0.00     0.060 A 
ATOM     37  C   UNL A   1      40.894  26.282  26.335  1.00  0.00     0.016 A 
ATOM     38  C   UNL A   1      39.915  25.376  28.358  1.00  0.00     0.016 A 
ATOM     39  C   UNL A   1      40.912  27.563  26.907  1.00  0.00     0.010 A 
ATOM     40  C   UNL A   1      40.079  26.601  28.963  1.00  0.00     0.010 A 
ATOM     41  C   UNL A   1      40.576  27.703  28.251  1.00  0.00    -0.014 A 
BRANCH  41  42
ATOM     42  C   UNL A   1      40.706  28.922  29.050  1.00  0.00     0.031 A 
ATOM     43  C   UNL A   1      39.610  29.896  28.967  1.00  0.00     0.074 A 
ATOM     44  C   UNL A   1      41.626  29.020  30.037  1.00  0.00     0.049 A 
ATOM     45  N   UNL A   1      39.689  31.099  29.402  1.00  0.00    -0.248 NA
ATOM     46  C   UNL A   1      38.334  29.623  28.308  1.00  0.00     0.031 C 
ATOM     47  C   UNL A   1      41.625  29.812  31.267  1.00  0.00     0.029 A 
ATOM     48  N   UNL A   1      42.793  28.279  30.174  1.00  0.00    -0.354 N 
ATOM     49  C   UNL A   1      38.405  31.580  29.479  1.00  0.00     0.074 A 
ATOM     50  C   UNL A   1      37.655  30.734  28.594  1.00  0.00     0.031 C 
ATOM     51  C   UNL A   1      42.833  29.719  31.869  1.00  0.00     0.029 A 
ATOM     52  C   UNL A   1      43.705  28.955  30.983  1.00  0.00     0.049 A 
ATOM     53  H   UNL A   1      42.954  27.401  29.759  1.00  0.00     0.167 HD
ATOM     54  C   UNL A   1      38.127  32.507  30.439  1.00  0.00     0.034 A 
ATOM     55  C   UNL A   1      44.912  29.300  30.457  1.00  0.00     0.034 A 
ATOM     56  C   UNL A   1      39.374  32.909  31.137  1.00  0.00     0.049 A 
ATOM     57  C   UNL A   1      44.845  30.813  30.296  1.00  0.00     0.074 A 
ATOM     58  C   UNL A   1      39.849  32.750  32.430  1.00  0.00     0.029 A 
ATOM     59  N   UNL A   1      40.486  33.296  30.378  1.00  0.00    -0.354 N 
ATOM     60  N   UNL A   1      43.714  31.472  30.208  1.00  0.00    -0.248 NA
ATOM     61  C   UNL A   1      45.995  31.701  30.395  1.00  0.00     0.031 C 
ATOM     62  C   UNL A   1      41.265  32.965  32.411  1.00  0.00     0.029 A 
ATOM     63  C   UNL A   1      41.655  33.277  31.116  1.00  0.00     0.049 A 
ATOM     64  H   UNL A   1      40.441  33.552  29.429  1.00  0.00     0.167 HD
ATOM     65  C   UNL A   1      43.935  32.803  30.387  1.00  0.00     0.074 A 
ATOM     66  C   UNL A   1      45.389  32.903  30.439  1.00  0.00     0.031 C 
ATOM     67  C   UNL A   1      42.922  33.717  30.520  1.00  0.00     0.034 A 
BRANCH  54  68
ATOM     68  C   UNL A   1      36.725  32.874  30.921  1.00  0.00     0.023 A 
ATOM     69  C   UNL A   1      35.913  33.679  30.093  1.00  0.00     0.031 A 
ATOM     70  C   UNL A   1      36.126  32.530  32.158  1.00  0.00     0.131 A 
ATOM     71  C   UNL A   1      34.630  34.110  30.499  1.00  0.00     0.055 A 
ATOM     72  C   UNL A   1      34.851  32.952  32.559  1.00  0.00     0.041 A 
ATOM     73  F   UNL A   1      36.714  31.760  33.071  1.00  0.00    -0.206 F 
ATOM     74  C   UNL A   1      34.093  33.750  31.730  1.00  0.00     0.022 A 
BRANCH  71  75
ATOM     75  S   UNL A   1      33.650  35.153  29.389  1.00  0.00     0.124 S 
ATOM     76  O   UNL A   1      34.637  35.550  28.391  1.00  0.00    -0.237 OA
ATOM     77  O   UNL A   1      32.607  34.239  28.943  1.00  0.00    -0.237 OA
ATOM     78  O   UNL A   1      33.187  36.235  30.260  1.00  0.00    -0.744 OA
ENDBRANCH  71  75
ENDBRANCH  54  68
BRANCH  55  79
ATOM     79  C   UNL A   1      45.405  28.250  29.473  1.00  0.00     0.023 A 
ATOM     80  C   UNL A   1      45.065  28.346  28.082  1.00  0.00     0.031 A 
ATOM     81  C   UNL A   1      46.516  27.454  29.792  1.00  0.00     0.131 A 
ATOM     82  C   UNL A   1      45.895  27.768  27.086  1.00  0.00     0.055 A 
ATOM     83  C   UNL A   1      47.330  26.885  28.799  1.00  0.00     0.041 A 
ATOM     84  F   UNL A   1      46.913  27.317  31.066  1.00  0.00    -0.206 F 
ATOM     85  C   UNL A   1      47.045  27.068  27.448  1.00  0.00     0.022 A 
BRANCH  82  86
ATOM     86  S   UNL A   1      45.578  28.029  25.293  1.00  0.00     0.124 S 
ATOM     87  O   UNL A   1      46.350  29.229  25.004  1.00  0.00    -0.237 OA
ATOM     88  O   UNL A   1      46.049  26.787  24.686  1.00  0.00    -0.237 OA
ATOM     89  O   UNL A   1      44.127  28.194  25.221  1.00  0.00    -0.744 OA
ENDBRANCH  82  86
ENDBRANCH  55  79
BRANCH  67  90
ATOM     90  C   UNL A   1      43.074  35.167  30.136  1.00  0.00     0.023 A 
ATOM     91  C   UNL A   1      43.599  36.117  31.017  1.00  0.00     0.031 A 
ATOM     92  C   UNL A   1      42.829  35.626  28.819  1.00  0.00     0.131 A 
ATOM     93  C   UNL A   1      43.754  37.455  30.640  1.00  0.00     0.055 A 
ATOM     94  C   UNL A   1      43.098  36.934  28.409  1.00  0.00     0.041 A 
ATOM     95  F   UNL A   1      42.342  34.829  27.858  1.00  0.00    -0.206 F 
ATOM     96  C   UNL A   1      43.541  37.868  29.329  1.00  0.00     0.022 A 
BRANCH  93  97
ATOM     97  S   UNL A   1      44.138  38.642  31.945  1.00  0.00     0.124 S 
ATOM     98  O   UNL A   1      43.650  37.944  33.132  1.00  0.00    -0.237 OA
ATOM     99  O   UNL A   1      45.588  38.768  31.841  1.00  0.00    -0.237 OA
ATOM    100  O   UNL A   1      43.377  39.828  31.564  1.00  0.00    -0.744 OA
ENDBRANCH  93  97
ENDBRANCH  67  90
ENDBRANCH  41  42
ENDBRANCH  34  36
ENDBRANCH  33  34
ENDBRANCH  32  33
ENDBRANCH   1  32
TORSDOF 20
ENDMDL
MODEL 3
REMARK VINA RESULT:     -12.0      4.245     10.452
REMARK SMILES Cc1cccc(OC2(C(=O)OCCOCCOC(=O)c3ccc(-c4c5nc(c(-c6cc(S(=O)(=O)[O-])ccc6F)c6ccc([nH]6)c(-c6cc(S(=O)(=O)[O-])ccc6F)c6nc(c(-c7cc(S(=O)(=O)[O-])ccc7F)c7ccc4[nH]7)C=C6)C=C5)cc3)CCN(C(=O)c3cnc[nH]c3=O)CC2)c1
REMARK SMILES IDX 15 1 14 2 13 3 12 4 11 5 9 6 10 7 8 8 83 9 96 10 84 11 95 12
REMARK SMILES IDX 85 13 86 14 87 15 7 16 6 17 1 18 2 19 3 20 97 21 4 22 5 23
REMARK SMILES IDX 88 24 89 25 93 26 90 27 92 28 94 29 91 30 16 32 17 33 18 34
REMARK SMILES IDX 19 35 20 36 21 37 82 38 22 39 81 40 23 41 24 42 25 43 75 44
REMARK SMILES IDX 26 45 80 46 74 47 76 48 27 49 79 50 73 51 72 52 28 54 60 55
REMARK SMILES IDX 40 56 59 57 41 58 44 59 58 60 77 61 42 62 43 63 57 65 78 66
REMARK SMILES IDX 45 67 29 68 30 69 38 70 31 71 37 72 39 73 36 74 32 75 33 76
REMARK SMILES IDX 34 77 35 78 61 79 62 80 70 81 63 82 69 83 71 84 68 85 64 86
REMARK SMILES IDX 65 87 66 88 67 89 46 90 47 91 55 92 48 93 54 94 56 95 53 96
REMARK SMILES IDX 49 97 50 98 51 99 52 100
REMARK H PARENT 92 31 76 53 44 64
REMARK Flexibility Score: inf
ROOT
ATOM      1  C   UNL A   1      40.049  19.816  25.942  1.00  0.00     0.202 C 
ENDROOT
BRANCH   1   2
ATOM      2  O   UNL A   1      39.512  21.061  26.309  1.00  0.00    -0.374 OA
BRANCH   2   3
ATOM      3  C   UNL A   1      38.496  21.547  25.450  1.00  0.00     0.202 C 
BRANCH   3   4
ATOM      4  C   UNL A   1      37.975  22.772  26.123  1.00  0.00     0.261 C 
BRANCH   4   5
ATOM      5  O   UNL A   1      36.618  23.211  25.663  1.00  0.00    -0.460 OA
BRANCH   5   6
ATOM      6  C   UNL A   1      35.339  23.302  26.098  1.00  0.00     0.350 C 
ATOM      7  O   UNL A   1      35.080  22.924  27.245  1.00  0.00    -0.247 OA
BRANCH   6   8
ATOM      8  C   UNL A   1      34.215  23.864  25.206  1.00  0.00     0.209 C 
ATOM      9  C   UNL A   1      32.875  23.689  25.900  1.00  0.00     0.082 C 
ATOM     10  C   UNL A   1      34.407  25.388  24.972  1.00  0.00     0.082 C 
ATOM     11  C   UNL A   1      31.663  24.354  25.337  1.00  0.00     0.124 C 
ATOM     12  C   UNL A   1      33.175  25.941  24.229  1.00  0.00     0.124 C 
ATOM     13  N   UNL A   1      31.985  25.719  25.038  1.00  0.00    -0.338 N 
ATOM     14  C   UNL A   1      31.323  26.726  25.711  1.00  0.00     0.261 C 
ATOM     15  O   UNL A   1      31.042  26.726  26.888  1.00  0.00    -0.269 OA
BRANCH   8  16
ATOM     16  O   UNL A   1      34.314  23.366  23.848  1.00  0.00    -0.475 OA
BRANCH  16  17
ATOM     17  C   UNL A   1      33.663  22.218  23.536  1.00  0.00     0.121 A 
ATOM     18  C   UNL A   1      33.547  18.695  24.861  1.00  0.00     0.044 C 
ATOM     19  C   UNL A   1      33.175  19.913  24.075  1.00  0.00    -0.047 A 
ATOM     20  C   UNL A   1      32.153  19.913  23.124  1.00  0.00     0.003 A 
ATOM     21  C   UNL A   1      33.881  21.089  24.309  1.00  0.00     0.050 A 
ATOM     22  C   UNL A   1      31.886  21.069  22.383  1.00  0.00     0.004 A 
ATOM     23  C   UNL A   1      32.649  22.223  22.581  1.00  0.00     0.046 A 
ENDBRANCH  16  17
ENDBRANCH   8  16
BRANCH  14  24
ATOM     24  C   UNL A   1      30.891  27.803  24.813  1.00  0.00     0.123 A 
ATOM     25  C   UNL A   1      29.975  27.552  23.871  1.00  0.00     0.132 A 
ATOM     26  C   UNL A   1      31.425  29.173  24.915  1.00  0.00     0.263 A 
ATOM     27  N   UNL A   1      29.446  28.501  23.025  1.00  0.00    -0.246 NA
ATOM     28  N   UNL A   1      30.839  30.073  24.075  1.00  0.00    -0.312 N 
ATOM     29  O   UNL A   1      32.327  29.522  25.671  1.00  0.00    -0.269 OA
ATOM     30  C   UNL A   1      29.889  29.703  23.171  1.00  0.00     0.199 A 
ATOM     31  H   UNL A   1      31.110  31.018  24.123  1.00  0.00     0.171 HD
ENDBRANCH  14  24
ENDBRANCH   6   8
ENDBRANCH   5   6
ENDBRANCH   4   5
ENDBRANCH   3   4
ENDBRANCH   2   3
ENDBRANCH   1   2
BRANCH   1  32
ATOM     32  C   UNL A   1      41.561  19.739  26.146  1.00  0.00     0.261 C 
BRANCH  32  33
ATOM     33  O   UNL A   1      42.047  20.964  26.734  1.00  0.00    -0.460 OA
BRANCH  33  34
ATOM     34  C   UNL A   1      42.651  21.823  25.862  1.00  0.00     0.338 C 
ATOM     35  O   UNL A   1      43.468  21.493  25.020  1.00  0.00    -0.246 OA
BRANCH  34  36
ATOM     36  C   UNL A   1      42.279  23.234  26.176  1.00  0.00     0.060 A 
ATOM     37  C   UNL A   1      42.746  24.290  25.370  1.00  0.00     0.016 A 
ATOM     38  C   UNL A   1      41.713  23.507  27.418  1.00  0.00     0.016 A 
ATOM     39  C   UNL A   1      42.762  25.601  25.869  1.00  0.00     0.010 A 
ATOM     40  C   UNL A   1      41.875  24.763  27.956  1.00  0.00     0.010 A 
ATOM     41  C   UNL A   1      42.397  25.819  27.195  1.00  0.00    -0.014 A 
BRANCH  41  42
ATOM     42  C   UNL A   1      42.519  27.081  27.927  1.00  0.00     0.031 A 
ATOM     43  C   UNL A   1      41.312  27.909  28.039  1.00  0.00     0.074 A 
ATOM     44  C   UNL A   1      43.591  27.335  28.713  1.00  0.00     0.049 A 
ATOM     45  N   UNL A   1      41.318  29.132  28.424  1.00  0.00    -0.248 NA
ATOM     46  C   UNL A   1      39.979  27.452  27.648  1.00  0.00     0.031 C 
ATOM     47  C   UNL A   1      43.723  28.177  29.902  1.00  0.00     0.029 A 
ATOM     48  N   UNL A   1      44.848  26.749  28.635  1.00  0.00    -0.354 N 
ATOM     49  C   UNL A   1      40.021  29.455  28.740  1.00  0.00     0.074 A 
ATOM     50  C   UNL A   1      39.230  28.484  28.037  1.00  0.00     0.031 C 
ATOM     51  C   UNL A   1      45.025  28.260  30.258  1.00  0.00     0.029 A 
ATOM     52  C   UNL A   1      45.803  27.568  29.236  1.00  0.00     0.049 A 
ATOM     53  H   UNL A   1      45.038  25.879  28.216  1.00  0.00     0.167 HD
ATOM     54  C   UNL A   1      39.815  30.384  29.715  1.00  0.00     0.034 A 
ATOM     55  C   UNL A   1      46.833  28.033  28.477  1.00  0.00     0.034 A 
ATOM     56  C   UNL A   1      41.110  30.967  30.148  1.00  0.00     0.049 A 
ATOM     57  C   UNL A   1      46.542  29.517  28.300  1.00  0.00     0.074 A 
ATOM     58  C   UNL A   1      41.839  30.927  31.326  1.00  0.00     0.029 A 
ATOM     59  N   UNL A   1      41.998  31.451  29.178  1.00  0.00    -0.354 N 
ATOM     60  N   UNL A   1      45.340  30.028  28.420  1.00  0.00    -0.248 NA
ATOM     61  C   UNL A   1      47.566  30.542  28.153  1.00  0.00     0.031 C 
ATOM     62  C   UNL A   1      43.187  31.312  31.026  1.00  0.00     0.029 A 
ATOM     63  C   UNL A   1      43.279  31.610  29.674  1.00  0.00     0.049 A 
ATOM     64  H   UNL A   1      41.739  31.656  28.250  1.00  0.00     0.167 HD
ATOM     65  C   UNL A   1      45.418  31.383  28.524  1.00  0.00     0.074 A 
ATOM     66  C   UNL A   1      46.831  31.662  28.288  1.00  0.00     0.031 C 
ATOM     67  C   UNL A   1      44.341  32.173  28.832  1.00  0.00     0.034 A 
BRANCH  54  68
ATOM     68  C   UNL A   1      38.495  30.600  30.454  1.00  0.00     0.023 A 
ATOM     69  C   UNL A   1      37.635  31.630  30.017  1.00  0.00     0.031 A 
ATOM     70  C   UNL A   1      38.024  29.897  31.590  1.00  0.00     0.131 A 
ATOM     71  C   UNL A   1      36.428  31.929  30.689  1.00  0.00     0.055 A 
ATOM     72  C   UNL A   1      36.823  30.188  32.253  1.00  0.00     0.041 A 
ATOM     73  F   UNL A   1      38.673  28.877  32.146  1.00  0.00    -0.206 F 
ATOM     74  C   UNL A   1      36.017  31.212  31.806  1.00  0.00     0.022 A 
BRANCH  71  75
ATOM     75  S   UNL A   1      35.381  33.275  30.078  1.00  0.00     0.124 S 
ATOM     76  O   UNL A   1      35.674  34.345  31.025  1.00  0.00    -0.237 OA
ATOM     77  O   UNL A   1      35.871  33.459  28.718  1.00  0.00    -0.237 OA
ATOM     78  O   UNL A   1      34.029  32.722  30.173  1.00  0.00    -0.744 OA
ENDBRANCH  71  75
ENDBRANCH  54  68
BRANCH  55  79
ATOM     79  C   UNL A   1      47.259  27.006  27.439  1.00  0.00     0.023 A 
ATOM     80  C   UNL A   1      47.266  27.347  26.044  1.00  0.00     0.031 A 
ATOM     81  C   UNL A   1      48.047  25.908  27.818  1.00  0.00     0.131 A 
ATOM     82  C   UNL A   1      48.127  26.681  25.134  1.00  0.00     0.055 A 
ATOM     83  C   UNL A   1      48.896  25.255  26.909  1.00  0.00     0.041 A 
ATOM     84  F   UNL A   1      48.111  25.526  29.101  1.00  0.00    -0.206 F 
ATOM     85  C   UNL A   1      48.966  25.660  25.578  1.00  0.00     0.022 A 
BRANCH  82  86
ATOM     86  S   UNL A   1      48.284  27.219  23.382  1.00  0.00     0.124 S 
ATOM     87  O   UNL A   1      48.278  25.956  22.658  1.00  0.00    -0.237 OA
ATOM     88  O   UNL A   1      47.125  28.086  23.194  1.00  0.00    -0.237 OA
ATOM     89  O   UNL A   1      49.557  27.940  23.357  1.00  0.00    -0.744 OA
ENDBRANCH  82  86
ENDBRANCH  55  79
BRANCH  67  90
ATOM     90  C   UNL A   1      44.229  33.611  28.395  1.00  0.00     0.023 A 
ATOM     91  C   UNL A   1      44.462  34.674  29.273  1.00  0.00     0.031 A 
ATOM     92  C   UNL A   1      44.024  33.972  27.041  1.00  0.00     0.131 A 
ATOM     93  C   UNL A   1      44.375  36.004  28.848  1.00  0.00     0.055 A 
ATOM     94  C   UNL A   1      44.057  35.294  26.595  1.00  0.00     0.041 A 
ATOM     95  F   UNL A   1      43.805  33.064  26.080  1.00  0.00    -0.206 F 
ATOM     96  C   UNL A   1      44.209  36.326  27.506  1.00  0.00     0.022 A 
BRANCH  93  97
ATOM     97  S   UNL A   1      44.380  37.280  30.124  1.00  0.00     0.124 S 
ATOM     98  O   UNL A   1      45.811  37.538  30.278  1.00  0.00    -0.237 OA
ATOM     99  O   UNL A   1      43.611  38.353  29.503  1.00  0.00    -0.237 OA
ATOM    100  O   UNL A   1      43.740  36.629  31.263  1.00  0.00    -0.744 OA
ENDBRANCH  93  97
ENDBRANCH  67  90
ENDBRANCH  41  42
ENDBRANCH  34  36
ENDBRANCH  33  34
ENDBRANCH  32  33
ENDBRANCH   1  32
TORSDOF 20
ENDMDL
