MODEL 1
REMARK VINA RESULT:     -12.2      0.000      0.000
REMARK SMILES COc1cccc(-c2nn(-c3cc4c(cc3C(N)=O)OCO4)cc2C(=O)OCCOCCOC(=O)c2ccc(-c3c4nc(c(-c5cc(S(=O)(=O)[O-])ccc5F)c5ccc([nH]5)c(-c5cc(S(=O)(=O)[O-])ccc5F)c5nc(c(-c6cc(S(=O)(=O)[O-])ccc6F)c6ccc3[nH]6)C=C5)C=C4)cc2)c1
REMARK SMILES IDX 31 1 30 2 29 3 28 4 27 5 25 6 26 7 24 8 8 9 9 10 10 11 23 12
REMARK SMILES IDX 7 13 3 14 4 15 99 16 5 17 6 18 2 19 1 20 11 21 12 22 16 23
REMARK SMILES IDX 13 24 15 25 14 26 22 27 20 28 21 29 17 30 18 31 19 32 32 35
REMARK SMILES IDX 33 36 34 37 35 38 36 39 37 40 98 41 38 42 97 43 39 44 40 45
REMARK SMILES IDX 41 46 91 47 42 48 96 49 90 50 92 51 43 52 95 53 89 54 88 55
REMARK SMILES IDX 44 57 76 58 56 59 75 60 57 61 60 62 74 63 93 64 58 65 59 66
REMARK SMILES IDX 73 68 94 69 61 70 45 71 46 72 54 73 47 74 53 75 55 76 52 77
REMARK SMILES IDX 48 78 49 79 50 80 51 81 77 82 78 83 86 84 79 85 85 86 87 87
REMARK SMILES IDX 84 88 80 89 81 90 82 91 83 92 62 93 63 94 71 95 64 96 70 97
REMARK SMILES IDX 72 98 69 99 65 100 66 101 67 102 68 103
REMARK H PARENT 18 33 18 34 92 56 60 67
REMARK Flexibility Score: inf
ROOT
ATOM      1  C   UNL A   1      34.216  31.589  27.691  1.00  0.00     0.202 C 
ENDROOT
BRANCH   1   2
ATOM      2  O   UNL A   1      33.678  30.544  26.892  1.00  0.00    -0.374 OA
BRANCH   2   3
ATOM      3  C   UNL A   1      32.276  30.275  26.898  1.00  0.00     0.202 C 
BRANCH   3   4
ATOM      4  C   UNL A   1      31.768  29.014  26.199  1.00  0.00     0.261 C 
BRANCH   4   5
ATOM      5  O   UNL A   1      32.831  28.115  25.848  1.00  0.00    -0.460 OA
BRANCH   5   6
ATOM      6  C   UNL A   1      33.099  28.028  24.512  1.00  0.00     0.342 C 
ATOM      7  O   UNL A   1      33.795  28.812  23.887  1.00  0.00    -0.246 OA
BRANCH   6   8
ATOM      8  C   UNL A   1      32.532  26.839  23.916  1.00  0.00     0.106 A 
ATOM      9  C   UNL A   1      31.263  26.668  23.296  1.00  0.00     0.107 A 
ATOM     10  N   UNL A   1      31.031  25.370  23.023  1.00  0.00    -0.167 NA
ATOM     11  N   UNL A   1      32.060  24.734  23.642  1.00  0.00    -0.239 N 
ATOM     12  C   UNL A   1      33.112  25.591  23.852  1.00  0.00     0.131 A 
BRANCH   9  13
ATOM     13  C   UNL A   1      30.332  27.728  22.925  1.00  0.00     0.007 A 
ATOM     14  C   UNL A   1      28.204  28.854  23.196  1.00  0.00     0.119 A 
ATOM     15  C   UNL A   1      28.671  29.910  22.409  1.00  0.00     0.046 A 
ATOM     16  C   UNL A   1      29.038  27.764  23.462  1.00  0.00     0.056 A 
ATOM     17  C   UNL A   1      29.953  29.876  21.865  1.00  0.00     0.005 A 
ATOM     18  C   UNL A   1      30.770  28.773  22.103  1.00  0.00     0.011 A 
BRANCH  14  19
ATOM     19  O   UNL A   1      26.906  28.988  23.610  1.00  0.00    -0.497 OA
ATOM     20  C   UNL A   1      26.122  27.802  23.621  1.00  0.00     0.278 C 
ENDBRANCH  14  19
ENDBRANCH   9  13
BRANCH  11  21
ATOM     21  C   UNL A   1      32.012  23.356  23.976  1.00  0.00     0.081 A 
ATOM     22  C   UNL A   1      32.218  22.424  22.940  1.00  0.00     0.079 A 
ATOM     23  C   UNL A   1      31.765  22.917  25.314  1.00  0.00     0.069 A 
ATOM     24  C   UNL A   1      32.253  21.090  23.281  1.00  0.00     0.167 A 
ATOM     25  C   UNL A   1      31.944  21.559  25.624  1.00  0.00     0.066 A 
ATOM     26  C   UNL A   1      32.156  20.678  24.589  1.00  0.00     0.166 A 
ATOM     27  O   UNL A   1      32.366  20.036  22.428  1.00  0.00    -0.454 OA
ATOM     28  O   UNL A   1      32.202  19.325  24.718  1.00  0.00    -0.454 OA
ATOM     29  C   UNL A   1      32.132  18.936  23.331  1.00  0.00     0.468 C 
BRANCH  23  30
ATOM     30  C   UNL A   1      31.050  23.784  26.325  1.00  0.00     0.251 C 
ATOM     31  N   UNL A   1      29.905  24.433  25.955  1.00  0.00    -0.366 N 
ATOM     32  O   UNL A   1      31.485  24.034  27.441  1.00  0.00    -0.269 OA
ATOM     33  H   UNL A   1      29.511  24.270  25.067  1.00  0.00     0.159 HD
ATOM     34  H   UNL A   1      29.474  25.064  26.576  1.00  0.00     0.159 HD
ENDBRANCH  23  30
ENDBRANCH  11  21
ENDBRANCH   6   8
ENDBRANCH   5   6
ENDBRANCH   4   5
ENDBRANCH   3   4
ENDBRANCH   2   3
ENDBRANCH   1   2
BRANCH   1  35
ATOM     35  C   UNL A   1      35.644  31.488  28.212  1.00  0.00     0.261 C 
BRANCH  35  36
ATOM     36  O   UNL A   1      36.238  30.231  27.957  1.00  0.00    -0.460 OA
BRANCH  36  37
ATOM     37  C   UNL A   1      37.010  29.808  28.987  1.00  0.00     0.338 C 
ATOM     38  O   UNL A   1      36.969  30.190  30.140  1.00  0.00    -0.246 OA
BRANCH  37  39
ATOM     39  C   UNL A   1      38.038  28.914  28.450  1.00  0.00     0.060 A 
ATOM     40  C   UNL A   1      38.501  27.939  29.333  1.00  0.00     0.016 A 
ATOM     41  C   UNL A   1      38.749  29.293  27.303  1.00  0.00     0.016 A 
ATOM     42  C   UNL A   1      39.814  27.555  29.224  1.00  0.00     0.010 A 
ATOM     43  C   UNL A   1      40.064  28.918  27.206  1.00  0.00     0.010 A 
ATOM     44  C   UNL A   1      40.602  28.145  28.229  1.00  0.00    -0.014 A 
BRANCH  44  45
ATOM     45  C   UNL A   1      42.004  27.800  28.178  1.00  0.00     0.031 A 
ATOM     46  C   UNL A   1      42.182  26.513  27.482  1.00  0.00     0.074 A 
ATOM     47  C   UNL A   1      42.986  28.609  28.617  1.00  0.00     0.049 A 
ATOM     48  N   UNL A   1      42.265  25.343  28.023  1.00  0.00    -0.248 NA
ATOM     49  C   UNL A   1      41.902  26.483  26.035  1.00  0.00     0.031 C 
ATOM     50  C   UNL A   1      42.895  30.001  29.062  1.00  0.00     0.029 A 
ATOM     51  N   UNL A   1      44.319  28.356  28.691  1.00  0.00    -0.354 N 
ATOM     52  C   UNL A   1      42.366  24.471  26.949  1.00  0.00     0.074 A 
ATOM     53  C   UNL A   1      41.803  25.169  25.831  1.00  0.00     0.031 C 
ATOM     54  C   UNL A   1      44.142  30.528  29.148  1.00  0.00     0.029 A 
ATOM     55  C   UNL A   1      45.118  29.477  28.907  1.00  0.00     0.049 A 
ATOM     56  H   UNL A   1      44.692  27.450  28.599  1.00  0.00     0.167 HD
ATOM     57  C   UNL A   1      43.256  23.442  26.987  1.00  0.00     0.034 A 
ATOM     58  C   UNL A   1      46.480  29.521  28.841  1.00  0.00     0.034 A 
ATOM     59  C   UNL A   1      43.690  23.209  28.351  1.00  0.00     0.049 A 
ATOM     60  C   UNL A   1      46.941  28.121  29.034  1.00  0.00     0.074 A 
ATOM     61  C   UNL A   1      43.085  22.815  29.526  1.00  0.00     0.029 A 
ATOM     62  N   UNL A   1      44.874  23.812  28.708  1.00  0.00    -0.354 N 
ATOM     63  N   UNL A   1      46.755  27.454  30.141  1.00  0.00    -0.248 NA
ATOM     64  C   UNL A   1      47.180  27.301  27.857  1.00  0.00     0.031 C 
ATOM     65  C   UNL A   1      43.757  23.537  30.561  1.00  0.00     0.029 A 
ATOM     66  C   UNL A   1      44.797  24.280  29.995  1.00  0.00     0.049 A 
ATOM     67  H   UNL A   1      45.662  23.897  28.125  1.00  0.00     0.167 HD
ATOM     68  C   UNL A   1      46.428  26.167  29.741  1.00  0.00     0.074 A 
ATOM     69  C   UNL A   1      46.830  26.104  28.337  1.00  0.00     0.031 C 
ATOM     70  C   UNL A   1      45.599  25.388  30.502  1.00  0.00     0.034 A 
BRANCH  57  71
ATOM     71  C   UNL A   1      44.094  23.005  25.793  1.00  0.00     0.023 A 
ATOM     72  C   UNL A   1      44.084  21.631  25.488  1.00  0.00     0.031 A 
ATOM     73  C   UNL A   1      45.090  23.764  25.130  1.00  0.00     0.131 A 
ATOM     74  C   UNL A   1      45.073  21.064  24.664  1.00  0.00     0.055 A 
ATOM     75  C   UNL A   1      46.039  23.202  24.272  1.00  0.00     0.041 A 
ATOM     76  F   UNL A   1      45.273  25.074  25.316  1.00  0.00    -0.206 F 
ATOM     77  C   UNL A   1      46.055  21.841  24.056  1.00  0.00     0.022 A 
BRANCH  74  78
ATOM     78  S   UNL A   1      45.145  19.264  24.519  1.00  0.00     0.124 S 
ATOM     79  O   UNL A   1      44.263  18.847  25.603  1.00  0.00    -0.237 OA
ATOM     80  O   UNL A   1      44.650  19.054  23.164  1.00  0.00    -0.237 OA
ATOM     81  O   UNL A   1      46.562  18.966  24.717  1.00  0.00    -0.744 OA
ENDBRANCH  74  78
ENDBRANCH  57  71
BRANCH  58  82
ATOM     82  C   UNL A   1      47.317  30.569  28.176  1.00  0.00     0.023 A 
ATOM     83  C   UNL A   1      46.780  31.622  27.396  1.00  0.00     0.031 A 
ATOM     84  C   UNL A   1      48.679  30.688  28.534  1.00  0.00     0.131 A 
ATOM     85  C   UNL A   1      47.594  32.722  27.014  1.00  0.00     0.055 A 
ATOM     86  C   UNL A   1      49.473  31.776  28.161  1.00  0.00     0.041 A 
ATOM     87  F   UNL A   1      49.266  29.788  29.338  1.00  0.00    -0.206 F 
ATOM     88  C   UNL A   1      48.931  32.802  27.406  1.00  0.00     0.022 A 
BRANCH  85  89
ATOM     89  S   UNL A   1      46.912  34.114  26.045  1.00  0.00     0.124 S 
ATOM     90  O   UNL A   1      45.743  33.514  25.414  1.00  0.00    -0.237 OA
ATOM     91  O   UNL A   1      46.653  35.116  27.073  1.00  0.00    -0.237 OA
ATOM     92  O   UNL A   1      47.997  34.454  25.122  1.00  0.00    -0.744 OA
ENDBRANCH  85  89
ENDBRANCH  58  82
BRANCH  70  93
ATOM     93  C   UNL A   1      45.404  25.775  31.960  1.00  0.00     0.023 A 
ATOM     94  C   UNL A   1      46.289  25.489  33.027  1.00  0.00     0.031 A 
ATOM     95  C   UNL A   1      44.269  26.552  32.250  1.00  0.00     0.131 A 
ATOM     96  C   UNL A   1      46.010  25.977  34.323  1.00  0.00     0.055 A 
ATOM     97  C   UNL A   1      44.011  27.054  33.524  1.00  0.00     0.041 A 
ATOM     98  F   UNL A   1      43.394  26.867  31.280  1.00  0.00    -0.206 F 
ATOM     99  C   UNL A   1      44.880  26.765  34.567  1.00  0.00     0.022 A 
BRANCH  96 100
ATOM    100  S   UNL A   1      47.094  25.577  35.736  1.00  0.00     0.124 S 
ATOM    101  O   UNL A   1      47.945  26.755  35.856  1.00  0.00    -0.237 OA
ATOM    102  O   UNL A   1      46.137  25.366  36.818  1.00  0.00    -0.237 OA
ATOM    103  O   UNL A   1      47.791  24.365  35.300  1.00  0.00    -0.744 OA
ENDBRANCH  96 100
ENDBRANCH  70  93
ENDBRANCH  44  45
ENDBRANCH  37  39
ENDBRANCH  36  37
ENDBRANCH  35  36
ENDBRANCH   1  35
TORSDOF 21
ENDMDL
MODEL 2
REMARK VINA RESULT:     -12.1      3.854      9.328
REMARK SMILES COc1cccc(-c2nn(-c3cc4c(cc3C(N)=O)OCO4)cc2C(=O)OCCOCCOC(=O)c2ccc(-c3c4nc(c(-c5cc(S(=O)(=O)[O-])ccc5F)c5ccc([nH]5)c(-c5cc(S(=O)(=O)[O-])ccc5F)c5nc(c(-c6cc(S(=O)(=O)[O-])ccc6F)c6ccc3[nH]6)C=C5)C=C4)cc2)c1
REMARK SMILES IDX 31 1 30 2 29 3 28 4 27 5 25 6 26 7 24 8 8 9 9 10 10 11 23 12
REMARK SMILES IDX 7 13 3 14 4 15 99 16 5 17 6 18 2 19 1 20 11 21 12 22 16 23
REMARK SMILES IDX 13 24 15 25 14 26 22 27 20 28 21 29 17 30 18 31 19 32 32 35
REMARK SMILES IDX 33 36 34 37 35 38 36 39 37 40 98 41 38 42 97 43 39 44 40 45
REMARK SMILES IDX 41 46 91 47 42 48 96 49 90 50 92 51 43 52 95 53 89 54 88 55
REMARK SMILES IDX 44 57 76 58 56 59 75 60 57 61 60 62 74 63 93 64 58 65 59 66
REMARK SMILES IDX 73 68 94 69 61 70 45 71 46 72 54 73 47 74 53 75 55 76 52 77
REMARK SMILES IDX 48 78 49 79 50 80 51 81 77 82 78 83 86 84 79 85 85 86 87 87
REMARK SMILES IDX 84 88 80 89 81 90 82 91 83 92 62 93 63 94 71 95 64 96 70 97
REMARK SMILES IDX 72 98 69 99 65 100 66 101 67 102 68 103
REMARK H PARENT 18 33 18 34 92 56 60 67
REMARK Flexibility Score: inf
ROOT
ATOM      1  C   UNL A   1      40.829  21.006  27.010  1.00  0.00     0.202 C 
ENDROOT
BRANCH   1   2
ATOM      2  O   UNL A   1      40.109  19.961  26.370  1.00  0.00    -0.374 OA
BRANCH   2   3
ATOM      3  C   UNL A   1      39.048  20.261  25.464  1.00  0.00     0.202 C 
BRANCH   3   4
ATOM      4  C   UNL A   1      38.400  21.644  25.525  1.00  0.00     0.261 C 
BRANCH   4   5
ATOM      5  O   UNL A   1      36.987  21.600  25.277  1.00  0.00    -0.460 OA
BRANCH   5   6
ATOM      6  C   UNL A   1      36.539  22.465  24.319  1.00  0.00     0.342 C 
ATOM      7  O   UNL A   1      37.027  22.589  23.207  1.00  0.00    -0.246 OA
BRANCH   6   8
ATOM      8  C   UNL A   1      35.350  23.175  24.735  1.00  0.00     0.106 A 
ATOM      9  C   UNL A   1      33.986  22.797  24.588  1.00  0.00     0.107 A 
ATOM     10  N   UNL A   1      33.166  23.805  24.943  1.00  0.00    -0.167 NA
ATOM     11  N   UNL A   1      34.017  24.850  25.119  1.00  0.00    -0.239 N 
ATOM     12  C   UNL A   1      35.297  24.407  25.347  1.00  0.00     0.131 A 
BRANCH   9  13
ATOM     13  C   UNL A   1      33.491  21.488  24.177  1.00  0.00     0.007 A 
ATOM     14  C   UNL A   1      33.201  19.119  24.592  1.00  0.00     0.119 A 
ATOM     15  C   UNL A   1      32.308  19.048  23.519  1.00  0.00     0.046 A 
ATOM     16  C   UNL A   1      33.787  20.343  24.928  1.00  0.00     0.056 A 
ATOM     17  C   UNL A   1      32.016  20.181  22.764  1.00  0.00     0.005 A 
ATOM     18  C   UNL A   1      32.629  21.392  23.078  1.00  0.00     0.011 A 
BRANCH  14  19
ATOM     19  O   UNL A   1      33.445  17.919  25.206  1.00  0.00    -0.497 OA
ATOM     20  C   UNL A   1      32.350  17.016  25.281  1.00  0.00     0.278 C 
ENDBRANCH  14  19
ENDBRANCH   9  13
BRANCH  11  21
ATOM     21  C   UNL A   1      33.580  26.199  25.093  1.00  0.00     0.081 A 
ATOM     22  C   UNL A   1      33.189  26.785  26.313  1.00  0.00     0.079 A 
ATOM     23  C   UNL A   1      33.536  26.949  23.876  1.00  0.00     0.069 A 
ATOM     24  C   UNL A   1      32.844  28.118  26.298  1.00  0.00     0.167 A 
ATOM     25  C   UNL A   1      33.305  28.333  23.943  1.00  0.00     0.066 A 
ATOM     26  C   UNL A   1      32.938  28.873  25.154  1.00  0.00     0.166 A 
ATOM     27  O   UNL A   1      32.373  28.847  27.346  1.00  0.00    -0.454 OA
ATOM     28  O   UNL A   1      32.544  30.162  25.341  1.00  0.00    -0.454 OA
ATOM     29  C   UNL A   1      32.004  30.069  26.674  1.00  0.00     0.468 C 
BRANCH  23  30
ATOM     30  C   UNL A   1      33.438  26.281  22.524  1.00  0.00     0.251 C 
ATOM     31  N   UNL A   1      32.499  26.719  21.631  1.00  0.00    -0.366 N 
ATOM     32  O   UNL A   1      34.080  25.291  22.202  1.00  0.00    -0.269 OA
ATOM     33  H   UNL A   1      31.953  27.512  21.839  1.00  0.00     0.159 HD
ATOM     34  H   UNL A   1      32.369  26.242  20.780  1.00  0.00     0.159 HD
ENDBRANCH  23  30
ENDBRANCH  11  21
ENDBRANCH   6   8
ENDBRANCH   5   6
ENDBRANCH   4   5
ENDBRANCH   3   4
ENDBRANCH   2   3
ENDBRANCH   1   2
BRANCH   1  35
ATOM     35  C   UNL A   1      42.252  21.327  26.570  1.00  0.00     0.261 C 
BRANCH  35  36
ATOM     36  O   UNL A   1      42.794  22.452  27.230  1.00  0.00    -0.460 OA
BRANCH  36  37
ATOM     37  C   UNL A   1      42.464  23.617  26.621  1.00  0.00     0.338 C 
ATOM     38  O   UNL A   1      42.717  23.944  25.478  1.00  0.00    -0.246 OA
BRANCH  37  39
ATOM     39  C   UNL A   1      41.883  24.509  27.625  1.00  0.00     0.060 A 
ATOM     40  C   UNL A   1      40.727  25.180  27.229  1.00  0.00     0.016 A 
ATOM     41  C   UNL A   1      42.667  24.930  28.709  1.00  0.00     0.016 A 
ATOM     42  C   UNL A   1      40.519  26.439  27.734  1.00  0.00     0.010 A 
ATOM     43  C   UNL A   1      42.464  26.193  29.200  1.00  0.00     0.010 A 
ATOM     44  C   UNL A   1      41.461  26.967  28.625  1.00  0.00    -0.014 A 
BRANCH  44  45
ATOM     45  C   UNL A   1      41.280  28.325  29.081  1.00  0.00     0.031 A 
ATOM     46  C   UNL A   1      42.325  29.193  28.509  1.00  0.00     0.074 A 
ATOM     47  C   UNL A   1      40.238  28.725  29.834  1.00  0.00     0.049 A 
ATOM     48  N   UNL A   1      43.447  29.521  29.056  1.00  0.00    -0.248 NA
ATOM     49  C   UNL A   1      42.272  29.447  27.057  1.00  0.00     0.031 C 
ATOM     50  C   UNL A   1      39.034  27.977  30.202  1.00  0.00     0.029 A 
ATOM     51  N   UNL A   1      40.012  29.948  30.381  1.00  0.00    -0.354 N 
ATOM     52  C   UNL A   1      44.087  30.295  28.098  1.00  0.00     0.074 A 
ATOM     53  C   UNL A   1      43.499  29.921  26.845  1.00  0.00     0.031 C 
ATOM     54  C   UNL A   1      38.116  28.830  30.722  1.00  0.00     0.029 A 
ATOM     55  C   UNL A   1      38.716  30.148  30.856  1.00  0.00     0.049 A 
ATOM     56  H   UNL A   1      40.709  30.640  30.438  1.00  0.00     0.167 HD
ATOM     57  C   UNL A   1      44.732  31.436  28.462  1.00  0.00     0.034 A 
ATOM     58  C   UNL A   1      38.187  31.332  31.280  1.00  0.00     0.034 A 
ATOM     59  C   UNL A   1      44.965  31.442  29.894  1.00  0.00     0.049 A 
ATOM     60  C   UNL A   1      39.347  32.189  31.640  1.00  0.00     0.074 A 
ATOM     61  C   UNL A   1      45.689  30.672  30.780  1.00  0.00     0.029 A 
ATOM     62  N   UNL A   1      44.032  32.121  30.644  1.00  0.00    -0.354 N 
ATOM     63  N   UNL A   1      40.169  31.907  32.615  1.00  0.00    -0.248 NA
ATOM     64  C   UNL A   1      39.877  33.096  30.634  1.00  0.00     0.031 C 
ATOM     65  C   UNL A   1      44.912  30.637  31.978  1.00  0.00     0.029 A 
ATOM     66  C   UNL A   1      43.785  31.448  31.814  1.00  0.00     0.049 A 
ATOM     67  H   UNL A   1      43.603  32.966  30.380  1.00  0.00     0.167 HD
ATOM     68  C   UNL A   1      41.428  32.239  32.138  1.00  0.00     0.074 A 
ATOM     69  C   UNL A   1      41.170  33.080  30.971  1.00  0.00     0.031 C 
ATOM     70  C   UNL A   1      42.537  31.558  32.561  1.00  0.00     0.034 A 
BRANCH  57  71
ATOM     71  C   UNL A   1      44.694  32.724  27.651  1.00  0.00     0.023 A 
ATOM     72  C   UNL A   1      43.945  33.786  28.192  1.00  0.00     0.031 A 
ATOM     73  C   UNL A   1      45.087  32.889  26.299  1.00  0.00     0.131 A 
ATOM     74  C   UNL A   1      43.541  34.869  27.392  1.00  0.00     0.055 A 
ATOM     75  C   UNL A   1      44.724  33.993  25.524  1.00  0.00     0.041 A 
ATOM     76  F   UNL A   1      45.774  31.976  25.608  1.00  0.00    -0.206 F 
ATOM     77  C   UNL A   1      43.921  34.978  26.059  1.00  0.00     0.022 A 
BRANCH  74  78
ATOM     78  S   UNL A   1      42.376  36.065  28.087  1.00  0.00     0.124 S 
ATOM     79  O   UNL A   1      42.634  35.929  29.516  1.00  0.00    -0.237 OA
ATOM     80  O   UNL A   1      42.818  37.308  27.465  1.00  0.00    -0.237 OA
ATOM     81  O   UNL A   1      41.077  35.571  27.636  1.00  0.00    -0.744 OA
ENDBRANCH  74  78
ENDBRANCH  57  71
BRANCH  58  82
ATOM     82  C   UNL A   1      36.837  31.887  30.946  1.00  0.00     0.023 A 
ATOM     83  C   UNL A   1      36.003  32.536  31.889  1.00  0.00     0.031 A 
ATOM     84  C   UNL A   1      36.463  32.011  29.589  1.00  0.00     0.131 A 
ATOM     85  C   UNL A   1      34.861  33.264  31.457  1.00  0.00     0.055 A 
ATOM     86  C   UNL A   1      35.343  32.735  29.171  1.00  0.00     0.041 A 
ATOM     87  F   UNL A   1      37.228  31.504  28.609  1.00  0.00    -0.206 F 
ATOM     88  C   UNL A   1      34.542  33.371  30.103  1.00  0.00     0.022 A 
BRANCH  85  89
ATOM     89  S   UNL A   1      33.795  34.146  32.650  1.00  0.00     0.124 S 
ATOM     90  O   UNL A   1      33.092  33.053  33.311  1.00  0.00    -0.237 OA
ATOM     91  O   UNL A   1      34.764  34.878  33.458  1.00  0.00    -0.237 OA
ATOM     92  O   UNL A   1      32.951  34.988  31.799  1.00  0.00    -0.744 OA
ENDBRANCH  85  89
ENDBRANCH  58  82
BRANCH  70  93
ATOM     93  C   UNL A   1      42.429  30.757  33.849  1.00  0.00     0.023 A 
ATOM     94  C   UNL A   1      42.121  29.379  33.955  1.00  0.00     0.031 A 
ATOM     95  C   UNL A   1      42.736  31.445  35.037  1.00  0.00     0.131 A 
ATOM     96  C   UNL A   1      42.127  28.752  35.220  1.00  0.00     0.055 A 
ATOM     97  C   UNL A   1      42.768  30.817  36.279  1.00  0.00     0.041 A 
ATOM     98  F   UNL A   1      43.046  32.752  35.004  1.00  0.00    -0.206 F 
ATOM     99  C   UNL A   1      42.458  29.466  36.377  1.00  0.00     0.022 A 
BRANCH  96 100
ATOM    100  S   UNL A   1      41.675  26.993  35.405  1.00  0.00     0.124 S 
ATOM    101  O   UNL A   1      42.931  26.292  35.168  1.00  0.00    -0.237 OA
ATOM    102  O   UNL A   1      41.160  26.940  36.770  1.00  0.00    -0.237 OA
ATOM    103  O   UNL A   1      40.660  26.791  34.367  1.00  0.00    -0.744 OA
ENDBRANCH  96 100
ENDBRANCH  70  93
ENDBRANCH  44  45
ENDBRANCH  37  39
ENDBRANCH  36  37
ENDBRANCH  35  36
ENDBRANCH   1  35
TORSDOF 21
ENDMDL
MODEL 3
REMARK VINA RESULT:     -11.8      3.642      8.935
REMARK SMILES COc1cccc(-c2nn(-c3cc4c(cc3C(N)=O)OCO4)cc2C(=O)OCCOCCOC(=O)c2ccc(-c3c4nc(c(-c5cc(S(=O)(=O)[O-])ccc5F)c5ccc([nH]5)c(-c5cc(S(=O)(=O)[O-])ccc5F)c5nc(c(-c6cc(S(=O)(=O)[O-])ccc6F)c6ccc3[nH]6)C=C5)C=C4)cc2)c1
REMARK SMILES IDX 31 1 30 2 29 3 28 4 27 5 25 6 26 7 24 8 8 9 9 10 10 11 23 12
REMARK SMILES IDX 7 13 3 14 4 15 99 16 5 17 6 18 2 19 1 20 11 21 12 22 16 23
REMARK SMILES IDX 13 24 15 25 14 26 22 27 20 28 21 29 17 30 18 31 19 32 32 35
REMARK SMILES IDX 33 36 34 37 35 38 36 39 37 40 98 41 38 42 97 43 39 44 40 45
REMARK SMILES IDX 41 46 91 47 42 48 96 49 90 50 92 51 43 52 95 53 89 54 88 55
REMARK SMILES IDX 44 57 76 58 56 59 75 60 57 61 60 62 74 63 93 64 58 65 59 66
REMARK SMILES IDX 73 68 94 69 61 70 45 71 46 72 54 73 47 74 53 75 55 76 52 77
REMARK SMILES IDX 48 78 49 79 50 80 51 81 77 82 78 83 86 84 79 85 85 86 87 87
REMARK SMILES IDX 84 88 80 89 81 90 82 91 83 92 62 93 63 94 71 95 64 96 70 97
REMARK SMILES IDX 72 98 69 99 65 100 66 101 67 102 68 103
REMARK H PARENT 18 33 18 34 92 56 60 67
REMARK Flexibility Score: inf
ROOT
ATOM      1  C   UNL A   1      38.814  21.935  26.016  1.00  0.00     0.202 C 
ENDROOT
BRANCH   1   2
ATOM      2  O   UNL A   1      37.509  21.680  25.513  1.00  0.00    -0.374 OA
BRANCH   2   3
ATOM      3  C   UNL A   1      37.155  22.066  24.185  1.00  0.00     0.202 C 
BRANCH   3   4
ATOM      4  C   UNL A   1      35.739  22.577  23.923  1.00  0.00     0.261 C 
BRANCH   4   5
ATOM      5  O   UNL A   1      35.358  23.627  24.825  1.00  0.00    -0.460 OA
BRANCH   5   6
ATOM      6  C   UNL A   1      34.344  23.313  25.685  1.00  0.00     0.342 C 
ATOM      7  O   UNL A   1      34.498  22.883  26.817  1.00  0.00    -0.246 OA
BRANCH   6   8
ATOM      8  C   UNL A   1      33.045  23.628  25.138  1.00  0.00     0.106 A 
ATOM      9  C   UNL A   1      32.179  22.808  24.361  1.00  0.00     0.107 A 
ATOM     10  N   UNL A   1      31.136  23.519  23.890  1.00  0.00    -0.167 NA
ATOM     11  N   UNL A   1      31.462  24.798  24.213  1.00  0.00    -0.239 N 
ATOM     12  C   UNL A   1      32.377  24.829  25.236  1.00  0.00     0.131 A 
BRANCH   9  13
ATOM     13  C   UNL A   1      32.321  21.375  24.132  1.00  0.00     0.007 A 
ATOM     14  C   UNL A   1      32.401  19.103  24.971  1.00  0.00     0.119 A 
ATOM     15  C   UNL A   1      32.321  18.624  23.660  1.00  0.00     0.046 A 
ATOM     16  C   UNL A   1      32.392  20.481  25.208  1.00  0.00     0.056 A 
ATOM     17  C   UNL A   1      32.259  19.508  22.585  1.00  0.00     0.005 A 
ATOM     18  C   UNL A   1      32.286  20.880  22.822  1.00  0.00     0.011 A 
BRANCH  14  19
ATOM     19  O   UNL A   1      32.521  18.128  25.923  1.00  0.00    -0.497 OA
ATOM     20  C   UNL A   1      32.709  16.802  25.447  1.00  0.00     0.278 C 
ENDBRANCH  14  19
ENDBRANCH   9  13
BRANCH  11  21
ATOM     21  C   UNL A   1      30.878  25.917  23.565  1.00  0.00     0.081 A 
ATOM     22  C   UNL A   1      29.596  26.323  23.988  1.00  0.00     0.079 A 
ATOM     23  C   UNL A   1      31.557  26.619  22.521  1.00  0.00     0.069 A 
ATOM     24  C   UNL A   1      29.067  27.459  23.416  1.00  0.00     0.167 A 
ATOM     25  C   UNL A   1      31.029  27.840  22.071  1.00  0.00     0.066 A 
ATOM     26  C   UNL A   1      29.781  28.211  22.515  1.00  0.00     0.166 A 
ATOM     27  O   UNL A   1      27.826  27.973  23.630  1.00  0.00    -0.454 OA
ATOM     28  O   UNL A   1      29.083  29.286  22.059  1.00  0.00    -0.454 OA
ATOM     29  C   UNL A   1      27.786  29.002  22.620  1.00  0.00     0.468 C 
BRANCH  23  30
ATOM     30  C   UNL A   1      32.642  25.970  21.692  1.00  0.00     0.251 C 
ATOM     31  N   UNL A   1      32.360  25.585  20.410  1.00  0.00    -0.366 N 
ATOM     32  O   UNL A   1      33.745  25.665  22.125  1.00  0.00    -0.269 OA
ATOM     33  H   UNL A   1      31.487  25.804  20.011  1.00  0.00     0.159 HD
ATOM     34  H   UNL A   1      33.030  25.089  19.886  1.00  0.00     0.159 HD
ENDBRANCH  23  30
ENDBRANCH  11  21
ENDBRANCH   6   8
ENDBRANCH   5   6
ENDBRANCH   4   5
ENDBRANCH   3   4
ENDBRANCH   2   3
ENDBRANCH   1   2
BRANCH   1  35
ATOM     35  C   UNL A   1      39.143  23.295  26.617  1.00  0.00     0.261 C 
BRANCH  35  36
ATOM     36  O   UNL A   1      40.055  23.217  27.694  1.00  0.00    -0.460 OA
BRANCH  36  37
ATOM     37  C   UNL A   1      41.345  23.195  27.277  1.00  0.00     0.338 C 
ATOM     38  O   UNL A   1      42.004  22.216  26.987  1.00  0.00    -0.246 OA
BRANCH  37  39
ATOM     39  C   UNL A   1      41.886  24.551  27.389  1.00  0.00     0.060 A 
ATOM     40  C   UNL A   1      42.494  24.851  28.607  1.00  0.00     0.016 A 
ATOM     41  C   UNL A   1      41.452  25.541  26.496  1.00  0.00     0.016 A 
ATOM     42  C   UNL A   1      42.401  26.143  29.061  1.00  0.00     0.010 A 
ATOM     43  C   UNL A   1      41.348  26.826  26.960  1.00  0.00     0.010 A 
ATOM     44  C   UNL A   1      41.723  27.081  28.275  1.00  0.00    -0.014 A 
BRANCH  44  45
ATOM     45  C   UNL A   1      41.553  28.415  28.802  1.00  0.00     0.031 A 
ATOM     46  C   UNL A   1      42.639  29.289  28.322  1.00  0.00     0.074 A 
ATOM     47  C   UNL A   1      40.491  28.797  29.535  1.00  0.00     0.049 A 
ATOM     48  N   UNL A   1      43.746  29.558  28.930  1.00  0.00    -0.248 NA
ATOM     49  C   UNL A   1      42.650  29.626  26.886  1.00  0.00     0.031 C 
ATOM     50  C   UNL A   1      39.257  28.059  29.812  1.00  0.00     0.029 A 
ATOM     51  N   UNL A   1      40.269  29.992  30.143  1.00  0.00    -0.354 N 
ATOM     52  C   UNL A   1      44.440  30.369  28.044  1.00  0.00     0.074 A 
ATOM     53  C   UNL A   1      43.895  30.081  26.750  1.00  0.00     0.031 C 
ATOM     54  C   UNL A   1      38.338  28.902  30.344  1.00  0.00     0.029 A 
ATOM     55  C   UNL A   1      38.961  30.196  30.578  1.00  0.00     0.049 A 
ATOM     56  H   UNL A   1      40.979  30.662  30.267  1.00  0.00     0.167 HD
ATOM     57  C   UNL A   1      45.095  31.472  28.498  1.00  0.00     0.034 A 
ATOM     58  C   UNL A   1      38.441  31.366  31.048  1.00  0.00     0.034 A 
ATOM     59  C   UNL A   1      45.270  31.391  29.936  1.00  0.00     0.049 A 
ATOM     60  C   UNL A   1      39.604  32.173  31.503  1.00  0.00     0.074 A 
ATOM     61  C   UNL A   1      45.941  30.554  30.803  1.00  0.00     0.029 A 
ATOM     62  N   UNL A   1      44.323  32.048  30.687  1.00  0.00    -0.354 N 
ATOM     63  N   UNL A   1      40.379  31.816  32.491  1.00  0.00    -0.248 NA
ATOM     64  C   UNL A   1      40.194  33.123  30.572  1.00  0.00     0.031 C 
ATOM     65  C   UNL A   1      45.115  30.470  31.967  1.00  0.00     0.029 A 
ATOM     66  C   UNL A   1      44.014  31.316  31.805  1.00  0.00     0.049 A 
ATOM     67  H   UNL A   1      43.923  32.917  30.455  1.00  0.00     0.167 HD
ATOM     68  C   UNL A   1      41.664  32.144  32.083  1.00  0.00     0.074 A 
ATOM     69  C   UNL A   1      41.472  33.056  30.958  1.00  0.00     0.031 C 
ATOM     70  C   UNL A   1      42.740  31.413  32.509  1.00  0.00     0.034 A 
BRANCH  57  71
ATOM     71  C   UNL A   1      45.117  32.804  27.762  1.00  0.00     0.023 A 
ATOM     72  C   UNL A   1      46.351  33.195  27.206  1.00  0.00     0.031 A 
ATOM     73  C   UNL A   1      44.128  33.818  27.807  1.00  0.00     0.131 A 
ATOM     74  C   UNL A   1      46.587  34.530  26.831  1.00  0.00     0.055 A 
ATOM     75  C   UNL A   1      44.353  35.130  27.386  1.00  0.00     0.041 A 
ATOM     76  F   UNL A   1      42.909  33.644  28.327  1.00  0.00    -0.206 F 
ATOM     77  C   UNL A   1      45.597  35.502  26.921  1.00  0.00     0.022 A 
BRANCH  74  78
ATOM     78  S   UNL A   1      48.266  35.007  26.361  1.00  0.00     0.124 S 
ATOM     79  O   UNL A   1      48.280  34.672  24.942  1.00  0.00    -0.237 OA
ATOM     80  O   UNL A   1      48.275  36.427  26.692  1.00  0.00    -0.237 OA
ATOM     81  O   UNL A   1      49.105  34.165  27.211  1.00  0.00    -0.744 OA
ENDBRANCH  74  78
ENDBRANCH  57  71
BRANCH  58  82
ATOM     82  C   UNL A   1      37.118  31.971  30.695  1.00  0.00     0.023 A 
ATOM     83  C   UNL A   1      36.290  32.642  31.628  1.00  0.00     0.031 A 
ATOM     84  C   UNL A   1      36.774  32.120  29.333  1.00  0.00     0.131 A 
ATOM     85  C   UNL A   1      35.183  33.414  31.183  1.00  0.00     0.055 A 
ATOM     86  C   UNL A   1      35.688  32.887  28.900  1.00  0.00     0.041 A 
ATOM     87  F   UNL A   1      37.538  31.594  28.363  1.00  0.00    -0.206 F 
ATOM     88  C   UNL A   1      34.893  33.544  29.823  1.00  0.00     0.022 A 
BRANCH  85  89
ATOM     89  S   UNL A   1      34.127  34.324  32.364  1.00  0.00     0.124 S 
ATOM     90  O   UNL A   1      35.074  35.236  32.994  1.00  0.00    -0.237 OA
ATOM     91  O   UNL A   1      33.126  34.927  31.491  1.00  0.00    -0.237 OA
ATOM     92  O   UNL A   1      33.613  33.273  33.245  1.00  0.00    -0.744 OA
ENDBRANCH  85  89
ENDBRANCH  58  82
BRANCH  70  93
ATOM     93  C   UNL A   1      42.562  30.544  33.743  1.00  0.00     0.023 A 
ATOM     94  C   UNL A   1      42.463  29.131  33.765  1.00  0.00     0.031 A 
ATOM     95  C   UNL A   1      42.572  31.212  34.981  1.00  0.00     0.131 A 
ATOM     96  C   UNL A   1      42.373  28.452  35.000  1.00  0.00     0.055 A 
ATOM     97  C   UNL A   1      42.510  30.535  36.197  1.00  0.00     0.041 A 
ATOM     98  F   UNL A   1      42.673  32.550  35.030  1.00  0.00    -0.206 F 
ATOM     99  C   UNL A   1      42.406  29.151  36.211  1.00  0.00     0.022 A 
BRANCH  96 100
ATOM    100  S   UNL A   1      42.181  26.637  35.067  1.00  0.00     0.124 S 
ATOM    101  O   UNL A   1      42.650  26.294  36.404  1.00  0.00    -0.237 OA
ATOM    102  O   UNL A   1      40.751  26.462  34.826  1.00  0.00    -0.237 OA
ATOM    103  O   UNL A   1      43.040  26.163  33.980  1.00  0.00    -0.744 OA
ENDBRANCH  96 100
ENDBRANCH  70  93
ENDBRANCH  44  45
ENDBRANCH  37  39
ENDBRANCH  36  37
ENDBRANCH  35  36
ENDBRANCH   1  35
TORSDOF 21
ENDMDL
