MODEL 1
REMARK VINA RESULT:     -11.3      0.000      0.000
REMARK SMILES Cc1ccc(C(N)=O)c(NCc2ccc(C(=O)OCCOCCOC(=O)c3ccc(-c4c5nc(c(-c6cc(S(=O)(=O)[O-])ccc6F)c6ccc([nH]6)c(-c6cc(S(=O)(=O)[O-])ccc6F)c6nc(c(-c7cc(S(=O)(=O)[O-])ccc7F)c7ccc4[nH]7)C=C6)C=C5)cc3)o2)n1
REMARK SMILES IDX 20 1 19 2 18 3 16 4 17 5 15 6 12 7 13 8 90 9 14 10 11 11
REMARK SMILES IDX 10 12 9 14 1 15 2 16 3 17 91 18 4 19 5 20 6 21 7 22 8 23
REMARK SMILES IDX 21 26 22 27 23 28 24 29 25 30 26 31 27 32 28 33 89 34 29 35
REMARK SMILES IDX 88 36 30 37 31 38 32 39 82 40 33 41 87 42 81 43 83 44 34 45
REMARK SMILES IDX 86 46 80 47 79 48 35 50 67 51 47 52 66 53 48 54 51 55 65 56
REMARK SMILES IDX 84 57 49 58 50 59 64 61 85 62 52 63 36 64 37 65 45 66 38 67
REMARK SMILES IDX 44 68 46 69 43 70 39 71 40 72 41 73 42 74 68 75 69 76 77 77
REMARK SMILES IDX 70 78 76 79 78 80 75 81 71 82 72 83 73 84 74 85 53 86 54 87
REMARK SMILES IDX 62 88 55 89 61 90 63 91 60 92 56 93 57 94 58 95 59 96
REMARK H PARENT 10 13 7 24 7 25 83 49 51 60
REMARK Flexibility Score: inf
ROOT
ATOM      1  C   UNL A   1      32.779  29.005  26.379  1.00  0.00     0.202 C 
ENDROOT
BRANCH   1   2
ATOM      2  C   UNL A   1      31.593  28.398  27.133  1.00  0.00     0.261 C 
BRANCH   2   3
ATOM      3  O   UNL A   1      31.763  26.975  27.257  1.00  0.00    -0.457 OA
BRANCH   3   4
ATOM      4  C   UNL A   1      31.612  26.255  26.110  1.00  0.00     0.374 C 
ATOM      5  O   UNL A   1      30.801  26.508  25.225  1.00  0.00    -0.242 OA
BRANCH   4   6
ATOM      6  C   UNL A   1      32.626  25.229  26.044  1.00  0.00     0.211 A 
ATOM      7  C   UNL A   1      33.321  23.136  26.176  1.00  0.00     0.124 A 
ATOM      8  C   UNL A   1      34.391  23.871  25.710  1.00  0.00     0.048 A 
ATOM      9  O   UNL A   1      32.260  23.960  26.398  1.00  0.00    -0.452 OA
ATOM     10  C   UNL A   1      33.942  25.213  25.611  1.00  0.00     0.058 A 
BRANCH   7  11
ATOM     11  C   UNL A   1      33.066  21.691  26.441  1.00  0.00     0.190 C 
BRANCH  11  12
ATOM     12  N   UNL A   1      32.020  21.078  25.633  1.00  0.00    -0.362 N 
ATOM     13  H   UNL A   1      31.121  21.479  25.601  1.00  0.00     0.162 HD
BRANCH  12  14
ATOM     14  C   UNL A   1      32.297  19.923  24.909  1.00  0.00     0.139 A 
ATOM     15  C   UNL A   1      32.782  16.376  25.788  1.00  0.00     0.067 C 
ATOM     16  C   UNL A   1      32.668  17.609  24.944  1.00  0.00     0.040 A 
ATOM     17  C   UNL A   1      32.761  17.546  23.564  1.00  0.00     0.024 A 
ATOM     18  N   UNL A   1      32.453  18.773  25.605  1.00  0.00    -0.236 NA
ATOM     19  C   UNL A   1      32.627  18.727  22.842  1.00  0.00     0.019 A 
ATOM     20  C   UNL A   1      32.402  19.937  23.511  1.00  0.00     0.081 A 
BRANCH  20  21
ATOM     21  C   UNL A   1      32.280  21.157  22.671  1.00  0.00     0.252 C 
ATOM     22  N   UNL A   1      31.529  21.081  21.533  1.00  0.00    -0.365 N 
ATOM     23  O   UNL A   1      32.809  22.213  22.997  1.00  0.00    -0.269 OA
ATOM     24  H   UNL A   1      31.108  20.228  21.277  1.00  0.00     0.159 HD
ATOM     25  H   UNL A   1      31.409  21.877  20.966  1.00  0.00     0.159 HD
ENDBRANCH  20  21
ENDBRANCH  12  14
ENDBRANCH  11  12
ENDBRANCH   7  11
ENDBRANCH   4   6
ENDBRANCH   3   4
ENDBRANCH   2   3
ENDBRANCH   1   2
BRANCH   1  26
ATOM     26  O   UNL A   1      32.750  30.433  26.301  1.00  0.00    -0.374 OA
BRANCH  26  27
ATOM     27  C   UNL A   1      31.457  31.040  26.355  1.00  0.00     0.202 C 
BRANCH  27  28
ATOM     28  C   UNL A   1      31.442  32.491  26.847  1.00  0.00     0.261 C 
BRANCH  28  29
ATOM     29  O   UNL A   1      32.735  33.105  26.691  1.00  0.00    -0.460 OA
BRANCH  29  30
ATOM     30  C   UNL A   1      33.235  33.676  27.814  1.00  0.00     0.338 C 
ATOM     31  O   UNL A   1      32.697  34.529  28.501  1.00  0.00    -0.246 OA
BRANCH  30  32
ATOM     32  C   UNL A   1      34.478  32.986  28.218  1.00  0.00     0.060 A 
ATOM     33  C   UNL A   1      34.358  31.674  28.692  1.00  0.00     0.016 A 
ATOM     34  C   UNL A   1      35.728  33.610  28.177  1.00  0.00     0.016 A 
ATOM     35  C   UNL A   1      35.479  30.997  29.172  1.00  0.00     0.010 A 
ATOM     36  C   UNL A   1      36.852  32.930  28.664  1.00  0.00     0.010 A 
ATOM     37  C   UNL A   1      36.727  31.633  29.193  1.00  0.00    -0.014 A 
BRANCH  37  38
ATOM     38  C   UNL A   1      37.864  30.990  29.899  1.00  0.00     0.031 A 
ATOM     39  C   UNL A   1      38.149  31.380  31.325  1.00  0.00     0.074 A 
ATOM     40  C   UNL A   1      38.610  30.050  29.293  1.00  0.00     0.049 A 
ATOM     41  N   UNL A   1      39.100  30.972  32.125  1.00  0.00    -0.248 NA
ATOM     42  C   UNL A   1      37.239  32.368  31.924  1.00  0.00     0.031 C 
ATOM     43  C   UNL A   1      38.404  29.560  27.931  1.00  0.00     0.029 A 
ATOM     44  N   UNL A   1      39.695  29.342  29.744  1.00  0.00    -0.354 N 
ATOM     45  C   UNL A   1      38.904  31.649  33.323  1.00  0.00     0.074 A 
ATOM     46  C   UNL A   1      37.767  32.526  33.128  1.00  0.00     0.031 C 
ATOM     47  C   UNL A   1      39.341  28.636  27.655  1.00  0.00     0.029 A 
ATOM     48  C   UNL A   1      40.232  28.495  28.805  1.00  0.00     0.049 A 
ATOM     49  H   UNL A   1      40.055  29.433  30.656  1.00  0.00     0.167 HD
ATOM     50  C   UNL A   1      39.600  31.544  34.482  1.00  0.00     0.034 A 
ATOM     51  C   UNL A   1      41.331  27.713  28.859  1.00  0.00     0.034 A 
ATOM     52  C   UNL A   1      40.739  30.676  34.659  1.00  0.00     0.049 A 
ATOM     53  C   UNL A   1      42.144  27.675  30.131  1.00  0.00     0.074 A 
ATOM     54  C   UNL A   1      41.509  30.482  35.793  1.00  0.00     0.029 A 
ATOM     55  N   UNL A   1      41.284  29.867  33.670  1.00  0.00    -0.354 N 
ATOM     56  N   UNL A   1      41.942  28.315  31.260  1.00  0.00    -0.248 NA
ATOM     57  C   UNL A   1      43.327  26.806  30.137  1.00  0.00     0.031 C 
ATOM     58  C   UNL A   1      42.556  29.611  35.471  1.00  0.00     0.029 A 
ATOM     59  C   UNL A   1      42.398  29.200  34.157  1.00  0.00     0.049 A 
ATOM     60  H   UNL A   1      40.930  29.779  32.755  1.00  0.00     0.167 HD
ATOM     61  C   UNL A   1      42.957  27.899  32.120  1.00  0.00     0.074 A 
ATOM     62  C   UNL A   1      43.761  26.946  31.380  1.00  0.00     0.031 C 
ATOM     63  C   UNL A   1      43.198  28.263  33.405  1.00  0.00     0.034 A 
BRANCH  50  64
ATOM     64  C   UNL A   1      39.174  32.430  35.627  1.00  0.00     0.023 A 
ATOM     65  C   UNL A   1      39.622  33.759  35.740  1.00  0.00     0.031 A 
ATOM     66  C   UNL A   1      38.336  31.930  36.639  1.00  0.00     0.131 A 
ATOM     67  C   UNL A   1      39.288  34.516  36.874  1.00  0.00     0.055 A 
ATOM     68  C   UNL A   1      37.944  32.714  37.726  1.00  0.00     0.041 A 
ATOM     69  F   UNL A   1      37.897  30.662  36.597  1.00  0.00    -0.206 F 
ATOM     70  C   UNL A   1      38.433  34.010  37.856  1.00  0.00     0.022 A 
BRANCH  67  71
ATOM     71  S   UNL A   1      40.102  36.119  37.117  1.00  0.00     0.124 S 
ATOM     72  O   UNL A   1      41.449  35.710  37.502  1.00  0.00    -0.237 OA
ATOM     73  O   UNL A   1      39.973  36.740  35.803  1.00  0.00    -0.237 OA
ATOM     74  O   UNL A   1      39.318  36.742  38.182  1.00  0.00    -0.744 OA
ENDBRANCH  67  71
ENDBRANCH  50  64
BRANCH  51  75
ATOM     75  C   UNL A   1      41.761  26.932  27.664  1.00  0.00     0.023 A 
ATOM     76  C   UNL A   1      41.537  25.548  27.580  1.00  0.00     0.031 A 
ATOM     77  C   UNL A   1      42.454  27.554  26.610  1.00  0.00     0.131 A 
ATOM     78  C   UNL A   1      42.043  24.825  26.488  1.00  0.00     0.055 A 
ATOM     79  C   UNL A   1      42.910  26.839  25.503  1.00  0.00     0.041 A 
ATOM     80  F   UNL A   1      42.693  28.875  26.642  1.00  0.00    -0.206 F 
ATOM     81  C   UNL A   1      42.716  25.463  25.443  1.00  0.00     0.022 A 
BRANCH  78  82
ATOM     82  S   UNL A   1      41.875  23.019  26.489  1.00  0.00     0.124 S 
ATOM     83  O   UNL A   1      42.719  22.642  25.360  1.00  0.00    -0.237 OA
ATOM     84  O   UNL A   1      42.380  22.669  27.812  1.00  0.00    -0.237 OA
ATOM     85  O   UNL A   1      40.441  22.810  26.296  1.00  0.00    -0.744 OA
ENDBRANCH  78  82
ENDBRANCH  51  75
BRANCH  63  86
ATOM     86  C   UNL A   1      44.356  27.591  34.103  1.00  0.00     0.023 A 
ATOM     87  C   UNL A   1      44.195  26.394  34.823  1.00  0.00     0.031 A 
ATOM     88  C   UNL A   1      45.640  28.165  34.053  1.00  0.00     0.131 A 
ATOM     89  C   UNL A   1      45.287  25.838  35.507  1.00  0.00     0.055 A 
ATOM     90  C   UNL A   1      46.733  27.578  34.688  1.00  0.00     0.041 A 
ATOM     91  F   UNL A   1      45.850  29.309  33.382  1.00  0.00    -0.206 F 
ATOM     92  C   UNL A   1      46.559  26.414  35.431  1.00  0.00     0.022 A 
BRANCH  89  93
ATOM     93  S   UNL A   1      45.008  24.394  36.570  1.00  0.00     0.124 S 
ATOM     94  O   UNL A   1      46.372  23.974  36.874  1.00  0.00    -0.237 OA
ATOM     95  O   UNL A   1      44.254  24.965  37.680  1.00  0.00    -0.237 OA
ATOM     96  O   UNL A   1      44.254  23.480  35.715  1.00  0.00    -0.744 OA
ENDBRANCH  89  93
ENDBRANCH  63  86
ENDBRANCH  37  38
ENDBRANCH  30  32
ENDBRANCH  29  30
ENDBRANCH  28  29
ENDBRANCH  27  28
ENDBRANCH  26  27
ENDBRANCH   1  26
TORSDOF 21
ENDMDL
MODEL 2
REMARK VINA RESULT:     -10.7      5.285     10.938
REMARK SMILES Cc1ccc(C(N)=O)c(NCc2ccc(C(=O)OCCOCCOC(=O)c3ccc(-c4c5nc(c(-c6cc(S(=O)(=O)[O-])ccc6F)c6ccc([nH]6)c(-c6cc(S(=O)(=O)[O-])ccc6F)c6nc(c(-c7cc(S(=O)(=O)[O-])ccc7F)c7ccc4[nH]7)C=C6)C=C5)cc3)o2)n1
REMARK SMILES IDX 20 1 19 2 18 3 16 4 17 5 15 6 12 7 13 8 90 9 14 10 11 11
REMARK SMILES IDX 10 12 9 14 1 15 2 16 3 17 91 18 4 19 5 20 6 21 7 22 8 23
REMARK SMILES IDX 21 26 22 27 23 28 24 29 25 30 26 31 27 32 28 33 89 34 29 35
REMARK SMILES IDX 88 36 30 37 31 38 32 39 82 40 33 41 87 42 81 43 83 44 34 45
REMARK SMILES IDX 86 46 80 47 79 48 35 50 67 51 47 52 66 53 48 54 51 55 65 56
REMARK SMILES IDX 84 57 49 58 50 59 64 61 85 62 52 63 36 64 37 65 45 66 38 67
REMARK SMILES IDX 44 68 46 69 43 70 39 71 40 72 41 73 42 74 68 75 69 76 77 77
REMARK SMILES IDX 70 78 76 79 78 80 75 81 71 82 72 83 73 84 74 85 53 86 54 87
REMARK SMILES IDX 62 88 55 89 61 90 63 91 60 92 56 93 57 94 58 95 59 96
REMARK H PARENT 10 13 7 24 7 25 83 49 51 60
REMARK Flexibility Score: inf
ROOT
ATOM      1  C   UNL A   1      37.056  21.958  24.203  1.00  0.00     0.202 C 
ENDROOT
BRANCH   1   2
ATOM      2  C   UNL A   1      35.612  21.890  24.710  1.00  0.00     0.261 C 
BRANCH   2   3
ATOM      3  O   UNL A   1      34.973  23.169  24.552  1.00  0.00    -0.457 OA
BRANCH   3   4
ATOM      4  C   UNL A   1      33.701  23.261  25.034  1.00  0.00     0.374 C 
ATOM      5  O   UNL A   1      33.308  22.752  26.078  1.00  0.00    -0.242 OA
BRANCH   4   6
ATOM      6  C   UNL A   1      32.927  24.144  24.193  1.00  0.00     0.211 A 
ATOM      7  C   UNL A   1      32.716  25.681  22.620  1.00  0.00     0.124 A 
ATOM      8  C   UNL A   1      31.437  25.271  22.935  1.00  0.00     0.048 A 
ATOM      9  O   UNL A   1      33.616  25.016  23.395  1.00  0.00    -0.452 OA
ATOM     10  C   UNL A   1      31.572  24.273  23.935  1.00  0.00     0.058 A 
BRANCH   7  11
ATOM     11  C   UNL A   1      33.310  26.625  21.629  1.00  0.00     0.190 C 
BRANCH  11  12
ATOM     12  N   UNL A   1      33.275  28.033  22.002  1.00  0.00    -0.362 N 
ATOM     13  H   UNL A   1      33.576  28.721  21.366  1.00  0.00     0.162 HD
BRANCH  12  14
ATOM     14  C   UNL A   1      32.814  28.399  23.263  1.00  0.00     0.139 A 
ATOM     15  C   UNL A   1      34.305  28.488  26.632  1.00  0.00     0.067 C 
ATOM     16  C   UNL A   1      33.287  28.644  25.545  1.00  0.00     0.040 A 
ATOM     17  C   UNL A   1      32.036  29.182  25.803  1.00  0.00     0.024 A 
ATOM     18  N   UNL A   1      33.664  28.250  24.305  1.00  0.00    -0.236 NA
ATOM     19  C   UNL A   1      31.147  29.316  24.743  1.00  0.00     0.019 A 
ATOM     20  C   UNL A   1      31.524  28.915  23.455  1.00  0.00     0.081 A 
BRANCH  20  21
ATOM     21  C   UNL A   1      30.516  29.080  22.376  1.00  0.00     0.252 C 
ATOM     22  N   UNL A   1      30.637  30.156  21.543  1.00  0.00    -0.365 N 
ATOM     23  O   UNL A   1      29.616  28.264  22.212  1.00  0.00    -0.269 OA
ATOM     24  H   UNL A   1      31.363  30.807  21.682  1.00  0.00     0.159 HD
ATOM     25  H   UNL A   1      29.999  30.281  20.805  1.00  0.00     0.159 HD
ENDBRANCH  20  21
ENDBRANCH  12  14
ENDBRANCH  11  12
ENDBRANCH   7  11
ENDBRANCH   4   6
ENDBRANCH   3   4
ENDBRANCH   2   3
ENDBRANCH   1   2
BRANCH   1  26
ATOM     26  O   UNL A   1      38.002  21.303  25.052  1.00  0.00    -0.374 OA
BRANCH  26  27
ATOM     27  C   UNL A   1      38.115  19.887  24.894  1.00  0.00     0.202 C 
BRANCH  27  28
ATOM     28  C   UNL A   1      39.173  19.218  25.779  1.00  0.00     0.261 C 
BRANCH  28  29
ATOM     29  O   UNL A   1      40.503  19.594  25.371  1.00  0.00    -0.460 OA
BRANCH  29  30
ATOM     30  C   UNL A   1      41.395  19.724  26.384  1.00  0.00     0.338 C 
ATOM     31  O   UNL A   1      42.135  18.858  26.819  1.00  0.00    -0.246 OA
BRANCH  30  32
ATOM     32  C   UNL A   1      41.490  21.141  26.791  1.00  0.00     0.060 A 
ATOM     33  C   UNL A   1      41.285  22.108  25.800  1.00  0.00     0.016 A 
ATOM     34  C   UNL A   1      41.811  21.524  28.096  1.00  0.00     0.016 A 
ATOM     35  C   UNL A   1      41.448  23.461  26.097  1.00  0.00     0.010 A 
ATOM     36  C   UNL A   1      41.979  22.884  28.391  1.00  0.00     0.010 A 
ATOM     37  C   UNL A   1      41.829  23.855  27.386  1.00  0.00    -0.014 A 
BRANCH  37  38
ATOM     38  C   UNL A   1      42.207  25.269  27.637  1.00  0.00     0.031 A 
ATOM     39  C   UNL A   1      43.559  25.752  27.184  1.00  0.00     0.074 A 
ATOM     40  C   UNL A   1      41.349  26.120  28.227  1.00  0.00     0.049 A 
ATOM     41  N   UNL A   1      44.110  26.930  27.319  1.00  0.00    -0.248 NA
ATOM     42  C   UNL A   1      44.403  24.768  26.489  1.00  0.00     0.031 C 
ATOM     43  C   UNL A   1      39.998  25.779  28.671  1.00  0.00     0.029 A 
ATOM     44  N   UNL A   1      41.489  27.443  28.560  1.00  0.00    -0.354 N 
ATOM     45  C   UNL A   1      45.364  26.833  26.726  1.00  0.00     0.074 A 
ATOM     46  C   UNL A   1      45.505  25.466  26.267  1.00  0.00     0.031 C 
ATOM     47  C   UNL A   1      39.436  26.867  29.227  1.00  0.00     0.029 A 
ATOM     48  C   UNL A   1      40.397  27.968  29.210  1.00  0.00     0.049 A 
ATOM     49  H   UNL A   1      42.295  27.968  28.352  1.00  0.00     0.167 HD
ATOM     50  C   UNL A   1      46.307  27.795  26.568  1.00  0.00     0.034 A 
ATOM     51  C   UNL A   1      40.205  29.190  29.750  1.00  0.00     0.034 A 
ATOM     52  C   UNL A   1      46.158  29.150  27.042  1.00  0.00     0.049 A 
ATOM     53  C   UNL A   1      41.302  30.221  29.641  1.00  0.00     0.074 A 
ATOM     54  C   UNL A   1      47.044  30.207  26.924  1.00  0.00     0.029 A 
ATOM     55  N   UNL A   1      45.058  29.633  27.738  1.00  0.00    -0.354 N 
ATOM     56  N   UNL A   1      42.480  30.118  29.069  1.00  0.00    -0.248 NA
ATOM     57  C   UNL A   1      41.040  31.535  30.243  1.00  0.00     0.031 C 
ATOM     58  C   UNL A   1      46.510  31.307  27.607  1.00  0.00     0.029 A 
ATOM     59  C   UNL A   1      45.257  30.961  28.086  1.00  0.00     0.049 A 
ATOM     60  H   UNL A   1      44.252  29.109  27.954  1.00  0.00     0.167 HD
ATOM     61  C   UNL A   1      43.085  31.365  29.217  1.00  0.00     0.074 A 
ATOM     62  C   UNL A   1      42.137  32.204  29.922  1.00  0.00     0.031 C 
ATOM     63  C   UNL A   1      44.309  31.782  28.801  1.00  0.00     0.034 A 
BRANCH  50  64
ATOM     64  C   UNL A   1      47.599  27.394  25.900  1.00  0.00     0.023 A 
ATOM     65  C   UNL A   1      47.832  27.634  24.534  1.00  0.00     0.031 A 
ATOM     66  C   UNL A   1      48.599  26.729  26.632  1.00  0.00     0.131 A 
ATOM     67  C   UNL A   1      49.002  27.151  23.928  1.00  0.00     0.055 A 
ATOM     68  C   UNL A   1      49.796  26.320  26.040  1.00  0.00     0.041 A 
ATOM     69  F   UNL A   1      48.423  26.451  27.933  1.00  0.00    -0.206 F 
ATOM     70  C   UNL A   1      49.996  26.516  24.677  1.00  0.00     0.022 A 
BRANCH  67  71
ATOM     71  S   UNL A   1      49.143  27.238  22.122  1.00  0.00     0.124 S 
ATOM     72  O   UNL A   1      48.517  25.982  21.717  1.00  0.00    -0.237 OA
ATOM     73  O   UNL A   1      48.401  28.453  21.806  1.00  0.00    -0.237 OA
ATOM     74  O   UNL A   1      50.585  27.309  21.894  1.00  0.00    -0.744 OA
ENDBRANCH  67  71
ENDBRANCH  50  64
BRANCH  51  75
ATOM     75  C   UNL A   1      38.946  29.501  30.484  1.00  0.00     0.023 A 
ATOM     76  C   UNL A   1      37.972  30.349  29.933  1.00  0.00     0.031 A 
ATOM     77  C   UNL A   1      38.725  28.994  31.778  1.00  0.00     0.131 A 
ATOM     78  C   UNL A   1      36.844  30.702  30.691  1.00  0.00     0.055 A 
ATOM     79  C   UNL A   1      37.578  29.308  32.507  1.00  0.00     0.041 A 
ATOM     80  F   UNL A   1      39.624  28.179  32.350  1.00  0.00    -0.206 F 
ATOM     81  C   UNL A   1      36.635  30.177  31.968  1.00  0.00     0.022 A 
BRANCH  78  82
ATOM     82  S   UNL A   1      35.688  31.923  30.011  1.00  0.00     0.124 S 
ATOM     83  O   UNL A   1      36.591  33.000  29.619  1.00  0.00    -0.237 OA
ATOM     84  O   UNL A   1      35.066  31.178  28.922  1.00  0.00    -0.237 OA
ATOM     85  O   UNL A   1      34.809  32.224  31.139  1.00  0.00    -0.744 OA
ENDBRANCH  78  82
ENDBRANCH  51  75
BRANCH  63  86
ATOM     86  C   UNL A   1      44.668  33.225  29.062  1.00  0.00     0.023 A 
ATOM     87  C   UNL A   1      44.111  34.275  28.312  1.00  0.00     0.031 A 
ATOM     88  C   UNL A   1      45.589  33.550  30.074  1.00  0.00     0.131 A 
ATOM     89  C   UNL A   1      44.520  35.597  28.549  1.00  0.00     0.055 A 
ATOM     90  C   UNL A   1      45.950  34.871  30.343  1.00  0.00     0.041 A 
ATOM     91  F   UNL A   1      46.153  32.587  30.820  1.00  0.00    -0.206 F 
ATOM     92  C   UNL A   1      45.425  35.903  29.571  1.00  0.00     0.022 A 
BRANCH  89  93
ATOM     93  S   UNL A   1      43.920  36.908  27.448  1.00  0.00     0.124 S 
ATOM     94  O   UNL A   1      43.001  37.636  28.317  1.00  0.00    -0.237 OA
ATOM     95  O   UNL A   1      45.150  37.607  27.094  1.00  0.00    -0.237 OA
ATOM     96  O   UNL A   1      43.287  36.174  26.354  1.00  0.00    -0.744 OA
ENDBRANCH  89  93
ENDBRANCH  63  86
ENDBRANCH  37  38
ENDBRANCH  30  32
ENDBRANCH  29  30
ENDBRANCH  28  29
ENDBRANCH  27  28
ENDBRANCH  26  27
ENDBRANCH   1  26
TORSDOF 21
ENDMDL
MODEL 3
REMARK VINA RESULT:     -10.4      2.064      2.577
REMARK SMILES Cc1ccc(C(N)=O)c(NCc2ccc(C(=O)OCCOCCOC(=O)c3ccc(-c4c5nc(c(-c6cc(S(=O)(=O)[O-])ccc6F)c6ccc([nH]6)c(-c6cc(S(=O)(=O)[O-])ccc6F)c6nc(c(-c7cc(S(=O)(=O)[O-])ccc7F)c7ccc4[nH]7)C=C6)C=C5)cc3)o2)n1
REMARK SMILES IDX 20 1 19 2 18 3 16 4 17 5 15 6 12 7 13 8 90 9 14 10 11 11
REMARK SMILES IDX 10 12 9 14 1 15 2 16 3 17 91 18 4 19 5 20 6 21 7 22 8 23
REMARK SMILES IDX 21 26 22 27 23 28 24 29 25 30 26 31 27 32 28 33 89 34 29 35
REMARK SMILES IDX 88 36 30 37 31 38 32 39 82 40 33 41 87 42 81 43 83 44 34 45
REMARK SMILES IDX 86 46 80 47 79 48 35 50 67 51 47 52 66 53 48 54 51 55 65 56
REMARK SMILES IDX 84 57 49 58 50 59 64 61 85 62 52 63 36 64 37 65 45 66 38 67
REMARK SMILES IDX 44 68 46 69 43 70 39 71 40 72 41 73 42 74 68 75 69 76 77 77
REMARK SMILES IDX 70 78 76 79 78 80 75 81 71 82 72 83 73 84 74 85 53 86 54 87
REMARK SMILES IDX 62 88 55 89 61 90 63 91 60 92 56 93 57 94 58 95 59 96
REMARK H PARENT 10 13 7 24 7 25 83 49 51 60
REMARK Flexibility Score: inf
ROOT
ATOM      1  C   UNL A   1      34.151  29.866  27.149  1.00  0.00     0.202 C 
ENDROOT
BRANCH   1   2
ATOM      2  C   UNL A   1      33.145  29.121  26.267  1.00  0.00     0.261 C 
BRANCH   2   3
ATOM      3  O   UNL A   1      33.028  27.753  26.699  1.00  0.00    -0.457 OA
BRANCH   3   4
ATOM      4  C   UNL A   1      31.786  27.362  27.101  1.00  0.00     0.374 C 
ATOM      5  O   UNL A   1      31.026  28.037  27.787  1.00  0.00    -0.242 OA
BRANCH   4   6
ATOM      6  C   UNL A   1      31.462  26.088  26.501  1.00  0.00     0.211 A 
ATOM      7  C   UNL A   1      31.611  23.890  26.347  1.00  0.00     0.124 A 
ATOM      8  C   UNL A   1      30.635  24.275  25.452  1.00  0.00     0.048 A 
ATOM      9  O   UNL A   1      32.127  24.987  26.966  1.00  0.00    -0.452 OA
ATOM     10  C   UNL A   1      30.528  25.686  25.561  1.00  0.00     0.058 A 
BRANCH   7  11
ATOM     11  C   UNL A   1      32.177  22.585  26.797  1.00  0.00     0.190 C 
BRANCH  11  12
ATOM     12  N   UNL A   1      33.249  22.045  25.971  1.00  0.00    -0.362 N 
ATOM     13  H   UNL A   1      34.143  22.457  25.990  1.00  0.00     0.162 HD
BRANCH  12  14
ATOM     14  C   UNL A   1      33.003  20.946  25.155  1.00  0.00     0.139 A 
ATOM     15  C   UNL A   1      32.558  17.336  25.751  1.00  0.00     0.067 C 
ATOM     16  C   UNL A   1      32.651  18.633  25.009  1.00  0.00     0.040 A 
ATOM     17  C   UNL A   1      32.428  18.698  23.643  1.00  0.00     0.024 A 
ATOM     18  N   UNL A   1      32.944  19.731  25.748  1.00  0.00    -0.236 NA
ATOM     19  C   UNL A   1      32.512  19.938  23.021  1.00  0.00     0.019 A 
ATOM     20  C   UNL A   1      32.811  21.082  23.773  1.00  0.00     0.081 A 
BRANCH  20  21
ATOM     21  C   UNL A   1      32.893  22.370  23.036  1.00  0.00     0.252 C 
ATOM     22  N   UNL A   1      31.777  22.807  22.382  1.00  0.00    -0.365 N 
ATOM     23  O   UNL A   1      33.919  23.041  23.034  1.00  0.00    -0.269 OA
ATOM     24  H   UNL A   1      30.957  22.261  22.388  1.00  0.00     0.159 HD
ATOM     25  H   UNL A   1      31.791  23.667  21.903  1.00  0.00     0.159 HD
ENDBRANCH  20  21
ENDBRANCH  12  14
ENDBRANCH  11  12
ENDBRANCH   7  11
ENDBRANCH   4   6
ENDBRANCH   3   4
ENDBRANCH   2   3
ENDBRANCH   1   2
BRANCH   1  26
ATOM     26  O   UNL A   1      33.728  31.178  27.532  1.00  0.00    -0.374 OA
BRANCH  26  27
ATOM     27  C   UNL A   1      32.404  31.551  27.144  1.00  0.00     0.202 C 
BRANCH  27  28
ATOM     28  C   UNL A   1      32.095  33.048  27.251  1.00  0.00     0.261 C 
BRANCH  28  29
ATOM     29  O   UNL A   1      33.293  33.810  27.491  1.00  0.00    -0.460 OA
BRANCH  29  30
ATOM     30  C   UNL A   1      33.328  34.458  28.681  1.00  0.00     0.338 C 
ATOM     31  O   UNL A   1      32.514  35.265  29.097  1.00  0.00    -0.246 OA
BRANCH  30  32
ATOM     32  C   UNL A   1      34.418  33.914  29.517  1.00  0.00     0.060 A 
ATOM     33  C   UNL A   1      35.729  34.267  29.173  1.00  0.00     0.016 A 
ATOM     34  C   UNL A   1      34.179  33.047  30.588  1.00  0.00     0.016 A 
ATOM     35  C   UNL A   1      36.807  33.718  29.866  1.00  0.00     0.010 A 
ATOM     36  C   UNL A   1      35.265  32.493  31.279  1.00  0.00     0.010 A 
ATOM     37  C   UNL A   1      36.583  32.801  30.900  1.00  0.00    -0.014 A 
BRANCH  37  38
ATOM     38  C   UNL A   1      37.732  32.062  31.485  1.00  0.00     0.031 A 
ATOM     39  C   UNL A   1      38.245  32.471  32.840  1.00  0.00     0.074 A 
ATOM     40  C   UNL A   1      38.287  31.024  30.836  1.00  0.00     0.049 A 
ATOM     41  N   UNL A   1      39.247  31.989  33.529  1.00  0.00    -0.248 NA
ATOM     42  C   UNL A   1      37.533  33.574  33.501  1.00  0.00     0.031 C 
ATOM     43  C   UNL A   1      37.849  30.509  29.539  1.00  0.00     0.029 A 
ATOM     44  N   UNL A   1      39.343  30.217  31.178  1.00  0.00    -0.354 N 
ATOM     45  C   UNL A   1      39.286  32.728  34.706  1.00  0.00     0.074 A 
ATOM     46  C   UNL A   1      38.232  33.717  34.616  1.00  0.00     0.031 C 
ATOM     47  C   UNL A   1      38.638  29.478  29.191  1.00  0.00     0.029 A 
ATOM     48  C   UNL A   1      39.656  29.282  30.221  1.00  0.00     0.049 A 
ATOM     49  H   UNL A   1      39.830  30.301  32.030  1.00  0.00     0.167 HD
ATOM     50  C   UNL A   1      40.117  32.589  35.769  1.00  0.00     0.034 A 
ATOM     51  C   UNL A   1      40.664  28.385  30.173  1.00  0.00     0.034 A 
ATOM     52  C   UNL A   1      41.173  31.607  35.841  1.00  0.00     0.049 A 
ATOM     53  C   UNL A   1      41.632  28.305  31.328  1.00  0.00     0.074 A 
ATOM     54  C   UNL A   1      42.063  31.371  36.874  1.00  0.00     0.029 A 
ATOM     55  N   UNL A   1      41.491  30.707  34.832  1.00  0.00    -0.354 N 
ATOM     56  N   UNL A   1      41.652  29.004  32.440  1.00  0.00    -0.248 NA
ATOM     57  C   UNL A   1      42.708  27.310  31.225  1.00  0.00     0.031 C 
ATOM     58  C   UNL A   1      42.961  30.378  36.464  1.00  0.00     0.029 A 
ATOM     59  C   UNL A   1      42.585  29.939  35.204  1.00  0.00     0.049 A 
ATOM     60  H   UNL A   1      41.010  30.626  33.977  1.00  0.00     0.167 HD
ATOM     61  C   UNL A   1      42.724  28.510  33.180  1.00  0.00     0.074 A 
ATOM     62  C   UNL A   1      43.317  27.448  32.393  1.00  0.00     0.031 C 
ATOM     63  C   UNL A   1      43.174  28.892  34.403  1.00  0.00     0.034 A 
BRANCH  50  64
ATOM     64  C   UNL A   1      39.945  33.559  36.912  1.00  0.00     0.023 A 
ATOM     65  C   UNL A   1      39.335  33.177  38.122  1.00  0.00     0.031 A 
ATOM     66  C   UNL A   1      40.364  34.894  36.779  1.00  0.00     0.131 A 
ATOM     67  C   UNL A   1      39.099  34.136  39.119  1.00  0.00     0.055 A 
ATOM     68  C   UNL A   1      40.197  35.825  37.807  1.00  0.00     0.041 A 
ATOM     69  F   UNL A   1      40.931  35.322  35.641  1.00  0.00    -0.206 F 
ATOM     70  C   UNL A   1      39.547  35.451  38.979  1.00  0.00     0.022 A 
BRANCH  67  71
ATOM     71  S   UNL A   1      38.072  33.672  40.541  1.00  0.00     0.124 S 
ATOM     72  O   UNL A   1      37.834  34.970  41.168  1.00  0.00    -0.237 OA
ATOM     73  O   UNL A   1      36.917  33.047  39.905  1.00  0.00    -0.237 OA
ATOM     74  O   UNL A   1      38.930  32.768  41.303  1.00  0.00    -0.744 OA
ENDBRANCH  67  71
ENDBRANCH  50  64
BRANCH  51  75
ATOM     75  C   UNL A   1      40.845  27.518  28.974  1.00  0.00     0.023 A 
ATOM     76  C   UNL A   1      41.831  27.798  28.015  1.00  0.00     0.031 A 
ATOM     77  C   UNL A   1      39.991  26.423  28.743  1.00  0.00     0.131 A 
ATOM     78  C   UNL A   1      41.911  27.021  26.848  1.00  0.00     0.055 A 
ATOM     79  C   UNL A   1      40.106  25.624  27.605  1.00  0.00     0.041 A 
ATOM     80  F   UNL A   1      39.031  26.113  29.629  1.00  0.00    -0.206 F 
ATOM     81  C   UNL A   1      41.064  25.929  26.643  1.00  0.00     0.022 A 
BRANCH  78  82
ATOM     82  S   UNL A   1      43.091  27.508  25.559  1.00  0.00     0.124 S 
ATOM     83  O   UNL A   1      44.066  28.277  26.325  1.00  0.00    -0.237 OA
ATOM     84  O   UNL A   1      43.544  26.214  25.059  1.00  0.00    -0.237 OA
ATOM     85  O   UNL A   1      42.275  28.283  24.627  1.00  0.00    -0.744 OA
ENDBRANCH  78  82
ENDBRANCH  51  75
BRANCH  63  86
ATOM     86  C   UNL A   1      44.338  28.122  34.979  1.00  0.00     0.023 A 
ATOM     87  C   UNL A   1      44.151  27.041  35.857  1.00  0.00     0.031 A 
ATOM     88  C   UNL A   1      45.656  28.485  34.646  1.00  0.00     0.131 A 
ATOM     89  C   UNL A   1      45.264  26.394  36.416  1.00  0.00     0.055 A 
ATOM     90  C   UNL A   1      46.758  27.801  35.161  1.00  0.00     0.041 A 
ATOM     91  F   UNL A   1      45.893  29.510  33.813  1.00  0.00    -0.206 F 
ATOM     92  C   UNL A   1      46.567  26.757  36.060  1.00  0.00     0.022 A 
BRANCH  89  93
ATOM     93  S   UNL A   1      44.991  25.122  37.681  1.00  0.00     0.124 S 
ATOM     94  O   UNL A   1      44.285  25.871  38.715  1.00  0.00    -0.237 OA
ATOM     95  O   UNL A   1      44.202  24.129  36.961  1.00  0.00    -0.237 OA
ATOM     96  O   UNL A   1      46.344  24.698  38.038  1.00  0.00    -0.744 OA
ENDBRANCH  89  93
ENDBRANCH  63  86
ENDBRANCH  37  38
ENDBRANCH  30  32
ENDBRANCH  29  30
ENDBRANCH  28  29
ENDBRANCH  27  28
ENDBRANCH  26  27
ENDBRANCH   1  26
TORSDOF 21
ENDMDL
