MODEL 1
REMARK VINA RESULT:     -11.7      0.000      0.000
REMARK SMILES Cc1c(Cl)cccc1NC(=O)C[C@](C)(C(=O)OCCOCCOC(=O)c1ccc(-c2c3nc(c(-c4cc(S(=O)(=O)[O-])ccc4F)c4ccc([nH]4)c(-c4cc(S(=O)(=O)[O-])ccc4F)c4nc(c(-c5cc(S(=O)(=O)[O-])ccc5F)c5ccc2[nH]5)C=C4)C=C3)cc1)c1ccccc1
REMARK SMILES IDX 20 1 19 2 18 3 17 4 15 5 16 6 13 7 14 8 12 9 10 10 9 11
REMARK SMILES IDX 11 13 8 14 1 15 2 16 3 17 4 18 5 19 7 20 6 21 89 22 90 23
REMARK SMILES IDX 94 24 91 25 93 26 92 27 21 28 22 29 23 30 24 31 25 32 26 33
REMARK SMILES IDX 27 34 88 35 28 36 87 37 29 38 30 39 31 40 81 41 32 42 86 43
REMARK SMILES IDX 80 44 82 45 33 46 85 47 79 48 78 49 34 51 66 52 46 53 65 54
REMARK SMILES IDX 47 55 50 56 64 57 83 58 48 59 49 60 63 62 84 63 51 64 35 65
REMARK SMILES IDX 36 66 44 67 37 68 43 69 45 70 42 71 38 72 39 73 40 74 41 75
REMARK SMILES IDX 67 76 68 77 76 78 69 79 75 80 77 81 74 82 70 83 71 84 72 85
REMARK SMILES IDX 73 86 52 87 53 88 61 89 54 90 60 91 62 92 59 93 55 94 56 95
REMARK SMILES IDX 57 96 58 97
REMARK H PARENT 9 12 82 50 50 61
REMARK Flexibility Score: inf
ROOT
ATOM      1  O   UNL A   1      34.403  19.408  24.713  1.00  0.00    -0.374 OA
ENDROOT
BRANCH   1   2
ATOM      2  C   UNL A   1      33.151  19.503  25.394  1.00  0.00     0.202 C 
BRANCH   2   3
ATOM      3  C   UNL A   1      32.264  20.684  24.997  1.00  0.00     0.261 C 
BRANCH   3   4
ATOM      4  O   UNL A   1      32.330  21.724  25.987  1.00  0.00    -0.463 OA
BRANCH   4   5
ATOM      5  C   UNL A   1      32.028  22.979  25.559  1.00  0.00     0.316 C 
ATOM      6  O   UNL A   1      30.883  23.355  25.333  1.00  0.00    -0.251 OA
BRANCH   5   7
ATOM      7  C   UNL A   1      33.277  23.890  25.422  1.00  0.00     0.099 C 
ATOM      8  C   UNL A   1      34.461  23.447  26.335  1.00  0.00     0.029 C 
BRANCH   7   9
ATOM      9  C   UNL A   1      33.759  23.879  23.933  1.00  0.00     0.123 C 
BRANCH   9  10
ATOM     10  C   UNL A   1      32.780  23.508  22.831  1.00  0.00     0.225 C 
ATOM     11  N   UNL A   1      31.820  24.342  22.351  1.00  0.00    -0.326 N 
ATOM     12  H   UNL A   1      31.336  23.972  21.577  1.00  0.00     0.169 HD
ATOM     13  O   UNL A   1      32.853  22.387  22.311  1.00  0.00    -0.275 OA
BRANCH  11  14
ATOM     14  C   UNL A   1      31.372  25.620  22.720  1.00  0.00     0.045 A 
ATOM     15  C   UNL A   1      33.511  26.663  21.722  1.00  0.00     0.048 C 
ATOM     16  C   UNL A   1      32.210  26.732  22.486  1.00  0.00    -0.009 A 
ATOM     17  C   UNL A   1      31.838  27.970  23.041  1.00  0.00     0.046 A 
ATOM     18  Cl  UNL A   1      32.965  29.283  23.067  1.00  0.00    -0.084 Cl
ATOM     19  C   UNL A   1      30.604  28.144  23.662  1.00  0.00     0.021 A 
ATOM     20  C   UNL A   1      30.122  25.814  23.320  1.00  0.00     0.026 A 
ATOM     21  C   UNL A   1      29.732  27.071  23.780  1.00  0.00     0.004 A 
ENDBRANCH  11  14
ENDBRANCH   9  10
ENDBRANCH   7   9
BRANCH   7  22
ATOM     22  C   UNL A   1      32.964  25.351  25.883  1.00  0.00    -0.030 A 
ATOM     23  C   UNL A   1      33.926  26.370  25.711  1.00  0.00     0.005 A 
ATOM     24  C   UNL A   1      31.773  25.699  26.545  1.00  0.00     0.005 A 
ATOM     25  C   UNL A   1      33.695  27.674  26.158  1.00  0.00     0.000 A 
ATOM     26  C   UNL A   1      31.539  27.006  26.986  1.00  0.00     0.000 A 
ATOM     27  C   UNL A   1      32.498  27.993  26.791  1.00  0.00     0.000 A 
ENDBRANCH   7  22
ENDBRANCH   5   7
ENDBRANCH   4   5
ENDBRANCH   3   4
ENDBRANCH   2   3
ENDBRANCH   1   2
BRANCH   1  28
ATOM     28  C   UNL A   1      35.375  20.412  24.989  1.00  0.00     0.202 C 
BRANCH  28  29
ATOM     29  C   UNL A   1      36.856  20.002  24.981  1.00  0.00     0.261 C 
BRANCH  29  30
ATOM     30  O   UNL A   1      37.793  21.094  25.017  1.00  0.00    -0.460 OA
BRANCH  30  31
ATOM     31  C   UNL A   1      38.908  20.848  25.751  1.00  0.00     0.338 C 
ATOM     32  O   UNL A   1      39.493  19.771  25.844  1.00  0.00    -0.246 OA
BRANCH  31  33
ATOM     33  C   UNL A   1      39.445  22.088  26.345  1.00  0.00     0.060 A 
ATOM     34  C   UNL A   1      38.789  23.290  26.056  1.00  0.00     0.016 A 
ATOM     35  C   UNL A   1      40.636  22.099  27.079  1.00  0.00     0.016 A 
ATOM     36  C   UNL A   1      39.337  24.507  26.472  1.00  0.00     0.010 A 
ATOM     37  C   UNL A   1      41.185  23.323  27.493  1.00  0.00     0.010 A 
ATOM     38  C   UNL A   1      40.553  24.539  27.170  1.00  0.00    -0.014 A 
BRANCH  38  39
ATOM     39  C   UNL A   1      41.237  25.849  27.366  1.00  0.00     0.031 A 
ATOM     40  C   UNL A   1      40.567  26.880  28.231  1.00  0.00     0.074 A 
ATOM     41  C   UNL A   1      42.456  26.105  26.855  1.00  0.00     0.049 A 
ATOM     42  N   UNL A   1      40.988  28.066  28.585  1.00  0.00    -0.248 NA
ATOM     43  C   UNL A   1      39.231  26.533  28.737  1.00  0.00     0.031 C 
ATOM     44  C   UNL A   1      43.187  25.207  25.976  1.00  0.00     0.029 A 
ATOM     45  N   UNL A   1      43.307  27.173  27.009  1.00  0.00    -0.354 N 
ATOM     46  C   UNL A   1      39.963  28.615  29.345  1.00  0.00     0.074 A 
ATOM     47  C   UNL A   1      38.882  27.651  29.352  1.00  0.00     0.031 C 
ATOM     48  C   UNL A   1      44.407  25.709  25.729  1.00  0.00     0.029 A 
ATOM     49  C   UNL A   1      44.521  27.014  26.371  1.00  0.00     0.049 A 
ATOM     50  H   UNL A   1      43.073  27.978  27.525  1.00  0.00     0.167 HD
ATOM     51  C   UNL A   1      39.930  29.808  29.988  1.00  0.00     0.034 A 
ATOM     52  C   UNL A   1      45.592  27.833  26.299  1.00  0.00     0.034 A 
ATOM     53  C   UNL A   1      41.009  30.765  29.954  1.00  0.00     0.049 A 
ATOM     54  C   UNL A   1      45.516  29.174  26.990  1.00  0.00     0.074 A 
ATOM     55  C   UNL A   1      41.080  32.006  30.560  1.00  0.00     0.029 A 
ATOM     56  N   UNL A   1      42.206  30.591  29.270  1.00  0.00    -0.354 N 
ATOM     57  N   UNL A   1      44.539  29.680  27.709  1.00  0.00    -0.248 NA
ATOM     58  C   UNL A   1      46.679  30.061  26.851  1.00  0.00     0.031 C 
ATOM     59  C   UNL A   1      42.285  32.609  30.188  1.00  0.00     0.029 A 
ATOM     60  C   UNL A   1      43.010  31.711  29.420  1.00  0.00     0.049 A 
ATOM     61  H   UNL A   1      42.450  29.788  28.754  1.00  0.00     0.167 HD
ATOM     62  C   UNL A   1      44.983  30.931  28.127  1.00  0.00     0.074 A 
ATOM     63  C   UNL A   1      46.320  31.095  27.597  1.00  0.00     0.031 C 
ATOM     64  C   UNL A   1      44.341  31.862  28.880  1.00  0.00     0.034 A 
BRANCH  51  65
ATOM     65  C   UNL A   1      38.657  30.147  30.723  1.00  0.00     0.023 A 
ATOM     66  C   UNL A   1      37.584  30.791  30.079  1.00  0.00     0.031 A 
ATOM     67  C   UNL A   1      38.543  29.901  32.102  1.00  0.00     0.131 A 
ATOM     68  C   UNL A   1      36.495  31.254  30.830  1.00  0.00     0.055 A 
ATOM     69  C   UNL A   1      37.410  30.278  32.825  1.00  0.00     0.041 A 
ATOM     70  F   UNL A   1      39.545  29.316  32.778  1.00  0.00    -0.206 F 
ATOM     71  C   UNL A   1      36.387  30.978  32.194  1.00  0.00     0.022 A 
BRANCH  68  72
ATOM     72  S   UNL A   1      35.316  32.381  30.034  1.00  0.00     0.124 S 
ATOM     73  O   UNL A   1      34.814  31.553  28.939  1.00  0.00    -0.237 OA
ATOM     74  O   UNL A   1      34.372  32.661  31.109  1.00  0.00    -0.237 OA
ATOM     75  O   UNL A   1      36.146  33.510  29.621  1.00  0.00    -0.744 OA
ENDBRANCH  68  72
ENDBRANCH  51  65
BRANCH  52  76
ATOM     76  C   UNL A   1      46.809  27.450  25.518  1.00  0.00     0.023 A 
ATOM     77  C   UNL A   1      46.985  27.865  24.186  1.00  0.00     0.031 A 
ATOM     78  C   UNL A   1      47.788  26.604  26.070  1.00  0.00     0.131 A 
ATOM     79  C   UNL A   1      48.083  27.399  23.441  1.00  0.00     0.055 A 
ATOM     80  C   UNL A   1      48.911  26.195  25.346  1.00  0.00     0.041 A 
ATOM     81  F   UNL A   1      47.672  26.163  27.333  1.00  0.00    -0.206 F 
ATOM     82  C   UNL A   1      49.055  26.581  24.018  1.00  0.00     0.022 A 
BRANCH  79  83
ATOM     83  S   UNL A   1      48.173  27.796  21.671  1.00  0.00     0.124 S 
ATOM     84  O   UNL A   1      48.337  26.473  21.079  1.00  0.00    -0.237 OA
ATOM     85  O   UNL A   1      46.890  28.449  21.440  1.00  0.00    -0.237 OA
ATOM     86  O   UNL A   1      49.341  28.670  21.578  1.00  0.00    -0.744 OA
ENDBRANCH  79  83
ENDBRANCH  52  76
BRANCH  64  87
ATOM     87  C   UNL A   1      45.110  33.116  29.223  1.00  0.00     0.023 A 
ATOM     88  C   UNL A   1      45.069  34.263  28.410  1.00  0.00     0.031 A 
ATOM     89  C   UNL A   1      45.907  33.155  30.382  1.00  0.00     0.131 A 
ATOM     90  C   UNL A   1      45.856  35.378  28.737  1.00  0.00     0.055 A 
ATOM     91  C   UNL A   1      46.636  34.290  30.736  1.00  0.00     0.041 A 
ATOM     92  F   UNL A   1      45.987  32.086  31.192  1.00  0.00    -0.206 F 
ATOM     93  C   UNL A   1      46.625  35.406  29.904  1.00  0.00     0.022 A 
BRANCH  90  94
ATOM     94  S   UNL A   1      45.943  36.759  27.564  1.00  0.00     0.124 S 
ATOM     95  O   UNL A   1      44.629  37.373  27.719  1.00  0.00    -0.237 OA
ATOM     96  O   UNL A   1      47.071  37.531  28.074  1.00  0.00    -0.237 OA
ATOM     97  O   UNL A   1      46.173  36.103  26.278  1.00  0.00    -0.744 OA
ENDBRANCH  90  94
ENDBRANCH  64  87
ENDBRANCH  38  39
ENDBRANCH  31  33
ENDBRANCH  30  31
ENDBRANCH  29  30
ENDBRANCH  28  29
ENDBRANCH   1  28
TORSDOF 21
ENDMDL
MODEL 2
REMARK VINA RESULT:     -11.7      1.575      7.477
REMARK SMILES Cc1c(Cl)cccc1NC(=O)C[C@](C)(C(=O)OCCOCCOC(=O)c1ccc(-c2c3nc(c(-c4cc(S(=O)(=O)[O-])ccc4F)c4ccc([nH]4)c(-c4cc(S(=O)(=O)[O-])ccc4F)c4nc(c(-c5cc(S(=O)(=O)[O-])ccc5F)c5ccc2[nH]5)C=C4)C=C3)cc1)c1ccccc1
REMARK SMILES IDX 20 1 19 2 18 3 17 4 15 5 16 6 13 7 14 8 12 9 10 10 9 11
REMARK SMILES IDX 11 13 8 14 1 15 2 16 3 17 4 18 5 19 7 20 6 21 89 22 90 23
REMARK SMILES IDX 94 24 91 25 93 26 92 27 21 28 22 29 23 30 24 31 25 32 26 33
REMARK SMILES IDX 27 34 88 35 28 36 87 37 29 38 30 39 31 40 81 41 32 42 86 43
REMARK SMILES IDX 80 44 82 45 33 46 85 47 79 48 78 49 34 51 66 52 46 53 65 54
REMARK SMILES IDX 47 55 50 56 64 57 83 58 48 59 49 60 63 62 84 63 51 64 35 65
REMARK SMILES IDX 36 66 44 67 37 68 43 69 45 70 42 71 38 72 39 73 40 74 41 75
REMARK SMILES IDX 67 76 68 77 76 78 69 79 75 80 77 81 74 82 70 83 71 84 72 85
REMARK SMILES IDX 73 86 52 87 53 88 61 89 54 90 60 91 62 92 59 93 55 94 56 95
REMARK SMILES IDX 57 96 58 97
REMARK H PARENT 9 12 82 50 50 61
REMARK Flexibility Score: inf
ROOT
ATOM      1  O   UNL A   1      34.673  19.590  24.555  1.00  0.00    -0.374 OA
ENDROOT
BRANCH   1   2
ATOM      2  C   UNL A   1      33.418  19.464  25.227  1.00  0.00     0.202 C 
BRANCH   2   3
ATOM      3  C   UNL A   1      32.406  20.581  24.964  1.00  0.00     0.261 C 
BRANCH   3   4
ATOM      4  O   UNL A   1      32.620  21.682  25.863  1.00  0.00    -0.463 OA
BRANCH   4   5
ATOM      5  C   UNL A   1      32.281  22.913  25.395  1.00  0.00     0.316 C 
ATOM      6  O   UNL A   1      31.138  23.217  25.070  1.00  0.00    -0.251 OA
BRANCH   5   7
ATOM      7  C   UNL A   1      33.480  23.897  25.350  1.00  0.00     0.099 C 
ATOM      8  C   UNL A   1      34.615  23.525  26.351  1.00  0.00     0.029 C 
BRANCH   7   9
ATOM      9  C   UNL A   1      34.074  23.915  23.901  1.00  0.00     0.123 C 
BRANCH   9  10
ATOM     10  C   UNL A   1      33.137  23.830  22.706  1.00  0.00     0.225 C 
ATOM     11  N   UNL A   1      32.553  24.907  22.117  1.00  0.00    -0.326 N 
ATOM     12  H   UNL A   1      32.051  24.677  21.301  1.00  0.00     0.169 HD
ATOM     13  O   UNL A   1      32.891  22.723  22.212  1.00  0.00    -0.275 OA
BRANCH  11  14
ATOM     14  C   UNL A   1      32.514  26.276  22.421  1.00  0.00     0.045 A 
ATOM     15  C   UNL A   1      30.123  26.005  23.352  1.00  0.00     0.048 C 
ATOM     16  C   UNL A   1      31.324  26.825  22.948  1.00  0.00    -0.009 A 
ATOM     17  C   UNL A   1      31.232  28.225  23.058  1.00  0.00     0.046 A 
ATOM     18  Cl  UNL A   1      29.706  28.971  23.387  1.00  0.00    -0.084 Cl
ATOM     19  C   UNL A   1      32.331  29.044  22.813  1.00  0.00     0.021 A 
ATOM     20  C   UNL A   1      33.619  27.108  22.206  1.00  0.00     0.026 A 
ATOM     21  C   UNL A   1      33.535  28.485  22.411  1.00  0.00     0.004 A 
ENDBRANCH  11  14
ENDBRANCH   9  10
ENDBRANCH   7   9
BRANCH   7  22
ATOM     22  C   UNL A   1      33.047  25.337  25.779  1.00  0.00    -0.030 A 
ATOM     23  C   UNL A   1      33.949  26.415  25.655  1.00  0.00     0.005 A 
ATOM     24  C   UNL A   1      31.798  25.609  26.368  1.00  0.00     0.005 A 
ATOM     25  C   UNL A   1      33.608  27.703  26.077  1.00  0.00     0.000 A 
ATOM     26  C   UNL A   1      31.455  26.900  26.784  1.00  0.00     0.000 A 
ATOM     27  C   UNL A   1      32.358  27.947  26.636  1.00  0.00     0.000 A 
ENDBRANCH   7  22
ENDBRANCH   5   7
ENDBRANCH   4   5
ENDBRANCH   3   4
ENDBRANCH   2   3
ENDBRANCH   1   2
BRANCH   1  28
ATOM     28  C   UNL A   1      35.634  20.472  25.126  1.00  0.00     0.202 C 
BRANCH  28  29
ATOM     29  C   UNL A   1      37.118  20.086  25.016  1.00  0.00     0.261 C 
BRANCH  29  30
ATOM     30  O   UNL A   1      38.043  21.187  25.082  1.00  0.00    -0.460 OA
BRANCH  30  31
ATOM     31  C   UNL A   1      39.137  20.952  25.850  1.00  0.00     0.338 C 
ATOM     32  O   UNL A   1      39.790  19.912  25.883  1.00  0.00    -0.246 OA
BRANCH  31  33
ATOM     33  C   UNL A   1      39.559  22.168  26.572  1.00  0.00     0.060 A 
ATOM     34  C   UNL A   1      39.004  23.391  26.177  1.00  0.00     0.016 A 
ATOM     35  C   UNL A   1      40.566  22.138  27.542  1.00  0.00     0.016 A 
ATOM     36  C   UNL A   1      39.474  24.586  26.726  1.00  0.00     0.010 A 
ATOM     37  C   UNL A   1      41.038  23.342  28.090  1.00  0.00     0.010 A 
ATOM     38  C   UNL A   1      40.514  24.577  27.667  1.00  0.00    -0.014 A 
BRANCH  38  39
ATOM     39  C   UNL A   1      41.165  25.868  28.034  1.00  0.00     0.031 A 
ATOM     40  C   UNL A   1      42.551  26.137  27.519  1.00  0.00     0.074 A 
ATOM     41  C   UNL A   1      40.526  26.817  28.744  1.00  0.00     0.049 A 
ATOM     42  N   UNL A   1      43.298  27.200  27.664  1.00  0.00    -0.248 NA
ATOM     43  C   UNL A   1      43.187  25.046  26.768  1.00  0.00     0.031 C 
ATOM     44  C   UNL A   1      39.203  26.661  29.326  1.00  0.00     0.029 A 
ATOM     45  N   UNL A   1      40.882  28.100  29.083  1.00  0.00    -0.354 N 
ATOM     46  C   UNL A   1      44.499  26.902  27.033  1.00  0.00     0.074 A 
ATOM     47  C   UNL A   1      44.396  25.540  26.554  1.00  0.00     0.031 C 
ATOM     48  C   UNL A   1      38.813  27.820  29.879  1.00  0.00     0.029 A 
ATOM     49  C   UNL A   1      39.898  28.789  29.762  1.00  0.00     0.049 A 
ATOM     50  H   UNL A   1      41.758  28.492  28.864  1.00  0.00     0.167 HD
ATOM     51  C   UNL A   1      45.584  27.697  26.859  1.00  0.00     0.034 A 
ATOM     52  C   UNL A   1      39.880  30.049  30.249  1.00  0.00     0.034 A 
ATOM     53  C   UNL A   1      45.676  29.046  27.359  1.00  0.00     0.049 A 
ATOM     54  C   UNL A   1      41.115  30.901  30.077  1.00  0.00     0.074 A 
ATOM     55  C   UNL A   1      46.729  29.936  27.248  1.00  0.00     0.029 A 
ATOM     56  N   UNL A   1      44.680  29.700  28.074  1.00  0.00    -0.354 N 
ATOM     57  N   UNL A   1      42.245  30.605  29.475  1.00  0.00    -0.248 NA
ATOM     58  C   UNL A   1      41.080  32.248  30.661  1.00  0.00     0.031 C 
ATOM     59  C   UNL A   1      46.398  31.099  27.952  1.00  0.00     0.029 A 
ATOM     60  C   UNL A   1      45.103  30.972  28.430  1.00  0.00     0.049 A 
ATOM     61  H   UNL A   1      43.800  29.317  28.295  1.00  0.00     0.167 HD
ATOM     62  C   UNL A   1      43.043  31.742  29.586  1.00  0.00     0.074 A 
ATOM     63  C   UNL A   1      42.258  32.731  30.295  1.00  0.00     0.031 C 
ATOM     64  C   UNL A   1      44.311  31.947  29.143  1.00  0.00     0.034 A 
BRANCH  51  65
ATOM     65  C   UNL A   1      46.764  27.085  26.147  1.00  0.00     0.023 A 
ATOM     66  C   UNL A   1      47.778  26.407  26.849  1.00  0.00     0.031 A 
ATOM     67  C   UNL A   1      46.924  27.249  24.760  1.00  0.00     0.131 A 
ATOM     68  C   UNL A   1      48.946  26.012  26.183  1.00  0.00     0.055 A 
ATOM     69  C   UNL A   1      48.046  26.764  24.086  1.00  0.00     0.041 A 
ATOM     70  F   UNL A   1      46.004  27.910  24.039  1.00  0.00    -0.206 F 
ATOM     71  C   UNL A   1      49.076  26.161  24.801  1.00  0.00     0.022 A 
BRANCH  68  72
ATOM     72  S   UNL A   1      50.365  25.473  27.176  1.00  0.00     0.124 S 
ATOM     73  O   UNL A   1      51.424  25.420  26.170  1.00  0.00    -0.237 OA
ATOM     74  O   UNL A   1      50.479  26.535  28.168  1.00  0.00    -0.237 OA
ATOM     75  O   UNL A   1      49.946  24.173  27.697  1.00  0.00    -0.744 OA
ENDBRANCH  68  72
ENDBRANCH  51  65
BRANCH  52  76
ATOM     76  C   UNL A   1      38.688  30.579  30.981  1.00  0.00     0.023 A 
ATOM     77  C   UNL A   1      37.595  31.138  30.293  1.00  0.00     0.031 A 
ATOM     78  C   UNL A   1      38.649  30.599  32.387  1.00  0.00     0.131 A 
ATOM     79  C   UNL A   1      36.539  31.728  31.009  1.00  0.00     0.055 A 
ATOM     80  C   UNL A   1      37.568  31.130  33.094  1.00  0.00     0.041 A 
ATOM     81  F   UNL A   1      39.667  30.091  33.102  1.00  0.00    -0.206 F 
ATOM     82  C   UNL A   1      36.511  31.712  32.404  1.00  0.00     0.022 A 
BRANCH  79  83
ATOM     83  S   UNL A   1      35.244  32.612  30.091  1.00  0.00     0.124 S 
ATOM     84  O   UNL A   1      34.254  32.853  31.134  1.00  0.00    -0.237 OA
ATOM     85  O   UNL A   1      35.963  33.783  29.603  1.00  0.00    -0.237 OA
ATOM     86  O   UNL A   1      34.845  31.654  29.062  1.00  0.00    -0.744 OA
ENDBRANCH  79  83
ENDBRANCH  52  76
BRANCH  64  87
ATOM     87  C   UNL A   1      44.900  33.319  29.364  1.00  0.00     0.023 A 
ATOM     88  C   UNL A   1      44.892  34.306  28.362  1.00  0.00     0.031 A 
ATOM     89  C   UNL A   1      45.492  33.638  30.600  1.00  0.00     0.131 A 
ATOM     90  C   UNL A   1      45.514  35.543  28.594  1.00  0.00     0.055 A 
ATOM     91  C   UNL A   1      46.051  34.892  30.847  1.00  0.00     0.041 A 
ATOM     92  F   UNL A   1      45.532  32.733  31.591  1.00  0.00    -0.206 F 
ATOM     93  C   UNL A   1      46.078  35.848  29.836  1.00  0.00     0.022 A 
BRANCH  90  94
ATOM     94  S   UNL A   1      45.670  36.714  27.218  1.00  0.00     0.124 S 
ATOM     95  O   UNL A   1      46.897  37.424  27.562  1.00  0.00    -0.237 OA
ATOM     96  O   UNL A   1      45.751  35.827  26.062  1.00  0.00    -0.237 OA
ATOM     97  O   UNL A   1      44.447  37.509  27.304  1.00  0.00    -0.744 OA
ENDBRANCH  90  94
ENDBRANCH  64  87
ENDBRANCH  38  39
ENDBRANCH  31  33
ENDBRANCH  30  31
ENDBRANCH  29  30
ENDBRANCH  28  29
ENDBRANCH   1  28
TORSDOF 21
ENDMDL
MODEL 3
REMARK VINA RESULT:     -11.5      1.626      7.521
REMARK SMILES Cc1c(Cl)cccc1NC(=O)C[C@](C)(C(=O)OCCOCCOC(=O)c1ccc(-c2c3nc(c(-c4cc(S(=O)(=O)[O-])ccc4F)c4ccc([nH]4)c(-c4cc(S(=O)(=O)[O-])ccc4F)c4nc(c(-c5cc(S(=O)(=O)[O-])ccc5F)c5ccc2[nH]5)C=C4)C=C3)cc1)c1ccccc1
REMARK SMILES IDX 20 1 19 2 18 3 17 4 15 5 16 6 13 7 14 8 12 9 10 10 9 11
REMARK SMILES IDX 11 13 8 14 1 15 2 16 3 17 4 18 5 19 7 20 6 21 89 22 90 23
REMARK SMILES IDX 94 24 91 25 93 26 92 27 21 28 22 29 23 30 24 31 25 32 26 33
REMARK SMILES IDX 27 34 88 35 28 36 87 37 29 38 30 39 31 40 81 41 32 42 86 43
REMARK SMILES IDX 80 44 82 45 33 46 85 47 79 48 78 49 34 51 66 52 46 53 65 54
REMARK SMILES IDX 47 55 50 56 64 57 83 58 48 59 49 60 63 62 84 63 51 64 35 65
REMARK SMILES IDX 36 66 44 67 37 68 43 69 45 70 42 71 38 72 39 73 40 74 41 75
REMARK SMILES IDX 67 76 68 77 76 78 69 79 75 80 77 81 74 82 70 83 71 84 72 85
REMARK SMILES IDX 73 86 52 87 53 88 61 89 54 90 60 91 62 92 59 93 55 94 56 95
REMARK SMILES IDX 57 96 58 97
REMARK H PARENT 9 12 82 50 50 61
REMARK Flexibility Score: inf
ROOT
ATOM      1  O   UNL A   1      35.626  20.563  24.919  1.00  0.00    -0.374 OA
ENDROOT
BRANCH   1   2
ATOM      2  C   UNL A   1      34.274  20.102  24.971  1.00  0.00     0.202 C 
BRANCH   2   3
ATOM      3  C   UNL A   1      33.441  20.612  26.149  1.00  0.00     0.261 C 
BRANCH   3   4
ATOM      4  O   UNL A   1      32.904  21.915  25.865  1.00  0.00    -0.463 OA
BRANCH   4   5
ATOM      5  C   UNL A   1      33.636  22.973  26.304  1.00  0.00     0.316 C 
ATOM      6  O   UNL A   1      34.198  22.996  27.394  1.00  0.00    -0.251 OA
BRANCH   5   7
ATOM      7  C   UNL A   1      33.716  24.128  25.270  1.00  0.00     0.099 C 
ATOM      8  C   UNL A   1      35.173  24.449  24.822  1.00  0.00     0.029 C 
BRANCH   7   9
ATOM      9  C   UNL A   1      32.875  23.743  24.007  1.00  0.00     0.123 C 
BRANCH   9  10
ATOM     10  C   UNL A   1      33.382  24.122  22.624  1.00  0.00     0.225 C 
ATOM     11  N   UNL A   1      33.346  25.383  22.118  1.00  0.00    -0.326 N 
ATOM     12  H   UNL A   1      33.798  25.464  21.247  1.00  0.00     0.169 HD
ATOM     13  O   UNL A   1      33.878  23.247  21.904  1.00  0.00    -0.275 OA
BRANCH  11  14
ATOM     14  C   UNL A   1      32.803  26.595  22.572  1.00  0.00     0.045 A 
ATOM     15  C   UNL A   1      30.475  25.495  22.737  1.00  0.00     0.048 C 
ATOM     16  C   UNL A   1      31.412  26.677  22.803  1.00  0.00    -0.009 A 
ATOM     17  C   UNL A   1      30.856  27.943  23.060  1.00  0.00     0.046 A 
ATOM     18  Cl  UNL A   1      29.141  28.160  23.033  1.00  0.00    -0.084 Cl
ATOM     19  C   UNL A   1      31.663  29.063  23.248  1.00  0.00     0.021 A 
ATOM     20  C   UNL A   1      33.605  27.721  22.791  1.00  0.00     0.026 A 
ATOM     21  C   UNL A   1      33.041  28.949  23.139  1.00  0.00     0.004 A 
ENDBRANCH  11  14
ENDBRANCH   9  10
ENDBRANCH   7   9
BRANCH   7  22
ATOM     22  C   UNL A   1      33.197  25.471  25.880  1.00  0.00    -0.030 A 
ATOM     23  C   UNL A   1      31.826  25.632  26.176  1.00  0.00     0.005 A 
ATOM     24  C   UNL A   1      34.033  26.584  26.085  1.00  0.00     0.005 A 
ATOM     25  C   UNL A   1      31.325  26.838  26.675  1.00  0.00     0.000 A 
ATOM     26  C   UNL A   1      33.532  27.788  26.591  1.00  0.00     0.000 A 
ATOM     27  C   UNL A   1      32.180  27.914  26.888  1.00  0.00     0.000 A 
ENDBRANCH   7  22
ENDBRANCH   5   7
ENDBRANCH   4   5
ENDBRANCH   3   4
ENDBRANCH   2   3
ENDBRANCH   1   2
BRANCH   1  28
ATOM     28  C   UNL A   1      36.654  19.580  24.990  1.00  0.00     0.202 C 
BRANCH  28  29
ATOM     29  C   UNL A   1      38.104  20.038  24.763  1.00  0.00     0.261 C 
BRANCH  29  30
ATOM     30  O   UNL A   1      38.487  21.229  25.475  1.00  0.00    -0.460 OA
BRANCH  30  31
ATOM     31  C   UNL A   1      39.642  21.111  26.177  1.00  0.00     0.338 C 
ATOM     32  O   UNL A   1      40.408  20.150  26.160  1.00  0.00    -0.246 OA
BRANCH  31  33
ATOM     33  C   UNL A   1      39.967  22.361  26.892  1.00  0.00     0.060 A 
ATOM     34  C   UNL A   1      39.298  23.529  26.507  1.00  0.00     0.016 A 
ATOM     35  C   UNL A   1      40.989  22.422  27.845  1.00  0.00     0.016 A 
ATOM     36  C   UNL A   1      39.669  24.762  27.047  1.00  0.00     0.010 A 
ATOM     37  C   UNL A   1      41.361  23.664  28.385  1.00  0.00     0.010 A 
ATOM     38  C   UNL A   1      40.721  24.847  27.971  1.00  0.00    -0.014 A 
BRANCH  38  39
ATOM     39  C   UNL A   1      41.262  26.191  28.326  1.00  0.00     0.031 A 
ATOM     40  C   UNL A   1      42.647  26.547  27.864  1.00  0.00     0.074 A 
ATOM     41  C   UNL A   1      40.525  27.110  28.979  1.00  0.00     0.049 A 
ATOM     42  N   UNL A   1      43.307  27.666  28.008  1.00  0.00    -0.248 NA
ATOM     43  C   UNL A   1      43.393  25.485  27.174  1.00  0.00     0.031 C 
ATOM     44  C   UNL A   1      39.191  26.874  29.507  1.00  0.00     0.029 A 
ATOM     45  N   UNL A   1      40.771  28.425  29.294  1.00  0.00    -0.354 N 
ATOM     46  C   UNL A   1      44.554  27.439  27.440  1.00  0.00     0.074 A 
ATOM     47  C   UNL A   1      44.571  26.060  26.998  1.00  0.00     0.031 C 
ATOM     48  C   UNL A   1      38.694  28.016  30.008  1.00  0.00     0.029 A 
ATOM     49  C   UNL A   1      39.711  29.059  29.909  1.00  0.00     0.049 A 
ATOM     50  H   UNL A   1      41.626  28.873  29.101  1.00  0.00     0.167 HD
ATOM     51  C   UNL A   1      45.586  28.306  27.288  1.00  0.00     0.034 A 
ATOM     52  C   UNL A   1      39.581  30.326  30.356  1.00  0.00     0.034 A 
ATOM     53  C   UNL A   1      45.559  29.671  27.751  1.00  0.00     0.049 A 
ATOM     54  C   UNL A   1      40.758  31.261  30.213  1.00  0.00     0.074 A 
ATOM     55  C   UNL A   1      46.549  30.633  27.659  1.00  0.00     0.029 A 
ATOM     56  N   UNL A   1      44.487  30.270  28.403  1.00  0.00    -0.354 N 
ATOM     57  N   UNL A   1      41.933  31.033  29.668  1.00  0.00    -0.248 NA
ATOM     58  C   UNL A   1      40.600  32.618  30.753  1.00  0.00     0.031 C 
ATOM     59  C   UNL A   1      46.104  31.787  28.313  1.00  0.00     0.029 A 
ATOM     60  C   UNL A   1      44.801  31.578  28.738  1.00  0.00     0.049 A 
ATOM     61  H   UNL A   1      43.628  29.830  28.597  1.00  0.00     0.167 HD
ATOM     62  C   UNL A   1      42.641  32.227  29.780  1.00  0.00     0.074 A 
ATOM     63  C   UNL A   1      41.756  33.174  30.424  1.00  0.00     0.031 C 
ATOM     64  C   UNL A   1      43.909  32.512  29.386  1.00  0.00     0.034 A 
BRANCH  51  65
ATOM     65  C   UNL A   1      46.839  27.762  26.647  1.00  0.00     0.023 A 
ATOM     66  C   UNL A   1      47.155  28.032  25.302  1.00  0.00     0.031 A 
ATOM     67  C   UNL A   1      47.687  26.897  27.359  1.00  0.00     0.131 A 
ATOM     68  C   UNL A   1      48.223  27.366  24.688  1.00  0.00     0.055 A 
ATOM     69  C   UNL A   1      48.808  26.313  26.767  1.00  0.00     0.041 A 
ATOM     70  F   UNL A   1      47.423  26.578  28.637  1.00  0.00    -0.206 F 
ATOM     71  C   UNL A   1      49.070  26.529  25.418  1.00  0.00     0.022 A 
BRANCH  68  72
ATOM     72  S   UNL A   1      48.378  27.463  22.883  1.00  0.00     0.124 S 
ATOM     73  O   UNL A   1      48.378  26.049  22.513  1.00  0.00    -0.237 OA
ATOM     74  O   UNL A   1      47.192  28.223  22.505  1.00  0.00    -0.237 OA
ATOM     75  O   UNL A   1      49.652  28.151  22.684  1.00  0.00    -0.744 OA
ENDBRANCH  68  72
ENDBRANCH  51  65
BRANCH  52  76
ATOM     76  C   UNL A   1      38.322  30.788  31.020  1.00  0.00     0.023 A 
ATOM     77  C   UNL A   1      37.315  31.452  30.297  1.00  0.00     0.031 A 
ATOM     78  C   UNL A   1      38.132  30.632  32.405  1.00  0.00     0.131 A 
ATOM     79  C   UNL A   1      36.193  31.973  30.966  1.00  0.00     0.055 A 
ATOM     80  C   UNL A   1      36.987  31.095  33.056  1.00  0.00     0.041 A 
ATOM     81  F   UNL A   1      39.063  30.016  33.153  1.00  0.00    -0.206 F 
ATOM     82  C   UNL A   1      36.015  31.783  32.337  1.00  0.00     0.022 A 
BRANCH  79  83
ATOM     83  S   UNL A   1      35.013  32.993  30.036  1.00  0.00     0.124 S 
ATOM     84  O   UNL A   1      35.888  34.007  29.459  1.00  0.00    -0.237 OA
ATOM     85  O   UNL A   1      34.445  32.027  29.103  1.00  0.00    -0.237 OA
ATOM     86  O   UNL A   1      34.095  33.475  31.067  1.00  0.00    -0.744 OA
ENDBRANCH  79  83
ENDBRANCH  52  76
BRANCH  64  87
ATOM     87  C   UNL A   1      44.389  33.929  29.591  1.00  0.00     0.023 A 
ATOM     88  C   UNL A   1      45.069  34.327  30.755  1.00  0.00     0.031 A 
ATOM     89  C   UNL A   1      44.147  34.901  28.601  1.00  0.00     0.131 A 
ATOM     90  C   UNL A   1      45.433  35.672  30.926  1.00  0.00     0.055 A 
ATOM     91  C   UNL A   1      44.569  36.222  28.749  1.00  0.00     0.041 A 
ATOM     92  F   UNL A   1      43.498  34.577  27.471  1.00  0.00    -0.206 F 
ATOM     93  C   UNL A   1      45.203  36.618  29.923  1.00  0.00     0.022 A 
BRANCH  90  94
ATOM     94  S   UNL A   1      46.120  36.194  32.521  1.00  0.00     0.124 S 
ATOM     95  O   UNL A   1      45.341  35.396  33.463  1.00  0.00    -0.237 OA
ATOM     96  O   UNL A   1      47.527  35.829  32.390  1.00  0.00    -0.237 OA
ATOM     97  O   UNL A   1      45.853  37.631  32.557  1.00  0.00    -0.744 OA
ENDBRANCH  90  94
ENDBRANCH  64  87
ENDBRANCH  38  39
ENDBRANCH  31  33
ENDBRANCH  30  31
ENDBRANCH  29  30
ENDBRANCH  28  29
ENDBRANCH   1  28
TORSDOF 21
ENDMDL
