MODEL 1
REMARK VINA RESULT:     -11.0      0.000      0.000
REMARK SMILES O=C(OCCOCCOC(=O)c1cccc(Oc2ncc([N+](=O)[O-])cc2Br)c1)c1ccc(-c2c3nc(c(-c4cc(S(=O)(=O)[O-])ccc4F)c4ccc([nH]4)c(-c4cc(S(=O)(=O)[O-])ccc4F)c4nc(c(-c5cc(S(=O)(=O)[O-])ccc5F)c5ccc2[nH]5)C=C4)C=C3)cc1
REMARK SMILES IDX 6 1 5 2 4 3 3 4 2 5 1 6 29 7 30 8 91 9 31 10 90 11 32 12
REMARK SMILES IDX 33 13 34 14 84 15 35 16 89 17 83 18 85 19 36 20 88 21 82 22
REMARK SMILES IDX 81 23 37 25 69 26 49 27 68 28 50 29 53 30 67 31 86 32 51 33
REMARK SMILES IDX 52 34 66 36 87 37 54 38 38 39 39 40 47 41 40 42 46 43 48 44
REMARK SMILES IDX 45 45 41 46 42 47 43 48 44 49 70 50 71 51 79 52 72 53 78 54
REMARK SMILES IDX 80 55 77 56 73 57 74 58 75 59 76 60 55 61 56 62 64 63 57 64
REMARK SMILES IDX 63 65 65 66 62 67 58 68 59 69 60 70 61 71 7 72 8 73 9 74
REMARK SMILES IDX 10 75 11 76 12 77 13 78 28 79 14 80 16 81 15 82 17 83 18 84
REMARK SMILES IDX 19 85 26 86 20 87 25 88 27 89 21 90 22 91 23 92 24 93
REMARK H PARENT 85 24 53 35
REMARK Flexibility Score: inf
ROOT
ATOM      1  O   UNL A   1      39.915  21.759  25.835  1.00  0.00    -0.374 OA
ENDROOT
BRANCH   1   2
ATOM      2  C   UNL A   1      41.053  21.239  26.517  1.00  0.00     0.202 C 
BRANCH   2   3
ATOM      3  C   UNL A   1      42.399  21.585  25.875  1.00  0.00     0.261 C 
BRANCH   3   4
ATOM      4  O   UNL A   1      42.298  22.818  25.141  1.00  0.00    -0.460 OA
BRANCH   4   5
ATOM      5  C   UNL A   1      42.975  23.970  25.369  1.00  0.00     0.338 C 
ATOM      6  O   UNL A   1      43.952  24.232  24.670  1.00  0.00    -0.246 OA
BRANCH   5   7
ATOM      7  C   UNL A   1      42.594  24.936  26.442  1.00  0.00     0.060 A 
ATOM      8  C   UNL A   1      41.940  24.572  27.614  1.00  0.00     0.016 A 
ATOM      9  C   UNL A   1      42.996  26.274  26.306  1.00  0.00     0.016 A 
ATOM     10  C   UNL A   1      41.630  25.479  28.597  1.00  0.00     0.010 A 
ATOM     11  C   UNL A   1      42.739  27.200  27.326  1.00  0.00     0.010 A 
ATOM     12  C   UNL A   1      42.054  26.791  28.475  1.00  0.00    -0.014 A 
BRANCH  12  13
ATOM     13  C   UNL A   1      41.639  27.684  29.565  1.00  0.00     0.031 A 
ATOM     14  C   UNL A   1      40.342  28.409  29.418  1.00  0.00     0.074 A 
ATOM     15  C   UNL A   1      42.303  27.617  30.736  1.00  0.00     0.049 A 
ATOM     16  N   UNL A   1      39.761  29.231  30.243  1.00  0.00    -0.248 NA
ATOM     17  C   UNL A   1      39.584  28.153  28.180  1.00  0.00     0.031 C 
ATOM     18  C   UNL A   1      43.474  26.767  30.993  1.00  0.00     0.029 A 
ATOM     19  N   UNL A   1      42.062  28.213  31.942  1.00  0.00    -0.354 N 
ATOM     20  C   UNL A   1      38.581  29.610  29.620  1.00  0.00     0.074 A 
ATOM     21  C   UNL A   1      38.533  28.941  28.339  1.00  0.00     0.031 C 
ATOM     22  C   UNL A   1      43.824  26.875  32.282  1.00  0.00     0.029 A 
ATOM     23  C   UNL A   1      42.975  27.874  32.914  1.00  0.00     0.049 A 
ATOM     24  H   UNL A   1      41.307  28.825  32.100  1.00  0.00     0.167 HD
ATOM     25  C   UNL A   1      37.631  30.450  30.091  1.00  0.00     0.034 A 
ATOM     26  C   UNL A   1      43.130  28.368  34.157  1.00  0.00     0.034 A 
ATOM     27  C   UNL A   1      37.741  31.096  31.373  1.00  0.00     0.049 A 
ATOM     28  C   UNL A   1      42.141  29.422  34.592  1.00  0.00     0.074 A 
ATOM     29  C   UNL A   1      36.922  32.054  31.935  1.00  0.00     0.029 A 
ATOM     30  N   UNL A   1      38.749  30.837  32.299  1.00  0.00    -0.354 N 
ATOM     31  N   UNL A   1      41.085  29.877  33.952  1.00  0.00    -0.248 NA
ATOM     32  C   UNL A   1      42.364  30.035  35.903  1.00  0.00     0.031 C 
ATOM     33  C   UNL A   1      37.471  32.423  33.167  1.00  0.00     0.029 A 
ATOM     34  C   UNL A   1      38.586  31.634  33.417  1.00  0.00     0.049 A 
ATOM     35  H   UNL A   1      39.473  30.181  32.175  1.00  0.00     0.167 HD
ATOM     36  C   UNL A   1      40.507  30.818  34.794  1.00  0.00     0.074 A 
ATOM     37  C   UNL A   1      41.310  30.831  36.002  1.00  0.00     0.031 C 
ATOM     38  C   UNL A   1      39.421  31.612  34.596  1.00  0.00     0.034 A 
BRANCH  25  39
ATOM     39  C   UNL A   1      36.486  30.774  29.170  1.00  0.00     0.023 A 
ATOM     40  C   UNL A   1      35.604  29.784  28.699  1.00  0.00     0.031 A 
ATOM     41  C   UNL A   1      36.325  32.084  28.688  1.00  0.00     0.131 A 
ATOM     42  C   UNL A   1      34.647  30.108  27.726  1.00  0.00     0.055 A 
ATOM     43  C   UNL A   1      35.320  32.416  27.779  1.00  0.00     0.041 A 
ATOM     44  F   UNL A   1      37.163  33.061  29.070  1.00  0.00    -0.206 F 
ATOM     45  C   UNL A   1      34.481  31.422  27.283  1.00  0.00     0.022 A 
BRANCH  42  46
ATOM     46  S   UNL A   1      33.718  28.763  26.937  1.00  0.00     0.124 S 
ATOM     47  O   UNL A   1      33.180  29.431  25.755  1.00  0.00    -0.237 OA
ATOM     48  O   UNL A   1      34.752  27.765  26.691  1.00  0.00    -0.237 OA
ATOM     49  O   UNL A   1      32.725  28.396  27.945  1.00  0.00    -0.744 OA
ENDBRANCH  42  46
ENDBRANCH  25  39
BRANCH  26  50
ATOM     50  C   UNL A   1      44.292  27.981  35.014  1.00  0.00     0.023 A 
ATOM     51  C   UNL A   1      44.159  27.057  36.060  1.00  0.00     0.031 A 
ATOM     52  C   UNL A   1      45.542  28.616  34.861  1.00  0.00     0.131 A 
ATOM     53  C   UNL A   1      45.224  26.851  36.955  1.00  0.00     0.055 A 
ATOM     54  C   UNL A   1      46.621  28.349  35.706  1.00  0.00     0.041 A 
ATOM     55  F   UNL A   1      45.736  29.522  33.889  1.00  0.00    -0.206 F 
ATOM     56  C   UNL A   1      46.458  27.478  36.776  1.00  0.00     0.022 A 
BRANCH  53  57
ATOM     57  S   UNL A   1      44.923  25.867  38.450  1.00  0.00     0.124 S 
ATOM     58  O   UNL A   1      46.114  26.158  39.241  1.00  0.00    -0.237 OA
ATOM     59  O   UNL A   1      43.673  26.436  38.941  1.00  0.00    -0.237 OA
ATOM     60  O   UNL A   1      44.828  24.499  37.944  1.00  0.00    -0.744 OA
ENDBRANCH  53  57
ENDBRANCH  26  50
BRANCH  38  61
ATOM     61  C   UNL A   1      39.041  32.515  35.738  1.00  0.00     0.023 A 
ATOM     62  C   UNL A   1      39.522  33.833  35.821  1.00  0.00     0.031 A 
ATOM     63  C   UNL A   1      38.212  32.042  36.769  1.00  0.00     0.131 A 
ATOM     64  C   UNL A   1      39.236  34.605  36.954  1.00  0.00     0.055 A 
ATOM     65  C   UNL A   1      37.861  32.844  37.852  1.00  0.00     0.041 A 
ATOM     66  F   UNL A   1      37.728  30.789  36.736  1.00  0.00    -0.206 F 
ATOM     67  C   UNL A   1      38.391  34.128  37.959  1.00  0.00     0.022 A 
BRANCH  64  68
ATOM     68  S   UNL A   1      40.095  36.187  37.156  1.00  0.00     0.124 S 
ATOM     69  O   UNL A   1      41.445  35.756  37.501  1.00  0.00    -0.237 OA
ATOM     70  O   UNL A   1      39.937  36.798  35.840  1.00  0.00    -0.237 OA
ATOM     71  O   UNL A   1      39.357  36.841  38.235  1.00  0.00    -0.744 OA
ENDBRANCH  64  68
ENDBRANCH  38  61
ENDBRANCH  12  13
ENDBRANCH   5   7
ENDBRANCH   4   5
ENDBRANCH   3   4
ENDBRANCH   2   3
ENDBRANCH   1   2
BRANCH   1  72
ATOM     72  C   UNL A   1      39.019  22.594  26.569  1.00  0.00     0.202 C 
BRANCH  72  73
ATOM     73  C   UNL A   1      38.010  23.197  25.589  1.00  0.00     0.261 C 
BRANCH  73  74
ATOM     74  O   UNL A   1      37.676  22.180  24.637  1.00  0.00    -0.460 OA
BRANCH  74  75
ATOM     75  C   UNL A   1      36.645  22.493  23.809  1.00  0.00     0.338 C 
ATOM     76  O   UNL A   1      36.694  23.133  22.770  1.00  0.00    -0.246 OA
BRANCH  75  77
ATOM     77  C   UNL A   1      35.420  21.849  24.332  1.00  0.00     0.063 A 
ATOM     78  C   UNL A   1      35.447  20.563  24.872  1.00  0.00     0.016 A 
ATOM     79  C   UNL A   1      34.209  22.508  24.183  1.00  0.00     0.062 A 
ATOM     80  C   UNL A   1      34.243  19.926  25.184  1.00  0.00     0.005 A 
ATOM     81  C   UNL A   1      33.025  21.785  24.233  1.00  0.00     0.130 A 
ATOM     82  C   UNL A   1      33.028  20.515  24.809  1.00  0.00     0.047 A 
BRANCH  81  83
ATOM     83  O   UNL A   1      31.876  22.221  23.589  1.00  0.00    -0.438 OA
BRANCH  83  84
ATOM     84  C   UNL A   1      31.645  23.591  23.638  1.00  0.00     0.234 A 
ATOM     85  N   UNL A   1      31.988  24.239  22.496  1.00  0.00    -0.214 NA
ATOM     86  C   UNL A   1      30.921  24.211  24.677  1.00  0.00     0.087 A 
ATOM     87  C   UNL A   1      31.529  25.505  22.336  1.00  0.00     0.200 A 
ATOM     88  C   UNL A   1      30.412  25.496  24.461  1.00  0.00     0.108 A 
ATOM     89  Br  UNL A   1      30.502  23.361  26.321  1.00  0.00    -0.045 Br
ATOM     90  C   UNL A   1      30.719  26.144  23.263  1.00  0.00     0.288 A 
BRANCH  90  91
ATOM     91  N   UNL A   1      30.196  27.470  22.967  1.00  0.00     0.064 N 
ATOM     92  O   UNL A   1      29.274  27.894  23.678  1.00  0.00    -0.258 OA
ATOM     93  O   UNL A   1      30.700  28.089  22.021  1.00  0.00    -0.258 OA
ENDBRANCH  90  91
ENDBRANCH  83  84
ENDBRANCH  81  83
ENDBRANCH  75  77
ENDBRANCH  74  75
ENDBRANCH  73  74
ENDBRANCH  72  73
ENDBRANCH   1  72
TORSDOF 20
ENDMDL
MODEL 2
REMARK VINA RESULT:     -11.0      5.206      8.814
REMARK SMILES O=C(OCCOCCOC(=O)c1cccc(Oc2ncc([N+](=O)[O-])cc2Br)c1)c1ccc(-c2c3nc(c(-c4cc(S(=O)(=O)[O-])ccc4F)c4ccc([nH]4)c(-c4cc(S(=O)(=O)[O-])ccc4F)c4nc(c(-c5cc(S(=O)(=O)[O-])ccc5F)c5ccc2[nH]5)C=C4)C=C3)cc1
REMARK SMILES IDX 6 1 5 2 4 3 3 4 2 5 1 6 29 7 30 8 91 9 31 10 90 11 32 12
REMARK SMILES IDX 33 13 34 14 84 15 35 16 89 17 83 18 85 19 36 20 88 21 82 22
REMARK SMILES IDX 81 23 37 25 69 26 49 27 68 28 50 29 53 30 67 31 86 32 51 33
REMARK SMILES IDX 52 34 66 36 87 37 54 38 38 39 39 40 47 41 40 42 46 43 48 44
REMARK SMILES IDX 45 45 41 46 42 47 43 48 44 49 70 50 71 51 79 52 72 53 78 54
REMARK SMILES IDX 80 55 77 56 73 57 74 58 75 59 76 60 55 61 56 62 64 63 57 64
REMARK SMILES IDX 63 65 65 66 62 67 58 68 59 69 60 70 61 71 7 72 8 73 9 74
REMARK SMILES IDX 10 75 11 76 12 77 13 78 28 79 14 80 16 81 15 82 17 83 18 84
REMARK SMILES IDX 19 85 26 86 20 87 25 88 27 89 21 90 22 91 23 92 24 93
REMARK H PARENT 85 24 53 35
REMARK Flexibility Score: inf
ROOT
ATOM      1  O   UNL A   1      38.377  21.825  25.728  1.00  0.00    -0.374 OA
ENDROOT
BRANCH   1   2
ATOM      2  C   UNL A   1      38.083  20.573  25.116  1.00  0.00     0.202 C 
BRANCH   2   3
ATOM      3  C   UNL A   1      38.874  19.386  25.671  1.00  0.00     0.261 C 
BRANCH   3   4
ATOM      4  O   UNL A   1      40.269  19.523  25.350  1.00  0.00    -0.460 OA
BRANCH   4   5
ATOM      5  C   UNL A   1      41.288  19.791  26.203  1.00  0.00     0.338 C 
ATOM      6  O   UNL A   1      41.923  18.852  26.681  1.00  0.00    -0.246 OA
BRANCH   5   7
ATOM      7  C   UNL A   1      41.672  21.178  26.600  1.00  0.00     0.060 A 
ATOM      8  C   UNL A   1      41.659  22.263  25.730  1.00  0.00     0.016 A 
ATOM      9  C   UNL A   1      41.978  21.424  27.948  1.00  0.00     0.016 A 
ATOM     10  C   UNL A   1      41.987  23.534  26.133  1.00  0.00     0.010 A 
ATOM     11  C   UNL A   1      42.258  22.725  28.386  1.00  0.00     0.010 A 
ATOM     12  C   UNL A   1      42.258  23.780  27.468  1.00  0.00    -0.014 A 
BRANCH  12  13
ATOM     13  C   UNL A   1      42.632  25.165  27.783  1.00  0.00     0.031 A 
ATOM     14  C   UNL A   1      43.953  25.659  27.295  1.00  0.00     0.074 A 
ATOM     15  C   UNL A   1      41.682  25.991  28.265  1.00  0.00     0.049 A 
ATOM     16  N   UNL A   1      44.493  26.836  27.433  1.00  0.00    -0.248 NA
ATOM     17  C   UNL A   1      44.769  24.703  26.526  1.00  0.00     0.031 C 
ATOM     18  C   UNL A   1      40.301  25.595  28.578  1.00  0.00     0.029 A 
ATOM     19  N   UNL A   1      41.700  27.334  28.515  1.00  0.00    -0.354 N 
ATOM     20  C   UNL A   1      45.719  26.760  26.788  1.00  0.00     0.074 A 
ATOM     21  C   UNL A   1      45.854  25.416  26.272  1.00  0.00     0.031 C 
ATOM     22  C   UNL A   1      39.604  26.679  28.946  1.00  0.00     0.029 A 
ATOM     23  C   UNL A   1      40.506  27.820  28.996  1.00  0.00     0.049 A 
ATOM     24  H   UNL A   1      42.492  27.900  28.365  1.00  0.00     0.167 HD
ATOM     25  C   UNL A   1      46.643  27.738  26.653  1.00  0.00     0.034 A 
ATOM     26  C   UNL A   1      40.206  29.042  29.475  1.00  0.00     0.034 A 
ATOM     27  C   UNL A   1      46.455  29.057  27.200  1.00  0.00     0.049 A 
ATOM     28  C   UNL A   1      41.314  30.066  29.452  1.00  0.00     0.074 A 
ATOM     29  C   UNL A   1      47.343  30.112  27.243  1.00  0.00     0.029 A 
ATOM     30  N   UNL A   1      45.279  29.496  27.804  1.00  0.00    -0.354 N 
ATOM     31  N   UNL A   1      42.526  29.959  28.951  1.00  0.00    -0.248 NA
ATOM     32  C   UNL A   1      41.024  31.365  30.063  1.00  0.00     0.031 C 
ATOM     33  C   UNL A   1      46.729  31.164  27.932  1.00  0.00     0.029 A 
ATOM     34  C   UNL A   1      45.427  30.799  28.244  1.00  0.00     0.049 A 
ATOM     35  H   UNL A   1      44.462  28.956  27.904  1.00  0.00     0.167 HD
ATOM     36  C   UNL A   1      43.137  31.187  29.170  1.00  0.00     0.074 A 
ATOM     37  C   UNL A   1      42.143  32.028  29.810  1.00  0.00     0.031 C 
ATOM     38  C   UNL A   1      44.403  31.592  28.884  1.00  0.00     0.034 A 
BRANCH  25  39
ATOM     39  C   UNL A   1      47.942  27.366  25.990  1.00  0.00     0.023 A 
ATOM     40  C   UNL A   1      48.174  27.596  24.622  1.00  0.00     0.031 A 
ATOM     41  C   UNL A   1      48.934  26.692  26.724  1.00  0.00     0.131 A 
ATOM     42  C   UNL A   1      49.338  27.096  24.018  1.00  0.00     0.055 A 
ATOM     43  C   UNL A   1      50.125  26.267  26.134  1.00  0.00     0.041 A 
ATOM     44  F   UNL A   1      48.749  26.409  28.023  1.00  0.00    -0.206 F 
ATOM     45  C   UNL A   1      50.327  26.457  24.770  1.00  0.00     0.022 A 
BRANCH  42  46
ATOM     46  S   UNL A   1      49.477  27.161  22.210  1.00  0.00     0.124 S 
ATOM     47  O   UNL A   1      50.922  27.074  22.023  1.00  0.00    -0.237 OA
ATOM     48  O   UNL A   1      48.708  25.996  21.790  1.00  0.00    -0.237 OA
ATOM     49  O   UNL A   1      48.887  28.454  21.868  1.00  0.00    -0.744 OA
ENDBRANCH  42  46
ENDBRANCH  25  39
BRANCH  26  50
ATOM     50  C   UNL A   1      38.882  29.331  30.107  1.00  0.00     0.023 A 
ATOM     51  C   UNL A   1      37.895  30.072  29.440  1.00  0.00     0.031 A 
ATOM     52  C   UNL A   1      38.623  28.955  31.441  1.00  0.00     0.131 A 
ATOM     53  C   UNL A   1      36.737  30.477  30.127  1.00  0.00     0.055 A 
ATOM     54  C   UNL A   1      37.436  29.293  32.093  1.00  0.00     0.041 A 
ATOM     55  F   UNL A   1      39.530  28.256  32.143  1.00  0.00    -0.206 F 
ATOM     56  C   UNL A   1      36.494  30.080  31.443  1.00  0.00     0.022 A 
BRANCH  53  57
ATOM     57  S   UNL A   1      35.622  31.664  29.324  1.00  0.00     0.124 S 
ATOM     58  O   UNL A   1      34.891  30.804  28.400  1.00  0.00    -0.237 OA
ATOM     59  O   UNL A   1      34.862  32.179  30.458  1.00  0.00    -0.237 OA
ATOM     60  O   UNL A   1      36.535  32.619  28.700  1.00  0.00    -0.744 OA
ENDBRANCH  53  57
ENDBRANCH  26  50
BRANCH  38  61
ATOM     61  C   UNL A   1      44.740  33.016  29.234  1.00  0.00     0.023 A 
ATOM     62  C   UNL A   1      44.514  34.066  28.328  1.00  0.00     0.031 A 
ATOM     63  C   UNL A   1      45.322  33.321  30.476  1.00  0.00     0.131 A 
ATOM     64  C   UNL A   1      44.944  35.361  28.646  1.00  0.00     0.055 A 
ATOM     65  C   UNL A   1      45.670  34.625  30.821  1.00  0.00     0.041 A 
ATOM     66  F   UNL A   1      45.560  32.352  31.376  1.00  0.00    -0.206 F 
ATOM     67  C   UNL A   1      45.499  35.651  29.894  1.00  0.00     0.022 A 
BRANCH  64  68
ATOM     68  S   UNL A   1      44.889  36.628  27.352  1.00  0.00     0.124 S 
ATOM     69  O   UNL A   1      43.542  36.459  26.821  1.00  0.00    -0.237 OA
ATOM     70  O   UNL A   1      45.127  37.854  28.107  1.00  0.00    -0.237 OA
ATOM     71  O   UNL A   1      45.969  36.238  26.447  1.00  0.00    -0.744 OA
ENDBRANCH  64  68
ENDBRANCH  38  61
ENDBRANCH  12  13
ENDBRANCH   5   7
ENDBRANCH   4   5
ENDBRANCH   3   4
ENDBRANCH   2   3
ENDBRANCH   1   2
BRANCH   1  72
ATOM     72  C   UNL A   1      37.470  22.907  25.508  1.00  0.00     0.202 C 
BRANCH  72  73
ATOM     73  C   UNL A   1      36.307  22.394  24.656  1.00  0.00     0.261 C 
BRANCH  73  74
ATOM     74  O   UNL A   1      35.149  23.161  25.004  1.00  0.00    -0.460 OA
BRANCH  74  75
ATOM     75  C   UNL A   1      34.284  23.385  23.979  1.00  0.00     0.338 C 
ATOM     76  O   UNL A   1      33.803  22.559  23.219  1.00  0.00    -0.246 OA
BRANCH  75  77
ATOM     77  C   UNL A   1      33.938  24.823  23.973  1.00  0.00     0.063 A 
ATOM     78  C   UNL A   1      34.098  25.616  25.109  1.00  0.00     0.016 A 
ATOM     79  C   UNL A   1      33.349  25.358  22.837  1.00  0.00     0.062 A 
ATOM     80  C   UNL A   1      33.589  26.918  25.112  1.00  0.00     0.005 A 
ATOM     81  C   UNL A   1      32.613  26.532  22.935  1.00  0.00     0.130 A 
ATOM     82  C   UNL A   1      32.795  27.356  24.045  1.00  0.00     0.047 A 
BRANCH  81  83
ATOM     83  O   UNL A   1      31.595  26.831  22.042  1.00  0.00    -0.438 OA
BRANCH  83  84
ATOM     84  C   UNL A   1      30.723  27.837  22.442  1.00  0.00     0.234 A 
ATOM     85  N   UNL A   1      30.973  29.036  21.857  1.00  0.00    -0.214 NA
ATOM     86  C   UNL A   1      29.562  27.589  23.202  1.00  0.00     0.087 A 
ATOM     87  C   UNL A   1      30.011  29.987  21.947  1.00  0.00     0.200 A 
ATOM     88  C   UNL A   1      28.561  28.567  23.231  1.00  0.00     0.108 A 
ATOM     89  Br  UNL A   1      29.224  25.955  24.106  1.00  0.00    -0.045 Br
ATOM     90  C   UNL A   1      28.795  29.781  22.582  1.00  0.00     0.288 A 
BRANCH  90  91
ATOM     91  N   UNL A   1      27.783  30.827  22.552  1.00  0.00     0.064 N 
ATOM     92  O   UNL A   1      27.232  31.121  23.622  1.00  0.00    -0.258 OA
ATOM     93  O   UNL A   1      27.533  31.354  21.461  1.00  0.00    -0.258 OA
ENDBRANCH  90  91
ENDBRANCH  83  84
ENDBRANCH  81  83
ENDBRANCH  75  77
ENDBRANCH  74  75
ENDBRANCH  73  74
ENDBRANCH  72  73
ENDBRANCH   1  72
TORSDOF 20
ENDMDL
MODEL 3
REMARK VINA RESULT:     -11.0      4.969      8.554
REMARK SMILES O=C(OCCOCCOC(=O)c1cccc(Oc2ncc([N+](=O)[O-])cc2Br)c1)c1ccc(-c2c3nc(c(-c4cc(S(=O)(=O)[O-])ccc4F)c4ccc([nH]4)c(-c4cc(S(=O)(=O)[O-])ccc4F)c4nc(c(-c5cc(S(=O)(=O)[O-])ccc5F)c5ccc2[nH]5)C=C4)C=C3)cc1
REMARK SMILES IDX 6 1 5 2 4 3 3 4 2 5 1 6 29 7 30 8 91 9 31 10 90 11 32 12
REMARK SMILES IDX 33 13 34 14 84 15 35 16 89 17 83 18 85 19 36 20 88 21 82 22
REMARK SMILES IDX 81 23 37 25 69 26 49 27 68 28 50 29 53 30 67 31 86 32 51 33
REMARK SMILES IDX 52 34 66 36 87 37 54 38 38 39 39 40 47 41 40 42 46 43 48 44
REMARK SMILES IDX 45 45 41 46 42 47 43 48 44 49 70 50 71 51 79 52 72 53 78 54
REMARK SMILES IDX 80 55 77 56 73 57 74 58 75 59 76 60 55 61 56 62 64 63 57 64
REMARK SMILES IDX 63 65 65 66 62 67 58 68 59 69 60 70 61 71 7 72 8 73 9 74
REMARK SMILES IDX 10 75 11 76 12 77 13 78 28 79 14 80 16 81 15 82 17 83 18 84
REMARK SMILES IDX 19 85 26 86 20 87 25 88 27 89 21 90 22 91 23 92 24 93
REMARK H PARENT 85 24 53 35
REMARK Flexibility Score: inf
ROOT
ATOM      1  O   UNL A   1      36.983  21.473  25.649  1.00  0.00    -0.374 OA
ENDROOT
BRANCH   1   2
ATOM      2  C   UNL A   1      37.245  20.331  24.839  1.00  0.00     0.202 C 
BRANCH   2   3
ATOM      3  C   UNL A   1      38.591  19.651  25.105  1.00  0.00     0.261 C 
BRANCH   3   4
ATOM      4  O   UNL A   1      39.065  19.984  26.422  1.00  0.00    -0.460 OA
BRANCH   4   5
ATOM      5  C   UNL A   1      40.331  20.309  26.784  1.00  0.00     0.338 C 
ATOM      6  O   UNL A   1      41.165  19.413  26.890  1.00  0.00    -0.246 OA
BRANCH   5   7
ATOM      7  C   UNL A   1      40.758  21.710  27.071  1.00  0.00     0.060 A 
ATOM      8  C   UNL A   1      41.774  22.042  27.962  1.00  0.00     0.016 A 
ATOM      9  C   UNL A   1      40.166  22.750  26.337  1.00  0.00     0.016 A 
ATOM     10  C   UNL A   1      42.165  23.340  28.181  1.00  0.00     0.010 A 
ATOM     11  C   UNL A   1      40.595  24.073  26.507  1.00  0.00     0.010 A 
ATOM     12  C   UNL A   1      41.602  24.361  27.435  1.00  0.00    -0.014 A 
BRANCH  12  13
ATOM     13  C   UNL A   1      42.066  25.711  27.775  1.00  0.00     0.031 A 
ATOM     14  C   UNL A   1      43.351  26.180  27.176  1.00  0.00     0.074 A 
ATOM     15  C   UNL A   1      41.208  26.547  28.393  1.00  0.00     0.049 A 
ATOM     16  N   UNL A   1      43.953  27.326  27.313  1.00  0.00    -0.248 NA
ATOM     17  C   UNL A   1      44.041  25.234  26.281  1.00  0.00     0.031 C 
ATOM     18  C   UNL A   1      39.850  26.188  28.829  1.00  0.00     0.029 A 
ATOM     19  N   UNL A   1      41.310  27.874  28.703  1.00  0.00    -0.354 N 
ATOM     20  C   UNL A   1      45.102  27.236  26.541  1.00  0.00     0.074 A 
ATOM     21  C   UNL A   1      45.125  25.917  25.950  1.00  0.00     0.031 C 
ATOM     22  C   UNL A   1      39.242  27.278  29.320  1.00  0.00     0.029 A 
ATOM     23  C   UNL A   1      40.194  28.379  29.330  1.00  0.00     0.049 A 
ATOM     24  H   UNL A   1      42.106  28.416  28.499  1.00  0.00     0.167 HD
ATOM     25  C   UNL A   1      46.049  28.184  26.357  1.00  0.00     0.034 A 
ATOM     26  C   UNL A   1      39.998  29.585  29.895  1.00  0.00     0.034 A 
ATOM     27  C   UNL A   1      45.976  29.479  26.984  1.00  0.00     0.049 A 
ATOM     28  C   UNL A   1      41.141  30.566  29.806  1.00  0.00     0.074 A 
ATOM     29  C   UNL A   1      46.909  30.496  26.985  1.00  0.00     0.029 A 
ATOM     30  N   UNL A   1      44.888  29.930  27.728  1.00  0.00    -0.354 N 
ATOM     31  N   UNL A   1      42.290  30.439  29.176  1.00  0.00    -0.248 NA
ATOM     32  C   UNL A   1      40.972  31.841  30.505  1.00  0.00     0.031 C 
ATOM     33  C   UNL A   1      46.415  31.533  27.784  1.00  0.00     0.029 A 
ATOM     34  C   UNL A   1      45.137  31.202  28.211  1.00  0.00     0.049 A 
ATOM     35  H   UNL A   1      44.062  29.418  27.886  1.00  0.00     0.167 HD
ATOM     36  C   UNL A   1      42.973  31.630  29.389  1.00  0.00     0.074 A 
ATOM     37  C   UNL A   1      42.087  32.473  30.168  1.00  0.00     0.031 C 
ATOM     38  C   UNL A   1      44.219  31.999  28.992  1.00  0.00     0.034 A 
BRANCH  25  39
ATOM     39  C   UNL A   1      47.256  27.797  25.545  1.00  0.00     0.023 A 
ATOM     40  C   UNL A   1      47.361  28.098  24.176  1.00  0.00     0.031 A 
ATOM     41  C   UNL A   1      48.282  27.040  26.136  1.00  0.00     0.131 A 
ATOM     42  C   UNL A   1      48.433  27.586  23.429  1.00  0.00     0.055 A 
ATOM     43  C   UNL A   1      49.387  26.601  25.405  1.00  0.00     0.041 A 
ATOM     44  F   UNL A   1      48.215  26.688  27.430  1.00  0.00    -0.206 F 
ATOM     45  C   UNL A   1      49.461  26.863  24.039  1.00  0.00     0.022 A 
BRANCH  42  46
ATOM     46  S   UNL A   1      48.394  27.753  21.623  1.00  0.00     0.124 S 
ATOM     47  O   UNL A   1      48.665  26.384  21.195  1.00  0.00    -0.237 OA
ATOM     48  O   UNL A   1      47.042  28.242  21.378  1.00  0.00    -0.237 OA
ATOM     49  O   UNL A   1      49.463  28.710  21.344  1.00  0.00    -0.744 OA
ENDBRANCH  42  46
ENDBRANCH  25  39
BRANCH  26  50
ATOM     50  C   UNL A   1      38.759  29.892  30.675  1.00  0.00     0.023 A 
ATOM     51  C   UNL A   1      37.716  30.654  30.128  1.00  0.00     0.031 A 
ATOM     52  C   UNL A   1      38.647  29.510  32.027  1.00  0.00     0.131 A 
ATOM     53  C   UNL A   1      36.651  31.073  30.945  1.00  0.00     0.055 A 
ATOM     54  C   UNL A   1      37.548  29.863  32.812  1.00  0.00     0.041 A 
ATOM     55  F   UNL A   1      39.615  28.791  32.619  1.00  0.00    -0.206 F 
ATOM     56  C   UNL A   1      36.552  30.670  32.278  1.00  0.00     0.022 A 
BRANCH  53  57
ATOM     57  S   UNL A   1      35.473  32.284  30.280  1.00  0.00     0.124 S 
ATOM     58  O   UNL A   1      35.082  31.658  29.022  1.00  0.00    -0.237 OA
ATOM     59  O   UNL A   1      34.453  32.317  31.323  1.00  0.00    -0.237 OA
ATOM     60  O   UNL A   1      36.272  33.500  30.151  1.00  0.00    -0.744 OA
ENDBRANCH  53  57
ENDBRANCH  26  50
BRANCH  38  61
ATOM     61  C   UNL A   1      44.653  33.390  29.373  1.00  0.00     0.023 A 
ATOM     62  C   UNL A   1      44.541  34.464  28.473  1.00  0.00     0.031 A 
ATOM     63  C   UNL A   1      45.211  33.635  30.639  1.00  0.00     0.131 A 
ATOM     64  C   UNL A   1      45.058  35.717  28.824  1.00  0.00     0.055 A 
ATOM     65  C   UNL A   1      45.645  34.905  31.013  1.00  0.00     0.041 A 
ATOM     66  F   UNL A   1      45.341  32.641  31.534  1.00  0.00    -0.206 F 
ATOM     67  C   UNL A   1      45.588  35.951  30.095  1.00  0.00     0.022 A 
BRANCH  64  68
ATOM     68  S   UNL A   1      45.148  36.999  27.546  1.00  0.00     0.124 S 
ATOM     69  O   UNL A   1      46.022  37.985  28.169  1.00  0.00    -0.237 OA
ATOM     70  O   UNL A   1      45.713  36.271  26.414  1.00  0.00    -0.237 OA
ATOM     71  O   UNL A   1      43.756  37.415  27.382  1.00  0.00    -0.744 OA
ENDBRANCH  64  68
ENDBRANCH  38  61
ENDBRANCH  12  13
ENDBRANCH   5   7
ENDBRANCH   4   5
ENDBRANCH   3   4
ENDBRANCH   2   3
ENDBRANCH   1   2
BRANCH   1  72
ATOM     72  C   UNL A   1      35.662  22.016  25.633  1.00  0.00     0.202 C 
BRANCH  72  73
ATOM     73  C   UNL A   1      34.676  20.874  25.379  1.00  0.00     0.261 C 
BRANCH  73  74
ATOM     74  O   UNL A   1      33.970  21.178  24.170  1.00  0.00    -0.460 OA
BRANCH  74  75
ATOM     75  C   UNL A   1      32.657  21.484  24.339  1.00  0.00     0.338 C 
ATOM     76  O   UNL A   1      31.851  20.926  25.067  1.00  0.00    -0.246 OA
BRANCH  75  77
ATOM     77  C   UNL A   1      32.358  22.692  23.539  1.00  0.00     0.063 A 
ATOM     78  C   UNL A   1      33.329  23.297  22.743  1.00  0.00     0.016 A 
ATOM     79  C   UNL A   1      31.109  23.283  23.672  1.00  0.00     0.062 A 
ATOM     80  C   UNL A   1      33.057  24.534  22.152  1.00  0.00     0.005 A 
ATOM     81  C   UNL A   1      30.942  24.616  23.319  1.00  0.00     0.130 A 
ATOM     82  C   UNL A   1      31.884  25.222  22.488  1.00  0.00     0.047 A 
BRANCH  81  83
ATOM     83  O   UNL A   1      29.954  25.403  23.891  1.00  0.00    -0.438 OA
BRANCH  83  84
ATOM     84  C   UNL A   1      30.405  26.431  24.711  1.00  0.00     0.234 A 
ATOM     85  N   UNL A   1      30.907  25.998  25.895  1.00  0.00    -0.214 NA
ATOM     86  C   UNL A   1      30.535  27.763  24.271  1.00  0.00     0.087 A 
ATOM     87  C   UNL A   1      31.636  26.880  26.623  1.00  0.00     0.200 A 
ATOM     88  C   UNL A   1      31.338  28.636  25.012  1.00  0.00     0.108 A 
ATOM     89  Br  UNL A   1      29.769  28.420  22.664  1.00  0.00    -0.045 Br
ATOM     90  C   UNL A   1      31.902  28.176  26.204  1.00  0.00     0.288 A 
BRANCH  90  91
ATOM     91  N   UNL A   1      32.770  29.026  27.006  1.00  0.00     0.064 N 
ATOM     92  O   UNL A   1      32.396  30.188  27.219  1.00  0.00    -0.258 OA
ATOM     93  O   UNL A   1      33.829  28.538  27.421  1.00  0.00    -0.258 OA
ENDBRANCH  90  91
ENDBRANCH  83  84
ENDBRANCH  81  83
ENDBRANCH  75  77
ENDBRANCH  74  75
ENDBRANCH  73  74
ENDBRANCH  72  73
ENDBRANCH   1  72
TORSDOF 20
ENDMDL
