MODEL 1
REMARK VINA RESULT:     -10.6      0.000      0.000
REMARK SMILES CCOc1cc(N2CCOCC2)ccc1[C@H]([NH3+])C(=O)OCCOCCOC(=O)c1ccc(-c2c3nc(c(-c4cc(S(=O)(=O)[O-])ccc4F)c4ccc([nH]4)c(-c4cc(S(=O)(=O)[O-])ccc4F)c4nc(c(-c5cc(S(=O)(=O)[O-])ccc5F)c5ccc2[nH]5)C=C4)C=C3)cc1
REMARK SMILES IDX 23 1 22 2 21 3 20 4 18 5 19 6 16 7 15 8 4 9 5 10 6 11 14 12
REMARK SMILES IDX 13 13 3 14 2 15 1 16 7 17 8 18 12 19 9 20 11 21 10 22 17 23
REMARK SMILES IDX 24 27 25 28 26 29 27 30 28 31 29 32 30 33 91 34 31 35 90 36
REMARK SMILES IDX 32 37 33 38 34 39 84 40 35 41 89 42 83 43 85 44 36 45 88 46
REMARK SMILES IDX 82 47 81 48 37 50 69 51 49 52 68 53 50 54 53 55 67 56 86 57
REMARK SMILES IDX 51 58 52 59 66 61 87 62 54 63 38 64 39 65 47 66 40 67 46 68
REMARK SMILES IDX 48 69 45 70 41 71 42 72 43 73 44 74 70 75 71 76 79 77 72 78
REMARK SMILES IDX 78 79 80 80 77 81 73 82 74 83 75 84 76 85 55 86 56 87 64 88
REMARK SMILES IDX 57 89 63 90 65 91 62 92 58 93 59 94 60 95 61 96
REMARK H PARENT 17 24 17 25 17 26 85 49 53 60
REMARK Flexibility Score: inf
ROOT
ATOM      1  O   UNL A   1      32.127  29.493  26.881  1.00  0.00    -0.374 OA
ENDROOT
BRANCH   1   2
ATOM      2  C   UNL A   1      31.384  28.301  26.610  1.00  0.00     0.202 C 
BRANCH   2   3
ATOM      3  C   UNL A   1      32.189  27.002  26.712  1.00  0.00     0.261 C 
BRANCH   3   4
ATOM      4  O   UNL A   1      32.346  26.412  25.403  1.00  0.00    -0.459 OA
BRANCH   4   5
ATOM      5  C   UNL A   1      31.610  25.299  25.125  1.00  0.00     0.369 C 
ATOM      6  O   UNL A   1      31.393  24.399  25.930  1.00  0.00    -0.245 OA
BRANCH   5   7
ATOM      7  C   UNL A   1      31.086  25.282  23.665  1.00  0.00     0.326 C 
BRANCH   7   8
ATOM      8  C   UNL A   1      30.254  26.515  23.365  1.00  0.00     0.063 A 
ATOM      9  C   UNL A   1      30.738  27.571  22.575  1.00  0.00     0.131 A 
ATOM     10  C   UNL A   1      29.915  28.636  22.209  1.00  0.00     0.072 A 
ATOM     11  C   UNL A   1      28.619  28.734  22.726  1.00  0.00     0.040 A 
ATOM     12  C   UNL A   1      28.957  26.619  23.882  1.00  0.00     0.016 A 
ATOM     13  C   UNL A   1      28.163  27.730  23.586  1.00  0.00     0.027 A 
BRANCH   9  14
ATOM     14  O   UNL A   1      32.097  27.695  22.472  1.00  0.00    -0.493 OA
BRANCH  14  15
ATOM     15  C   UNL A   1      32.643  28.975  22.765  1.00  0.00     0.226 C 
ATOM     16  C   UNL A   1      33.968  28.672  23.443  1.00  0.00     0.049 C 
ENDBRANCH  14  15
ENDBRANCH   9  14
BRANCH  11  17
ATOM     17  N   UNL A   1      27.874  29.861  22.460  1.00  0.00    -0.367 N 
ATOM     18  C   UNL A   1      27.983  30.503  21.148  1.00  0.00     0.145 C 
ATOM     19  C   UNL A   1      27.403  30.709  23.556  1.00  0.00     0.145 C 
ATOM     20  C   UNL A   1      28.710  31.851  21.266  1.00  0.00     0.181 C 
ATOM     21  C   UNL A   1      28.157  32.049  23.557  1.00  0.00     0.181 C 
ATOM     22  O   UNL A   1      28.116  32.694  22.270  1.00  0.00    -0.378 OA
ENDBRANCH  11  17
ENDBRANCH   7   8
BRANCH   7  23
ATOM     23  N   UNL A   1      30.400  24.022  23.273  1.00  0.00    -0.342 N 
ATOM     24  H   UNL A   1      29.717  23.771  23.987  1.00  0.00     0.345 HD
ATOM     25  H   UNL A   1      31.088  23.274  23.182  1.00  0.00     0.345 HD
ATOM     26  H   UNL A   1      29.924  24.157  22.381  1.00  0.00     0.345 HD
ENDBRANCH   7  23
ENDBRANCH   5   7
ENDBRANCH   4   5
ENDBRANCH   3   4
ENDBRANCH   2   3
ENDBRANCH   1   2
BRANCH   1  27
ATOM     27  C   UNL A   1      31.804  30.641  26.105  1.00  0.00     0.202 C 
BRANCH  27  28
ATOM     28  C   UNL A   1      31.601  31.960  26.867  1.00  0.00     0.261 C 
BRANCH  28  29
ATOM     29  O   UNL A   1      32.677  32.905  26.726  1.00  0.00    -0.460 OA
BRANCH  29  30
ATOM     30  C   UNL A   1      33.186  33.354  27.905  1.00  0.00     0.338 C 
ATOM     31  O   UNL A   1      32.632  34.093  28.699  1.00  0.00    -0.246 OA
BRANCH  30  32
ATOM     32  C   UNL A   1      34.487  32.712  28.196  1.00  0.00     0.060 A 
ATOM     33  C   UNL A   1      34.479  31.356  28.542  1.00  0.00     0.016 A 
ATOM     34  C   UNL A   1      35.684  33.434  28.220  1.00  0.00     0.016 A 
ATOM     35  C   UNL A   1      35.655  30.730  28.962  1.00  0.00     0.010 A 
ATOM     36  C   UNL A   1      36.865  32.801  28.639  1.00  0.00     0.010 A 
ATOM     37  C   UNL A   1      36.851  31.455  29.052  1.00  0.00    -0.014 A 
BRANCH  37  38
ATOM     38  C   UNL A   1      38.035  30.846  29.726  1.00  0.00     0.031 A 
ATOM     39  C   UNL A   1      38.323  31.202  31.164  1.00  0.00     0.074 A 
ATOM     40  C   UNL A   1      38.819  29.951  29.095  1.00  0.00     0.049 A 
ATOM     41  N   UNL A   1      39.305  30.813  31.938  1.00  0.00    -0.248 NA
ATOM     42  C   UNL A   1      37.377  32.122  31.815  1.00  0.00     0.031 C 
ATOM     43  C   UNL A   1      38.627  29.478  27.724  1.00  0.00     0.029 A 
ATOM     44  N   UNL A   1      39.938  29.276  29.526  1.00  0.00    -0.354 N 
ATOM     45  C   UNL A   1      39.100  31.444  33.161  1.00  0.00     0.074 A 
ATOM     46  C   UNL A   1      37.921  32.270  33.013  1.00  0.00     0.031 C 
ATOM     47  C   UNL A   1      39.595  28.594  27.427  1.00  0.00     0.029 A 
ATOM     48  C   UNL A   1      40.504  28.467  28.566  1.00  0.00     0.049 A 
ATOM     49  H   UNL A   1      40.301  29.365  30.436  1.00  0.00     0.167 HD
ATOM     50  C   UNL A   1      39.819  31.336  34.307  1.00  0.00     0.034 A 
ATOM     51  C   UNL A   1      41.636  27.730  28.592  1.00  0.00     0.034 A 
ATOM     52  C   UNL A   1      40.992  30.509  34.451  1.00  0.00     0.049 A 
ATOM     53  C   UNL A   1      42.473  27.701  29.852  1.00  0.00     0.074 A 
ATOM     54  C   UNL A   1      41.773  30.316  35.579  1.00  0.00     0.029 A 
ATOM     55  N   UNL A   1      41.564  29.749  33.440  1.00  0.00    -0.354 N 
ATOM     56  N   UNL A   1      42.255  28.292  31.004  1.00  0.00    -0.248 NA
ATOM     57  C   UNL A   1      43.703  26.897  29.817  1.00  0.00     0.031 C 
ATOM     58  C   UNL A   1      42.860  29.510  35.229  1.00  0.00     0.029 A 
ATOM     59  C   UNL A   1      42.710  29.120  33.909  1.00  0.00     0.049 A 
ATOM     60  H   UNL A   1      41.210  29.668  32.526  1.00  0.00     0.167 HD
ATOM     61  C   UNL A   1      43.301  27.896  31.839  1.00  0.00     0.074 A 
ATOM     62  C   UNL A   1      44.138  27.006  31.064  1.00  0.00     0.031 C 
ATOM     63  C   UNL A   1      43.544  28.235  33.131  1.00  0.00     0.034 A 
BRANCH  50  64
ATOM     64  C   UNL A   1      39.387  32.174  35.488  1.00  0.00     0.023 A 
ATOM     65  C   UNL A   1      38.672  31.627  36.567  1.00  0.00     0.031 A 
ATOM     66  C   UNL A   1      39.706  33.542  35.535  1.00  0.00     0.131 A 
ATOM     67  C   UNL A   1      38.254  32.456  37.620  1.00  0.00     0.055 A 
ATOM     68  C   UNL A   1      39.356  34.345  36.622  1.00  0.00     0.041 A 
ATOM     69  F   UNL A   1      40.368  34.125  34.522  1.00  0.00    -0.206 F 
ATOM     70  C   UNL A   1      38.615  33.805  37.669  1.00  0.00     0.022 A 
BRANCH  67  71
ATOM     71  S   UNL A   1      37.124  31.776  38.866  1.00  0.00     0.124 S 
ATOM     72  O   UNL A   1      37.009  30.386  38.431  1.00  0.00    -0.237 OA
ATOM     73  O   UNL A   1      37.854  31.998  40.108  1.00  0.00    -0.237 OA
ATOM     74  O   UNL A   1      35.912  32.576  38.702  1.00  0.00    -0.744 OA
ENDBRANCH  67  71
ENDBRANCH  50  64
BRANCH  51  75
ATOM     75  C   UNL A   1      42.093  26.991  27.375  1.00  0.00     0.023 A 
ATOM     76  C   UNL A   1      41.863  25.613  27.229  1.00  0.00     0.031 A 
ATOM     77  C   UNL A   1      42.852  27.638  26.383  1.00  0.00     0.131 A 
ATOM     78  C   UNL A   1      42.438  24.917  26.152  1.00  0.00     0.055 A 
ATOM     79  C   UNL A   1      43.365  26.955  25.280  1.00  0.00     0.041 A 
ATOM     80  F   UNL A   1      43.112  28.952  26.474  1.00  0.00    -0.206 F 
ATOM     81  C   UNL A   1      43.174  25.581  25.169  1.00  0.00     0.022 A 
BRANCH  78  82
ATOM     82  S   UNL A   1      42.315  23.107  26.123  1.00  0.00     0.124 S 
ATOM     83  O   UNL A   1      40.885  22.905  26.331  1.00  0.00    -0.237 OA
ATOM     84  O   UNL A   1      42.822  22.792  24.792  1.00  0.00    -0.237 OA
ATOM     85  O   UNL A   1      43.174  22.690  27.229  1.00  0.00    -0.744 OA
ENDBRANCH  78  82
ENDBRANCH  51  75
BRANCH  63  86
ATOM     86  C   UNL A   1      44.733  27.592  33.810  1.00  0.00     0.023 A 
ATOM     87  C   UNL A   1      46.003  28.195  33.823  1.00  0.00     0.031 A 
ATOM     88  C   UNL A   1      44.591  26.347  34.452  1.00  0.00     0.131 A 
ATOM     89  C   UNL A   1      47.090  27.530  34.411  1.00  0.00     0.055 A 
ATOM     90  C   UNL A   1      45.660  25.722  35.095  1.00  0.00     0.041 A 
ATOM     91  F   UNL A   1      43.404  25.719  34.470  1.00  0.00    -0.206 F 
ATOM     92  C   UNL A   1      46.921  26.306  35.065  1.00  0.00     0.022 A 
BRANCH  89  93
ATOM     93  S   UNL A   1      48.751  28.235  34.227  1.00  0.00     0.124 S 
ATOM     94  O   UNL A   1      49.598  27.144  34.701  1.00  0.00    -0.237 OA
ATOM     95  O   UNL A   1      48.815  28.514  32.796  1.00  0.00    -0.237 OA
ATOM     96  O   UNL A   1      48.721  29.416  35.087  1.00  0.00    -0.744 OA
ENDBRANCH  89  93
ENDBRANCH  63  86
ENDBRANCH  37  38
ENDBRANCH  30  32
ENDBRANCH  29  30
ENDBRANCH  28  29
ENDBRANCH  27  28
ENDBRANCH   1  27
TORSDOF 22
ENDMDL
MODEL 2
REMARK VINA RESULT:     -10.3      3.132      8.945
REMARK SMILES CCOc1cc(N2CCOCC2)ccc1[C@H]([NH3+])C(=O)OCCOCCOC(=O)c1ccc(-c2c3nc(c(-c4cc(S(=O)(=O)[O-])ccc4F)c4ccc([nH]4)c(-c4cc(S(=O)(=O)[O-])ccc4F)c4nc(c(-c5cc(S(=O)(=O)[O-])ccc5F)c5ccc2[nH]5)C=C4)C=C3)cc1
REMARK SMILES IDX 23 1 22 2 21 3 20 4 18 5 19 6 16 7 15 8 4 9 5 10 6 11 14 12
REMARK SMILES IDX 13 13 3 14 2 15 1 16 7 17 8 18 12 19 9 20 11 21 10 22 17 23
REMARK SMILES IDX 24 27 25 28 26 29 27 30 28 31 29 32 30 33 91 34 31 35 90 36
REMARK SMILES IDX 32 37 33 38 34 39 84 40 35 41 89 42 83 43 85 44 36 45 88 46
REMARK SMILES IDX 82 47 81 48 37 50 69 51 49 52 68 53 50 54 53 55 67 56 86 57
REMARK SMILES IDX 51 58 52 59 66 61 87 62 54 63 38 64 39 65 47 66 40 67 46 68
REMARK SMILES IDX 48 69 45 70 41 71 42 72 43 73 44 74 70 75 71 76 79 77 72 78
REMARK SMILES IDX 78 79 80 80 77 81 73 82 74 83 75 84 76 85 55 86 56 87 64 88
REMARK SMILES IDX 57 89 63 90 65 91 62 92 58 93 59 94 60 95 61 96
REMARK H PARENT 17 24 17 25 17 26 85 49 53 60
REMARK Flexibility Score: inf
ROOT
ATOM      1  O   UNL A   1      31.701  29.074  23.518  1.00  0.00    -0.374 OA
ENDROOT
BRANCH   1   2
ATOM      2  C   UNL A   1      31.924  27.831  22.847  1.00  0.00     0.202 C 
BRANCH   2   3
ATOM      3  C   UNL A   1      33.163  27.060  23.312  1.00  0.00     0.261 C 
BRANCH   3   4
ATOM      4  O   UNL A   1      32.825  25.674  23.547  1.00  0.00    -0.459 OA
BRANCH   4   5
ATOM      5  C   UNL A   1      33.848  24.774  23.556  1.00  0.00     0.369 C 
ATOM      6  O   UNL A   1      34.625  24.605  22.621  1.00  0.00    -0.245 OA
BRANCH   5   7
ATOM      7  C   UNL A   1      33.916  23.964  24.877  1.00  0.00     0.326 C 
BRANCH   7   8
ATOM      8  C   UNL A   1      33.583  22.503  24.645  1.00  0.00     0.063 A 
ATOM      9  C   UNL A   1      34.214  21.469  25.356  1.00  0.00     0.131 A 
ATOM     10  C   UNL A   1      33.805  20.142  25.217  1.00  0.00     0.072 A 
ATOM     11  C   UNL A   1      32.834  19.801  24.270  1.00  0.00     0.040 A 
ATOM     12  C   UNL A   1      32.613  22.156  23.696  1.00  0.00     0.016 A 
ATOM     13  C   UNL A   1      32.266  20.817  23.495  1.00  0.00     0.027 A 
BRANCH   9  14
ATOM     14  O   UNL A   1      35.435  21.750  25.905  1.00  0.00    -0.493 OA
BRANCH  14  15
ATOM     15  C   UNL A   1      36.557  21.085  25.337  1.00  0.00     0.226 C 
ATOM     16  C   UNL A   1      37.201  22.131  24.444  1.00  0.00     0.049 C 
ENDBRANCH  14  15
ENDBRANCH   9  14
BRANCH  11  17
ATOM     17  N   UNL A   1      32.544  18.471  24.055  1.00  0.00    -0.367 N 
ATOM     18  C   UNL A   1      32.345  17.583  25.203  1.00  0.00     0.145 C 
ATOM     19  C   UNL A   1      32.931  17.826  22.801  1.00  0.00     0.145 C 
ATOM     20  C   UNL A   1      33.514  16.596  25.330  1.00  0.00     0.181 C 
ATOM     21  C   UNL A   1      34.072  16.825  23.044  1.00  0.00     0.181 C 
ATOM     22  O   UNL A   1      33.760  15.895  24.099  1.00  0.00    -0.378 OA
ENDBRANCH  11  17
ENDBRANCH   7   8
BRANCH   7  23
ATOM     23  N   UNL A   1      33.142  24.556  26.000  1.00  0.00    -0.342 N 
ATOM     24  H   UNL A   1      33.773  24.773  26.771  1.00  0.00     0.345 HD
ATOM     25  H   UNL A   1      32.436  23.890  26.315  1.00  0.00     0.345 HD
ATOM     26  H   UNL A   1      32.684  25.411  25.684  1.00  0.00     0.345 HD
ENDBRANCH   7  23
ENDBRANCH   5   7
ENDBRANCH   4   5
ENDBRANCH   3   4
ENDBRANCH   2   3
ENDBRANCH   1   2
BRANCH   1  27
ATOM     27  C   UNL A   1      32.370  29.263  24.760  1.00  0.00     0.202 C 
BRANCH  27  28
ATOM     28  C   UNL A   1      31.521  29.775  25.934  1.00  0.00     0.261 C 
BRANCH  28  29
ATOM     29  O   UNL A   1      32.252  29.978  27.157  1.00  0.00    -0.460 OA
BRANCH  29  30
ATOM     30  C   UNL A   1      32.935  31.153  27.213  1.00  0.00     0.338 C 
ATOM     31  O   UNL A   1      32.478  32.266  27.027  1.00  0.00    -0.246 OA
BRANCH  30  32
ATOM     32  C   UNL A   1      34.321  30.934  27.679  1.00  0.00     0.060 A 
ATOM     33  C   UNL A   1      34.751  29.613  27.842  1.00  0.00     0.016 A 
ATOM     34  C   UNL A   1      35.161  31.993  28.038  1.00  0.00     0.016 A 
ATOM     35  C   UNL A   1      36.000  29.343  28.410  1.00  0.00     0.010 A 
ATOM     36  C   UNL A   1      36.416  31.719  28.606  1.00  0.00     0.010 A 
ATOM     37  C   UNL A   1      36.827  30.392  28.833  1.00  0.00    -0.014 A 
BRANCH  37  38
ATOM     38  C   UNL A   1      38.038  30.093  29.651  1.00  0.00     0.031 A 
ATOM     39  C   UNL A   1      39.083  29.154  29.098  1.00  0.00     0.074 A 
ATOM     40  C   UNL A   1      38.242  30.680  30.847  1.00  0.00     0.049 A 
ATOM     41  N   UNL A   1      40.197  28.734  29.641  1.00  0.00    -0.248 NA
ATOM     42  C   UNL A   1      38.833  28.615  27.751  1.00  0.00     0.031 C 
ATOM     43  C   UNL A   1      37.341  31.644  31.478  1.00  0.00     0.029 A 
ATOM     44  N   UNL A   1      39.275  30.551  31.747  1.00  0.00    -0.354 N 
ATOM     45  C   UNL A   1      40.778  27.879  28.709  1.00  0.00     0.074 A 
ATOM     46  C   UNL A   1      39.872  27.811  27.583  1.00  0.00     0.031 C 
ATOM     47  C   UNL A   1      37.860  32.017  32.661  1.00  0.00     0.029 A 
ATOM     48  C   UNL A   1      39.105  31.287  32.897  1.00  0.00     0.049 A 
ATOM     49  H   UNL A   1      40.061  29.983  31.582  1.00  0.00     0.167 HD
ATOM     50  C   UNL A   1      41.962  27.220  28.779  1.00  0.00     0.034 A 
ATOM     51  C   UNL A   1      39.853  31.349  34.021  1.00  0.00     0.034 A 
ATOM     52  C   UNL A   1      42.864  27.293  29.903  1.00  0.00     0.049 A 
ATOM     53  C   UNL A   1      41.123  30.531  34.112  1.00  0.00     0.074 A 
ATOM     54  C   UNL A   1      44.097  26.682  30.055  1.00  0.00     0.029 A 
ATOM     55  N   UNL A   1      42.630  28.006  31.071  1.00  0.00    -0.354 N 
ATOM     56  N   UNL A   1      41.664  29.739  33.215  1.00  0.00    -0.248 NA
ATOM     57  C   UNL A   1      41.886  30.622  35.365  1.00  0.00     0.031 C 
ATOM     58  C   UNL A   1      44.568  26.954  31.343  1.00  0.00     0.029 A 
ATOM     59  C   UNL A   1      43.677  27.814  31.962  1.00  0.00     0.049 A 
ATOM     60  H   UNL A   1      41.839  28.565  31.242  1.00  0.00     0.167 HD
ATOM     61  C   UNL A   1      42.850  29.273  33.784  1.00  0.00     0.074 A 
ATOM     62  C   UNL A   1      42.951  29.883  35.091  1.00  0.00     0.031 C 
ATOM     63  C   UNL A   1      43.773  28.422  33.268  1.00  0.00     0.034 A 
BRANCH  50  64
ATOM     64  C   UNL A   1      42.333  26.319  27.624  1.00  0.00     0.023 A 
ATOM     65  C   UNL A   1      41.898  24.985  27.551  1.00  0.00     0.031 A 
ATOM     66  C   UNL A   1      43.128  26.812  26.574  1.00  0.00     0.131 A 
ATOM     67  C   UNL A   1      42.306  24.174  26.479  1.00  0.00     0.055 A 
ATOM     68  C   UNL A   1      43.464  26.024  25.472  1.00  0.00     0.041 A 
ATOM     69  F   UNL A   1      43.591  28.072  26.600  1.00  0.00    -0.206 F 
ATOM     70  C   UNL A   1      43.063  24.693  25.425  1.00  0.00     0.022 A 
BRANCH  67  71
ATOM     71  S   UNL A   1      41.938  22.400  26.543  1.00  0.00     0.124 S 
ATOM     72  O   UNL A   1      40.483  22.395  26.409  1.00  0.00    -0.237 OA
ATOM     73  O   UNL A   1      42.685  21.881  25.403  1.00  0.00    -0.237 OA
ATOM     74  O   UNL A   1      42.438  21.993  27.855  1.00  0.00    -0.744 OA
ENDBRANCH  67  71
ENDBRANCH  50  64
BRANCH  51  75
ATOM     75  C   UNL A   1      39.411  32.171  35.188  1.00  0.00     0.023 A 
ATOM     76  C   UNL A   1      39.883  33.480  35.379  1.00  0.00     0.031 A 
ATOM     77  C   UNL A   1      38.579  31.622  36.181  1.00  0.00     0.131 A 
ATOM     78  C   UNL A   1      39.573  34.171  36.563  1.00  0.00     0.055 A 
ATOM     79  C   UNL A   1      38.219  32.338  37.324  1.00  0.00     0.041 A 
ATOM     80  F   UNL A   1      38.104  30.373  36.057  1.00  0.00    -0.206 F 
ATOM     81  C   UNL A   1      38.731  33.615  37.528  1.00  0.00     0.022 A 
BRANCH  78  82
ATOM     82  S   UNL A   1      40.387  35.762  36.879  1.00  0.00     0.124 S 
ATOM     83  O   UNL A   1      41.782  35.440  36.599  1.00  0.00    -0.237 OA
ATOM     84  O   UNL A   1      39.722  36.636  35.920  1.00  0.00    -0.237 OA
ATOM     85  O   UNL A   1      40.077  36.029  38.283  1.00  0.00    -0.744 OA
ENDBRANCH  78  82
ENDBRANCH  51  75
BRANCH  63  86
ATOM     86  C   UNL A   1      45.008  28.146  34.097  1.00  0.00     0.023 A 
ATOM     87  C   UNL A   1      46.169  28.935  33.996  1.00  0.00     0.031 A 
ATOM     88  C   UNL A   1      45.026  27.067  35.000  1.00  0.00     0.131 A 
ATOM     89  C   UNL A   1      47.311  28.601  34.739  1.00  0.00     0.055 A 
ATOM     90  C   UNL A   1      46.141  26.780  35.787  1.00  0.00     0.041 A 
ATOM     91  F   UNL A   1      43.950  26.274  35.138  1.00  0.00    -0.206 F 
ATOM     92  C   UNL A   1      47.298  27.540  35.649  1.00  0.00     0.022 A 
BRANCH  89  93
ATOM     93  S   UNL A   1      48.851  29.508  34.430  1.00  0.00     0.124 S 
ATOM     94  O   UNL A   1      49.549  29.364  35.704  1.00  0.00    -0.237 OA
ATOM     95  O   UNL A   1      49.425  28.777  33.305  1.00  0.00    -0.237 OA
ATOM     96  O   UNL A   1      48.397  30.863  34.121  1.00  0.00    -0.744 OA
ENDBRANCH  89  93
ENDBRANCH  63  86
ENDBRANCH  37  38
ENDBRANCH  30  32
ENDBRANCH  29  30
ENDBRANCH  28  29
ENDBRANCH  27  28
ENDBRANCH   1  27
TORSDOF 22
ENDMDL
MODEL 3
REMARK VINA RESULT:     -10.2      3.560      5.758
REMARK SMILES CCOc1cc(N2CCOCC2)ccc1[C@H]([NH3+])C(=O)OCCOCCOC(=O)c1ccc(-c2c3nc(c(-c4cc(S(=O)(=O)[O-])ccc4F)c4ccc([nH]4)c(-c4cc(S(=O)(=O)[O-])ccc4F)c4nc(c(-c5cc(S(=O)(=O)[O-])ccc5F)c5ccc2[nH]5)C=C4)C=C3)cc1
REMARK SMILES IDX 23 1 22 2 21 3 20 4 18 5 19 6 16 7 15 8 4 9 5 10 6 11 14 12
REMARK SMILES IDX 13 13 3 14 2 15 1 16 7 17 8 18 12 19 9 20 11 21 10 22 17 23
REMARK SMILES IDX 24 27 25 28 26 29 27 30 28 31 29 32 30 33 91 34 31 35 90 36
REMARK SMILES IDX 32 37 33 38 34 39 84 40 35 41 89 42 83 43 85 44 36 45 88 46
REMARK SMILES IDX 82 47 81 48 37 50 69 51 49 52 68 53 50 54 53 55 67 56 86 57
REMARK SMILES IDX 51 58 52 59 66 61 87 62 54 63 38 64 39 65 47 66 40 67 46 68
REMARK SMILES IDX 48 69 45 70 41 71 42 72 43 73 44 74 70 75 71 76 79 77 72 78
REMARK SMILES IDX 78 79 80 80 77 81 73 82 74 83 75 84 76 85 55 86 56 87 64 88
REMARK SMILES IDX 57 89 63 90 65 91 62 92 58 93 59 94 60 95 61 96
REMARK H PARENT 17 24 17 25 17 26 85 49 53 60
REMARK Flexibility Score: inf
ROOT
ATOM      1  O   UNL A   1      31.553  28.810  24.016  1.00  0.00    -0.374 OA
ENDROOT
BRANCH   1   2
ATOM      2  C   UNL A   1      31.501  27.547  23.348  1.00  0.00     0.202 C 
BRANCH   2   3
ATOM      3  C   UNL A   1      32.847  26.824  23.227  1.00  0.00     0.261 C 
BRANCH   3   4
ATOM      4  O   UNL A   1      32.766  25.520  23.844  1.00  0.00    -0.459 OA
BRANCH   4   5
ATOM      5  C   UNL A   1      33.811  24.668  23.643  1.00  0.00     0.369 C 
ATOM      6  O   UNL A   1      34.393  24.533  22.572  1.00  0.00    -0.245 OA
BRANCH   5   7
ATOM      7  C   UNL A   1      34.178  23.867  24.920  1.00  0.00     0.326 C 
BRANCH   7   8
ATOM      8  C   UNL A   1      33.780  22.409  24.789  1.00  0.00     0.063 A 
ATOM      9  C   UNL A   1      32.446  22.011  24.601  1.00  0.00     0.131 A 
ATOM     10  C   UNL A   1      32.117  20.678  24.359  1.00  0.00     0.072 A 
ATOM     11  C   UNL A   1      33.103  19.687  24.420  1.00  0.00     0.040 A 
ATOM     12  C   UNL A   1      34.763  21.414  24.852  1.00  0.00     0.016 A 
ATOM     13  C   UNL A   1      34.420  20.068  24.697  1.00  0.00     0.027 A 
BRANCH   9  14
ATOM     14  O   UNL A   1      31.476  22.889  25.001  1.00  0.00    -0.493 OA
BRANCH  14  15
ATOM     15  C   UNL A   1      30.590  22.440  26.018  1.00  0.00     0.226 C 
ATOM     16  C   UNL A   1      30.242  23.697  26.795  1.00  0.00     0.049 C 
ENDBRANCH  14  15
ENDBRANCH   9  14
BRANCH  11  17
ATOM     17  N   UNL A   1      32.733  18.365  24.313  1.00  0.00    -0.367 N 
ATOM     18  C   UNL A   1      32.643  17.542  25.522  1.00  0.00     0.145 C 
ATOM     19  C   UNL A   1      32.930  17.644  23.055  1.00  0.00     0.145 C 
ATOM     20  C   UNL A   1      33.777  16.506  25.554  1.00  0.00     0.181 C 
ATOM     21  C   UNL A   1      34.050  16.601  23.207  1.00  0.00     0.181 C 
ATOM     22  O   UNL A   1      33.835  15.738  24.339  1.00  0.00    -0.378 OA
ENDBRANCH  11  17
ENDBRANCH   7   8
BRANCH   7  23
ATOM     23  N   UNL A   1      33.698  24.478  26.188  1.00  0.00    -0.342 N 
ATOM     24  H   UNL A   1      34.219  24.088  26.972  1.00  0.00     0.345 HD
ATOM     25  H   UNL A   1      32.705  24.280  26.307  1.00  0.00     0.345 HD
ATOM     26  H   UNL A   1      33.841  25.488  26.154  1.00  0.00     0.345 HD
ENDBRANCH   7  23
ENDBRANCH   5   7
ENDBRANCH   4   5
ENDBRANCH   3   4
ENDBRANCH   2   3
ENDBRANCH   1   2
BRANCH   1  27
ATOM     27  C   UNL A   1      32.765  29.132  24.688  1.00  0.00     0.202 C 
BRANCH  27  28
ATOM     28  C   UNL A   1      32.680  29.347  26.207  1.00  0.00     0.261 C 
BRANCH  28  29
ATOM     29  O   UNL A   1      33.931  29.200  26.903  1.00  0.00    -0.460 OA
BRANCH  29  30
ATOM     30  C   UNL A   1      34.334  30.314  27.570  1.00  0.00     0.338 C 
ATOM     31  O   UNL A   1      33.683  31.328  27.748  1.00  0.00    -0.246 OA
BRANCH  30  32
ATOM     32  C   UNL A   1      35.655  30.101  28.201  1.00  0.00     0.060 A 
ATOM     33  C   UNL A   1      36.793  30.369  27.431  1.00  0.00     0.016 A 
ATOM     34  C   UNL A   1      35.789  29.566  29.486  1.00  0.00     0.016 A 
ATOM     35  C   UNL A   1      38.064  30.055  27.921  1.00  0.00     0.010 A 
ATOM     36  C   UNL A   1      37.067  29.255  29.976  1.00  0.00     0.010 A 
ATOM     37  C   UNL A   1      38.211  29.460  29.181  1.00  0.00    -0.014 A 
BRANCH  37  38
ATOM     38  C   UNL A   1      39.538  28.913  29.589  1.00  0.00     0.031 A 
ATOM     39  C   UNL A   1      40.308  29.601  30.689  1.00  0.00     0.074 A 
ATOM     40  C   UNL A   1      40.037  27.792  29.032  1.00  0.00     0.049 A 
ATOM     41  N   UNL A   1      41.485  29.316  31.187  1.00  0.00    -0.248 NA
ATOM     42  C   UNL A   1      39.664  30.770  31.308  1.00  0.00     0.031 C 
ATOM     43  C   UNL A   1      39.377  26.998  27.996  1.00  0.00     0.029 A 
ATOM     44  N   UNL A   1      41.219  27.125  29.260  1.00  0.00    -0.354 N 
ATOM     45  C   UNL A   1      41.725  30.270  32.171  1.00  0.00     0.074 A 
ATOM     46  C   UNL A   1      40.588  31.165  32.171  1.00  0.00     0.031 C 
ATOM     47  C   UNL A   1      40.163  25.954  27.677  1.00  0.00     0.029 A 
ATOM     48  C   UNL A   1      41.403  26.026  28.451  1.00  0.00     0.049 A 
ATOM     49  H   UNL A   1      41.872  27.408  29.939  1.00  0.00     0.167 HD
ATOM     50  C   UNL A   1      42.789  30.385  33.005  1.00  0.00     0.034 A 
ATOM     51  C   UNL A   1      42.457  25.190  28.329  1.00  0.00     0.034 A 
ATOM     52  C   UNL A   1      43.919  29.489  33.003  1.00  0.00     0.049 A 
ATOM     53  C   UNL A   1      43.672  25.396  29.207  1.00  0.00     0.074 A 
ATOM     54  C   UNL A   1      45.032  29.510  33.827  1.00  0.00     0.029 A 
ATOM     55  N   UNL A   1      44.093  28.423  32.132  1.00  0.00    -0.354 N 
ATOM     56  N   UNL A   1      43.875  26.295  30.142  1.00  0.00    -0.248 NA
ATOM     57  C   UNL A   1      44.796  24.467  29.018  1.00  0.00     0.031 C 
ATOM     58  C   UNL A   1      45.915  28.513  33.400  1.00  0.00     0.029 A 
ATOM     59  C   UNL A   1      45.313  27.807  32.373  1.00  0.00     0.049 A 
ATOM     60  H   UNL A   1      43.447  28.144  31.445  1.00  0.00     0.167 HD
ATOM     61  C   UNL A   1      45.133  26.012  30.676  1.00  0.00     0.074 A 
ATOM     62  C   UNL A   1      45.632  24.851  29.971  1.00  0.00     0.031 C 
ATOM     63  C   UNL A   1      45.810  26.650  31.664  1.00  0.00     0.034 A 
BRANCH  50  64
ATOM     64  C   UNL A   1      42.806  31.554  33.962  1.00  0.00     0.023 A 
ATOM     65  C   UNL A   1      42.299  31.455  35.269  1.00  0.00     0.031 A 
ATOM     66  C   UNL A   1      43.349  32.787  33.559  1.00  0.00     0.131 A 
ATOM     67  C   UNL A   1      42.297  32.582  36.106  1.00  0.00     0.055 A 
ATOM     68  C   UNL A   1      43.416  33.882  34.422  1.00  0.00     0.041 A 
ATOM     69  F   UNL A   1      43.828  32.949  32.314  1.00  0.00    -0.206 F 
ATOM     70  C   UNL A   1      42.878  33.787  35.701  1.00  0.00     0.022 A 
BRANCH  67  71
ATOM     71  S   UNL A   1      41.414  32.489  37.688  1.00  0.00     0.124 S 
ATOM     72  O   UNL A   1      41.465  33.878  38.136  1.00  0.00    -0.237 OA
ATOM     73  O   UNL A   1      40.102  31.995  37.288  1.00  0.00    -0.237 OA
ATOM     74  O   UNL A   1      42.220  31.557  38.475  1.00  0.00    -0.744 OA
ENDBRANCH  67  71
ENDBRANCH  50  64
BRANCH  51  75
ATOM     75  C   UNL A   1      42.453  24.102  27.303  1.00  0.00     0.023 A 
ATOM     76  C   UNL A   1      41.812  22.876  27.542  1.00  0.00     0.031 A 
ATOM     77  C   UNL A   1      43.174  24.243  26.103  1.00  0.00     0.131 A 
ATOM     78  C   UNL A   1      41.958  21.819  26.626  1.00  0.00     0.055 A 
ATOM     79  C   UNL A   1      43.259  23.213  25.165  1.00  0.00     0.041 A 
ATOM     80  F   UNL A   1      43.814  25.390  25.825  1.00  0.00    -0.206 F 
ATOM     81  C   UNL A   1      42.663  21.985  25.433  1.00  0.00     0.022 A 
BRANCH  78  82
ATOM     82  S   UNL A   1      41.313  20.184  27.078  1.00  0.00     0.124 S 
ATOM     83  O   UNL A   1      40.312  19.964  26.040  1.00  0.00    -0.237 OA
ATOM     84  O   UNL A   1      42.512  19.356  27.001  1.00  0.00    -0.237 OA
ATOM     85  O   UNL A   1      40.784  20.388  28.425  1.00  0.00    -0.744 OA
ENDBRANCH  78  82
ENDBRANCH  51  75
BRANCH  63  86
ATOM     86  C   UNL A   1      47.142  26.071  32.085  1.00  0.00     0.023 A 
ATOM     87  C   UNL A   1      47.256  25.144  33.137  1.00  0.00     0.031 A 
ATOM     88  C   UNL A   1      48.322  26.461  31.424  1.00  0.00     0.131 A 
ATOM     89  C   UNL A   1      48.522  24.684  33.532  1.00  0.00     0.055 A 
ATOM     90  C   UNL A   1      49.571  25.948  31.776  1.00  0.00     0.041 A 
ATOM     91  F   UNL A   1      48.279  27.347  30.414  1.00  0.00    -0.206 F 
ATOM     92  C   UNL A   1      49.678  25.065  32.845  1.00  0.00     0.022 A 
BRANCH  89  93
ATOM     93  S   UNL A   1      48.652  23.656  35.021  1.00  0.00     0.124 S 
ATOM     94  O   UNL A   1      48.146  24.555  36.055  1.00  0.00    -0.237 OA
ATOM     95  O   UNL A   1      47.798  22.520  34.693  1.00  0.00    -0.237 OA
ATOM     96  O   UNL A   1      50.080  23.354  35.107  1.00  0.00    -0.744 OA
ENDBRANCH  89  93
ENDBRANCH  63  86
ENDBRANCH  37  38
ENDBRANCH  30  32
ENDBRANCH  29  30
ENDBRANCH  28  29
ENDBRANCH  27  28
ENDBRANCH   1  27
TORSDOF 22
ENDMDL
