MODEL 1
REMARK VINA RESULT:     -10.0      0.000      0.000
REMARK SMILES COc1cc([C@@H]2CC[NH2+][C@@H]2C(=O)OCCOCCOC(=O)c2ccc(-c3c4nc(c(-c5cc(S(=O)(=O)[O-])ccc5F)c5ccc([nH]5)c(-c5cc(S(=O)(=O)[O-])ccc5F)c5nc(c(-c6cc(S(=O)(=O)[O-])ccc6F)c6ccc3[nH]6)C=C5)C=C4)cc2)cc(OC)c1OC
REMARK SMILES IDX 17 1 16 2 15 3 14 4 13 5 11 6 12 7 10 8 6 9 7 10 8 11 9 12
REMARK SMILES IDX 5 15 3 16 4 17 89 18 86 19 85 20 2 21 1 22 90 23 91 24 87 25
REMARK SMILES IDX 88 26 18 27 19 28 20 29 21 30 22 31 23 32 84 33 24 34 83 35
REMARK SMILES IDX 25 36 26 37 27 38 77 39 28 40 82 41 76 42 78 43 29 44 81 45
REMARK SMILES IDX 75 46 74 47 30 49 62 50 42 51 61 52 43 53 46 54 60 55 79 56
REMARK SMILES IDX 44 57 45 58 59 60 80 61 47 62 31 63 32 64 40 65 33 66 39 67
REMARK SMILES IDX 41 68 38 69 34 70 35 71 36 72 37 73 63 74 64 75 72 76 65 77
REMARK SMILES IDX 71 78 73 79 70 80 66 81 67 82 68 83 69 84 48 85 49 86 57 87
REMARK SMILES IDX 50 88 56 89 58 90 55 91 51 92 52 93 53 94 54 95
REMARK H PARENT 9 13 9 14 78 48 46 59
REMARK Flexibility Score: inf
ROOT
ATOM      1  C   UNL A   1      38.461  19.981  24.905  1.00  0.00     0.202 C 
ENDROOT
BRANCH   1   2
ATOM      2  O   UNL A   1      37.068  19.821  25.179  1.00  0.00    -0.374 OA
BRANCH   2   3
ATOM      3  C   UNL A   1      36.276  21.005  25.021  1.00  0.00     0.202 C 
BRANCH   3   4
ATOM      4  C   UNL A   1      34.797  20.730  24.744  1.00  0.00     0.261 C 
BRANCH   4   5
ATOM      5  O   UNL A   1      34.096  21.981  24.597  1.00  0.00    -0.459 OA
BRANCH   5   6
ATOM      6  C   UNL A   1      32.838  21.905  24.105  1.00  0.00     0.365 C 
ATOM      7  O   UNL A   1      32.553  21.557  22.961  1.00  0.00    -0.245 OA
BRANCH   6   8
ATOM      8  C   UNL A   1      31.760  22.156  25.155  1.00  0.00     0.301 C 
ATOM      9  C   UNL A   1      30.966  23.463  25.242  1.00  0.00     0.095 C 
ATOM     10  C   UNL A   1      30.417  23.359  26.680  1.00  0.00     0.076 C 
ATOM     11  C   UNL A   1      31.491  22.630  27.473  1.00  0.00     0.262 C 
ATOM     12  N   UNL A   1      32.249  21.825  26.522  1.00  0.00    -0.334 N 
ATOM     13  H   UNL A   1      32.102  20.834  26.712  1.00  0.00     0.347 HD
ATOM     14  H   UNL A   1      33.247  22.023  26.602  1.00  0.00     0.347 HD
BRANCH   9  15
ATOM     15  C   UNL A   1      31.518  24.856  24.962  1.00  0.00    -0.030 A 
ATOM     16  C   UNL A   1      31.987  26.528  23.237  1.00  0.00     0.164 A 
ATOM     17  C   UNL A   1      31.849  25.189  23.638  1.00  0.00     0.055 A 
ATOM     18  C   UNL A   1      31.779  27.579  24.144  1.00  0.00     0.203 A 
ATOM     19  C   UNL A   1      31.542  27.257  25.491  1.00  0.00     0.164 A 
ATOM     20  C   UNL A   1      31.469  25.904  25.890  1.00  0.00     0.055 A 
BRANCH  16  21
ATOM     21  O   UNL A   1      32.127  26.776  21.893  1.00  0.00    -0.493 OA
ATOM     22  C   UNL A   1      32.528  25.601  21.185  1.00  0.00     0.278 C 
ENDBRANCH  16  21
BRANCH  18  23
ATOM     23  O   UNL A   1      31.645  28.886  23.752  1.00  0.00    -0.490 OA
ATOM     24  C   UNL A   1      30.334  29.334  23.432  1.00  0.00     0.278 C 
ENDBRANCH  18  23
BRANCH  19  25
ATOM     25  O   UNL A   1      31.303  28.115  26.538  1.00  0.00    -0.493 OA
ATOM     26  C   UNL A   1      32.386  28.514  27.369  1.00  0.00     0.278 C 
ENDBRANCH  19  25
ENDBRANCH   9  15
ENDBRANCH   6   8
ENDBRANCH   5   6
ENDBRANCH   4   5
ENDBRANCH   3   4
ENDBRANCH   2   3
ENDBRANCH   1   2
BRANCH   1  27
ATOM     27  C   UNL A   1      39.393  19.127  25.768  1.00  0.00     0.261 C 
BRANCH  27  28
ATOM     28  O   UNL A   1      40.764  19.322  25.387  1.00  0.00    -0.460 OA
BRANCH  28  29
ATOM     29  C   UNL A   1      41.618  19.509  26.424  1.00  0.00     0.338 C 
ATOM     30  O   UNL A   1      42.339  18.669  26.934  1.00  0.00    -0.246 OA
BRANCH  29  31
ATOM     31  C   UNL A   1      41.696  20.948  26.756  1.00  0.00     0.060 A 
ATOM     32  C   UNL A   1      41.342  21.865  25.761  1.00  0.00     0.016 A 
ATOM     33  C   UNL A   1      42.142  21.401  27.998  1.00  0.00     0.016 A 
ATOM     34  C   UNL A   1      41.521  23.232  25.971  1.00  0.00     0.010 A 
ATOM     35  C   UNL A   1      42.296  22.773  28.216  1.00  0.00     0.010 A 
ATOM     36  C   UNL A   1      42.050  23.692  27.184  1.00  0.00    -0.014 A 
BRANCH  36  37
ATOM     37  C   UNL A   1      42.545  25.091  27.288  1.00  0.00     0.031 A 
ATOM     38  C   UNL A   1      41.667  26.122  27.954  1.00  0.00     0.074 A 
ATOM     39  C   UNL A   1      43.767  25.434  26.841  1.00  0.00     0.049 A 
ATOM     40  N   UNL A   1      41.895  27.391  28.182  1.00  0.00    -0.248 NA
ATOM     41  C   UNL A   1      40.341  25.663  28.393  1.00  0.00     0.031 C 
ATOM     42  C   UNL A   1      44.701  24.538  26.159  1.00  0.00     0.029 A 
ATOM     43  N   UNL A   1      44.434  26.632  26.901  1.00  0.00    -0.354 N 
ATOM     44  C   UNL A   1      40.736  27.878  28.783  1.00  0.00     0.074 A 
ATOM     45  C   UNL A   1      39.783  26.792  28.796  1.00  0.00     0.031 C 
ATOM     46  C   UNL A   1      45.828  25.215  25.881  1.00  0.00     0.029 A 
ATOM     47  C   UNL A   1      45.691  26.595  26.346  1.00  0.00     0.049 A 
ATOM     48  H   UNL A   1      44.048  27.442  27.305  1.00  0.00     0.167 HD
ATOM     49  C   UNL A   1      40.498  29.105  29.313  1.00  0.00     0.034 A 
ATOM     50  C   UNL A   1      46.624  27.561  26.232  1.00  0.00     0.034 A 
ATOM     51  C   UNL A   1      41.462  30.177  29.305  1.00  0.00     0.049 A 
ATOM     52  C   UNL A   1      46.348  28.921  26.828  1.00  0.00     0.074 A 
ATOM     53  C   UNL A   1      41.342  31.455  29.822  1.00  0.00     0.029 A 
ATOM     54  N   UNL A   1      42.734  30.093  28.750  1.00  0.00    -0.354 N 
ATOM     55  N   UNL A   1      45.263  29.360  27.424  1.00  0.00    -0.248 NA
ATOM     56  C   UNL A   1      47.436  29.904  26.763  1.00  0.00     0.031 C 
ATOM     57  C   UNL A   1      42.516  32.160  29.531  1.00  0.00     0.029 A 
ATOM     58  C   UNL A   1      43.401  31.299  28.900  1.00  0.00     0.049 A 
ATOM     59  H   UNL A   1      43.106  29.294  28.313  1.00  0.00     0.167 HD
ATOM     60  C   UNL A   1      45.551  30.660  27.833  1.00  0.00     0.074 A 
ATOM     61  C   UNL A   1      46.917  30.925  27.430  1.00  0.00     0.031 C 
ATOM     62  C   UNL A   1      44.763  31.552  28.488  1.00  0.00     0.034 A 
BRANCH  49  63
ATOM     63  C   UNL A   1      39.129  29.337  29.915  1.00  0.00     0.023 A 
ATOM     64  C   UNL A   1      38.109  29.985  29.194  1.00  0.00     0.031 A 
ATOM     65  C   UNL A   1      38.860  28.979  31.248  1.00  0.00     0.131 A 
ATOM     66  C   UNL A   1      36.919  30.356  29.838  1.00  0.00     0.055 A 
ATOM     67  C   UNL A   1      37.633  29.260  31.853  1.00  0.00     0.041 A 
ATOM     68  F   UNL A   1      39.796  28.376  31.997  1.00  0.00    -0.206 F 
ATOM     69  C   UNL A   1      36.662  29.974  31.156  1.00  0.00     0.022 A 
BRANCH  66  70
ATOM     70  S   UNL A   1      35.806  31.514  28.993  1.00  0.00     0.124 S 
ATOM     71  O   UNL A   1      34.934  31.934  30.088  1.00  0.00    -0.237 OA
ATOM     72  O   UNL A   1      36.728  32.522  28.484  1.00  0.00    -0.237 OA
ATOM     73  O   UNL A   1      35.160  30.686  27.975  1.00  0.00    -0.744 OA
ENDBRANCH  66  70
ENDBRANCH  49  63
BRANCH  50  74
ATOM     74  C   UNL A   1      47.909  27.283  25.529  1.00  0.00     0.023 A 
ATOM     75  C   UNL A   1      48.075  27.565  24.164  1.00  0.00     0.031 A 
ATOM     76  C   UNL A   1      48.987  26.695  26.216  1.00  0.00     0.131 A 
ATOM     77  C   UNL A   1      49.273  27.220  23.518  1.00  0.00     0.055 A 
ATOM     78  C   UNL A   1      50.193  26.397  25.581  1.00  0.00     0.041 A 
ATOM     79  F   UNL A   1      48.885  26.416  27.526  1.00  0.00    -0.206 F 
ATOM     80  C   UNL A   1      50.337  26.648  24.220  1.00  0.00     0.022 A 
BRANCH  77  81
ATOM     81  S   UNL A   1      49.401  27.469  21.725  1.00  0.00     0.124 S 
ATOM     82  O   UNL A   1      49.486  28.921  21.632  1.00  0.00    -0.237 OA
ATOM     83  O   UNL A   1      50.619  26.731  21.405  1.00  0.00    -0.237 OA
ATOM     84  O   UNL A   1      48.166  26.880  21.212  1.00  0.00    -0.744 OA
ENDBRANCH  77  81
ENDBRANCH  50  74
BRANCH  62  85
ATOM     85  C   UNL A   1      45.383  32.881  28.855  1.00  0.00     0.023 A 
ATOM     86  C   UNL A   1      45.248  34.018  28.039  1.00  0.00     0.031 A 
ATOM     87  C   UNL A   1      46.137  33.003  30.037  1.00  0.00     0.131 A 
ATOM     88  C   UNL A   1      45.913  35.206  28.379  1.00  0.00     0.055 A 
ATOM     89  C   UNL A   1      46.741  34.207  30.403  1.00  0.00     0.041 A 
ATOM     90  F   UNL A   1      46.301  31.951  30.856  1.00  0.00    -0.206 F 
ATOM     91  C   UNL A   1      46.645  35.313  29.564  1.00  0.00     0.022 A 
BRANCH  88  92
ATOM     92  S   UNL A   1      45.903  36.578  27.193  1.00  0.00     0.124 S 
ATOM     93  O   UNL A   1      46.632  36.011  26.065  1.00  0.00    -0.237 OA
ATOM     94  O   UNL A   1      44.475  36.799  26.984  1.00  0.00    -0.237 OA
ATOM     95  O   UNL A   1      46.598  37.650  27.904  1.00  0.00    -0.744 OA
ENDBRANCH  88  92
ENDBRANCH  62  85
ENDBRANCH  36  37
ENDBRANCH  29  31
ENDBRANCH  28  29
ENDBRANCH  27  28
ENDBRANCH   1  27
TORSDOF 21
ENDMDL
MODEL 2
REMARK VINA RESULT:      -9.6      5.150      9.200
REMARK SMILES COc1cc([C@@H]2CC[NH2+][C@@H]2C(=O)OCCOCCOC(=O)c2ccc(-c3c4nc(c(-c5cc(S(=O)(=O)[O-])ccc5F)c5ccc([nH]5)c(-c5cc(S(=O)(=O)[O-])ccc5F)c5nc(c(-c6cc(S(=O)(=O)[O-])ccc6F)c6ccc3[nH]6)C=C5)C=C4)cc2)cc(OC)c1OC
REMARK SMILES IDX 17 1 16 2 15 3 14 4 13 5 11 6 12 7 10 8 6 9 7 10 8 11 9 12
REMARK SMILES IDX 5 15 3 16 4 17 89 18 86 19 85 20 2 21 1 22 90 23 91 24 87 25
REMARK SMILES IDX 88 26 18 27 19 28 20 29 21 30 22 31 23 32 84 33 24 34 83 35
REMARK SMILES IDX 25 36 26 37 27 38 77 39 28 40 82 41 76 42 78 43 29 44 81 45
REMARK SMILES IDX 75 46 74 47 30 49 62 50 42 51 61 52 43 53 46 54 60 55 79 56
REMARK SMILES IDX 44 57 45 58 59 60 80 61 47 62 31 63 32 64 40 65 33 66 39 67
REMARK SMILES IDX 41 68 38 69 34 70 35 71 36 72 37 73 63 74 64 75 72 76 65 77
REMARK SMILES IDX 71 78 73 79 70 80 66 81 67 82 68 83 69 84 48 85 49 86 57 87
REMARK SMILES IDX 50 88 56 89 58 90 55 91 51 92 52 93 53 94 54 95
REMARK H PARENT 9 13 9 14 78 48 46 59
REMARK Flexibility Score: inf
ROOT
ATOM      1  C   UNL A   1      33.162  33.680  27.496  1.00  0.00     0.202 C 
ENDROOT
BRANCH   1   2
ATOM      2  O   UNL A   1      31.767  33.415  27.328  1.00  0.00    -0.374 OA
BRANCH   2   3
ATOM      3  C   UNL A   1      31.456  32.167  26.697  1.00  0.00     0.202 C 
BRANCH   3   4
ATOM      4  C   UNL A   1      32.574  31.127  26.795  1.00  0.00     0.261 C 
BRANCH   4   5
ATOM      5  O   UNL A   1      32.020  29.808  26.618  1.00  0.00    -0.459 OA
BRANCH   5   6
ATOM      6  C   UNL A   1      32.291  29.200  25.440  1.00  0.00     0.365 C 
ATOM      7  O   UNL A   1      33.402  28.806  25.095  1.00  0.00    -0.245 OA
BRANCH   6   8
ATOM      8  C   UNL A   1      31.045  28.905  24.609  1.00  0.00     0.301 C 
ATOM      9  C   UNL A   1      30.484  27.493  24.417  1.00  0.00     0.095 C 
ATOM     10  C   UNL A   1      29.591  27.716  23.179  1.00  0.00     0.076 C 
ATOM     11  C   UNL A   1      30.301  28.775  22.350  1.00  0.00     0.262 C 
ATOM     12  N   UNL A   1      31.123  29.553  23.270  1.00  0.00    -0.334 N 
ATOM     13  H   UNL A   1      30.771  30.509  23.326  1.00  0.00     0.347 HD
ATOM     14  H   UNL A   1      32.090  29.586  22.945  1.00  0.00     0.347 HD
BRANCH   9  15
ATOM     15  C   UNL A   1      31.312  26.221  24.278  1.00  0.00    -0.030 A 
ATOM     16  C   UNL A   1      31.619  23.921  25.059  1.00  0.00     0.164 A 
ATOM     17  C   UNL A   1      31.213  25.246  25.285  1.00  0.00     0.055 A 
ATOM     18  C   UNL A   1      32.120  23.523  23.810  1.00  0.00     0.203 A 
ATOM     19  C   UNL A   1      32.314  24.508  22.826  1.00  0.00     0.164 A 
ATOM     20  C   UNL A   1      31.959  25.848  23.092  1.00  0.00     0.055 A 
BRANCH  16  21
ATOM     21  O   UNL A   1      31.318  22.992  26.025  1.00  0.00    -0.493 OA
ATOM     22  C   UNL A   1      30.179  23.387  26.792  1.00  0.00     0.278 C 
ENDBRANCH  16  21
BRANCH  18  23
ATOM     23  O   UNL A   1      32.283  22.208  23.457  1.00  0.00    -0.490 OA
ATOM     24  C   UNL A   1      33.494  21.578  23.856  1.00  0.00     0.278 C 
ENDBRANCH  18  23
BRANCH  19  25
ATOM     25  O   UNL A   1      32.777  24.344  21.543  1.00  0.00    -0.493 OA
ATOM     26  C   UNL A   1      32.721  25.443  20.640  1.00  0.00     0.278 C 
ENDBRANCH  19  25
ENDBRANCH   9  15
ENDBRANCH   6   8
ENDBRANCH   5   6
ENDBRANCH   4   5
ENDBRANCH   3   4
ENDBRANCH   2   3
ENDBRANCH   1   2
BRANCH   1  27
ATOM     27  C   UNL A   1      33.621  33.833  28.948  1.00  0.00     0.261 C 
BRANCH  27  28
ATOM     28  O   UNL A   1      33.974  32.559  29.509  1.00  0.00    -0.460 OA
BRANCH  28  29
ATOM     29  C   UNL A   1      34.729  32.627  30.634  1.00  0.00     0.338 C 
ATOM     30  O   UNL A   1      34.408  33.130  31.697  1.00  0.00    -0.246 OA
BRANCH  29  31
ATOM     31  C   UNL A   1      35.965  31.834  30.458  1.00  0.00     0.060 A 
ATOM     32  C   UNL A   1      36.038  30.594  31.102  1.00  0.00     0.016 A 
ATOM     33  C   UNL A   1      37.048  32.301  29.715  1.00  0.00     0.016 A 
ATOM     34  C   UNL A   1      37.225  29.862  31.080  1.00  0.00     0.010 A 
ATOM     35  C   UNL A   1      38.229  31.554  29.674  1.00  0.00     0.010 A 
ATOM     36  C   UNL A   1      38.347  30.364  30.409  1.00  0.00    -0.014 A 
BRANCH  36  37
ATOM     37  C   UNL A   1      39.685  29.763  30.658  1.00  0.00     0.031 A 
ATOM     38  C   UNL A   1      40.500  30.269  31.823  1.00  0.00     0.074 A 
ATOM     39  C   UNL A   1      40.152  28.758  29.895  1.00  0.00     0.049 A 
ATOM     40  N   UNL A   1      41.675  29.884  32.250  1.00  0.00    -0.248 NA
ATOM     41  C   UNL A   1      39.921  31.383  32.589  1.00  0.00     0.031 C 
ATOM     42  C   UNL A   1      39.473  28.195  28.728  1.00  0.00     0.029 A 
ATOM     43  N   UNL A   1      41.310  28.028  29.995  1.00  0.00    -0.354 N 
ATOM     44  C   UNL A   1      41.975  30.714  33.328  1.00  0.00     0.074 A 
ATOM     45  C   UNL A   1      40.901  31.677  33.425  1.00  0.00     0.031 C 
ATOM     46  C   UNL A   1      40.220  27.195  28.231  1.00  0.00     0.029 A 
ATOM     47  C   UNL A   1      41.437  27.056  29.031  1.00  0.00     0.049 A 
ATOM     48  H   UNL A   1      41.986  28.185  30.692  1.00  0.00     0.167 HD
ATOM     49  C   UNL A   1      43.026  30.658  34.186  1.00  0.00     0.034 A 
ATOM     50  C   UNL A   1      42.419  26.157  28.821  1.00  0.00     0.034 A 
ATOM     51  C   UNL A   1      44.084  29.684  34.086  1.00  0.00     0.049 A 
ATOM     52  C   UNL A   1      43.581  26.103  29.784  1.00  0.00     0.074 A 
ATOM     53  C   UNL A   1      45.190  29.520  34.902  1.00  0.00     0.029 A 
ATOM     54  N   UNL A   1      44.167  28.703  33.106  1.00  0.00    -0.354 N 
ATOM     55  N   UNL A   1      43.836  26.871  30.819  1.00  0.00    -0.248 NA
ATOM     56  C   UNL A   1      44.571  25.040  29.567  1.00  0.00     0.031 C 
ATOM     57  C   UNL A   1      45.968  28.478  34.383  1.00  0.00     0.029 A 
ATOM     58  C   UNL A   1      45.309  27.939  33.288  1.00  0.00     0.049 A 
ATOM     59  H   UNL A   1      43.509  28.569  32.385  1.00  0.00     0.167 HD
ATOM     60  C   UNL A   1      44.998  26.361  31.394  1.00  0.00     0.074 A 
ATOM     61  C   UNL A   1      45.382  25.212  30.601  1.00  0.00     0.031 C 
ATOM     62  C   UNL A   1      45.683  26.798  32.484  1.00  0.00     0.034 A 
BRANCH  49  63
ATOM     63  C   UNL A   1      43.074  31.703  35.279  1.00  0.00     0.023 A 
ATOM     64  C   UNL A   1      42.173  31.678  36.360  1.00  0.00     0.031 A 
ATOM     65  C   UNL A   1      43.975  32.779  35.206  1.00  0.00     0.131 A 
ATOM     66  C   UNL A   1      42.114  32.759  37.252  1.00  0.00     0.055 A 
ATOM     67  C   UNL A   1      43.981  33.802  36.158  1.00  0.00     0.041 A 
ATOM     68  F   UNL A   1      44.849  32.873  34.192  1.00  0.00    -0.206 F 
ATOM     69  C   UNL A   1      43.031  33.809  37.175  1.00  0.00     0.022 A 
BRANCH  66  70
ATOM     70  S   UNL A   1      40.700  32.867  38.384  1.00  0.00     0.124 S 
ATOM     71  O   UNL A   1      41.238  32.235  39.586  1.00  0.00    -0.237 OA
ATOM     72  O   UNL A   1      40.470  34.305  38.464  1.00  0.00    -0.237 OA
ATOM     73  O   UNL A   1      39.656  32.105  37.702  1.00  0.00    -0.744 OA
ENDBRANCH  66  70
ENDBRANCH  49  63
BRANCH  50  74
ATOM     74  C   UNL A   1      42.350  25.229  27.656  1.00  0.00     0.023 A 
ATOM     75  C   UNL A   1      41.694  23.991  27.742  1.00  0.00     0.031 A 
ATOM     76  C   UNL A   1      42.973  25.562  26.440  1.00  0.00     0.131 A 
ATOM     77  C   UNL A   1      41.714  23.111  26.648  1.00  0.00     0.055 A 
ATOM     78  C   UNL A   1      42.950  24.703  25.339  1.00  0.00     0.041 A 
ATOM     79  F   UNL A   1      43.603  26.740  26.300  1.00  0.00    -0.206 F 
ATOM     80  C   UNL A   1      42.329  23.464  25.444  1.00  0.00     0.022 A 
BRANCH  77  81
ATOM     81  S   UNL A   1      40.981  21.462  26.841  1.00  0.00     0.124 S 
ATOM     82  O   UNL A   1      39.804  21.559  25.986  1.00  0.00    -0.237 OA
ATOM     83  O   UNL A   1      42.055  20.597  26.362  1.00  0.00    -0.237 OA
ATOM     84  O   UNL A   1      40.709  21.378  28.274  1.00  0.00    -0.744 OA
ENDBRANCH  77  81
ENDBRANCH  50  74
BRANCH  62  85
ATOM     85  C   UNL A   1      46.890  25.993  32.909  1.00  0.00     0.023 A 
ATOM     86  C   UNL A   1      46.782  24.887  33.771  1.00  0.00     0.031 A 
ATOM     87  C   UNL A   1      48.171  26.352  32.454  1.00  0.00     0.131 A 
ATOM     88  C   UNL A   1      47.940  24.222  34.204  1.00  0.00     0.055 A 
ATOM     89  C   UNL A   1      49.313  25.645  32.836  1.00  0.00     0.041 A 
ATOM     90  F   UNL A   1      48.337  27.399  31.629  1.00  0.00    -0.206 F 
ATOM     91  C   UNL A   1      49.203  24.584  33.730  1.00  0.00     0.022 A 
BRANCH  88  92
ATOM     92  S   UNL A   1      47.784  22.950  35.487  1.00  0.00     0.124 S 
ATOM     93  O   UNL A   1      47.749  21.724  34.697  1.00  0.00    -0.237 OA
ATOM     94  O   UNL A   1      48.988  23.162  36.283  1.00  0.00    -0.237 OA
ATOM     95  O   UNL A   1      46.530  23.291  36.157  1.00  0.00    -0.744 OA
ENDBRANCH  88  92
ENDBRANCH  62  85
ENDBRANCH  36  37
ENDBRANCH  29  31
ENDBRANCH  28  29
ENDBRANCH  27  28
ENDBRANCH   1  27
TORSDOF 21
ENDMDL
MODEL 3
REMARK VINA RESULT:      -9.5      2.487      8.140
REMARK SMILES COc1cc([C@@H]2CC[NH2+][C@@H]2C(=O)OCCOCCOC(=O)c2ccc(-c3c4nc(c(-c5cc(S(=O)(=O)[O-])ccc5F)c5ccc([nH]5)c(-c5cc(S(=O)(=O)[O-])ccc5F)c5nc(c(-c6cc(S(=O)(=O)[O-])ccc6F)c6ccc3[nH]6)C=C5)C=C4)cc2)cc(OC)c1OC
REMARK SMILES IDX 17 1 16 2 15 3 14 4 13 5 11 6 12 7 10 8 6 9 7 10 8 11 9 12
REMARK SMILES IDX 5 15 3 16 4 17 89 18 86 19 85 20 2 21 1 22 90 23 91 24 87 25
REMARK SMILES IDX 88 26 18 27 19 28 20 29 21 30 22 31 23 32 84 33 24 34 83 35
REMARK SMILES IDX 25 36 26 37 27 38 77 39 28 40 82 41 76 42 78 43 29 44 81 45
REMARK SMILES IDX 75 46 74 47 30 49 62 50 42 51 61 52 43 53 46 54 60 55 79 56
REMARK SMILES IDX 44 57 45 58 59 60 80 61 47 62 31 63 32 64 40 65 33 66 39 67
REMARK SMILES IDX 41 68 38 69 34 70 35 71 36 72 37 73 63 74 64 75 72 76 65 77
REMARK SMILES IDX 71 78 73 79 70 80 66 81 67 82 68 83 69 84 48 85 49 86 57 87
REMARK SMILES IDX 50 88 56 89 58 90 55 91 51 92 52 93 53 94 54 95
REMARK H PARENT 9 13 9 14 78 48 46 59
REMARK Flexibility Score: inf
ROOT
ATOM      1  C   UNL A   1      36.471  22.050  25.250  1.00  0.00     0.202 C 
ENDROOT
BRANCH   1   2
ATOM      2  O   UNL A   1      35.883  22.017  23.948  1.00  0.00    -0.374 OA
BRANCH   2   3
ATOM      3  C   UNL A   1      35.628  23.300  23.363  1.00  0.00     0.202 C 
BRANCH   3   4
ATOM      4  C   UNL A   1      34.390  24.003  23.922  1.00  0.00     0.261 C 
BRANCH   4   5
ATOM      5  O   UNL A   1      34.028  25.098  23.058  1.00  0.00    -0.459 OA
BRANCH   5   6
ATOM      6  C   UNL A   1      33.370  26.126  23.642  1.00  0.00     0.365 C 
ATOM      7  O   UNL A   1      33.700  27.307  23.557  1.00  0.00    -0.245 OA
BRANCH   6   8
ATOM      8  C   UNL A   1      32.067  25.708  24.316  1.00  0.00     0.301 C 
ATOM      9  C   UNL A   1      30.726  26.394  24.039  1.00  0.00     0.095 C 
ATOM     10  C   UNL A   1      29.918  25.930  25.269  1.00  0.00     0.076 C 
ATOM     11  C   UNL A   1      30.926  25.830  26.403  1.00  0.00     0.262 C 
ATOM     12  N   UNL A   1      32.231  25.603  25.792  1.00  0.00    -0.334 N 
ATOM     13  H   UNL A   1      32.572  24.673  26.038  1.00  0.00     0.347 HD
ATOM     14  H   UNL A   1      32.906  26.291  26.127  1.00  0.00     0.347 HD
BRANCH   9  15
ATOM     15  C   UNL A   1      30.528  27.883  23.778  1.00  0.00    -0.030 A 
ATOM     16  C   UNL A   1      28.988  29.597  22.953  1.00  0.00     0.164 A 
ATOM     17  C   UNL A   1      29.474  28.279  22.938  1.00  0.00     0.055 A 
ATOM     18  C   UNL A   1      29.528  30.556  23.824  1.00  0.00     0.203 A 
ATOM     19  C   UNL A   1      30.644  30.198  24.598  1.00  0.00     0.164 A 
ATOM     20  C   UNL A   1      31.160  28.886  24.525  1.00  0.00     0.055 A 
BRANCH  16  21
ATOM     21  O   UNL A   1      27.841  29.857  22.243  1.00  0.00    -0.493 OA
ATOM     22  C   UNL A   1      28.134  30.471  20.986  1.00  0.00     0.278 C 
ENDBRANCH  16  21
BRANCH  18  23
ATOM     23  O   UNL A   1      28.929  31.766  24.063  1.00  0.00    -0.490 OA
ATOM     24  C   UNL A   1      29.311  32.853  23.230  1.00  0.00     0.278 C 
ENDBRANCH  18  23
BRANCH  19  25
ATOM     25  O   UNL A   1      31.321  30.965  25.516  1.00  0.00    -0.493 OA
ATOM     26  C   UNL A   1      31.744  30.373  26.738  1.00  0.00     0.278 C 
ENDBRANCH  19  25
ENDBRANCH   9  15
ENDBRANCH   6   8
ENDBRANCH   5   6
ENDBRANCH   4   5
ENDBRANCH   3   4
ENDBRANCH   2   3
ENDBRANCH   1   2
BRANCH   1  27
ATOM     27  C   UNL A   1      37.888  22.628  25.305  1.00  0.00     0.261 C 
BRANCH  27  28
ATOM     28  O   UNL A   1      38.646  22.020  26.364  1.00  0.00    -0.460 OA
BRANCH  28  29
ATOM     29  C   UNL A   1      39.929  22.448  26.457  1.00  0.00     0.338 C 
ATOM     30  O   UNL A   1      40.910  21.922  25.962  1.00  0.00    -0.246 OA
BRANCH  29  31
ATOM     31  C   UNL A   1      39.968  23.775  27.110  1.00  0.00     0.060 A 
ATOM     32  C   UNL A   1      39.512  24.874  26.376  1.00  0.00     0.016 A 
ATOM     33  C   UNL A   1      40.477  23.955  28.396  1.00  0.00     0.016 A 
ATOM     34  C   UNL A   1      39.646  26.164  26.888  1.00  0.00     0.010 A 
ATOM     35  C   UNL A   1      40.588  25.246  28.918  1.00  0.00     0.010 A 
ATOM     36  C   UNL A   1      40.235  26.363  28.144  1.00  0.00    -0.014 A 
BRANCH  36  37
ATOM     37  C   UNL A   1      40.678  27.726  28.542  1.00  0.00     0.031 A 
ATOM     38  C   UNL A   1      42.135  28.088  28.387  1.00  0.00     0.074 A 
ATOM     39  C   UNL A   1      39.800  28.641  28.993  1.00  0.00     0.049 A 
ATOM     40  N   UNL A   1      42.747  29.216  28.643  1.00  0.00    -0.248 NA
ATOM     41  C   UNL A   1      43.025  27.019  27.909  1.00  0.00     0.031 C 
ATOM     42  C   UNL A   1      38.372  28.410  29.209  1.00  0.00     0.029 A 
ATOM     43  N   UNL A   1      39.984  29.956  29.342  1.00  0.00    -0.354 N 
ATOM     44  C   UNL A   1      44.092  28.987  28.362  1.00  0.00     0.074 A 
ATOM     45  C   UNL A   1      44.212  27.590  28.009  1.00  0.00     0.031 C 
ATOM     46  C   UNL A   1      37.807  29.552  29.638  1.00  0.00     0.029 A 
ATOM     47  C   UNL A   1      38.832  30.589  29.744  1.00  0.00     0.049 A 
ATOM     48  H   UNL A   1      40.860  30.403  29.308  1.00  0.00     0.167 HD
ATOM     49  C   UNL A   1      45.128  29.864  28.359  1.00  0.00     0.034 A 
ATOM     50  C   UNL A   1      38.628  31.859  30.147  1.00  0.00     0.034 A 
ATOM     51  C   UNL A   1      44.991  31.258  28.701  1.00  0.00     0.049 A 
ATOM     52  C   UNL A   1      39.789  32.827  30.136  1.00  0.00     0.074 A 
ATOM     53  C   UNL A   1      45.962  32.244  28.720  1.00  0.00     0.029 A 
ATOM     54  N   UNL A   1      43.802  31.866  29.084  1.00  0.00    -0.354 N 
ATOM     55  N   UNL A   1      41.049  32.606  29.836  1.00  0.00    -0.248 NA
ATOM     56  C   UNL A   1      39.490  34.220  30.488  1.00  0.00     0.031 C 
ATOM     57  C   UNL A   1      45.372  33.433  29.168  1.00  0.00     0.029 A 
ATOM     58  C   UNL A   1      44.017  33.209  29.355  1.00  0.00     0.049 A 
ATOM     59  H   UNL A   1      42.933  31.410  29.155  1.00  0.00     0.167 HD
ATOM     60  C   UNL A   1      41.685  33.842  29.932  1.00  0.00     0.074 A 
ATOM     61  C   UNL A   1      40.666  34.802  30.300  1.00  0.00     0.031 C 
ATOM     62  C   UNL A   1      42.991  34.156  29.727  1.00  0.00     0.034 A 
BRANCH  49  63
ATOM     63  C   UNL A   1      46.490  29.314  27.996  1.00  0.00     0.023 A 
ATOM     64  C   UNL A   1      46.846  29.054  26.660  1.00  0.00     0.031 A 
ATOM     65  C   UNL A   1      47.416  28.973  28.996  1.00  0.00     0.131 A 
ATOM     66  C   UNL A   1      48.035  28.370  26.369  1.00  0.00     0.055 A 
ATOM     67  C   UNL A   1      48.646  28.385  28.692  1.00  0.00     0.041 A 
ATOM     68  F   UNL A   1      47.132  29.177  30.292  1.00  0.00    -0.206 F 
ATOM     69  C   UNL A   1      48.952  28.057  27.374  1.00  0.00     0.022 A 
BRANCH  66  70
ATOM     70  S   UNL A   1      48.268  27.721  24.690  1.00  0.00     0.124 S 
ATOM     71  O   UNL A   1      49.672  28.045  24.443  1.00  0.00    -0.237 OA
ATOM     72  O   UNL A   1      47.957  26.306  24.854  1.00  0.00    -0.237 OA
ATOM     73  O   UNL A   1      47.311  28.484  23.892  1.00  0.00    -0.744 OA
ENDBRANCH  66  70
ENDBRANCH  49  63
BRANCH  50  74
ATOM     74  C   UNL A   1      37.274  32.297  30.591  1.00  0.00     0.023 A 
ATOM     75  C   UNL A   1      36.349  32.847  29.690  1.00  0.00     0.031 A 
ATOM     76  C   UNL A   1      36.899  32.197  31.943  1.00  0.00     0.131 A 
ATOM     77  C   UNL A   1      35.112  33.318  30.158  1.00  0.00     0.055 A 
ATOM     78  C   UNL A   1      35.650  32.624  32.396  1.00  0.00     0.041 A 
ATOM     79  F   UNL A   1      37.743  31.667  32.844  1.00  0.00    -0.206 F 
ATOM     80  C   UNL A   1      34.752  33.200  31.503  1.00  0.00     0.022 A 
BRANCH  77  81
ATOM     81  S   UNL A   1      33.998  34.151  28.993  1.00  0.00     0.124 S 
ATOM     82  O   UNL A   1      32.858  34.466  29.844  1.00  0.00    -0.237 OA
ATOM     83  O   UNL A   1      34.810  35.285  28.559  1.00  0.00    -0.237 OA
ATOM     84  O   UNL A   1      33.756  33.136  27.970  1.00  0.00    -0.744 OA
ENDBRANCH  77  81
ENDBRANCH  50  74
BRANCH  62  85
ATOM     85  C   UNL A   1      43.377  35.613  29.847  1.00  0.00     0.023 A 
ATOM     86  C   UNL A   1      43.473  36.453  28.724  1.00  0.00     0.031 A 
ATOM     87  C   UNL A   1      43.669  36.162  31.109  1.00  0.00     0.131 A 
ATOM     88  C   UNL A   1      43.916  37.776  28.876  1.00  0.00     0.055 A 
ATOM     89  C   UNL A   1      44.046  37.498  31.261  1.00  0.00     0.041 A 
ATOM     90  F   UNL A   1      43.595  35.408  32.218  1.00  0.00    -0.206 F 
ATOM     91  C   UNL A   1      44.188  38.308  30.139  1.00  0.00     0.022 A 
BRANCH  88  92
ATOM     92  S   UNL A   1      44.244  38.761  27.389  1.00  0.00     0.124 S 
ATOM     93  O   UNL A   1      42.911  38.893  26.811  1.00  0.00    -0.237 OA
ATOM     94  O   UNL A   1      44.823  39.980  27.943  1.00  0.00    -0.237 OA
ATOM     95  O   UNL A   1      45.171  37.928  26.624  1.00  0.00    -0.744 OA
ENDBRANCH  88  92
ENDBRANCH  62  85
ENDBRANCH  36  37
ENDBRANCH  29  31
ENDBRANCH  28  29
ENDBRANCH  27  28
ENDBRANCH   1  27
TORSDOF 21
ENDMDL
