MODEL 1
REMARK VINA RESULT:     -11.1      0.000      0.000
REMARK SMILES Cc1c(Cc2ccccc2)c(=O)oc2cc(OCC(=O)N[C@H](C)C(=O)OCCOCCOC(=O)c3ccc(-c4c5nc(c(-c6cc(S(=O)(=O)[O-])ccc6F)c6ccc([nH]6)c(-c6cc(S(=O)(=O)[O-])ccc6F)c6nc(c(-c7cc(S(=O)(=O)[O-])ccc7F)c7ccc4[nH]7)C=C6)C=C5)cc3)ccc12
REMARK SMILES IDX 27 1 26 2 24 3 25 4 22 5 23 6 21 7 19 8 20 9 18 11 17 12
REMARK SMILES IDX 16 13 1 14 2 15 3 16 100 17 11 18 14 19 99 20 12 21 13 22
REMARK SMILES IDX 15 23 98 24 4 25 5 26 6 27 10 28 7 29 9 30 8 31 28 32 29 33
REMARK SMILES IDX 30 34 31 35 32 36 33 37 34 38 35 39 36 40 97 41 37 42 96 43
REMARK SMILES IDX 38 44 39 45 40 46 90 47 41 48 95 49 89 50 91 51 42 52 94 53
REMARK SMILES IDX 88 54 87 55 43 57 75 58 55 59 74 60 56 61 59 62 73 63 92 64
REMARK SMILES IDX 57 65 58 66 72 68 93 69 60 70 44 71 45 72 53 73 46 74 52 75
REMARK SMILES IDX 54 76 51 77 47 78 48 79 49 80 50 81 76 82 77 83 85 84 78 85
REMARK SMILES IDX 84 86 86 87 83 88 79 89 80 90 81 91 82 92 61 93 62 94 70 95
REMARK SMILES IDX 63 96 69 97 71 98 68 99 64 100 65 101 66 102 67 103
REMARK H PARENT 21 10 91 56 59 67
REMARK Flexibility Score: inf
ROOT
ATOM      1  C   UNL A   1      31.158  29.173  24.408  1.00  0.00     0.261 C 
ENDROOT
BRANCH   1   2
ATOM      2  O   UNL A   1      31.488  27.778  24.534  1.00  0.00    -0.462 OA
BRANCH   2   3
ATOM      3  C   UNL A   1      31.914  27.165  23.397  1.00  0.00     0.328 C 
ATOM      4  O   UNL A   1      31.226  26.964  22.402  1.00  0.00    -0.250 OA
BRANCH   3   5
ATOM      5  C   UNL A   1      33.337  26.616  23.536  1.00  0.00     0.189 C 
ATOM      6  C   UNL A   1      33.775  26.266  24.947  1.00  0.00     0.043 C 
BRANCH   5   7
ATOM      7  N   UNL A   1      33.551  25.633  22.480  1.00  0.00    -0.340 N 
ATOM      8  C   UNL A   1      33.518  24.276  22.482  1.00  0.00     0.258 C 
ATOM      9  O   UNL A   1      33.334  23.721  21.394  1.00  0.00    -0.271 OA
ATOM     10  H   UNL A   1      33.759  26.027  21.602  1.00  0.00     0.164 HD
BRANCH   8  11
ATOM     11  C   UNL A   1      33.730  23.446  23.756  1.00  0.00     0.329 C 
BRANCH  11  12
ATOM     12  O   UNL A   1      34.464  22.235  23.678  1.00  0.00    -0.484 OA
BRANCH  12  13
ATOM     13  C   UNL A   1      35.633  22.116  24.372  1.00  0.00     0.123 A 
ATOM     14  C   UNL A   1      39.758  23.408  27.236  1.00  0.00     0.046 C 
ATOM     15  C   UNL A   1      39.401  22.176  26.447  1.00  0.00    -0.029 A 
ATOM     16  C   UNL A   1      40.166  21.062  26.369  1.00  0.00     0.046 A 
ATOM     17  C   UNL A   1      38.115  22.207  25.730  1.00  0.00     0.021 A 
ATOM     18  C   UNL A   1      39.657  19.831  25.694  1.00  0.00     0.340 A 
ATOM     19  C   UNL A   1      37.587  21.015  25.247  1.00  0.00     0.142 A 
ATOM     20  C   UNL A   1      37.378  23.375  25.507  1.00  0.00     0.016 A 
ATOM     21  O   UNL A   1      40.359  18.835  25.547  1.00  0.00    -0.246 OA
ATOM     22  O   UNL A   1      38.322  19.822  25.322  1.00  0.00    -0.422 OA
ATOM     23  C   UNL A   1      36.340  20.945  24.617  1.00  0.00     0.094 A 
ATOM     24  C   UNL A   1      36.154  23.328  24.831  1.00  0.00     0.047 A 
BRANCH  16  25
ATOM     25  C   UNL A   1      41.528  20.887  27.009  1.00  0.00     0.079 C 
BRANCH  25  26
ATOM     26  C   UNL A   1      42.700  21.261  26.120  1.00  0.00    -0.043 A 
ATOM     27  C   UNL A   1      42.916  22.597  25.752  1.00  0.00     0.004 A 
ATOM     28  C   UNL A   1      43.566  20.284  25.607  1.00  0.00     0.004 A 
ATOM     29  C   UNL A   1      43.958  22.938  24.884  1.00  0.00     0.000 A 
ATOM     30  C   UNL A   1      44.613  20.626  24.750  1.00  0.00     0.000 A 
ATOM     31  C   UNL A   1      44.806  21.953  24.382  1.00  0.00     0.000 A 
ENDBRANCH  25  26
ENDBRANCH  16  25
ENDBRANCH  12  13
ENDBRANCH  11  12
ENDBRANCH   8  11
ENDBRANCH   5   7
ENDBRANCH   3   5
ENDBRANCH   2   3
ENDBRANCH   1   2
BRANCH   1  32
ATOM     32  C   UNL A   1      32.182  30.049  25.132  1.00  0.00     0.202 C 
BRANCH  32  33
ATOM     33  O   UNL A   1      31.936  30.290  26.519  1.00  0.00    -0.374 OA
BRANCH  33  34
ATOM     34  C   UNL A   1      33.069  30.483  27.362  1.00  0.00     0.202 C 
BRANCH  34  35
ATOM     35  C   UNL A   1      33.690  31.886  27.405  1.00  0.00     0.261 C 
BRANCH  35  36
ATOM     36  O   UNL A   1      32.820  32.867  27.996  1.00  0.00    -0.460 OA
BRANCH  36  37
ATOM     37  C   UNL A   1      33.451  34.000  28.397  1.00  0.00     0.338 C 
ATOM     38  O   UNL A   1      33.145  35.149  28.108  1.00  0.00    -0.246 OA
BRANCH  37  39
ATOM     39  C   UNL A   1      34.478  33.688  29.408  1.00  0.00     0.060 A 
ATOM     40  C   UNL A   1      35.754  34.235  29.218  1.00  0.00     0.016 A 
ATOM     41  C   UNL A   1      34.230  32.821  30.475  1.00  0.00     0.016 A 
ATOM     42  C   UNL A   1      36.801  33.878  30.065  1.00  0.00     0.010 A 
ATOM     43  C   UNL A   1      35.287  32.456  31.319  1.00  0.00     0.010 A 
ATOM     44  C   UNL A   1      36.584  32.956  31.097  1.00  0.00    -0.014 A 
BRANCH  44  45
ATOM     45  C   UNL A   1      37.748  32.402  31.834  1.00  0.00     0.031 A 
ATOM     46  C   UNL A   1      38.589  31.342  31.174  1.00  0.00     0.074 A 
ATOM     47  C   UNL A   1      38.080  32.869  33.050  1.00  0.00     0.049 A 
ATOM     48  N   UNL A   1      39.632  30.701  31.634  1.00  0.00    -0.248 NA
ATOM     49  C   UNL A   1      38.196  30.957  29.811  1.00  0.00     0.031 C 
ATOM     50  C   UNL A   1      37.379  33.935  33.764  1.00  0.00     0.029 A 
ATOM     51  N   UNL A   1      39.095  32.505  33.900  1.00  0.00    -0.354 N 
ATOM     52  C   UNL A   1      40.023  29.836  30.618  1.00  0.00     0.074 A 
ATOM     53  C   UNL A   1      39.074  30.004  29.536  1.00  0.00     0.031 C 
ATOM     54  C   UNL A   1      37.985  34.138  34.947  1.00  0.00     0.029 A 
ATOM     55  C   UNL A   1      39.090  33.191  35.092  1.00  0.00     0.049 A 
ATOM     56  H   UNL A   1      39.764  31.818  33.677  1.00  0.00     0.167 HD
ATOM     57  C   UNL A   1      41.083  28.988  30.584  1.00  0.00     0.034 A 
ATOM     58  C   UNL A   1      39.871  33.054  36.181  1.00  0.00     0.034 A 
ATOM     59  C   UNL A   1      42.008  28.818  31.677  1.00  0.00     0.049 A 
ATOM     60  C   UNL A   1      40.973  32.020  36.167  1.00  0.00     0.074 A 
ATOM     61  C   UNL A   1      43.117  27.990  31.750  1.00  0.00     0.029 A 
ATOM     62  N   UNL A   1      41.928  29.476  32.899  1.00  0.00    -0.354 N 
ATOM     63  N   UNL A   1      41.333  31.206  35.201  1.00  0.00    -0.248 NA
ATOM     64  C   UNL A   1      41.774  31.891  37.391  1.00  0.00     0.031 C 
ATOM     65  C   UNL A   1      43.658  28.093  33.037  1.00  0.00     0.029 A 
ATOM     66  C   UNL A   1      42.941  29.046  33.742  1.00  0.00     0.049 A 
ATOM     67  H   UNL A   1      41.249  30.152  33.131  1.00  0.00     0.167 HD
ATOM     68  C   UNL A   1      42.425  30.494  35.692  1.00  0.00     0.074 A 
ATOM     69  C   UNL A   1      42.670  30.981  37.033  1.00  0.00     0.031 C 
ATOM     70  C   UNL A   1      43.166  29.531  35.085  1.00  0.00     0.034 A 
BRANCH  57  71
ATOM     71  C   UNL A   1      41.251  28.145  29.341  1.00  0.00     0.023 A 
ATOM     72  C   UNL A   1      42.231  28.437  28.376  1.00  0.00     0.031 A 
ATOM     73  C   UNL A   1      40.389  27.061  29.096  1.00  0.00     0.131 A 
ATOM     74  C   UNL A   1      42.271  27.709  27.177  1.00  0.00     0.055 A 
ATOM     75  C   UNL A   1      40.491  26.286  27.939  1.00  0.00     0.041 A 
ATOM     76  F   UNL A   1      39.419  26.748  29.968  1.00  0.00    -0.206 F 
ATOM     77  C   UNL A   1      41.424  26.620  26.962  1.00  0.00     0.022 A 
BRANCH  74  78
ATOM     78  S   UNL A   1      43.336  28.307  25.834  1.00  0.00     0.124 S 
ATOM     79  O   UNL A   1      43.474  29.721  26.176  1.00  0.00    -0.237 OA
ATOM     80  O   UNL A   1      44.534  27.490  25.995  1.00  0.00    -0.237 OA
ATOM     81  O   UNL A   1      42.553  28.039  24.630  1.00  0.00    -0.744 OA
ENDBRANCH  74  78
ENDBRANCH  57  71
BRANCH  58  82
ATOM     82  C   UNL A   1      39.628  33.884  37.397  1.00  0.00     0.023 A 
ATOM     83  C   UNL A   1      38.924  33.369  38.496  1.00  0.00     0.031 A 
ATOM     84  C   UNL A   1      40.049  35.225  37.451  1.00  0.00     0.131 A 
ATOM     85  C   UNL A   1      38.621  34.203  39.585  1.00  0.00     0.055 A 
ATOM     86  C   UNL A   1      39.793  36.034  38.559  1.00  0.00     0.041 A 
ATOM     87  F   UNL A   1      40.723  35.768  36.425  1.00  0.00    -0.206 F 
ATOM     88  C   UNL A   1      39.063  35.526  39.630  1.00  0.00     0.022 A 
BRANCH  85  89
ATOM     89  S   UNL A   1      37.568  33.551  40.909  1.00  0.00     0.124 S 
ATOM     90  O   UNL A   1      37.091  34.776  41.539  1.00  0.00    -0.237 OA
ATOM     91  O   UNL A   1      36.576  32.786  40.159  1.00  0.00    -0.237 OA
ATOM     92  O   UNL A   1      38.489  32.751  41.714  1.00  0.00    -0.744 OA
ENDBRANCH  85  89
ENDBRANCH  58  82
BRANCH  70  93
ATOM     93  C   UNL A   1      44.341  28.978  35.856  1.00  0.00     0.023 A 
ATOM     94  C   UNL A   1      44.207  27.889  36.734  1.00  0.00     0.031 A 
ATOM     95  C   UNL A   1      45.614  29.560  35.712  1.00  0.00     0.131 A 
ATOM     96  C   UNL A   1      45.315  27.448  37.475  1.00  0.00     0.055 A 
ATOM     97  C   UNL A   1      46.725  29.079  36.407  1.00  0.00     0.041 A 
ATOM     98  F   UNL A   1      45.800  30.603  34.888  1.00  0.00    -0.206 F 
ATOM     99  C   UNL A   1      46.577  28.026  37.305  1.00  0.00     0.022 A 
BRANCH  96 100
ATOM    100  S   UNL A   1      45.070  26.165  38.733  1.00  0.00     0.124 S 
ATOM    101  O   UNL A   1      46.443  25.808  39.075  1.00  0.00    -0.237 OA
ATOM    102  O   UNL A   1      44.321  26.877  39.764  1.00  0.00    -0.237 OA
ATOM    103  O   UNL A   1      44.318  25.129  38.026  1.00  0.00    -0.744 OA
ENDBRANCH  96 100
ENDBRANCH  70  93
ENDBRANCH  44  45
ENDBRANCH  37  39
ENDBRANCH  36  37
ENDBRANCH  35  36
ENDBRANCH  34  35
ENDBRANCH  33  34
ENDBRANCH  32  33
ENDBRANCH   1  32
TORSDOF 23
ENDMDL
MODEL 2
REMARK VINA RESULT:     -10.4      1.867      2.278
REMARK SMILES Cc1c(Cc2ccccc2)c(=O)oc2cc(OCC(=O)N[C@H](C)C(=O)OCCOCCOC(=O)c3ccc(-c4c5nc(c(-c6cc(S(=O)(=O)[O-])ccc6F)c6ccc([nH]6)c(-c6cc(S(=O)(=O)[O-])ccc6F)c6nc(c(-c7cc(S(=O)(=O)[O-])ccc7F)c7ccc4[nH]7)C=C6)C=C5)cc3)ccc12
REMARK SMILES IDX 27 1 26 2 24 3 25 4 22 5 23 6 21 7 19 8 20 9 18 11 17 12
REMARK SMILES IDX 16 13 1 14 2 15 3 16 100 17 11 18 14 19 99 20 12 21 13 22
REMARK SMILES IDX 15 23 98 24 4 25 5 26 6 27 10 28 7 29 9 30 8 31 28 32 29 33
REMARK SMILES IDX 30 34 31 35 32 36 33 37 34 38 35 39 36 40 97 41 37 42 96 43
REMARK SMILES IDX 38 44 39 45 40 46 90 47 41 48 95 49 89 50 91 51 42 52 94 53
REMARK SMILES IDX 88 54 87 55 43 57 75 58 55 59 74 60 56 61 59 62 73 63 92 64
REMARK SMILES IDX 57 65 58 66 72 68 93 69 60 70 44 71 45 72 53 73 46 74 52 75
REMARK SMILES IDX 54 76 51 77 47 78 48 79 49 80 50 81 76 82 77 83 85 84 78 85
REMARK SMILES IDX 84 86 86 87 83 88 79 89 80 90 81 91 82 92 61 93 62 94 70 95
REMARK SMILES IDX 63 96 69 97 71 98 68 99 64 100 65 101 66 102 67 103
REMARK H PARENT 21 10 91 56 59 67
REMARK Flexibility Score: inf
ROOT
ATOM      1  C   UNL A   1      31.104  28.753  24.628  1.00  0.00     0.261 C 
ENDROOT
BRANCH   1   2
ATOM      2  O   UNL A   1      31.491  27.366  24.657  1.00  0.00    -0.462 OA
BRANCH   2   3
ATOM      3  C   UNL A   1      32.032  26.879  23.507  1.00  0.00     0.328 C 
ATOM      4  O   UNL A   1      31.424  26.713  22.455  1.00  0.00    -0.250 OA
BRANCH   3   5
ATOM      5  C   UNL A   1      33.479  26.418  23.702  1.00  0.00     0.189 C 
ATOM      6  C   UNL A   1      33.902  26.155  25.137  1.00  0.00     0.043 C 
BRANCH   5   7
ATOM      7  N   UNL A   1      33.773  25.405  22.696  1.00  0.00    -0.340 N 
ATOM      8  C   UNL A   1      33.674  24.050  22.715  1.00  0.00     0.258 C 
ATOM      9  O   UNL A   1      33.599  23.481  21.622  1.00  0.00    -0.271 OA
ATOM     10  H   UNL A   1      34.106  25.770  21.845  1.00  0.00     0.164 HD
BRANCH   8  11
ATOM     11  C   UNL A   1      33.689  23.239  24.018  1.00  0.00     0.329 C 
BRANCH  11  12
ATOM     12  O   UNL A   1      34.414  22.020  24.066  1.00  0.00    -0.484 OA
BRANCH  12  13
ATOM     13  C   UNL A   1      35.637  21.994  24.670  1.00  0.00     0.123 A 
ATOM     14  C   UNL A   1      39.875  23.616  27.178  1.00  0.00     0.046 C 
ATOM     15  C   UNL A   1      39.539  22.344  26.445  1.00  0.00    -0.029 A 
ATOM     16  C   UNL A   1      40.366  21.279  26.333  1.00  0.00     0.046 A 
ATOM     17  C   UNL A   1      38.203  22.275  25.829  1.00  0.00     0.021 A 
ATOM     18  C   UNL A   1      39.888  20.001  25.726  1.00  0.00     0.340 A 
ATOM     19  C   UNL A   1      37.719  21.041  25.415  1.00  0.00     0.142 A 
ATOM     20  C   UNL A   1      37.377  23.389  25.639  1.00  0.00     0.016 A 
ATOM     21  O   UNL A   1      40.640  19.047  25.547  1.00  0.00    -0.246 OA
ATOM     22  O   UNL A   1      38.532  19.898  25.458  1.00  0.00    -0.422 OA
ATOM     23  C   UNL A   1      36.434  20.875  24.885  1.00  0.00     0.094 A 
ATOM     24  C   UNL A   1      36.112  23.247  25.061  1.00  0.00     0.047 A 
BRANCH  16  25
ATOM     25  C   UNL A   1      41.781  21.206  26.870  1.00  0.00     0.079 C 
BRANCH  25  26
ATOM     26  C   UNL A   1      42.861  21.558  25.862  1.00  0.00    -0.043 A 
ATOM     27  C   UNL A   1      43.840  20.618  25.512  1.00  0.00     0.004 A 
ATOM     28  C   UNL A   1      42.938  22.838  25.293  1.00  0.00     0.004 A 
ATOM     29  C   UNL A   1      44.873  20.957  24.632  1.00  0.00     0.000 A 
ATOM     30  C   UNL A   1      43.961  23.174  24.405  1.00  0.00     0.000 A 
ATOM     31  C   UNL A   1      44.934  22.235  24.079  1.00  0.00     0.000 A 
ENDBRANCH  25  26
ENDBRANCH  16  25
ENDBRANCH  12  13
ENDBRANCH  11  12
ENDBRANCH   8  11
ENDBRANCH   5   7
ENDBRANCH   3   5
ENDBRANCH   2   3
ENDBRANCH   1   2
BRANCH   1  32
ATOM     32  C   UNL A   1      32.269  29.656  25.038  1.00  0.00     0.202 C 
BRANCH  32  33
ATOM     33  O   UNL A   1      32.442  29.866  26.440  1.00  0.00    -0.374 OA
BRANCH  33  34
ATOM     34  C   UNL A   1      33.762  29.741  26.964  1.00  0.00     0.202 C 
BRANCH  34  35
ATOM     35  C   UNL A   1      34.472  31.027  27.408  1.00  0.00     0.261 C 
BRANCH  35  36
ATOM     36  O   UNL A   1      33.646  31.873  28.226  1.00  0.00    -0.460 OA
BRANCH  36  37
ATOM     37  C   UNL A   1      34.193  33.083  28.505  1.00  0.00     0.338 C 
ATOM     38  O   UNL A   1      33.854  34.163  28.042  1.00  0.00    -0.246 OA
BRANCH  37  39
ATOM     39  C   UNL A   1      35.161  32.968  29.611  1.00  0.00     0.060 A 
ATOM     40  C   UNL A   1      36.292  33.794  29.564  1.00  0.00     0.016 A 
ATOM     41  C   UNL A   1      35.014  32.025  30.632  1.00  0.00     0.016 A 
ATOM     42  C   UNL A   1      37.306  33.646  30.508  1.00  0.00     0.010 A 
ATOM     43  C   UNL A   1      36.040  31.872  31.573  1.00  0.00     0.010 A 
ATOM     44  C   UNL A   1      37.205  32.658  31.495  1.00  0.00    -0.014 A 
BRANCH  44  45
ATOM     45  C   UNL A   1      38.388  32.349  32.339  1.00  0.00     0.031 A 
ATOM     46  C   UNL A   1      39.534  31.585  31.732  1.00  0.00     0.074 A 
ATOM     47  C   UNL A   1      38.461  32.782  33.610  1.00  0.00     0.049 A 
ATOM     48  N   UNL A   1      40.651  31.185  32.281  1.00  0.00    -0.248 NA
ATOM     49  C   UNL A   1      39.397  31.227  30.312  1.00  0.00     0.031 C 
ATOM     50  C   UNL A   1      37.441  33.581  34.287  1.00  0.00     0.029 A 
ATOM     51  N   UNL A   1      39.440  32.611  34.556  1.00  0.00    -0.354 N 
ATOM     52  C   UNL A   1      41.354  30.528  31.276  1.00  0.00     0.074 A 
ATOM     53  C   UNL A   1      40.512  30.545  30.097  1.00  0.00     0.031 C 
ATOM     54  C   UNL A   1      37.849  33.831  35.544  1.00  0.00     0.029 A 
ATOM     55  C   UNL A   1      39.136  33.176  35.773  1.00  0.00     0.049 A 
ATOM     56  H   UNL A   1      40.280  32.130  34.381  1.00  0.00     0.167 HD
ATOM     57  C   UNL A   1      42.591  29.972  31.328  1.00  0.00     0.034 A 
ATOM     58  C   UNL A   1      39.808  33.146  36.941  1.00  0.00     0.034 A 
ATOM     59  C   UNL A   1      43.410  29.946  32.515  1.00  0.00     0.049 A 
ATOM     60  C   UNL A   1      41.131  32.420  37.007  1.00  0.00     0.074 A 
ATOM     61  C   UNL A   1      44.677  29.413  32.679  1.00  0.00     0.029 A 
ATOM     62  N   UNL A   1      43.037  30.463  33.751  1.00  0.00    -0.354 N 
ATOM     63  N   UNL A   1      41.784  31.800  36.051  1.00  0.00    -0.248 NA
ATOM     64  C   UNL A   1      41.805  32.393  38.311  1.00  0.00     0.031 C 
ATOM     65  C   UNL A   1      45.037  29.541  34.026  1.00  0.00     0.029 A 
ATOM     66  C   UNL A   1      44.031  30.228  34.687  1.00  0.00     0.049 A 
ATOM     67  H   UNL A   1      42.189  30.930  33.933  1.00  0.00     0.167 HD
ATOM     68  C   UNL A   1      42.964  31.341  36.633  1.00  0.00     0.074 A 
ATOM     69  C   UNL A   1      42.935  31.763  38.018  1.00  0.00     0.031 C 
ATOM     70  C   UNL A   1      43.984  30.642  36.071  1.00  0.00     0.034 A 
BRANCH  57  71
ATOM     71  C   UNL A   1      43.097  29.300  30.072  1.00  0.00     0.023 A 
ATOM     72  C   UNL A   1      43.051  27.904  29.911  1.00  0.00     0.031 A 
ATOM     73  C   UNL A   1      43.676  30.062  29.042  1.00  0.00     0.131 A 
ATOM     74  C   UNL A   1      43.646  27.308  28.789  1.00  0.00     0.055 A 
ATOM     75  C   UNL A   1      44.191  29.469  27.888  1.00  0.00     0.041 A 
ATOM     76  F   UNL A   1      43.772  31.396  29.149  1.00  0.00    -0.206 F 
ATOM     77  C   UNL A   1      44.194  28.082  27.764  1.00  0.00     0.022 A 
BRANCH  74  78
ATOM     78  S   UNL A   1      43.840  25.504  28.764  1.00  0.00     0.124 S 
ATOM     79  O   UNL A   1      44.342  25.280  27.410  1.00  0.00    -0.237 OA
ATOM     80  O   UNL A   1      44.791  25.275  29.846  1.00  0.00    -0.237 OA
ATOM     81  O   UNL A   1      42.486  25.010  29.007  1.00  0.00    -0.744 OA
ENDBRANCH  74  78
ENDBRANCH  57  71
BRANCH  58  82
ATOM     82  C   UNL A   1      39.236  33.789  38.159  1.00  0.00     0.023 A 
ATOM     83  C   UNL A   1      39.619  35.084  38.543  1.00  0.00     0.031 A 
ATOM     84  C   UNL A   1      38.340  33.092  38.990  1.00  0.00     0.131 A 
ATOM     85  C   UNL A   1      39.142  35.626  39.748  1.00  0.00     0.055 A 
ATOM     86  C   UNL A   1      37.827  33.656  40.159  1.00  0.00     0.041 A 
ATOM     87  F   UNL A   1      37.945  31.849  38.671  1.00  0.00    -0.206 F 
ATOM     88  C   UNL A   1      38.239  34.927  40.550  1.00  0.00     0.022 A 
BRANCH  85  89
ATOM     89  S   UNL A   1      39.789  37.230  40.292  1.00  0.00     0.124 S 
ATOM     90  O   UNL A   1      38.563  37.948  40.621  1.00  0.00    -0.237 OA
ATOM     91  O   UNL A   1      40.633  36.851  41.420  1.00  0.00    -0.237 OA
ATOM     92  O   UNL A   1      40.507  37.723  39.118  1.00  0.00    -0.744 OA
ENDBRANCH  85  89
ENDBRANCH  58  82
BRANCH  70  93
ATOM     93  C   UNL A   1      45.173  30.335  36.950  1.00  0.00     0.023 A 
ATOM     94  C   UNL A   1      45.211  29.200  37.778  1.00  0.00     0.031 A 
ATOM     95  C   UNL A   1      46.284  31.199  36.962  1.00  0.00     0.131 A 
ATOM     96  C   UNL A   1      46.312  28.987  38.623  1.00  0.00     0.055 A 
ATOM     97  C   UNL A   1      47.402  30.950  37.760  1.00  0.00     0.041 A 
ATOM     98  F   UNL A   1      46.302  32.299  36.192  1.00  0.00    -0.206 F 
ATOM     99  C   UNL A   1      47.414  29.846  38.607  1.00  0.00     0.022 A 
BRANCH  96 100
ATOM    100  S   UNL A   1      46.250  27.618  39.811  1.00  0.00     0.124 S 
ATOM    101  O   UNL A   1      44.841  27.609  40.191  1.00  0.00    -0.237 OA
ATOM    102  O   UNL A   1      46.700  26.486  39.008  1.00  0.00    -0.237 OA
ATOM    103  O   UNL A   1      47.173  28.035  40.865  1.00  0.00    -0.744 OA
ENDBRANCH  96 100
ENDBRANCH  70  93
ENDBRANCH  44  45
ENDBRANCH  37  39
ENDBRANCH  36  37
ENDBRANCH  35  36
ENDBRANCH  34  35
ENDBRANCH  33  34
ENDBRANCH  32  33
ENDBRANCH   1  32
TORSDOF 23
ENDMDL
MODEL 3
REMARK VINA RESULT:     -10.1      7.464     11.407
REMARK SMILES Cc1c(Cc2ccccc2)c(=O)oc2cc(OCC(=O)N[C@H](C)C(=O)OCCOCCOC(=O)c3ccc(-c4c5nc(c(-c6cc(S(=O)(=O)[O-])ccc6F)c6ccc([nH]6)c(-c6cc(S(=O)(=O)[O-])ccc6F)c6nc(c(-c7cc(S(=O)(=O)[O-])ccc7F)c7ccc4[nH]7)C=C6)C=C5)cc3)ccc12
REMARK SMILES IDX 27 1 26 2 24 3 25 4 22 5 23 6 21 7 19 8 20 9 18 11 17 12
REMARK SMILES IDX 16 13 1 14 2 15 3 16 100 17 11 18 14 19 99 20 12 21 13 22
REMARK SMILES IDX 15 23 98 24 4 25 5 26 6 27 10 28 7 29 9 30 8 31 28 32 29 33
REMARK SMILES IDX 30 34 31 35 32 36 33 37 34 38 35 39 36 40 97 41 37 42 96 43
REMARK SMILES IDX 38 44 39 45 40 46 90 47 41 48 95 49 89 50 91 51 42 52 94 53
REMARK SMILES IDX 88 54 87 55 43 57 75 58 55 59 74 60 56 61 59 62 73 63 92 64
REMARK SMILES IDX 57 65 58 66 72 68 93 69 60 70 44 71 45 72 53 73 46 74 52 75
REMARK SMILES IDX 54 76 51 77 47 78 48 79 49 80 50 81 76 82 77 83 85 84 78 85
REMARK SMILES IDX 84 86 86 87 83 88 79 89 80 90 81 91 82 92 61 93 62 94 70 95
REMARK SMILES IDX 63 96 69 97 71 98 68 99 64 100 65 101 66 102 67 103
REMARK H PARENT 21 10 91 56 59 67
REMARK Flexibility Score: inf
ROOT
ATOM      1  C   UNL A   1      40.132  28.407  29.969  1.00  0.00     0.261 C 
ENDROOT
BRANCH   1   2
ATOM      2  O   UNL A   1      40.651  27.827  28.757  1.00  0.00    -0.462 OA
BRANCH   2   3
ATOM      3  C   UNL A   1      40.162  26.600  28.432  1.00  0.00     0.328 C 
ATOM      4  O   UNL A   1      39.341  25.969  29.089  1.00  0.00    -0.250 OA
BRANCH   3   5
ATOM      5  C   UNL A   1      40.859  26.010  27.203  1.00  0.00     0.189 C 
ATOM      6  C   UNL A   1      41.230  27.000  26.114  1.00  0.00     0.043 C 
BRANCH   5   7
ATOM      7  N   UNL A   1      41.876  25.072  27.663  1.00  0.00    -0.340 N 
ATOM      8  C   UNL A   1      41.897  23.716  27.733  1.00  0.00     0.258 C 
ATOM      9  O   UNL A   1      43.006  23.176  27.775  1.00  0.00    -0.271 OA
ATOM     10  H   UNL A   1      42.702  25.501  27.984  1.00  0.00     0.164 HD
BRANCH   8  11
ATOM     11  C   UNL A   1      40.616  22.873  27.792  1.00  0.00     0.329 C 
BRANCH  11  12
ATOM     12  O   UNL A   1      40.287  22.035  26.694  1.00  0.00    -0.484 OA
BRANCH  12  13
ATOM     13  C   UNL A   1      39.052  22.136  26.123  1.00  0.00     0.123 A 
ATOM     14  C   UNL A   1      34.781  24.246  24.078  1.00  0.00     0.046 C 
ATOM     15  C   UNL A   1      35.119  22.852  24.536  1.00  0.00    -0.029 A 
ATOM     16  C   UNL A   1      34.284  21.790  24.452  1.00  0.00     0.046 A 
ATOM     17  C   UNL A   1      36.466  22.655  25.098  1.00  0.00     0.021 A 
ATOM     18  C   UNL A   1      34.762  20.414  24.783  1.00  0.00     0.340 A 
ATOM     19  C   UNL A   1      36.947  21.361  25.248  1.00  0.00     0.142 A 
ATOM     20  C   UNL A   1      37.306  23.705  25.487  1.00  0.00     0.016 A 
ATOM     21  O   UNL A   1      34.005  19.448  24.786  1.00  0.00    -0.246 OA
ATOM     22  O   UNL A   1      36.122  20.253  24.996  1.00  0.00    -0.422 OA
ATOM     23  C   UNL A   1      38.240  21.087  25.708  1.00  0.00     0.094 A 
ATOM     24  C   UNL A   1      38.581  23.444  25.999  1.00  0.00     0.047 A 
BRANCH  16  25
ATOM     25  C   UNL A   1      32.858  21.833  23.942  1.00  0.00     0.079 C 
BRANCH  25  26
ATOM     26  C   UNL A   1      31.926  22.728  24.739  1.00  0.00    -0.043 A 
ATOM     27  C   UNL A   1      31.301  23.825  24.129  1.00  0.00     0.004 A 
ATOM     28  C   UNL A   1      31.701  22.513  26.107  1.00  0.00     0.004 A 
ATOM     29  C   UNL A   1      30.490  24.688  24.874  1.00  0.00     0.000 A 
ATOM     30  C   UNL A   1      30.882  23.367  26.847  1.00  0.00     0.000 A 
ATOM     31  C   UNL A   1      30.281  24.460  26.232  1.00  0.00     0.000 A 
ENDBRANCH  25  26
ENDBRANCH  16  25
ENDBRANCH  12  13
ENDBRANCH  11  12
ENDBRANCH   8  11
ENDBRANCH   5   7
ENDBRANCH   3   5
ENDBRANCH   2   3
ENDBRANCH   1   2
BRANCH   1  32
ATOM     32  C   UNL A   1      39.913  29.913  29.808  1.00  0.00     0.202 C 
BRANCH  32  33
ATOM     33  O   UNL A   1      38.683  30.309  29.197  1.00  0.00    -0.374 OA
BRANCH  33  34
ATOM     34  C   UNL A   1      37.504  30.242  29.994  1.00  0.00     0.202 C 
BRANCH  34  35
ATOM     35  C   UNL A   1      37.203  31.430  30.916  1.00  0.00     0.261 C 
BRANCH  35  36
ATOM     36  O   UNL A   1      36.971  32.655  30.198  1.00  0.00    -0.460 OA
BRANCH  36  37
ATOM     37  C   UNL A   1      37.325  33.774  30.879  1.00  0.00     0.338 C 
ATOM     38  O   UNL A   1      36.715  34.290  31.806  1.00  0.00    -0.246 OA
BRANCH  37  39
ATOM     39  C   UNL A   1      38.675  34.214  30.481  1.00  0.00     0.060 A 
ATOM     40  C   UNL A   1      38.876  34.525  29.129  1.00  0.00     0.016 A 
ATOM     41  C   UNL A   1      39.741  34.250  31.383  1.00  0.00     0.016 A 
ATOM     42  C   UNL A   1      40.155  34.824  28.663  1.00  0.00     0.010 A 
ATOM     43  C   UNL A   1      41.027  34.541  30.910  1.00  0.00     0.010 A 
ATOM     44  C   UNL A   1      41.245  34.796  29.542  1.00  0.00    -0.014 A 
BRANCH  44  45
ATOM     45  C   UNL A   1      42.623  34.875  28.995  1.00  0.00     0.031 A 
ATOM     46  C   UNL A   1      43.168  36.218  28.588  1.00  0.00     0.074 A 
ATOM     47  C   UNL A   1      43.394  33.777  28.906  1.00  0.00     0.049 A 
ATOM     48  N   UNL A   1      44.328  36.523  28.067  1.00  0.00    -0.248 NA
ATOM     49  C   UNL A   1      42.280  37.371  28.801  1.00  0.00     0.031 C 
ATOM     50  C   UNL A   1      42.998  32.434  29.325  1.00  0.00     0.029 A 
ATOM     51  N   UNL A   1      44.674  33.621  28.435  1.00  0.00    -0.354 N 
ATOM     52  C   UNL A   1      44.313  37.902  27.889  1.00  0.00     0.074 A 
ATOM     53  C   UNL A   1      43.008  38.365  28.316  1.00  0.00     0.031 C 
ATOM     54  C   UNL A   1      44.017  31.587  29.089  1.00  0.00     0.029 A 
ATOM     55  C   UNL A   1      45.118  32.319  28.467  1.00  0.00     0.049 A 
ATOM     56  H   UNL A   1      45.222  34.368  28.105  1.00  0.00     0.167 HD
ATOM     57  C   UNL A   1      45.299  38.710  27.424  1.00  0.00     0.034 A 
ATOM     58  C   UNL A   1      46.272  31.780  28.024  1.00  0.00     0.034 A 
ATOM     59  C   UNL A   1      46.587  38.232  26.985  1.00  0.00     0.049 A 
ATOM     60  C   UNL A   1      47.310  32.683  27.401  1.00  0.00     0.074 A 
ATOM     61  C   UNL A   1      47.660  38.960  26.498  1.00  0.00     0.029 A 
ATOM     62  N   UNL A   1      46.975  36.897  26.962  1.00  0.00    -0.354 N 
ATOM     63  N   UNL A   1      47.285  33.985  27.236  1.00  0.00    -0.248 NA
ATOM     64  C   UNL A   1      48.535  32.038  26.907  1.00  0.00     0.031 C 
ATOM     65  C   UNL A   1      48.663  38.062  26.114  1.00  0.00     0.029 A 
ATOM     66  C   UNL A   1      48.253  36.779  26.437  1.00  0.00     0.049 A 
ATOM     67  H   UNL A   1      46.423  36.144  27.276  1.00  0.00     0.167 HD
ATOM     68  C   UNL A   1      48.505  34.318  26.651  1.00  0.00     0.074 A 
ATOM     69  C   UNL A   1      49.244  33.082  26.501  1.00  0.00     0.031 C 
ATOM     70  C   UNL A   1      48.975  35.537  26.280  1.00  0.00     0.034 A 
BRANCH  57  71
ATOM     71  C   UNL A   1      44.989  40.186  27.318  1.00  0.00     0.023 A 
ATOM     72  C   UNL A   1      44.460  40.748  26.143  1.00  0.00     0.031 A 
ATOM     73  C   UNL A   1      45.270  41.050  28.391  1.00  0.00     0.131 A 
ATOM     74  C   UNL A   1      44.306  42.138  26.039  1.00  0.00     0.055 A 
ATOM     75  C   UNL A   1      45.035  42.424  28.311  1.00  0.00     0.041 A 
ATOM     76  F   UNL A   1      45.800  40.576  29.530  1.00  0.00    -0.206 F 
ATOM     77  C   UNL A   1      44.567  42.978  27.124  1.00  0.00     0.022 A 
BRANCH  74  78
ATOM     78  S   UNL A   1      43.917  42.850  24.416  1.00  0.00     0.124 S 
ATOM     79  O   UNL A   1      42.517  42.461  24.252  1.00  0.00    -0.237 OA
ATOM     80  O   UNL A   1      44.165  44.271  24.627  1.00  0.00    -0.237 OA
ATOM     81  O   UNL A   1      44.851  42.179  23.514  1.00  0.00    -0.744 OA
ENDBRANCH  74  78
ENDBRANCH  57  71
BRANCH  58  82
ATOM     82  C   UNL A   1      46.503  30.309  28.114  1.00  0.00     0.023 A 
ATOM     83  C   UNL A   1      46.054  29.443  27.105  1.00  0.00     0.031 A 
ATOM     84  C   UNL A   1      47.126  29.744  29.241  1.00  0.00     0.131 A 
ATOM     85  C   UNL A   1      46.196  28.055  27.262  1.00  0.00     0.055 A 
ATOM     86  C   UNL A   1      47.312  28.366  29.368  1.00  0.00     0.041 A 
ATOM     87  F   UNL A   1      47.569  30.527  30.237  1.00  0.00    -0.206 F 
ATOM     88  C   UNL A   1      46.833  27.512  28.379  1.00  0.00     0.022 A 
BRANCH  85  89
ATOM     89  S   UNL A   1      45.456  26.962  26.017  1.00  0.00     0.124 S 
ATOM     90  O   UNL A   1      44.833  25.941  26.851  1.00  0.00    -0.237 OA
ATOM     91  O   UNL A   1      44.546  27.866  25.322  1.00  0.00    -0.237 OA
ATOM     92  O   UNL A   1      46.606  26.514  25.233  1.00  0.00    -0.744 OA
ENDBRANCH  85  89
ENDBRANCH  58  82
BRANCH  70  93
ATOM     93  C   UNL A   1      50.377  35.592  25.721  1.00  0.00     0.023 A 
ATOM     94  C   UNL A   1      51.498  35.232  26.489  1.00  0.00     0.031 A 
ATOM     95  C   UNL A   1      50.593  36.020  24.398  1.00  0.00     0.131 A 
ATOM     96  C   UNL A   1      52.787  35.358  25.947  1.00  0.00     0.055 A 
ATOM     97  C   UNL A   1      51.872  36.086  23.845  1.00  0.00     0.041 A 
ATOM     98  F   UNL A   1      49.559  36.377  23.619  1.00  0.00    -0.206 F 
ATOM     99  C   UNL A   1      52.980  35.766  24.624  1.00  0.00     0.022 A 
BRANCH  96 100
ATOM    100  S   UNL A   1      54.218  35.063  27.021  1.00  0.00     0.124 S 
ATOM    101  O   UNL A   1      54.221  33.608  27.131  1.00  0.00    -0.237 OA
ATOM    102  O   UNL A   1      55.313  35.646  26.250  1.00  0.00    -0.237 OA
ATOM    103  O   UNL A   1      53.879  35.778  28.251  1.00  0.00    -0.744 OA
ENDBRANCH  96 100
ENDBRANCH  70  93
ENDBRANCH  44  45
ENDBRANCH  37  39
ENDBRANCH  36  37
ENDBRANCH  35  36
ENDBRANCH  34  35
ENDBRANCH  33  34
ENDBRANCH  32  33
ENDBRANCH   1  32
TORSDOF 23
ENDMDL
