MODEL 1
REMARK VINA RESULT:     -10.4      0.000      0.000
REMARK SMILES O=C(Cc1ccn(-c2ccccc2F)c1)OCCOCCOC(=O)c1ccc(-c2c3nc(c(-c4cc(S(=O)(=O)[O-])ccc4F)c4ccc([nH]4)c(-c4cc(S(=O)(=O)[O-])ccc4F)c4nc(c(-c5cc(S(=O)(=O)[O-])ccc5F)c5ccc2[nH]5)C=C4)C=C3)cc1
REMARK SMILES IDX 20 1 19 2 18 3 17 4 16 5 2 6 1 7 3 8 4 9 5 10 15 11 6 12
REMARK SMILES IDX 7 13 8 14 9 15 13 16 10 17 12 18 14 19 11 20 21 21 22 22
REMARK SMILES IDX 23 23 24 24 25 25 26 26 87 27 27 28 86 29 28 30 29 31 30 32
REMARK SMILES IDX 80 33 31 34 85 35 79 36 81 37 32 38 84 39 78 40 77 41 33 43
REMARK SMILES IDX 65 44 45 45 64 46 46 47 49 48 63 49 82 50 47 51 48 52 62 54
REMARK SMILES IDX 83 55 50 56 34 57 35 58 43 59 36 60 42 61 44 62 41 63 37 64
REMARK SMILES IDX 38 65 39 66 40 67 66 68 67 69 75 70 68 71 74 72 76 73 73 74
REMARK SMILES IDX 69 75 70 76 71 77 72 78 51 79 52 80 60 81 53 82 59 83 61 84
REMARK SMILES IDX 58 85 54 86 55 87 56 88 57 89
REMARK H PARENT 81 42 49 53
REMARK Flexibility Score: inf
ROOT
ATOM      1  C   UNL A   1      33.379  30.343  26.569  1.00  0.00     0.202 C 
ENDROOT
BRANCH   1   2
ATOM      2  O   UNL A   1      32.053  29.841  26.399  1.00  0.00    -0.374 OA
BRANCH   2   3
ATOM      3  C   UNL A   1      31.342  30.123  25.202  1.00  0.00     0.202 C 
BRANCH   3   4
ATOM      4  C   UNL A   1      31.031  28.987  24.232  1.00  0.00     0.261 C 
BRANCH   4   5
ATOM      5  O   UNL A   1      30.926  27.669  24.786  1.00  0.00    -0.463 OA
BRANCH   5   6
ATOM      6  C   UNL A   1      31.830  26.681  24.572  1.00  0.00     0.310 C 
ATOM      7  O   UNL A   1      31.696  25.941  23.597  1.00  0.00    -0.252 OA
BRANCH   6   8
ATOM      8  C   UNL A   1      32.905  26.404  25.604  1.00  0.00     0.159 C 
BRANCH   8   9
ATOM      9  C   UNL A   1      33.449  25.019  25.640  1.00  0.00    -0.019 A 
ATOM     10  C   UNL A   1      32.928  23.948  26.422  1.00  0.00     0.024 A 
ATOM     11  C   UNL A   1      34.563  24.521  24.990  1.00  0.00     0.095 A 
ATOM     12  C   UNL A   1      33.831  22.912  26.357  1.00  0.00     0.091 A 
ATOM     13  N   UNL A   1      34.865  23.298  25.543  1.00  0.00    -0.321 N 
BRANCH  13  14
ATOM     14  C   UNL A   1      36.115  22.677  25.429  1.00  0.00     0.081 A 
ATOM     15  C   UNL A   1      37.244  23.303  25.958  1.00  0.00     0.030 A 
ATOM     16  C   UNL A   1      36.182  21.381  24.920  1.00  0.00     0.147 A 
ATOM     17  C   UNL A   1      38.460  22.621  25.941  1.00  0.00     0.002 A 
ATOM     18  C   UNL A   1      37.389  20.691  24.939  1.00  0.00     0.041 A 
ATOM     19  F   UNL A   1      35.081  20.747  24.490  1.00  0.00    -0.205 F 
ATOM     20  C   UNL A   1      38.531  21.315  25.444  1.00  0.00     0.003 A 
ENDBRANCH  13  14
ENDBRANCH   8   9
ENDBRANCH   6   8
ENDBRANCH   5   6
ENDBRANCH   4   5
ENDBRANCH   3   4
ENDBRANCH   2   3
ENDBRANCH   1   2
BRANCH   1  21
ATOM     21  C   UNL A   1      33.622  31.372  27.656  1.00  0.00     0.261 C 
BRANCH  21  22
ATOM     22  O   UNL A   1      35.015  31.625  27.801  1.00  0.00    -0.460 OA
BRANCH  22  23
ATOM     23  C   UNL A   1      35.511  31.217  28.979  1.00  0.00     0.338 C 
ATOM     24  O   UNL A   1      35.346  31.746  30.080  1.00  0.00    -0.246 OA
BRANCH  23  25
ATOM     25  C   UNL A   1      36.415  30.095  28.781  1.00  0.00     0.060 A 
ATOM     26  C   UNL A   1      36.789  29.411  29.940  1.00  0.00     0.016 A 
ATOM     27  C   UNL A   1      37.158  30.043  27.593  1.00  0.00     0.016 A 
ATOM     28  C   UNL A   1      38.050  28.872  29.990  1.00  0.00     0.010 A 
ATOM     29  C   UNL A   1      38.433  29.538  27.658  1.00  0.00     0.010 A 
ATOM     30  C   UNL A   1      38.886  29.029  28.879  1.00  0.00    -0.014 A 
BRANCH  30  31
ATOM     31  C   UNL A   1      40.274  28.596  29.021  1.00  0.00     0.031 A 
ATOM     32  C   UNL A   1      41.163  29.762  29.428  1.00  0.00     0.074 A 
ATOM     33  C   UNL A   1      40.516  27.291  28.700  1.00  0.00     0.049 A 
ATOM     34  N   UNL A   1      42.411  29.978  29.170  1.00  0.00    -0.248 NA
ATOM     35  C   UNL A   1      40.544  30.924  30.134  1.00  0.00     0.031 C 
ATOM     36  C   UNL A   1      39.486  26.304  28.281  1.00  0.00     0.029 A 
ATOM     37  N   UNL A   1      41.656  26.525  28.644  1.00  0.00    -0.354 N 
ATOM     38  C   UNL A   1      42.774  31.149  29.858  1.00  0.00     0.074 A 
ATOM     39  C   UNL A   1      41.561  31.768  30.294  1.00  0.00     0.031 C 
ATOM     40  C   UNL A   1      40.051  25.119  27.958  1.00  0.00     0.029 A 
ATOM     41  C   UNL A   1      41.484  25.205  28.155  1.00  0.00     0.049 A 
ATOM     42  H   UNL A   1      42.534  26.870  28.927  1.00  0.00     0.167 HD
ATOM     43  C   UNL A   1      44.060  31.472  30.159  1.00  0.00     0.034 A 
ATOM     44  C   UNL A   1      42.437  24.257  27.899  1.00  0.00     0.034 A 
ATOM     45  C   UNL A   1      44.958  30.486  29.660  1.00  0.00     0.049 A 
ATOM     46  C   UNL A   1      43.704  24.854  28.359  1.00  0.00     0.074 A 
ATOM     47  C   UNL A   1      45.405  30.184  28.400  1.00  0.00     0.029 A 
ATOM     48  N   UNL A   1      45.272  29.446  30.502  1.00  0.00    -0.354 N 
ATOM     49  N   UNL A   1      44.026  25.057  29.600  1.00  0.00    -0.248 NA
ATOM     50  C   UNL A   1      44.657  25.335  27.353  1.00  0.00     0.031 C 
ATOM     51  C   UNL A   1      45.624  28.789  28.434  1.00  0.00     0.029 A 
ATOM     52  C   UNL A   1      45.399  28.314  29.731  1.00  0.00     0.049 A 
ATOM     53  H   UNL A   1      45.385  29.501  31.479  1.00  0.00     0.167 HD
ATOM     54  C   UNL A   1      45.057  25.960  29.511  1.00  0.00     0.074 A 
ATOM     55  C   UNL A   1      45.569  25.869  28.161  1.00  0.00     0.031 C 
ATOM     56  C   UNL A   1      45.084  27.035  30.340  1.00  0.00     0.034 A 
BRANCH  43  57
ATOM     57  C   UNL A   1      44.612  32.540  31.051  1.00  0.00     0.023 A 
ATOM     58  C   UNL A   1      44.261  32.467  32.417  1.00  0.00     0.031 A 
ATOM     59  C   UNL A   1      45.216  33.729  30.616  1.00  0.00     0.131 A 
ATOM     60  C   UNL A   1      44.441  33.559  33.274  1.00  0.00     0.055 A 
ATOM     61  C   UNL A   1      45.446  34.801  31.487  1.00  0.00     0.041 A 
ATOM     62  F   UNL A   1      45.528  33.928  29.327  1.00  0.00    -0.206 F 
ATOM     63  C   UNL A   1      45.035  34.731  32.816  1.00  0.00     0.022 A 
BRANCH  60  64
ATOM     64  S   UNL A   1      43.759  33.454  34.951  1.00  0.00     0.124 S 
ATOM     65  O   UNL A   1      42.760  32.398  34.819  1.00  0.00    -0.237 OA
ATOM     66  O   UNL A   1      44.942  33.118  35.739  1.00  0.00    -0.237 OA
ATOM     67  O   UNL A   1      43.220  34.792  35.182  1.00  0.00    -0.744 OA
ENDBRANCH  60  64
ENDBRANCH  43  57
BRANCH  44  68
ATOM     68  C   UNL A   1      42.541  22.894  27.244  1.00  0.00     0.023 A 
ATOM     69  C   UNL A   1      43.532  22.483  26.337  1.00  0.00     0.031 A 
ATOM     70  C   UNL A   1      41.622  21.870  27.634  1.00  0.00     0.131 A 
ATOM     71  C   UNL A   1      43.609  21.125  25.925  1.00  0.00     0.055 A 
ATOM     72  C   UNL A   1      41.747  20.525  27.286  1.00  0.00     0.041 A 
ATOM     73  F   UNL A   1      40.557  22.130  28.405  1.00  0.00    -0.206 F 
ATOM     74  C   UNL A   1      42.756  20.141  26.433  1.00  0.00     0.022 A 
BRANCH  71  75
ATOM     75  S   UNL A   1      44.846  20.557  24.720  1.00  0.00     0.124 S 
ATOM     76  O   UNL A   1      44.519  21.367  23.550  1.00  0.00    -0.237 OA
ATOM     77  O   UNL A   1      46.116  20.862  25.371  1.00  0.00    -0.237 OA
ATOM     78  O   UNL A   1      44.542  19.132  24.595  1.00  0.00    -0.744 OA
ENDBRANCH  71  75
ENDBRANCH  44  68
BRANCH  56  79
ATOM     79  C   UNL A   1      44.345  26.824  31.653  1.00  0.00     0.023 A 
ATOM     80  C   UNL A   1      43.219  27.602  31.969  1.00  0.00     0.031 A 
ATOM     81  C   UNL A   1      44.800  25.953  32.659  1.00  0.00     0.131 A 
ATOM     82  C   UNL A   1      42.605  27.497  33.236  1.00  0.00     0.055 A 
ATOM     83  C   UNL A   1      44.188  25.835  33.912  1.00  0.00     0.041 A 
ATOM     84  F   UNL A   1      45.871  25.192  32.462  1.00  0.00    -0.206 F 
ATOM     85  C   UNL A   1      43.082  26.614  34.207  1.00  0.00     0.022 A 
BRANCH  82  86
ATOM     86  S   UNL A   1      41.138  28.496  33.600  1.00  0.00     0.124 S 
ATOM     87  O   UNL A   1      41.582  29.845  33.267  1.00  0.00    -0.237 OA
ATOM     88  O   UNL A   1      40.130  27.918  32.716  1.00  0.00    -0.237 OA
ATOM     89  O   UNL A   1      40.909  28.256  35.025  1.00  0.00    -0.744 OA
ENDBRANCH  82  86
ENDBRANCH  56  79
ENDBRANCH  30  31
ENDBRANCH  23  25
ENDBRANCH  22  23
ENDBRANCH  21  22
ENDBRANCH   1  21
TORSDOF 19
ENDMDL
MODEL 2
REMARK VINA RESULT:     -10.3      3.373      8.994
REMARK SMILES O=C(Cc1ccn(-c2ccccc2F)c1)OCCOCCOC(=O)c1ccc(-c2c3nc(c(-c4cc(S(=O)(=O)[O-])ccc4F)c4ccc([nH]4)c(-c4cc(S(=O)(=O)[O-])ccc4F)c4nc(c(-c5cc(S(=O)(=O)[O-])ccc5F)c5ccc2[nH]5)C=C4)C=C3)cc1
REMARK SMILES IDX 20 1 19 2 18 3 17 4 16 5 2 6 1 7 3 8 4 9 5 10 15 11 6 12
REMARK SMILES IDX 7 13 8 14 9 15 13 16 10 17 12 18 14 19 11 20 21 21 22 22
REMARK SMILES IDX 23 23 24 24 25 25 26 26 87 27 27 28 86 29 28 30 29 31 30 32
REMARK SMILES IDX 80 33 31 34 85 35 79 36 81 37 32 38 84 39 78 40 77 41 33 43
REMARK SMILES IDX 65 44 45 45 64 46 46 47 49 48 63 49 82 50 47 51 48 52 62 54
REMARK SMILES IDX 83 55 50 56 34 57 35 58 43 59 36 60 42 61 44 62 41 63 37 64
REMARK SMILES IDX 38 65 39 66 40 67 66 68 67 69 75 70 68 71 74 72 76 73 73 74
REMARK SMILES IDX 69 75 70 76 71 77 72 78 51 79 52 80 60 81 53 82 59 83 61 84
REMARK SMILES IDX 58 85 54 86 55 87 56 88 57 89
REMARK H PARENT 81 42 49 53
REMARK Flexibility Score: inf
ROOT
ATOM      1  C   UNL A   1      33.504  29.278  27.217  1.00  0.00     0.202 C 
ENDROOT
BRANCH   1   2
ATOM      2  O   UNL A   1      33.598  27.883  26.926  1.00  0.00    -0.374 OA
BRANCH   2   3
ATOM      3  C   UNL A   1      33.436  27.432  25.589  1.00  0.00     0.202 C 
BRANCH   3   4
ATOM      4  C   UNL A   1      33.844  26.006  25.227  1.00  0.00     0.261 C 
BRANCH   4   5
ATOM      5  O   UNL A   1      33.065  24.944  25.791  1.00  0.00    -0.463 OA
BRANCH   5   6
ATOM      6  C   UNL A   1      31.712  24.962  25.882  1.00  0.00     0.310 C 
ATOM      7  O   UNL A   1      31.183  25.122  26.983  1.00  0.00    -0.252 OA
BRANCH   6   8
ATOM      8  C   UNL A   1      30.868  24.641  24.665  1.00  0.00     0.159 C 
BRANCH   8   9
ATOM      9  C   UNL A   1      30.573  25.773  23.744  1.00  0.00    -0.019 A 
ATOM     10  C   UNL A   1      31.326  26.109  22.582  1.00  0.00     0.024 A 
ATOM     11  C   UNL A   1      29.578  26.727  23.854  1.00  0.00     0.095 A 
ATOM     12  C   UNL A   1      30.878  27.333  22.140  1.00  0.00     0.091 A 
ATOM     13  N   UNL A   1      29.863  27.740  22.967  1.00  0.00    -0.321 N 
BRANCH  13  14
ATOM     14  C   UNL A   1      29.324  29.029  23.057  1.00  0.00     0.081 A 
ATOM     15  C   UNL A   1      28.076  29.294  22.494  1.00  0.00     0.030 A 
ATOM     16  C   UNL A   1      29.980  29.983  23.835  1.00  0.00     0.147 A 
ATOM     17  C   UNL A   1      27.501  30.549  22.692  1.00  0.00     0.002 A 
ATOM     18  C   UNL A   1      29.387  31.219  24.060  1.00  0.00     0.041 A 
ATOM     19  F   UNL A   1      31.139  29.699  24.446  1.00  0.00    -0.205 F 
ATOM     20  C   UNL A   1      28.148  31.505  23.482  1.00  0.00     0.003 A 
ENDBRANCH  13  14
ENDBRANCH   8   9
ENDBRANCH   6   8
ENDBRANCH   5   6
ENDBRANCH   4   5
ENDBRANCH   3   4
ENDBRANCH   2   3
ENDBRANCH   1   2
BRANCH   1  21
ATOM     21  C   UNL A   1      34.768  30.112  27.151  1.00  0.00     0.261 C 
BRANCH  21  22
ATOM     22  O   UNL A   1      35.364  30.220  28.438  1.00  0.00    -0.460 OA
BRANCH  22  23
ATOM     23  C   UNL A   1      36.634  30.652  28.404  1.00  0.00     0.338 C 
ATOM     24  O   UNL A   1      37.025  31.820  28.450  1.00  0.00    -0.246 OA
BRANCH  23  25
ATOM     25  C   UNL A   1      37.536  29.536  28.167  1.00  0.00     0.060 A 
ATOM     26  C   UNL A   1      37.483  28.507  29.110  1.00  0.00     0.016 A 
ATOM     27  C   UNL A   1      38.641  29.742  27.328  1.00  0.00     0.016 A 
ATOM     28  C   UNL A   1      38.643  27.831  29.392  1.00  0.00     0.010 A 
ATOM     29  C   UNL A   1      39.810  29.092  27.638  1.00  0.00     0.010 A 
ATOM     30  C   UNL A   1      39.811  28.202  28.717  1.00  0.00    -0.014 A 
BRANCH  30  31
ATOM     31  C   UNL A   1      41.061  27.586  29.154  1.00  0.00     0.031 A 
ATOM     32  C   UNL A   1      41.416  26.401  28.268  1.00  0.00     0.074 A 
ATOM     33  C   UNL A   1      41.615  28.124  30.281  1.00  0.00     0.049 A 
ATOM     34  N   UNL A   1      42.065  25.321  28.557  1.00  0.00    -0.248 NA
ATOM     35  C   UNL A   1      40.871  26.355  26.879  1.00  0.00     0.031 C 
ATOM     36  C   UNL A   1      41.075  29.287  31.033  1.00  0.00     0.029 A 
ATOM     37  N   UNL A   1      42.722  27.812  31.033  1.00  0.00    -0.354 N 
ATOM     38  C   UNL A   1      42.203  24.595  27.361  1.00  0.00     0.074 A 
ATOM     39  C   UNL A   1      41.318  25.192  26.408  1.00  0.00     0.031 C 
ATOM     40  C   UNL A   1      41.806  29.529  32.144  1.00  0.00     0.029 A 
ATOM     41  C   UNL A   1      42.896  28.577  32.215  1.00  0.00     0.049 A 
ATOM     42  H   UNL A   1      43.355  27.105  30.768  1.00  0.00     0.167 HD
ATOM     43  C   UNL A   1      43.143  23.632  27.173  1.00  0.00     0.034 A 
ATOM     44  C   UNL A   1      43.837  28.431  33.197  1.00  0.00     0.034 A 
ATOM     45  C   UNL A   1      43.926  23.456  28.349  1.00  0.00     0.049 A 
ATOM     46  C   UNL A   1      44.736  27.367  32.711  1.00  0.00     0.074 A 
ATOM     47  C   UNL A   1      43.671  22.869  29.561  1.00  0.00     0.029 A 
ATOM     48  N   UNL A   1      45.067  24.216  28.458  1.00  0.00    -0.354 N 
ATOM     49  N   UNL A   1      45.569  27.488  31.723  1.00  0.00    -0.248 NA
ATOM     50  C   UNL A   1      44.644  26.038  33.325  1.00  0.00     0.031 C 
ATOM     51  C   UNL A   1      44.445  23.612  30.478  1.00  0.00     0.029 A 
ATOM     52  C   UNL A   1      45.214  24.553  29.784  1.00  0.00     0.049 A 
ATOM     53  H   UNL A   1      45.669  24.472  27.722  1.00  0.00     0.167 HD
ATOM     54  C   UNL A   1      45.863  26.186  31.402  1.00  0.00     0.074 A 
ATOM     55  C   UNL A   1      45.512  25.387  32.556  1.00  0.00     0.031 C 
ATOM     56  C   UNL A   1      45.881  25.802  30.100  1.00  0.00     0.034 A 
BRANCH  43  57
ATOM     57  C   UNL A   1      43.573  22.920  25.928  1.00  0.00     0.023 A 
ATOM     58  C   UNL A   1      43.535  21.508  25.962  1.00  0.00     0.031 A 
ATOM     59  C   UNL A   1      44.245  23.508  24.847  1.00  0.00     0.131 A 
ATOM     60  C   UNL A   1      44.202  20.739  25.002  1.00  0.00     0.055 A 
ATOM     61  C   UNL A   1      44.867  22.737  23.857  1.00  0.00     0.041 A 
ATOM     62  F   UNL A   1      44.398  24.837  24.754  1.00  0.00    -0.206 F 
ATOM     63  C   UNL A   1      44.871  21.347  23.944  1.00  0.00     0.022 A 
BRANCH  60  64
ATOM     64  S   UNL A   1      44.288  18.944  25.250  1.00  0.00     0.124 S 
ATOM     65  O   UNL A   1      43.402  18.742  26.391  1.00  0.00    -0.237 OA
ATOM     66  O   UNL A   1      43.802  18.439  23.968  1.00  0.00    -0.237 OA
ATOM     67  O   UNL A   1      45.705  18.706  25.513  1.00  0.00    -0.744 OA
ENDBRANCH  60  64
ENDBRANCH  43  57
BRANCH  44  68
ATOM     68  C   UNL A   1      44.132  28.973  34.582  1.00  0.00     0.023 A 
ATOM     69  C   UNL A   1      45.292  29.664  34.973  1.00  0.00     0.031 A 
ATOM     70  C   UNL A   1      43.120  28.882  35.587  1.00  0.00     0.131 A 
ATOM     71  C   UNL A   1      45.371  30.264  36.258  1.00  0.00     0.055 A 
ATOM     72  C   UNL A   1      43.172  29.535  36.818  1.00  0.00     0.041 A 
ATOM     73  F   UNL A   1      42.004  28.162  35.407  1.00  0.00    -0.206 F 
ATOM     74  C   UNL A   1      44.300  30.245  37.157  1.00  0.00     0.022 A 
BRANCH  71  75
ATOM     75  S   UNL A   1      46.866  31.129  36.822  1.00  0.00     0.124 S 
ATOM     76  O   UNL A   1      47.786  30.892  35.712  1.00  0.00    -0.237 OA
ATOM     77  O   UNL A   1      46.417  32.505  36.994  1.00  0.00    -0.237 OA
ATOM     78  O   UNL A   1      47.195  30.426  38.062  1.00  0.00    -0.744 OA
ENDBRANCH  71  75
ENDBRANCH  44  68
BRANCH  56  79
ATOM     79  C   UNL A   1      46.181  26.931  29.124  1.00  0.00     0.023 A 
ATOM     80  C   UNL A   1      45.137  27.703  28.587  1.00  0.00     0.031 A 
ATOM     81  C   UNL A   1      47.467  27.187  28.617  1.00  0.00     0.131 A 
ATOM     82  C   UNL A   1      45.397  28.667  27.590  1.00  0.00     0.055 A 
ATOM     83  C   UNL A   1      47.732  28.151  27.638  1.00  0.00     0.041 A 
ATOM     84  F   UNL A   1      48.515  26.494  29.049  1.00  0.00    -0.206 F 
ATOM     85  C   UNL A   1      46.690  28.898  27.116  1.00  0.00     0.022 A 
BRANCH  82  86
ATOM     86  S   UNL A   1      44.031  29.663  26.937  1.00  0.00     0.124 S 
ATOM     87  O   UNL A   1      44.728  30.734  26.233  1.00  0.00    -0.237 OA
ATOM     88  O   UNL A   1      43.311  28.709  26.099  1.00  0.00    -0.237 OA
ATOM     89  O   UNL A   1      43.311  30.083  28.140  1.00  0.00    -0.744 OA
ENDBRANCH  82  86
ENDBRANCH  56  79
ENDBRANCH  30  31
ENDBRANCH  23  25
ENDBRANCH  22  23
ENDBRANCH  21  22
ENDBRANCH   1  21
TORSDOF 19
ENDMDL
MODEL 3
REMARK VINA RESULT:     -10.2      1.883      2.355
REMARK SMILES O=C(Cc1ccn(-c2ccccc2F)c1)OCCOCCOC(=O)c1ccc(-c2c3nc(c(-c4cc(S(=O)(=O)[O-])ccc4F)c4ccc([nH]4)c(-c4cc(S(=O)(=O)[O-])ccc4F)c4nc(c(-c5cc(S(=O)(=O)[O-])ccc5F)c5ccc2[nH]5)C=C4)C=C3)cc1
REMARK SMILES IDX 20 1 19 2 18 3 17 4 16 5 2 6 1 7 3 8 4 9 5 10 15 11 6 12
REMARK SMILES IDX 7 13 8 14 9 15 13 16 10 17 12 18 14 19 11 20 21 21 22 22
REMARK SMILES IDX 23 23 24 24 25 25 26 26 87 27 27 28 86 29 28 30 29 31 30 32
REMARK SMILES IDX 80 33 31 34 85 35 79 36 81 37 32 38 84 39 78 40 77 41 33 43
REMARK SMILES IDX 65 44 45 45 64 46 46 47 49 48 63 49 82 50 47 51 48 52 62 54
REMARK SMILES IDX 83 55 50 56 34 57 35 58 43 59 36 60 42 61 44 62 41 63 37 64
REMARK SMILES IDX 38 65 39 66 40 67 66 68 67 69 75 70 68 71 74 72 76 73 73 74
REMARK SMILES IDX 69 75 70 76 71 77 72 78 51 79 52 80 60 81 53 82 59 83 61 84
REMARK SMILES IDX 58 85 54 86 55 87 56 88 57 89
REMARK H PARENT 81 42 49 53
REMARK Flexibility Score: inf
ROOT
ATOM      1  C   UNL A   1      33.016  30.618  27.129  1.00  0.00     0.202 C 
ENDROOT
BRANCH   1   2
ATOM      2  O   UNL A   1      33.722  29.623  26.386  1.00  0.00    -0.374 OA
BRANCH   2   3
ATOM      3  C   UNL A   1      32.998  28.692  25.594  1.00  0.00     0.202 C 
BRANCH   3   4
ATOM      4  C   UNL A   1      32.374  29.155  24.281  1.00  0.00     0.261 C 
BRANCH   4   5
ATOM      5  O   UNL A   1      30.953  29.017  24.153  1.00  0.00    -0.463 OA
BRANCH   5   6
ATOM      6  C   UNL A   1      30.347  28.224  23.235  1.00  0.00     0.310 C 
ATOM      7  O   UNL A   1      30.368  28.549  22.047  1.00  0.00    -0.252 OA
BRANCH   6   8
ATOM      8  C   UNL A   1      29.530  27.031  23.689  1.00  0.00     0.159 C 
BRANCH   8   9
ATOM      9  C   UNL A   1      30.245  26.004  24.494  1.00  0.00    -0.019 A 
ATOM     10  C   UNL A   1      29.980  25.690  25.858  1.00  0.00     0.024 A 
ATOM     11  C   UNL A   1      31.313  25.210  24.113  1.00  0.00     0.095 A 
ATOM     12  C   UNL A   1      30.989  24.865  26.297  1.00  0.00     0.091 A 
ATOM     13  N   UNL A   1      31.842  24.638  25.247  1.00  0.00    -0.321 N 
BRANCH  13  14
ATOM     14  C   UNL A   1      33.132  24.100  25.319  1.00  0.00     0.081 A 
ATOM     15  C   UNL A   1      34.236  24.951  25.270  1.00  0.00     0.030 A 
ATOM     16  C   UNL A   1      33.283  22.740  25.588  1.00  0.00     0.147 A 
ATOM     17  C   UNL A   1      35.509  24.413  25.462  1.00  0.00     0.002 A 
ATOM     18  C   UNL A   1      34.550  22.215  25.814  1.00  0.00     0.041 A 
ATOM     19  F   UNL A   1      32.217  21.937  25.721  1.00  0.00    -0.205 F 
ATOM     20  C   UNL A   1      35.665  23.052  25.744  1.00  0.00     0.003 A 
ENDBRANCH  13  14
ENDBRANCH   8   9
ENDBRANCH   6   8
ENDBRANCH   5   6
ENDBRANCH   4   5
ENDBRANCH   3   4
ENDBRANCH   2   3
ENDBRANCH   1   2
BRANCH   1  21
ATOM     21  C   UNL A   1      33.818  31.716  27.800  1.00  0.00     0.261 C 
BRANCH  21  22
ATOM     22  O   UNL A   1      35.210  31.437  27.723  1.00  0.00    -0.460 OA
BRANCH  22  23
ATOM     23  C   UNL A   1      35.739  31.032  28.888  1.00  0.00     0.338 C 
ATOM     24  O   UNL A   1      35.621  31.576  29.988  1.00  0.00    -0.246 OA
BRANCH  23  25
ATOM     25  C   UNL A   1      36.616  29.892  28.672  1.00  0.00     0.060 A 
ATOM     26  C   UNL A   1      36.993  29.196  29.823  1.00  0.00     0.016 A 
ATOM     27  C   UNL A   1      37.340  29.829  27.473  1.00  0.00     0.016 A 
ATOM     28  C   UNL A   1      38.243  28.630  29.851  1.00  0.00     0.010 A 
ATOM     29  C   UNL A   1      38.605  29.298  27.517  1.00  0.00     0.010 A 
ATOM     30  C   UNL A   1      39.066  28.774  28.729  1.00  0.00    -0.014 A 
BRANCH  30  31
ATOM     31  C   UNL A   1      40.446  28.312  28.849  1.00  0.00     0.031 A 
ATOM     32  C   UNL A   1      41.371  29.466  29.205  1.00  0.00     0.074 A 
ATOM     33  C   UNL A   1      40.649  26.993  28.555  1.00  0.00     0.049 A 
ATOM     34  N   UNL A   1      42.618  29.645  28.912  1.00  0.00    -0.248 NA
ATOM     35  C   UNL A   1      40.797  30.659  29.896  1.00  0.00     0.031 C 
ATOM     36  C   UNL A   1      39.586  26.022  28.185  1.00  0.00     0.029 A 
ATOM     37  N   UNL A   1      41.769  26.200  28.491  1.00  0.00    -0.354 N 
ATOM     38  C   UNL A   1      43.024  30.823  29.561  1.00  0.00     0.074 A 
ATOM     39  C   UNL A   1      41.837  31.483  30.010  1.00  0.00     0.031 C 
ATOM     40  C   UNL A   1      40.116  24.816  27.879  1.00  0.00     0.029 A 
ATOM     41  C   UNL A   1      41.554  24.872  28.040  1.00  0.00     0.049 A 
ATOM     42  H   UNL A   1      42.661  26.530  28.744  1.00  0.00     0.167 HD
ATOM     43  C   UNL A   1      44.324  31.124  29.823  1.00  0.00     0.034 A 
ATOM     44  C   UNL A   1      42.479  23.896  27.785  1.00  0.00     0.034 A 
ATOM     45  C   UNL A   1      45.186  30.104  29.327  1.00  0.00     0.049 A 
ATOM     46  C   UNL A   1      43.770  24.474  28.199  1.00  0.00     0.074 A 
ATOM     47  C   UNL A   1      45.596  29.760  28.066  1.00  0.00     0.029 A 
ATOM     48  N   UNL A   1      45.497  29.077  30.188  1.00  0.00    -0.354 N 
ATOM     49  N   UNL A   1      44.127  24.699  29.427  1.00  0.00    -0.248 NA
ATOM     50  C   UNL A   1      44.710  24.907  27.159  1.00  0.00     0.031 C 
ATOM     51  C   UNL A   1      45.783  28.362  28.129  1.00  0.00     0.029 A 
ATOM     52  C   UNL A   1      45.578  27.924  29.443  1.00  0.00     0.049 A 
ATOM     53  H   UNL A   1      45.636  29.154  31.160  1.00  0.00     0.167 HD
ATOM     54  C   UNL A   1      45.177  25.575  29.290  1.00  0.00     0.074 A 
ATOM     55  C   UNL A   1      45.653  25.438  27.932  1.00  0.00     0.031 C 
ATOM     56  C   UNL A   1      45.249  26.668  30.091  1.00  0.00     0.034 A 
BRANCH  43  57
ATOM     57  C   UNL A   1      44.923  32.200  30.674  1.00  0.00     0.023 A 
ATOM     58  C   UNL A   1      45.493  33.299  29.995  1.00  0.00     0.031 A 
ATOM     59  C   UNL A   1      45.198  32.091  32.045  1.00  0.00     0.131 A 
ATOM     60  C   UNL A   1      46.352  34.191  30.648  1.00  0.00     0.055 A 
ATOM     61  C   UNL A   1      46.014  33.016  32.710  1.00  0.00     0.041 A 
ATOM     62  F   UNL A   1      44.761  31.050  32.769  1.00  0.00    -0.206 F 
ATOM     63  C   UNL A   1      46.616  34.057  32.008  1.00  0.00     0.022 A 
BRANCH  60  64
ATOM     64  S   UNL A   1      47.213  35.438  29.650  1.00  0.00     0.124 S 
ATOM     65  O   UNL A   1      48.429  34.737  29.253  1.00  0.00    -0.237 OA
ATOM     66  O   UNL A   1      46.246  35.693  28.586  1.00  0.00    -0.237 OA
ATOM     67  O   UNL A   1      47.411  36.542  30.586  1.00  0.00    -0.744 OA
ENDBRANCH  60  64
ENDBRANCH  43  57
BRANCH  44  68
ATOM     68  C   UNL A   1      42.535  22.515  27.162  1.00  0.00     0.023 A 
ATOM     69  C   UNL A   1      43.560  22.016  26.341  1.00  0.00     0.031 A 
ATOM     70  C   UNL A   1      41.518  21.566  27.496  1.00  0.00     0.131 A 
ATOM     71  C   UNL A   1      43.571  20.647  25.958  1.00  0.00     0.055 A 
ATOM     72  C   UNL A   1      41.573  20.209  27.181  1.00  0.00     0.041 A 
ATOM     73  F   UNL A   1      40.419  21.917  28.178  1.00  0.00    -0.206 F 
ATOM     74  C   UNL A   1      42.614  19.737  26.415  1.00  0.00     0.022 A 
BRANCH  71  75
ATOM     75  S   UNL A   1      44.853  19.969  24.862  1.00  0.00     0.124 S 
ATOM     76  O   UNL A   1      44.442  20.490  23.562  1.00  0.00    -0.237 OA
ATOM     77  O   UNL A   1      46.089  20.518  25.407  1.00  0.00    -0.237 OA
ATOM     78  O   UNL A   1      44.690  18.525  25.033  1.00  0.00    -0.744 OA
ENDBRANCH  71  75
ENDBRANCH  44  68
BRANCH  56  79
ATOM     79  C   UNL A   1      44.538  26.508  31.427  1.00  0.00     0.023 A 
ATOM     80  C   UNL A   1      43.445  27.328  31.755  1.00  0.00     0.031 A 
ATOM     81  C   UNL A   1      44.990  25.642  32.439  1.00  0.00     0.131 A 
ATOM     82  C   UNL A   1      42.862  27.268  33.038  1.00  0.00     0.055 A 
ATOM     83  C   UNL A   1      44.407  25.570  33.708  1.00  0.00     0.041 A 
ATOM     84  F   UNL A   1      46.031  24.843  32.230  1.00  0.00    -0.206 F 
ATOM     85  C   UNL A   1      43.335  26.390  34.015  1.00  0.00     0.022 A 
BRANCH  82  86
ATOM     86  S   UNL A   1      41.437  28.322  33.418  1.00  0.00     0.124 S 
ATOM     87  O   UNL A   1      41.061  27.875  34.755  1.00  0.00    -0.237 OA
ATOM     88  O   UNL A   1      41.999  29.665  33.326  1.00  0.00    -0.237 OA
ATOM     89  O   UNL A   1      40.477  27.989  32.364  1.00  0.00    -0.744 OA
ENDBRANCH  82  86
ENDBRANCH  56  79
ENDBRANCH  30  31
ENDBRANCH  23  25
ENDBRANCH  22  23
ENDBRANCH  21  22
ENDBRANCH   1  21
TORSDOF 19
ENDMDL
