MODEL 1
REMARK VINA RESULT:     -10.9      0.000      0.000
REMARK SMILES C[NH+](C)[C@H](CC(=O)Nc1cccc(Cl)c1)C(=O)OCCOCCOC(=O)c1ccc(-c2c3nc(c(-c4cc(S(=O)(=O)[O-])ccc4F)c4ccc([nH]4)c(-c4cc(S(=O)(=O)[O-])ccc4F)c4nc(c(-c5cc(S(=O)(=O)[O-])ccc5F)c5ccc2[nH]5)C=C4)C=C3)cc1
REMARK SMILES IDX 21 1 20 2 19 3 18 4 16 5 17 6 4 7 2 8 1 9 3 10 5 12 6 13
REMARK SMILES IDX 7 14 8 15 9 17 10 18 15 19 11 20 13 21 12 22 14 23 22 24
REMARK SMILES IDX 23 25 24 26 25 27 26 28 27 29 28 30 89 31 29 32 88 33 30 34
REMARK SMILES IDX 31 35 32 36 82 37 33 38 87 39 81 40 83 41 34 42 86 43 80 44
REMARK SMILES IDX 79 45 35 47 67 48 47 49 66 50 48 51 51 52 65 53 84 54 49 55
REMARK SMILES IDX 50 56 64 58 85 59 52 60 36 61 37 62 45 63 38 64 44 65 46 66
REMARK SMILES IDX 43 67 39 68 40 69 41 70 42 71 68 72 69 73 77 74 70 75 76 76
REMARK SMILES IDX 78 77 75 78 71 79 72 80 73 81 74 82 53 83 54 84 62 85 55 86
REMARK SMILES IDX 61 87 63 88 60 89 56 90 57 91 58 92 59 93
REMARK H PARENT 2 11 8 16 83 46 51 57
REMARK Flexibility Score: inf
ROOT
ATOM      1  O   UNL A   1      32.219  27.804  24.045  1.00  0.00    -0.374 OA
ENDROOT
BRANCH   1   2
ATOM      2  C   UNL A   1      33.104  27.068  23.196  1.00  0.00     0.202 C 
BRANCH   2   3
ATOM      3  C   UNL A   1      32.905  25.548  23.239  1.00  0.00     0.261 C 
BRANCH   3   4
ATOM      4  O   UNL A   1      34.163  24.925  23.532  1.00  0.00    -0.459 OA
BRANCH   4   5
ATOM      5  C   UNL A   1      34.461  24.670  24.840  1.00  0.00     0.365 C 
ATOM      6  O   UNL A   1      34.315  25.481  25.745  1.00  0.00    -0.245 OA
BRANCH   5   7
ATOM      7  C   UNL A   1      34.868  23.184  24.993  1.00  0.00     0.304 C 
BRANCH   7   8
ATOM      8  N   UNL A   1      36.303  22.917  24.687  1.00  0.00    -0.328 N 
ATOM      9  C   UNL A   1      37.274  23.772  25.352  1.00  0.00     0.333 C 
ATOM     10  C   UNL A   1      36.569  22.866  23.252  1.00  0.00     0.333 C 
ATOM     11  H   UNL A   1      36.444  21.991  25.093  1.00  0.00     0.348 HD
ENDBRANCH   7   8
BRANCH   7  12
ATOM     12  C   UNL A   1      33.773  22.177  24.593  1.00  0.00     0.177 C 
BRANCH  12  13
ATOM     13  C   UNL A   1      32.900  21.432  25.591  1.00  0.00     0.231 C 
ATOM     14  O   UNL A   1      32.618  21.960  26.670  1.00  0.00    -0.274 OA
ATOM     15  N   UNL A   1      32.183  20.339  25.169  1.00  0.00    -0.326 N 
ATOM     16  H   UNL A   1      31.217  20.374  25.356  1.00  0.00     0.169 HD
BRANCH  15  17
ATOM     17  C   UNL A   1      32.623  19.179  24.508  1.00  0.00     0.042 A 
ATOM     18  C   UNL A   1      32.292  18.926  23.183  1.00  0.00     0.026 A 
ATOM     19  C   UNL A   1      33.533  18.331  25.135  1.00  0.00     0.046 A 
ATOM     20  C   UNL A   1      32.775  17.809  22.504  1.00  0.00     0.004 A 
ATOM     21  C   UNL A   1      34.024  17.207  24.458  1.00  0.00     0.043 A 
ATOM     22  C   UNL A   1      33.644  16.940  23.148  1.00  0.00     0.020 A 
ATOM     23  Cl  UNL A   1      35.100  16.108  25.225  1.00  0.00    -0.084 Cl
ENDBRANCH  15  17
ENDBRANCH  12  13
ENDBRANCH   7  12
ENDBRANCH   5   7
ENDBRANCH   4   5
ENDBRANCH   3   4
ENDBRANCH   2   3
ENDBRANCH   1   2
BRANCH   1  24
ATOM     24  C   UNL A   1      32.698  29.039  24.577  1.00  0.00     0.202 C 
BRANCH  24  25
ATOM     25  C   UNL A   1      31.706  29.842  25.430  1.00  0.00     0.261 C 
BRANCH  25  26
ATOM     26  O   UNL A   1      32.106  30.015  26.805  1.00  0.00    -0.460 OA
BRANCH  26  27
ATOM     27  C   UNL A   1      32.736  31.189  27.062  1.00  0.00     0.338 C 
ATOM     28  O   UNL A   1      32.252  32.310  26.949  1.00  0.00    -0.246 OA
BRANCH  27  29
ATOM     29  C   UNL A   1      34.104  30.989  27.583  1.00  0.00     0.060 A 
ATOM     30  C   UNL A   1      34.606  29.683  27.594  1.00  0.00     0.016 A 
ATOM     31  C   UNL A   1      34.827  32.018  28.199  1.00  0.00     0.016 A 
ATOM     32  C   UNL A   1      35.806  29.395  28.249  1.00  0.00     0.010 A 
ATOM     33  C   UNL A   1      36.032  31.724  28.861  1.00  0.00     0.010 A 
ATOM     34  C   UNL A   1      36.519  30.406  28.911  1.00  0.00    -0.014 A 
BRANCH  34  35
ATOM     35  C   UNL A   1      37.687  30.028  29.755  1.00  0.00     0.031 A 
ATOM     36  C   UNL A   1      38.791  29.208  29.148  1.00  0.00     0.074 A 
ATOM     37  C   UNL A   1      37.807  30.468  31.022  1.00  0.00     0.049 A 
ATOM     38  N   UNL A   1      39.909  28.794  29.686  1.00  0.00    -0.248 NA
ATOM     39  C   UNL A   1      38.596  28.784  27.755  1.00  0.00     0.031 C 
ATOM     40  C   UNL A   1      36.814  31.273  31.718  1.00  0.00     0.029 A 
ATOM     41  N   UNL A   1      38.818  30.330  31.942  1.00  0.00    -0.354 N 
ATOM     42  C   UNL A   1      40.545  28.041  28.707  1.00  0.00     0.074 A 
ATOM     43  C   UNL A   1      39.679  28.051  27.544  1.00  0.00     0.031 C 
ATOM     44  C   UNL A   1      37.283  31.618  32.927  1.00  0.00     0.029 A 
ATOM     45  C   UNL A   1      38.590  31.000  33.123  1.00  0.00     0.049 A 
ATOM     46  H   UNL A   1      39.631  29.801  31.772  1.00  0.00     0.167 HD
ATOM     47  C   UNL A   1      41.733  27.390  28.777  1.00  0.00     0.034 A 
ATOM     48  C   UNL A   1      39.337  31.095  34.243  1.00  0.00     0.034 A 
ATOM     49  C   UNL A   1      42.577  27.374  29.948  1.00  0.00     0.049 A 
ATOM     50  C   UNL A   1      40.650  30.354  34.300  1.00  0.00     0.074 A 
ATOM     51  C   UNL A   1      43.788  26.727  30.131  1.00  0.00     0.029 A 
ATOM     52  N   UNL A   1      42.296  28.029  31.142  1.00  0.00    -0.354 N 
ATOM     53  N   UNL A   1      41.224  29.623  33.372  1.00  0.00    -0.248 NA
ATOM     54  C   UNL A   1      41.405  30.434  35.557  1.00  0.00     0.031 C 
ATOM     55  C   UNL A   1      44.207  26.942  31.450  1.00  0.00     0.029 A 
ATOM     56  C   UNL A   1      43.295  27.779  32.071  1.00  0.00     0.049 A 
ATOM     57  H   UNL A   1      41.503  28.588  31.303  1.00  0.00     0.167 HD
ATOM     58  C   UNL A   1      42.405  29.153  33.938  1.00  0.00     0.074 A 
ATOM     59  C   UNL A   1      42.480  29.715  35.271  1.00  0.00     0.031 C 
ATOM     60  C   UNL A   1      43.339  28.323  33.408  1.00  0.00     0.034 A 
BRANCH  47  61
ATOM     61  C   UNL A   1      42.136  26.576  27.574  1.00  0.00     0.023 A 
ATOM     62  C   UNL A   1      41.794  25.218  27.446  1.00  0.00     0.031 A 
ATOM     63  C   UNL A   1      42.925  27.154  26.564  1.00  0.00     0.131 A 
ATOM     64  C   UNL A   1      42.301  24.468  26.373  1.00  0.00     0.055 A 
ATOM     65  C   UNL A   1      43.363  26.422  25.459  1.00  0.00     0.041 A 
ATOM     66  F   UNL A   1      43.304  28.439  26.646  1.00  0.00    -0.206 F 
ATOM     67  C   UNL A   1      43.063  25.066  25.368  1.00  0.00     0.022 A 
BRANCH  64  68
ATOM     68  S   UNL A   1      42.073  22.669  26.388  1.00  0.00     0.124 S 
ATOM     69  O   UNL A   1      42.810  22.287  27.590  1.00  0.00    -0.237 OA
ATOM     70  O   UNL A   1      40.622  22.534  26.458  1.00  0.00    -0.237 OA
ATOM     71  O   UNL A   1      42.679  22.236  25.130  1.00  0.00    -0.744 OA
ENDBRANCH  64  68
ENDBRANCH  47  61
BRANCH  48  72
ATOM     72  C   UNL A   1      38.852  31.871  35.423  1.00  0.00     0.023 A 
ATOM     73  C   UNL A   1      38.280  31.229  36.535  1.00  0.00     0.031 A 
ATOM     74  C   UNL A   1      38.910  33.277  35.436  1.00  0.00     0.131 A 
ATOM     75  C   UNL A   1      37.756  31.991  37.593  1.00  0.00     0.055 A 
ATOM     76  C   UNL A   1      38.438  34.027  36.514  1.00  0.00     0.041 A 
ATOM     77  F   UNL A   1      39.439  33.944  34.398  1.00  0.00    -0.206 F 
ATOM     78  C   UNL A   1      37.847  33.385  37.596  1.00  0.00     0.022 A 
BRANCH  75  79
ATOM     79  S   UNL A   1      36.876  31.140  38.931  1.00  0.00     0.124 S 
ATOM     80  O   UNL A   1      35.632  31.897  38.998  1.00  0.00    -0.237 OA
ATOM     81  O   UNL A   1      36.774  29.781  38.412  1.00  0.00    -0.237 OA
ATOM     82  O   UNL A   1      37.765  31.300  40.080  1.00  0.00    -0.744 OA
ENDBRANCH  75  79
ENDBRANCH  48  72
BRANCH  60  83
ATOM     83  C   UNL A   1      44.522  27.988  34.282  1.00  0.00     0.023 A 
ATOM     84  C   UNL A   1      44.507  26.876  35.142  1.00  0.00     0.031 A 
ATOM     85  C   UNL A   1      45.668  28.802  34.267  1.00  0.00     0.131 A 
ATOM     86  C   UNL A   1      45.597  26.636  35.993  1.00  0.00     0.055 A 
ATOM     87  C   UNL A   1      46.770  28.529  35.079  1.00  0.00     0.041 A 
ATOM     88  F   UNL A   1      45.733  29.876  33.466  1.00  0.00    -0.206 F 
ATOM     89  C   UNL A   1      46.734  27.449  35.957  1.00  0.00     0.022 A 
BRANCH  86  90
ATOM     90  S   UNL A   1      45.480  25.293  37.207  1.00  0.00     0.124 S 
ATOM     91  O   UNL A   1      46.881  25.068  37.548  1.00  0.00    -0.237 OA
ATOM     92  O   UNL A   1      44.657  25.890  38.254  1.00  0.00    -0.237 OA
ATOM     93  O   UNL A   1      44.842  24.210  36.461  1.00  0.00    -0.744 OA
ENDBRANCH  86  90
ENDBRANCH  60  83
ENDBRANCH  34  35
ENDBRANCH  27  29
ENDBRANCH  26  27
ENDBRANCH  25  26
ENDBRANCH  24  25
ENDBRANCH   1  24
TORSDOF 21
ENDMDL
MODEL 2
REMARK VINA RESULT:     -10.8      2.137      3.076
REMARK SMILES C[NH+](C)[C@H](CC(=O)Nc1cccc(Cl)c1)C(=O)OCCOCCOC(=O)c1ccc(-c2c3nc(c(-c4cc(S(=O)(=O)[O-])ccc4F)c4ccc([nH]4)c(-c4cc(S(=O)(=O)[O-])ccc4F)c4nc(c(-c5cc(S(=O)(=O)[O-])ccc5F)c5ccc2[nH]5)C=C4)C=C3)cc1
REMARK SMILES IDX 21 1 20 2 19 3 18 4 16 5 17 6 4 7 2 8 1 9 3 10 5 12 6 13
REMARK SMILES IDX 7 14 8 15 9 17 10 18 15 19 11 20 13 21 12 22 14 23 22 24
REMARK SMILES IDX 23 25 24 26 25 27 26 28 27 29 28 30 89 31 29 32 88 33 30 34
REMARK SMILES IDX 31 35 32 36 82 37 33 38 87 39 81 40 83 41 34 42 86 43 80 44
REMARK SMILES IDX 79 45 35 47 67 48 47 49 66 50 48 51 51 52 65 53 84 54 49 55
REMARK SMILES IDX 50 56 64 58 85 59 52 60 36 61 37 62 45 63 38 64 44 65 46 66
REMARK SMILES IDX 43 67 39 68 40 69 41 70 42 71 68 72 69 73 77 74 70 75 76 76
REMARK SMILES IDX 78 77 75 78 71 79 72 80 73 81 74 82 53 83 54 84 62 85 55 86
REMARK SMILES IDX 61 87 63 88 60 89 56 90 57 91 58 92 59 93
REMARK H PARENT 2 11 8 16 83 46 51 57
REMARK Flexibility Score: inf
ROOT
ATOM      1  O   UNL A   1      31.379  26.923  26.881  1.00  0.00    -0.374 OA
ENDROOT
BRANCH   1   2
ATOM      2  C   UNL A   1      32.302  26.044  26.230  1.00  0.00     0.202 C 
BRANCH   2   3
ATOM      3  C   UNL A   1      33.565  26.733  25.699  1.00  0.00     0.261 C 
BRANCH   3   4
ATOM      4  O   UNL A   1      33.614  26.576  24.274  1.00  0.00    -0.459 OA
BRANCH   4   5
ATOM      5  C   UNL A   1      33.146  27.599  23.502  1.00  0.00     0.365 C 
ATOM      6  O   UNL A   1      33.800  28.592  23.212  1.00  0.00    -0.245 OA
BRANCH   5   7
ATOM      7  C   UNL A   1      31.742  27.233  22.960  1.00  0.00     0.304 C 
BRANCH   7   8
ATOM      8  N   UNL A   1      30.620  27.791  23.768  1.00  0.00    -0.328 N 
ATOM      9  C   UNL A   1      29.434  26.956  23.889  1.00  0.00     0.333 C 
ATOM     10  C   UNL A   1      30.249  29.141  23.355  1.00  0.00     0.333 C 
ATOM     11  H   UNL A   1      31.020  27.820  24.706  1.00  0.00     0.348 HD
ENDBRANCH   7   8
BRANCH   7  12
ATOM     12  C   UNL A   1      31.645  25.828  22.336  1.00  0.00     0.177 C 
BRANCH  12  13
ATOM     13  C   UNL A   1      32.785  25.152  21.589  1.00  0.00     0.231 C 
ATOM     14  O   UNL A   1      33.134  25.582  20.487  1.00  0.00    -0.274 OA
ATOM     15  N   UNL A   1      33.611  24.289  22.268  1.00  0.00    -0.326 N 
ATOM     16  H   UNL A   1      34.572  24.493  22.205  1.00  0.00     0.169 HD
BRANCH  15  17
ATOM     17  C   UNL A   1      33.288  23.159  23.038  1.00  0.00     0.042 A 
ATOM     18  C   UNL A   1      32.540  22.112  22.515  1.00  0.00     0.026 A 
ATOM     19  C   UNL A   1      33.846  23.004  24.304  1.00  0.00     0.046 A 
ATOM     20  C   UNL A   1      32.267  20.961  23.254  1.00  0.00     0.004 A 
ATOM     21  C   UNL A   1      33.578  21.850  25.053  1.00  0.00     0.043 A 
ATOM     22  C   UNL A   1      32.786  20.832  24.534  1.00  0.00     0.020 A 
ATOM     23  Cl  UNL A   1      34.202  21.656  26.642  1.00  0.00    -0.084 Cl
ENDBRANCH  15  17
ENDBRANCH  12  13
ENDBRANCH   7  12
ENDBRANCH   5   7
ENDBRANCH   4   5
ENDBRANCH   3   4
ENDBRANCH   2   3
ENDBRANCH   1   2
BRANCH   1  24
ATOM     24  C   UNL A   1      31.913  28.095  27.496  1.00  0.00     0.202 C 
BRANCH  24  25
ATOM     25  C   UNL A   1      31.614  29.427  26.794  1.00  0.00     0.261 C 
BRANCH  25  26
ATOM     26  O   UNL A   1      32.773  30.086  26.245  1.00  0.00    -0.460 OA
BRANCH  26  27
ATOM     27  C   UNL A   1      33.224  31.132  26.982  1.00  0.00     0.338 C 
ATOM     28  O   UNL A   1      32.585  32.135  27.282  1.00  0.00    -0.246 OA
BRANCH  27  29
ATOM     29  C   UNL A   1      34.599  30.918  27.478  1.00  0.00     0.060 A 
ATOM     30  C   UNL A   1      35.034  29.597  27.624  1.00  0.00     0.016 A 
ATOM     31  C   UNL A   1      35.396  31.969  27.948  1.00  0.00     0.016 A 
ATOM     32  C   UNL A   1      36.243  29.320  28.269  1.00  0.00     0.010 A 
ATOM     33  C   UNL A   1      36.610  31.688  28.600  1.00  0.00     0.010 A 
ATOM     34  C   UNL A   1      37.031  30.359  28.786  1.00  0.00    -0.014 A 
BRANCH  34  35
ATOM     35  C   UNL A   1      38.210  30.016  29.630  1.00  0.00     0.031 A 
ATOM     36  C   UNL A   1      39.303  29.165  29.046  1.00  0.00     0.074 A 
ATOM     37  C   UNL A   1      38.349  30.514  30.873  1.00  0.00     0.049 A 
ATOM     38  N   UNL A   1      40.427  28.773  29.587  1.00  0.00    -0.248 NA
ATOM     39  C   UNL A   1      39.086  28.678  27.676  1.00  0.00     0.031 C 
ATOM     40  C   UNL A   1      37.368  31.354  31.546  1.00  0.00     0.029 A 
ATOM     41  N   UNL A   1      39.373  30.414  31.784  1.00  0.00    -0.354 N 
ATOM     42  C   UNL A   1      41.047  27.973  28.634  1.00  0.00     0.074 A 
ATOM     43  C   UNL A   1      40.164  27.933  27.485  1.00  0.00     0.031 C 
ATOM     44  C   UNL A   1      37.856  31.753  32.731  1.00  0.00     0.029 A 
ATOM     45  C   UNL A   1      39.164  31.139  32.937  1.00  0.00     0.049 A 
ATOM     46  H   UNL A   1      40.182  29.875  31.627  1.00  0.00     0.167 HD
ATOM     47  C   UNL A   1      42.234  27.322  28.717  1.00  0.00     0.034 A 
ATOM     48  C   UNL A   1      39.927  31.283  34.040  1.00  0.00     0.034 A 
ATOM     49  C   UNL A   1      43.094  27.357  29.875  1.00  0.00     0.049 A 
ATOM     50  C   UNL A   1      41.239  30.541  34.112  1.00  0.00     0.074 A 
ATOM     51  C   UNL A   1      44.305  26.715  30.071  1.00  0.00     0.029 A 
ATOM     52  N   UNL A   1      42.832  28.067  31.041  1.00  0.00    -0.354 N 
ATOM     53  N   UNL A   1      41.797  29.766  33.211  1.00  0.00    -0.248 NA
ATOM     54  C   UNL A   1      42.012  30.677  35.353  1.00  0.00     0.031 C 
ATOM     55  C   UNL A   1      44.745  26.988  31.373  1.00  0.00     0.029 A 
ATOM     56  C   UNL A   1      43.843  27.857  31.967  1.00  0.00     0.049 A 
ATOM     57  H   UNL A   1      42.043  28.636  31.189  1.00  0.00     0.167 HD
ATOM     58  C   UNL A   1      42.985  29.318  33.781  1.00  0.00     0.074 A 
ATOM     59  C   UNL A   1      43.081  29.941  35.086  1.00  0.00     0.031 C 
ATOM     60  C   UNL A   1      43.909  28.462  33.277  1.00  0.00     0.034 A 
BRANCH  47  61
ATOM     61  C   UNL A   1      42.617  26.451  27.547  1.00  0.00     0.023 A 
ATOM     62  C   UNL A   1      42.103  25.152  27.387  1.00  0.00     0.031 A 
ATOM     63  C   UNL A   1      43.557  26.909  26.607  1.00  0.00     0.131 A 
ATOM     64  C   UNL A   1      42.587  24.332  26.355  1.00  0.00     0.055 A 
ATOM     65  C   UNL A   1      43.978  26.115  25.538  1.00  0.00     0.041 A 
ATOM     66  F   UNL A   1      44.101  28.130  26.725  1.00  0.00    -0.206 F 
ATOM     67  C   UNL A   1      43.503  24.813  25.417  1.00  0.00     0.022 A 
BRANCH  64  68
ATOM     68  S   UNL A   1      42.113  22.582  26.344  1.00  0.00     0.124 S 
ATOM     69  O   UNL A   1      42.762  22.108  25.123  1.00  0.00    -0.237 OA
ATOM     70  O   UNL A   1      42.676  22.093  27.598  1.00  0.00    -0.237 OA
ATOM     71  O   UNL A   1      40.653  22.622  26.289  1.00  0.00    -0.744 OA
ENDBRANCH  64  68
ENDBRANCH  47  61
BRANCH  48  72
ATOM     72  C   UNL A   1      39.462  32.114  35.190  1.00  0.00     0.023 A 
ATOM     73  C   UNL A   1      39.921  33.429  35.374  1.00  0.00     0.031 A 
ATOM     74  C   UNL A   1      38.584  31.585  36.155  1.00  0.00     0.131 A 
ATOM     75  C   UNL A   1      39.531  34.156  36.512  1.00  0.00     0.055 A 
ATOM     76  C   UNL A   1      38.156  32.331  37.254  1.00  0.00     0.041 A 
ATOM     77  F   UNL A   1      38.119  30.331  36.034  1.00  0.00    -0.206 F 
ATOM     78  C   UNL A   1      38.638  33.621  37.443  1.00  0.00     0.022 A 
BRANCH  75  79
ATOM     79  S   UNL A   1      40.272  35.786  36.805  1.00  0.00     0.124 S 
ATOM     80  O   UNL A   1      39.638  36.592  35.768  1.00  0.00    -0.237 OA
ATOM     81  O   UNL A   1      39.862  36.065  38.177  1.00  0.00    -0.237 OA
ATOM     82  O   UNL A   1      41.703  35.547  36.621  1.00  0.00    -0.744 OA
ENDBRANCH  75  79
ENDBRANCH  48  72
BRANCH  60  83
ATOM     83  C   UNL A   1      45.103  28.163  34.148  1.00  0.00     0.023 A 
ATOM     84  C   UNL A   1      45.115  27.065  35.026  1.00  0.00     0.031 A 
ATOM     85  C   UNL A   1      46.233  28.998  34.113  1.00  0.00     0.131 A 
ATOM     86  C   UNL A   1      46.215  26.859  35.873  1.00  0.00     0.055 A 
ATOM     87  C   UNL A   1      47.345  28.759  34.922  1.00  0.00     0.041 A 
ATOM     88  F   UNL A   1      46.273  30.060  33.295  1.00  0.00    -0.206 F 
ATOM     89  C   UNL A   1      47.335  27.693  35.817  1.00  0.00     0.022 A 
BRANCH  86  90
ATOM     90  S   UNL A   1      46.130  25.534  37.110  1.00  0.00     0.124 S 
ATOM     91  O   UNL A   1      47.139  25.955  38.076  1.00  0.00    -0.237 OA
ATOM     92  O   UNL A   1      44.744  25.614  37.560  1.00  0.00    -0.237 OA
ATOM     93  O   UNL A   1      46.464  24.332  36.349  1.00  0.00    -0.744 OA
ENDBRANCH  86  90
ENDBRANCH  60  83
ENDBRANCH  34  35
ENDBRANCH  27  29
ENDBRANCH  26  27
ENDBRANCH  25  26
ENDBRANCH  24  25
ENDBRANCH   1  24
TORSDOF 21
ENDMDL
MODEL 3
REMARK VINA RESULT:     -10.8      2.487      8.157
REMARK SMILES C[NH+](C)[C@H](CC(=O)Nc1cccc(Cl)c1)C(=O)OCCOCCOC(=O)c1ccc(-c2c3nc(c(-c4cc(S(=O)(=O)[O-])ccc4F)c4ccc([nH]4)c(-c4cc(S(=O)(=O)[O-])ccc4F)c4nc(c(-c5cc(S(=O)(=O)[O-])ccc5F)c5ccc2[nH]5)C=C4)C=C3)cc1
REMARK SMILES IDX 21 1 20 2 19 3 18 4 16 5 17 6 4 7 2 8 1 9 3 10 5 12 6 13
REMARK SMILES IDX 7 14 8 15 9 17 10 18 15 19 11 20 13 21 12 22 14 23 22 24
REMARK SMILES IDX 23 25 24 26 25 27 26 28 27 29 28 30 89 31 29 32 88 33 30 34
REMARK SMILES IDX 31 35 32 36 82 37 33 38 87 39 81 40 83 41 34 42 86 43 80 44
REMARK SMILES IDX 79 45 35 47 67 48 47 49 66 50 48 51 51 52 65 53 84 54 49 55
REMARK SMILES IDX 50 56 64 58 85 59 52 60 36 61 37 62 45 63 38 64 44 65 46 66
REMARK SMILES IDX 43 67 39 68 40 69 41 70 42 71 68 72 69 73 77 74 70 75 76 76
REMARK SMILES IDX 78 77 75 78 71 79 72 80 73 81 74 82 53 83 54 84 62 85 55 86
REMARK SMILES IDX 61 87 63 88 60 89 56 90 57 91 58 92 59 93
REMARK H PARENT 2 11 8 16 83 46 51 57
REMARK Flexibility Score: inf
ROOT
ATOM      1  O   UNL A   1      31.837  28.203  26.504  1.00  0.00    -0.374 OA
ENDROOT
BRANCH   1   2
ATOM      2  C   UNL A   1      33.110  27.555  26.590  1.00  0.00     0.202 C 
BRANCH   2   3
ATOM      3  C   UNL A   1      33.983  27.707  25.339  1.00  0.00     0.261 C 
BRANCH   3   4
ATOM      4  O   UNL A   1      33.694  26.628  24.439  1.00  0.00    -0.459 OA
BRANCH   4   5
ATOM      5  C   UNL A   1      33.169  26.938  23.218  1.00  0.00     0.365 C 
ATOM      6  O   UNL A   1      33.755  27.595  22.367  1.00  0.00    -0.245 OA
BRANCH   5   7
ATOM      7  C   UNL A   1      31.807  26.220  23.048  1.00  0.00     0.304 C 
BRANCH   7   8
ATOM      8  N   UNL A   1      30.711  26.802  23.875  1.00  0.00    -0.328 N 
ATOM      9  C   UNL A   1      29.964  25.868  24.705  1.00  0.00     0.333 C 
ATOM     10  C   UNL A   1      29.797  27.629  23.093  1.00  0.00     0.333 C 
ATOM     11  H   UNL A   1      31.223  27.389  24.533  1.00  0.00     0.348 HD
ENDBRANCH   7   8
BRANCH   7  12
ATOM     12  C   UNL A   1      31.910  24.699  22.828  1.00  0.00     0.177 C 
BRANCH  12  13
ATOM     13  C   UNL A   1      33.150  24.003  22.287  1.00  0.00     0.231 C 
ATOM     14  O   UNL A   1      33.367  23.998  21.072  1.00  0.00    -0.274 OA
ATOM     15  N   UNL A   1      34.162  23.668  23.153  1.00  0.00    -0.326 N 
ATOM     16  H   UNL A   1      35.053  24.004  22.906  1.00  0.00     0.169 HD
BRANCH  15  17
ATOM     17  C   UNL A   1      34.114  22.917  24.340  1.00  0.00     0.042 A 
ATOM     18  C   UNL A   1      34.456  23.473  25.567  1.00  0.00     0.026 A 
ATOM     19  C   UNL A   1      33.572  21.634  24.325  1.00  0.00     0.046 A 
ATOM     20  C   UNL A   1      34.353  22.752  26.756  1.00  0.00     0.004 A 
ATOM     21  C   UNL A   1      33.464  20.904  25.516  1.00  0.00     0.043 A 
ATOM     22  C   UNL A   1      33.858  21.457  26.729  1.00  0.00     0.020 A 
ATOM     23  Cl  UNL A   1      32.857  19.297  25.521  1.00  0.00    -0.084 Cl
ENDBRANCH  15  17
ENDBRANCH  12  13
ENDBRANCH   7  12
ENDBRANCH   5   7
ENDBRANCH   4   5
ENDBRANCH   3   4
ENDBRANCH   2   3
ENDBRANCH   1   2
BRANCH   1  24
ATOM     24  C   UNL A   1      31.616  29.328  27.355  1.00  0.00     0.202 C 
BRANCH  24  25
ATOM     25  C   UNL A   1      31.881  30.709  26.738  1.00  0.00     0.261 C 
BRANCH  25  26
ATOM     26  O   UNL A   1      33.275  31.004  26.514  1.00  0.00    -0.460 OA
BRANCH  26  27
ATOM     27  C   UNL A   1      33.807  31.895  27.389  1.00  0.00     0.338 C 
ATOM     28  O   UNL A   1      33.254  32.898  27.827  1.00  0.00    -0.246 OA
BRANCH  27  29
ATOM     29  C   UNL A   1      35.153  31.495  27.849  1.00  0.00     0.060 A 
ATOM     30  C   UNL A   1      35.350  30.148  28.173  1.00  0.00     0.016 A 
ATOM     31  C   UNL A   1      36.159  32.430  28.119  1.00  0.00     0.016 A 
ATOM     32  C   UNL A   1      36.532  29.739  28.796  1.00  0.00     0.010 A 
ATOM     33  C   UNL A   1      37.345  32.017  28.751  1.00  0.00     0.010 A 
ATOM     34  C   UNL A   1      37.531  30.671  29.115  1.00  0.00    -0.014 A 
BRANCH  34  35
ATOM     35  C   UNL A   1      38.685  30.231  29.947  1.00  0.00     0.031 A 
ATOM     36  C   UNL A   1      38.765  30.680  31.380  1.00  0.00     0.074 A 
ATOM     37  C   UNL A   1      39.614  29.384  29.465  1.00  0.00     0.049 A 
ATOM     38  N   UNL A   1      39.659  30.394  32.290  1.00  0.00    -0.248 NA
ATOM     39  C   UNL A   1      37.703  31.587  31.838  1.00  0.00     0.031 C 
ATOM     40  C   UNL A   1      39.643  28.873  28.102  1.00  0.00     0.029 A 
ATOM     41  N   UNL A   1      40.693  28.780  30.063  1.00  0.00    -0.354 N 
ATOM     42  C   UNL A   1      39.284  31.101  33.426  1.00  0.00     0.074 A 
ATOM     43  C   UNL A   1      38.083  31.836  33.081  1.00  0.00     0.031 C 
ATOM     44  C   UNL A   1      40.639  27.983  27.978  1.00  0.00     0.029 A 
ATOM     45  C   UNL A   1      41.370  27.908  29.239  1.00  0.00     0.049 A 
ATOM     46  H   UNL A   1      40.958  28.954  30.996  1.00  0.00     0.167 HD
ATOM     47  C   UNL A   1      39.893  31.145  34.637  1.00  0.00     0.034 A 
ATOM     48  C   UNL A   1      42.461  27.147  29.464  1.00  0.00     0.034 A 
ATOM     49  C   UNL A   1      41.100  30.421  34.960  1.00  0.00     0.049 A 
ATOM     50  C   UNL A   1      43.126  27.220  30.816  1.00  0.00     0.074 A 
ATOM     51  C   UNL A   1      41.811  30.414  36.149  1.00  0.00     0.029 A 
ATOM     52  N   UNL A   1      41.782  29.580  34.089  1.00  0.00    -0.354 N 
ATOM     53  N   UNL A   1      42.773  27.917  31.871  1.00  0.00    -0.248 NA
ATOM     54  C   UNL A   1      44.345  26.421  31.001  1.00  0.00     0.031 C 
ATOM     55  C   UNL A   1      42.951  29.618  35.977  1.00  0.00     0.029 A 
ATOM     56  C   UNL A   1      42.917  29.072  34.703  1.00  0.00     0.049 A 
ATOM     57  H   UNL A   1      41.500  29.375  33.168  1.00  0.00     0.167 HD
ATOM     58  C   UNL A   1      43.729  27.644  32.843  1.00  0.00     0.074 A 
ATOM     59  C   UNL A   1      44.651  26.689  32.262  1.00  0.00     0.031 C 
ATOM     60  C   UNL A   1      43.844  28.144  34.099  1.00  0.00     0.034 A 
BRANCH  47  61
ATOM     61  C   UNL A   1      39.301  32.075  35.665  1.00  0.00     0.023 A 
ATOM     62  C   UNL A   1      39.716  33.414  35.784  1.00  0.00     0.031 A 
ATOM     63  C   UNL A   1      38.345  31.598  36.579  1.00  0.00     0.131 A 
ATOM     64  C   UNL A   1      39.231  34.203  36.839  1.00  0.00     0.055 A 
ATOM     65  C   UNL A   1      37.809  32.412  37.579  1.00  0.00     0.041 A 
ATOM     66  F   UNL A   1      37.931  30.321  36.530  1.00  0.00    -0.206 F 
ATOM     67  C   UNL A   1      38.264  33.719  37.722  1.00  0.00     0.022 A 
BRANCH  64  68
ATOM     68  S   UNL A   1      39.990  35.825  37.128  1.00  0.00     0.124 S 
ATOM     69  O   UNL A   1      39.688  36.519  35.878  1.00  0.00    -0.237 OA
ATOM     70  O   UNL A   1      39.281  36.300  38.311  1.00  0.00    -0.237 OA
ATOM     71  O   UNL A   1      41.403  35.511  37.332  1.00  0.00    -0.744 OA
ENDBRANCH  64  68
ENDBRANCH  47  61
BRANCH  48  72
ATOM     72  C   UNL A   1      43.033  26.290  28.382  1.00  0.00     0.023 A 
ATOM     73  C   UNL A   1      44.112  26.729  27.596  1.00  0.00     0.031 A 
ATOM     74  C   UNL A   1      42.474  25.033  28.085  1.00  0.00     0.131 A 
ATOM     75  C   UNL A   1      44.573  25.936  26.532  1.00  0.00     0.055 A 
ATOM     76  C   UNL A   1      42.971  24.226  27.061  1.00  0.00     0.041 A 
ATOM     77  F   UNL A   1      41.436  24.566  28.797  1.00  0.00    -0.206 F 
ATOM     78  C   UNL A   1      44.020  24.681  26.270  1.00  0.00     0.022 A 
BRANCH  75  79
ATOM     79  S   UNL A   1      45.854  26.605  25.435  1.00  0.00     0.124 S 
ATOM     80  O   UNL A   1      46.153  25.455  24.590  1.00  0.00    -0.237 OA
ATOM     81  O   UNL A   1      45.156  27.712  24.790  1.00  0.00    -0.237 OA
ATOM     82  O   UNL A   1      46.920  26.997  26.355  1.00  0.00    -0.744 OA
ENDBRANCH  75  79
ENDBRANCH  48  72
BRANCH  60  83
ATOM     83  C   UNL A   1      45.008  27.653  34.922  1.00  0.00     0.023 A 
ATOM     84  C   UNL A   1      44.921  26.478  35.690  1.00  0.00     0.031 A 
ATOM     85  C   UNL A   1      46.211  28.379  34.953  1.00  0.00     0.131 A 
ATOM     86  C   UNL A   1      46.000  26.091  36.499  1.00  0.00     0.055 A 
ATOM     87  C   UNL A   1      47.299  27.962  35.720  1.00  0.00     0.041 A 
ATOM     88  F   UNL A   1      46.346  29.508  34.240  1.00  0.00    -0.206 F 
ATOM     89  C   UNL A   1      47.194  26.819  36.509  1.00  0.00     0.022 A 
BRANCH  86  90
ATOM     90  S   UNL A   1      45.797  24.666  37.604  1.00  0.00     0.124 S 
ATOM     91  O   UNL A   1      45.265  23.653  36.698  1.00  0.00    -0.237 OA
ATOM     92  O   UNL A   1      47.158  24.444  38.080  1.00  0.00    -0.237 OA
ATOM     93  O   UNL A   1      44.859  25.147  38.616  1.00  0.00    -0.744 OA
ENDBRANCH  86  90
ENDBRANCH  60  83
ENDBRANCH  34  35
ENDBRANCH  27  29
ENDBRANCH  26  27
ENDBRANCH  25  26
ENDBRANCH  24  25
ENDBRANCH   1  24
TORSDOF 21
ENDMDL
