MODEL 1
REMARK VINA RESULT:     -11.7      0.000      0.000
REMARK SMILES CCOc1ccc(C(=O)N2CCC(C(=O)OCCOCCOC(=O)c3ccc(-c4c5nc(c(-c6cc(S(=O)(=O)[O-])ccc6F)c6ccc([nH]6)c(-c6cc(S(=O)(=O)[O-])ccc6F)c6nc(c(-c7cc(S(=O)(=O)[O-])ccc7F)c7ccc4[nH]7)C=C6)C=C5)cc3)(c3ccccc3)CC2)cc1OC
REMARK SMILES IDX 19 1 18 2 17 3 16 4 14 5 15 6 13 7 8 8 9 9 10 10 11 11 95 12
REMARK SMILES IDX 12 13 94 14 7 15 4 16 5 17 97 18 6 19 96 20 3 21 2 22 1 23
REMARK SMILES IDX 98 24 99 25 88 26 89 27 93 28 90 29 92 30 91 31 20 32 21 33
REMARK SMILES IDX 22 34 23 35 24 36 25 37 26 38 87 39 27 40 86 41 28 42 29 43
REMARK SMILES IDX 30 44 80 45 31 46 85 47 79 48 81 49 32 50 84 51 78 52 77 53
REMARK SMILES IDX 33 55 65 56 45 57 64 58 46 59 49 60 63 61 82 62 47 63 48 64
REMARK SMILES IDX 62 66 83 67 50 68 34 69 35 70 43 71 36 72 42 73 44 74 41 75
REMARK SMILES IDX 37 76 38 77 39 78 40 79 66 80 67 81 75 82 68 83 74 84 76 85
REMARK SMILES IDX 73 86 69 87 70 88 71 89 72 90 51 91 52 92 60 93 53 94 59 95
REMARK SMILES IDX 61 96 58 97 54 98 55 99 56 100 57 101
REMARK H PARENT 81 54 49 65
REMARK Flexibility Score: inf
ROOT
ATOM      1  O   UNL A   1      40.283  21.316  26.774  1.00  0.00    -0.374 OA
ENDROOT
BRANCH   1   2
ATOM      2  C   UNL A   1      39.115  21.378  25.955  1.00  0.00     0.202 C 
BRANCH   2   3
ATOM      3  C   UNL A   1      38.325  22.689  25.992  1.00  0.00     0.261 C 
BRANCH   3   4
ATOM      4  O   UNL A   1      36.922  22.453  25.802  1.00  0.00    -0.463 OA
BRANCH   4   5
ATOM      5  C   UNL A   1      36.415  22.812  24.594  1.00  0.00     0.316 C 
ATOM      6  O   UNL A   1      37.051  22.758  23.544  1.00  0.00    -0.251 OA
BRANCH   5   7
ATOM      7  C   UNL A   1      34.934  23.287  24.663  1.00  0.00     0.096 C 
ATOM      8  C   UNL A   1      32.430  26.815  25.418  1.00  0.00     0.253 C 
ATOM      9  O   UNL A   1      32.247  27.213  26.566  1.00  0.00    -0.269 OA
ATOM     10  N   UNL A   1      33.251  25.717  25.113  1.00  0.00    -0.339 N 
ATOM     11  C   UNL A   1      33.315  24.677  26.130  1.00  0.00     0.121 C 
ATOM     12  C   UNL A   1      33.786  25.449  23.777  1.00  0.00     0.121 C 
ATOM     13  C   UNL A   1      34.547  23.787  26.077  1.00  0.00     0.045 C 
ATOM     14  C   UNL A   1      34.986  24.525  23.733  1.00  0.00     0.045 C 
BRANCH   8  15
ATOM     15  C   UNL A   1      31.630  27.460  24.342  1.00  0.00     0.043 A 
ATOM     16  C   UNL A   1      30.055  28.852  22.491  1.00  0.00     0.161 A 
ATOM     17  C   UNL A   1      31.440  29.072  22.550  1.00  0.00     0.051 A 
ATOM     18  C   UNL A   1      29.455  27.917  23.335  1.00  0.00     0.161 A 
ATOM     19  C   UNL A   1      32.229  28.375  23.472  1.00  0.00     0.018 A 
ATOM     20  C   UNL A   1      30.243  27.293  24.301  1.00  0.00     0.064 A 
BRANCH  16  21
ATOM     21  O   UNL A   1      29.310  29.568  21.596  1.00  0.00    -0.490 OA
BRANCH  21  22
ATOM     22  C   UNL A   1      29.096  30.915  22.037  1.00  0.00     0.226 C 
ATOM     23  C   UNL A   1      27.803  30.966  22.830  1.00  0.00     0.049 C 
ENDBRANCH  21  22
ENDBRANCH  16  21
BRANCH  18  24
ATOM     24  O   UNL A   1      28.140  27.558  23.407  1.00  0.00    -0.493 OA
ATOM     25  C   UNL A   1      27.822  26.328  24.043  1.00  0.00     0.278 C 
ENDBRANCH  18  24
ENDBRANCH   8  15
BRANCH   7  26
ATOM     26  C   UNL A   1      33.982  22.137  24.204  1.00  0.00    -0.031 A 
ATOM     27  C   UNL A   1      33.968  20.888  24.866  1.00  0.00     0.005 A 
ATOM     28  C   UNL A   1      33.062  22.280  23.150  1.00  0.00     0.005 A 
ATOM     29  C   UNL A   1      33.122  19.843  24.469  1.00  0.00     0.000 A 
ATOM     30  C   UNL A   1      32.212  21.237  22.752  1.00  0.00     0.000 A 
ATOM     31  C   UNL A   1      32.248  20.015  23.407  1.00  0.00     0.000 A 
ENDBRANCH   7  26
ENDBRANCH   5   7
ENDBRANCH   4   5
ENDBRANCH   3   4
ENDBRANCH   2   3
ENDBRANCH   1   2
BRANCH   1  32
ATOM     32  C   UNL A   1      41.395  20.566  26.282  1.00  0.00     0.202 C 
BRANCH  32  33
ATOM     33  C   UNL A   1      42.617  21.347  25.779  1.00  0.00     0.261 C 
BRANCH  33  34
ATOM     34  O   UNL A   1      42.279  22.652  25.277  1.00  0.00    -0.460 OA
BRANCH  34  35
ATOM     35  C   UNL A   1      43.310  23.537  25.279  1.00  0.00     0.338 C 
ATOM     36  O   UNL A   1      44.144  23.689  24.402  1.00  0.00    -0.246 OA
BRANCH  35  37
ATOM     37  C   UNL A   1      43.195  24.462  26.424  1.00  0.00     0.060 A 
ATOM     38  C   UNL A   1      42.578  23.977  27.584  1.00  0.00     0.016 A 
ATOM     39  C   UNL A   1      43.583  25.800  26.333  1.00  0.00     0.016 A 
ATOM     40  C   UNL A   1      42.307  24.838  28.645  1.00  0.00     0.010 A 
ATOM     41  C   UNL A   1      43.298  26.667  27.396  1.00  0.00     0.010 A 
ATOM     42  C   UNL A   1      42.630  26.197  28.542  1.00  0.00    -0.014 A 
BRANCH  42  43
ATOM     43  C   UNL A   1      42.132  27.143  29.572  1.00  0.00     0.031 A 
ATOM     44  C   UNL A   1      42.876  27.258  30.877  1.00  0.00     0.074 A 
ATOM     45  C   UNL A   1      41.059  27.918  29.333  1.00  0.00     0.049 A 
ATOM     46  N   UNL A   1      42.609  27.996  31.922  1.00  0.00    -0.248 NA
ATOM     47  C   UNL A   1      44.082  26.428  31.014  1.00  0.00     0.031 C 
ATOM     48  C   UNL A   1      40.291  27.930  28.089  1.00  0.00     0.029 A 
ATOM     49  N   UNL A   1      40.428  28.841  30.128  1.00  0.00    -0.354 N 
ATOM     50  C   UNL A   1      43.613  27.722  32.846  1.00  0.00     0.074 A 
ATOM     51  C   UNL A   1      44.474  26.724  32.244  1.00  0.00     0.031 C 
ATOM     52  C   UNL A   1      39.282  28.811  28.210  1.00  0.00     0.029 A 
ATOM     53  C   UNL A   1      39.311  29.395  29.549  1.00  0.00     0.049 A 
ATOM     54  H   UNL A   1      40.745  29.084  31.028  1.00  0.00     0.167 HD
ATOM     55  C   UNL A   1      43.804  28.258  34.077  1.00  0.00     0.034 A 
ATOM     56  C   UNL A   1      38.401  30.253  30.053  1.00  0.00     0.034 A 
ATOM     57  C   UNL A   1      42.927  29.239  34.670  1.00  0.00     0.049 A 
ATOM     58  C   UNL A   1      38.579  30.765  31.462  1.00  0.00     0.074 A 
ATOM     59  C   UNL A   1      43.030  29.855  35.905  1.00  0.00     0.029 A 
ATOM     60  N   UNL A   1      41.774  29.736  34.076  1.00  0.00    -0.354 N 
ATOM     61  N   UNL A   1      39.536  30.502  32.323  1.00  0.00    -0.248 NA
ATOM     62  C   UNL A   1      37.558  31.694  31.964  1.00  0.00     0.031 C 
ATOM     63  C   UNL A   1      41.906  30.670  36.085  1.00  0.00     0.029 A 
ATOM     64  C   UNL A   1      41.139  30.623  34.932  1.00  0.00     0.049 A 
ATOM     65  H   UNL A   1      41.454  29.494  33.176  1.00  0.00     0.167 HD
ATOM     66  C   UNL A   1      39.243  31.256  33.457  1.00  0.00     0.074 A 
ATOM     67  C   UNL A   1      38.032  31.992  33.166  1.00  0.00     0.031 C 
ATOM     68  C   UNL A   1      39.919  31.337  34.632  1.00  0.00     0.034 A 
BRANCH  55  69
ATOM     69  C   UNL A   1      44.976  27.747  34.880  1.00  0.00     0.023 A 
ATOM     70  C   UNL A   1      44.847  26.675  35.782  1.00  0.00     0.031 A 
ATOM     71  C   UNL A   1      46.234  28.362  34.765  1.00  0.00     0.131 A 
ATOM     72  C   UNL A   1      45.938  26.296  36.578  1.00  0.00     0.055 A 
ATOM     73  C   UNL A   1      47.336  27.932  35.507  1.00  0.00     0.041 A 
ATOM     74  F   UNL A   1      46.412  29.404  33.938  1.00  0.00    -0.206 F 
ATOM     75  C   UNL A   1      47.187  26.902  36.431  1.00  0.00     0.022 A 
BRANCH  72  76
ATOM     76  S   UNL A   1      45.668  25.087  37.905  1.00  0.00     0.124 S 
ATOM     77  O   UNL A   1      46.444  25.668  38.997  1.00  0.00    -0.237 OA
ATOM     78  O   UNL A   1      44.218  25.114  38.066  1.00  0.00    -0.237 OA
ATOM     79  O   UNL A   1      46.212  23.847  37.356  1.00  0.00    -0.744 OA
ENDBRANCH  72  76
ENDBRANCH  55  69
BRANCH  56  80
ATOM     80  C   UNL A   1      37.209  30.647  29.249  1.00  0.00     0.023 A 
ATOM     81  C   UNL A   1      36.808  31.989  29.147  1.00  0.00     0.031 A 
ATOM     82  C   UNL A   1      36.418  29.673  28.614  1.00  0.00     0.131 A 
ATOM     83  C   UNL A   1      35.627  32.315  28.461  1.00  0.00     0.055 A 
ATOM     84  C   UNL A   1      35.272  30.007  27.891  1.00  0.00     0.041 A 
ATOM     85  F   UNL A   1      36.756  28.375  28.682  1.00  0.00    -0.206 F 
ATOM     86  C   UNL A   1      34.863  31.335  27.823  1.00  0.00     0.022 A 
BRANCH  83  87
ATOM     87  S   UNL A   1      35.055  34.037  28.483  1.00  0.00     0.124 S 
ATOM     88  O   UNL A   1      33.867  33.945  29.324  1.00  0.00    -0.237 OA
ATOM     89  O   UNL A   1      36.201  34.728  29.063  1.00  0.00    -0.237 OA
ATOM     90  O   UNL A   1      34.802  34.329  27.073  1.00  0.00    -0.744 OA
ENDBRANCH  83  87
ENDBRANCH  56  80
BRANCH  68  91
ATOM     91  C   UNL A   1      39.377  32.290  35.670  1.00  0.00     0.023 A 
ATOM     92  C   UNL A   1      39.842  33.612  35.776  1.00  0.00     0.031 A 
ATOM     93  C   UNL A   1      38.389  31.861  36.575  1.00  0.00     0.131 A 
ATOM     94  C   UNL A   1      39.358  34.443  36.798  1.00  0.00     0.055 A 
ATOM     95  C   UNL A   1      37.871  32.710  37.554  1.00  0.00     0.041 A 
ATOM     96  F   UNL A   1      37.910  30.608  36.520  1.00  0.00    -0.206 F 
ATOM     97  C   UNL A   1      38.364  34.006  37.678  1.00  0.00     0.022 A 
BRANCH  94  98
ATOM     98  S   UNL A   1      40.108  36.080  37.021  1.00  0.00     0.124 S 
ATOM     99  O   UNL A   1      41.513  35.745  37.235  1.00  0.00    -0.237 OA
ATOM    100  O   UNL A   1      39.796  36.742  35.758  1.00  0.00    -0.237 OA
ATOM    101  O   UNL A   1      39.415  36.620  38.190  1.00  0.00    -0.744 OA
ENDBRANCH  94  98
ENDBRANCH  68  91
ENDBRANCH  42  43
ENDBRANCH  35  37
ENDBRANCH  34  35
ENDBRANCH  33  34
ENDBRANCH  32  33
ENDBRANCH   1  32
TORSDOF 22
ENDMDL
MODEL 2
REMARK VINA RESULT:     -11.7      2.647      9.013
REMARK SMILES CCOc1ccc(C(=O)N2CCC(C(=O)OCCOCCOC(=O)c3ccc(-c4c5nc(c(-c6cc(S(=O)(=O)[O-])ccc6F)c6ccc([nH]6)c(-c6cc(S(=O)(=O)[O-])ccc6F)c6nc(c(-c7cc(S(=O)(=O)[O-])ccc7F)c7ccc4[nH]7)C=C6)C=C5)cc3)(c3ccccc3)CC2)cc1OC
REMARK SMILES IDX 19 1 18 2 17 3 16 4 14 5 15 6 13 7 8 8 9 9 10 10 11 11 95 12
REMARK SMILES IDX 12 13 94 14 7 15 4 16 5 17 97 18 6 19 96 20 3 21 2 22 1 23
REMARK SMILES IDX 98 24 99 25 88 26 89 27 93 28 90 29 92 30 91 31 20 32 21 33
REMARK SMILES IDX 22 34 23 35 24 36 25 37 26 38 87 39 27 40 86 41 28 42 29 43
REMARK SMILES IDX 30 44 80 45 31 46 85 47 79 48 81 49 32 50 84 51 78 52 77 53
REMARK SMILES IDX 33 55 65 56 45 57 64 58 46 59 49 60 63 61 82 62 47 63 48 64
REMARK SMILES IDX 62 66 83 67 50 68 34 69 35 70 43 71 36 72 42 73 44 74 41 75
REMARK SMILES IDX 37 76 38 77 39 78 40 79 66 80 67 81 75 82 68 83 74 84 76 85
REMARK SMILES IDX 73 86 69 87 70 88 71 89 72 90 51 91 52 92 60 93 53 94 59 95
REMARK SMILES IDX 61 96 58 97 54 98 55 99 56 100 57 101
REMARK H PARENT 81 54 49 65
REMARK Flexibility Score: inf
ROOT
ATOM      1  O   UNL A   1      31.461  31.645  26.169  1.00  0.00    -0.374 OA
ENDROOT
BRANCH   1   2
ATOM      2  C   UNL A   1      31.842  30.457  26.864  1.00  0.00     0.202 C 
BRANCH   2   3
ATOM      3  C   UNL A   1      33.212  29.871  26.513  1.00  0.00     0.261 C 
BRANCH   3   4
ATOM      4  O   UNL A   1      33.415  28.606  27.162  1.00  0.00    -0.463 OA
BRANCH   4   5
ATOM      5  C   UNL A   1      32.341  27.775  27.198  1.00  0.00     0.316 C 
ATOM      6  O   UNL A   1      31.436  27.865  28.023  1.00  0.00    -0.251 OA
BRANCH   5   7
ATOM      7  C   UNL A   1      32.357  26.698  26.073  1.00  0.00     0.096 C 
ATOM      8  C   UNL A   1      34.366  23.007  24.801  1.00  0.00     0.253 C 
ATOM      9  O   UNL A   1      35.486  23.050  24.294  1.00  0.00    -0.269 OA
ATOM     10  N   UNL A   1      33.691  24.149  25.262  1.00  0.00    -0.339 N 
ATOM     11  C   UNL A   1      33.982  25.383  24.545  1.00  0.00     0.121 C 
ATOM     12  C   UNL A   1      32.559  24.105  26.188  1.00  0.00     0.121 C 
ATOM     13  C   UNL A   1      33.707  26.665  25.316  1.00  0.00     0.045 C 
ATOM     14  C   UNL A   1      32.268  25.402  26.917  1.00  0.00     0.045 C 
BRANCH   8  15
ATOM     15  C   UNL A   1      33.669  21.692  24.791  1.00  0.00     0.043 A 
ATOM     16  C   UNL A   1      32.572  19.119  24.664  1.00  0.00     0.161 A 
ATOM     17  C   UNL A   1      33.156  19.582  25.854  1.00  0.00     0.051 A 
ATOM     18  C   UNL A   1      32.508  19.946  23.543  1.00  0.00     0.161 A 
ATOM     19  C   UNL A   1      33.702  20.869  25.919  1.00  0.00     0.018 A 
ATOM     20  C   UNL A   1      33.129  21.193  23.602  1.00  0.00     0.064 A 
BRANCH  16  21
ATOM     21  O   UNL A   1      32.070  17.847  24.626  1.00  0.00    -0.490 OA
BRANCH  21  22
ATOM     22  C   UNL A   1      33.106  16.862  24.727  1.00  0.00     0.226 C 
ATOM     23  C   UNL A   1      33.918  16.880  23.444  1.00  0.00     0.049 C 
ENDBRANCH  21  22
ENDBRANCH  16  21
BRANCH  18  24
ATOM     24  O   UNL A   1      31.967  19.679  22.318  1.00  0.00    -0.493 OA
ATOM     25  C   UNL A   1      31.674  20.778  21.468  1.00  0.00     0.278 C 
ENDBRANCH  18  24
ENDBRANCH   8  15
BRANCH   7  26
ATOM     26  C   UNL A   1      31.174  26.943  25.083  1.00  0.00    -0.031 A 
ATOM     27  C   UNL A   1      30.041  26.099  25.069  1.00  0.00     0.005 A 
ATOM     28  C   UNL A   1      31.138  28.027  24.187  1.00  0.00     0.005 A 
ATOM     29  C   UNL A   1      28.970  26.301  24.188  1.00  0.00     0.000 A 
ATOM     30  C   UNL A   1      30.066  28.235  23.306  1.00  0.00     0.000 A 
ATOM     31  C   UNL A   1      28.985  27.366  23.301  1.00  0.00     0.000 A 
ENDBRANCH   7  26
ENDBRANCH   5   7
ENDBRANCH   4   5
ENDBRANCH   3   4
ENDBRANCH   2   3
ENDBRANCH   1   2
BRANCH   1  32
ATOM     32  C   UNL A   1      31.828  32.896  26.751  1.00  0.00     0.202 C 
BRANCH  32  33
ATOM     33  C   UNL A   1      33.016  32.911  27.724  1.00  0.00     0.261 C 
BRANCH  33  34
ATOM     34  O   UNL A   1      33.623  34.210  27.848  1.00  0.00    -0.460 OA
BRANCH  34  35
ATOM     35  C   UNL A   1      33.573  34.734  29.100  1.00  0.00     0.338 C 
ATOM     36  O   UNL A   1      32.672  35.404  29.576  1.00  0.00    -0.246 OA
BRANCH  35  37
ATOM     37  C   UNL A   1      34.693  34.228  29.917  1.00  0.00     0.060 A 
ATOM     38  C   UNL A   1      35.988  34.402  29.414  1.00  0.00     0.016 A 
ATOM     39  C   UNL A   1      34.481  33.506  31.094  1.00  0.00     0.016 A 
ATOM     40  C   UNL A   1      37.075  33.820  30.061  1.00  0.00     0.010 A 
ATOM     41  C   UNL A   1      35.574  32.911  31.736  1.00  0.00     0.010 A 
ATOM     42  C   UNL A   1      36.871  33.038  31.205  1.00  0.00    -0.014 A 
BRANCH  42  43
ATOM     43  C   UNL A   1      37.996  32.237  31.750  1.00  0.00     0.031 A 
ATOM     44  C   UNL A   1      38.532  32.569  33.118  1.00  0.00     0.074 A 
ATOM     45  C   UNL A   1      38.505  31.204  31.056  1.00  0.00     0.049 A 
ATOM     46  N   UNL A   1      39.519  32.023  33.778  1.00  0.00    -0.248 NA
ATOM     47  C   UNL A   1      37.859  33.664  33.833  1.00  0.00     0.031 C 
ATOM     48  C   UNL A   1      38.033  30.758  29.746  1.00  0.00     0.029 A 
ATOM     49  N   UNL A   1      39.533  30.346  31.354  1.00  0.00    -0.354 N 
ATOM     50  C   UNL A   1      39.589  32.706  34.989  1.00  0.00     0.074 A 
ATOM     51  C   UNL A   1      38.563  33.728  34.952  1.00  0.00     0.031 C 
ATOM     52  C   UNL A   1      38.781  29.714  29.346  1.00  0.00     0.029 A 
ATOM     53  C   UNL A   1      39.805  29.443  30.354  1.00  0.00     0.049 A 
ATOM     54  H   UNL A   1      40.030  30.374  32.203  1.00  0.00     0.167 HD
ATOM     55  C   UNL A   1      40.426  32.495  36.035  1.00  0.00     0.034 A 
ATOM     56  C   UNL A   1      40.785  28.522  30.252  1.00  0.00     0.034 A 
ATOM     57  C   UNL A   1      41.455  31.484  36.049  1.00  0.00     0.049 A 
ATOM     58  C   UNL A   1      41.766  28.368  31.388  1.00  0.00     0.074 A 
ATOM     59  C   UNL A   1      42.352  31.178  37.058  1.00  0.00     0.029 A 
ATOM     60  N   UNL A   1      41.737  30.623  34.995  1.00  0.00    -0.354 N 
ATOM     61  N   UNL A   1      41.818  29.017  32.530  1.00  0.00    -0.248 NA
ATOM     62  C   UNL A   1      42.816  27.355  31.225  1.00  0.00     0.031 C 
ATOM     63  C   UNL A   1      43.217  30.182  36.589  1.00  0.00     0.029 A 
ATOM     64  C   UNL A   1      42.815  29.811  35.317  1.00  0.00     0.049 A 
ATOM     65  H   UNL A   1      41.243  30.593  34.144  1.00  0.00     0.167 HD
ATOM     66  C   UNL A   1      42.891  28.468  33.229  1.00  0.00     0.074 A 
ATOM     67  C   UNL A   1      43.447  27.429  32.388  1.00  0.00     0.031 C 
ATOM     68  C   UNL A   1      43.369  28.789  34.459  1.00  0.00     0.034 A 
BRANCH  55  69
ATOM     69  C   UNL A   1      40.294  33.417  37.223  1.00  0.00     0.023 A 
ATOM     70  C   UNL A   1      39.604  33.033  38.387  1.00  0.00     0.031 A 
ATOM     71  C   UNL A   1      40.840  34.711  37.178  1.00  0.00     0.131 A 
ATOM     72  C   UNL A   1      39.423  33.956  39.429  1.00  0.00     0.055 A 
ATOM     73  C   UNL A   1      40.719  35.600  38.248  1.00  0.00     0.041 A 
ATOM     74  F   UNL A   1      41.489  35.141  36.085  1.00  0.00    -0.206 F 
ATOM     75  C   UNL A   1      39.995  35.229  39.377  1.00  0.00     0.022 A 
BRANCH  72  76
ATOM     76  S   UNL A   1      38.316  33.515  40.799  1.00  0.00     0.124 S 
ATOM     77  O   UNL A   1      38.398  34.707  41.640  1.00  0.00    -0.237 OA
ATOM     78  O   UNL A   1      37.044  33.298  40.119  1.00  0.00    -0.237 OA
ATOM     79  O   UNL A   1      38.933  32.319  41.367  1.00  0.00    -0.744 OA
ENDBRANCH  72  76
ENDBRANCH  55  69
BRANCH  56  80
ATOM     80  C   UNL A   1      40.928  27.706  29.011  1.00  0.00     0.023 A 
ATOM     81  C   UNL A   1      41.941  27.969  28.077  1.00  0.00     0.031 A 
ATOM     82  C   UNL A   1      40.009  26.682  28.717  1.00  0.00     0.131 A 
ATOM     83  C   UNL A   1      41.988  27.245  26.875  1.00  0.00     0.055 A 
ATOM     84  C   UNL A   1      40.090  25.931  27.544  1.00  0.00     0.041 A 
ATOM     85  F   UNL A   1      39.019  26.391  29.577  1.00  0.00    -0.206 F 
ATOM     86  C   UNL A   1      41.078  26.220  26.608  1.00  0.00     0.022 A 
BRANCH  83  87
ATOM     87  S   UNL A   1      43.214  27.717  25.622  1.00  0.00     0.124 S 
ATOM     88  O   UNL A   1      42.365  28.025  24.477  1.00  0.00    -0.237 OA
ATOM     89  O   UNL A   1      43.873  28.852  26.258  1.00  0.00    -0.237 OA
ATOM     90  O   UNL A   1      44.038  26.517  25.484  1.00  0.00    -0.744 OA
ENDBRANCH  83  87
ENDBRANCH  56  80
BRANCH  68  91
ATOM     91  C   UNL A   1      44.529  27.973  34.977  1.00  0.00     0.023 A 
ATOM     92  C   UNL A   1      44.336  26.736  35.614  1.00  0.00     0.031 A 
ATOM     93  C   UNL A   1      45.845  28.452  34.844  1.00  0.00     0.131 A 
ATOM     94  C   UNL A   1      45.438  26.042  36.141  1.00  0.00     0.055 A 
ATOM     95  C   UNL A   1      46.941  27.731  35.319  1.00  0.00     0.041 A 
ATOM     96  F   UNL A   1      46.086  29.630  34.244  1.00  0.00    -0.206 F 
ATOM     97  C   UNL A   1      46.740  26.525  35.984  1.00  0.00     0.022 A 
BRANCH  94  98
ATOM     98  S   UNL A   1      45.139  24.541  37.115  1.00  0.00     0.124 S 
ATOM     99  O   UNL A   1      44.417  23.700  36.164  1.00  0.00    -0.237 OA
ATOM    100  O   UNL A   1      46.493  24.110  37.448  1.00  0.00    -0.237 OA
ATOM    101  O   UNL A   1      44.346  25.018  38.246  1.00  0.00    -0.744 OA
ENDBRANCH  94  98
ENDBRANCH  68  91
ENDBRANCH  42  43
ENDBRANCH  35  37
ENDBRANCH  34  35
ENDBRANCH  33  34
ENDBRANCH  32  33
ENDBRANCH   1  32
TORSDOF 22
ENDMDL
MODEL 3
REMARK VINA RESULT:     -11.4      2.668      9.629
REMARK SMILES CCOc1ccc(C(=O)N2CCC(C(=O)OCCOCCOC(=O)c3ccc(-c4c5nc(c(-c6cc(S(=O)(=O)[O-])ccc6F)c6ccc([nH]6)c(-c6cc(S(=O)(=O)[O-])ccc6F)c6nc(c(-c7cc(S(=O)(=O)[O-])ccc7F)c7ccc4[nH]7)C=C6)C=C5)cc3)(c3ccccc3)CC2)cc1OC
REMARK SMILES IDX 19 1 18 2 17 3 16 4 14 5 15 6 13 7 8 8 9 9 10 10 11 11 95 12
REMARK SMILES IDX 12 13 94 14 7 15 4 16 5 17 97 18 6 19 96 20 3 21 2 22 1 23
REMARK SMILES IDX 98 24 99 25 88 26 89 27 93 28 90 29 92 30 91 31 20 32 21 33
REMARK SMILES IDX 22 34 23 35 24 36 25 37 26 38 87 39 27 40 86 41 28 42 29 43
REMARK SMILES IDX 30 44 80 45 31 46 85 47 79 48 81 49 32 50 84 51 78 52 77 53
REMARK SMILES IDX 33 55 65 56 45 57 64 58 46 59 49 60 63 61 82 62 47 63 48 64
REMARK SMILES IDX 62 66 83 67 50 68 34 69 35 70 43 71 36 72 42 73 44 74 41 75
REMARK SMILES IDX 37 76 38 77 39 78 40 79 66 80 67 81 75 82 68 83 74 84 76 85
REMARK SMILES IDX 73 86 69 87 70 88 71 89 72 90 51 91 52 92 60 93 53 94 59 95
REMARK SMILES IDX 61 96 58 97 54 98 55 99 56 100 57 101
REMARK H PARENT 81 54 49 65
REMARK Flexibility Score: inf
ROOT
ATOM      1  O   UNL A   1      33.566  30.529  27.555  1.00  0.00    -0.374 OA
ENDROOT
BRANCH   1   2
ATOM      2  C   UNL A   1      32.264  30.464  26.973  1.00  0.00     0.202 C 
BRANCH   2   3
ATOM      3  C   UNL A   1      31.864  29.128  26.341  1.00  0.00     0.261 C 
BRANCH   3   4
ATOM      4  O   UNL A   1      31.487  29.298  24.966  1.00  0.00    -0.463 OA
BRANCH   4   5
ATOM      5  C   UNL A   1      32.327  28.756  24.047  1.00  0.00     0.316 C 
ATOM      6  O   UNL A   1      33.373  29.285  23.681  1.00  0.00    -0.251 OA
BRANCH   5   7
ATOM      7  C   UNL A   1      31.841  27.378  23.506  1.00  0.00     0.096 C 
ATOM      8  C   UNL A   1      33.281  23.480  22.085  1.00  0.00     0.253 C 
ATOM      9  O   UNL A   1      33.752  23.366  20.955  1.00  0.00    -0.269 OA
ATOM     10  N   UNL A   1      32.841  24.708  22.607  1.00  0.00    -0.339 N 
ATOM     11  C   UNL A   1      32.312  25.653  21.634  1.00  0.00     0.121 C 
ATOM     12  C   UNL A   1      32.634  24.955  24.035  1.00  0.00     0.121 C 
ATOM     13  C   UNL A   1      32.333  27.112  22.062  1.00  0.00     0.045 C 
ATOM     14  C   UNL A   1      32.613  26.415  24.443  1.00  0.00     0.045 C 
BRANCH   8  15
ATOM     15  C   UNL A   1      33.059  22.228  22.856  1.00  0.00     0.043 A 
ATOM     16  C   UNL A   1      32.470  20.003  24.452  1.00  0.00     0.161 A 
ATOM     17  C   UNL A   1      31.832  20.176  23.214  1.00  0.00     0.051 A 
ATOM     18  C   UNL A   1      33.423  20.924  24.886  1.00  0.00     0.161 A 
ATOM     19  C   UNL A   1      32.127  21.285  22.414  1.00  0.00     0.018 A 
ATOM     20  C   UNL A   1      33.645  22.064  24.115  1.00  0.00     0.064 A 
BRANCH  16  21
ATOM     21  O   UNL A   1      32.140  18.921  25.221  1.00  0.00    -0.490 OA
BRANCH  21  22
ATOM     22  C   UNL A   1      32.469  17.686  24.572  1.00  0.00     0.226 C 
ATOM     23  C   UNL A   1      33.300  16.845  25.524  1.00  0.00     0.049 C 
ENDBRANCH  21  22
ENDBRANCH  16  21
BRANCH  18  24
ATOM     24  O   UNL A   1      34.154  20.913  26.040  1.00  0.00    -0.493 OA
ATOM     25  C   UNL A   1      35.315  21.728  26.098  1.00  0.00     0.278 C 
ENDBRANCH  18  24
ENDBRANCH   8  15
BRANCH   7  26
ATOM     26  C   UNL A   1      30.284  27.293  23.584  1.00  0.00    -0.031 A 
ATOM     27  C   UNL A   1      29.640  26.268  24.312  1.00  0.00     0.005 A 
ATOM     28  C   UNL A   1      29.435  28.240  22.983  1.00  0.00     0.005 A 
ATOM     29  C   UNL A   1      28.244  26.173  24.394  1.00  0.00     0.000 A 
ATOM     30  C   UNL A   1      28.038  28.151  23.065  1.00  0.00     0.000 A 
ATOM     31  C   UNL A   1      27.441  27.113  23.764  1.00  0.00     0.000 A 
ENDBRANCH   7  26
ENDBRANCH   5   7
ENDBRANCH   4   5
ENDBRANCH   3   4
ENDBRANCH   2   3
ENDBRANCH   1   2
BRANCH   1  32
ATOM     32  C   UNL A   1      34.152  31.821  27.719  1.00  0.00     0.202 C 
BRANCH  32  33
ATOM     33  C   UNL A   1      33.221  33.040  27.665  1.00  0.00     0.261 C 
BRANCH  33  34
ATOM     34  O   UNL A   1      33.858  34.251  28.112  1.00  0.00    -0.460 OA
BRANCH  34  35
ATOM     35  C   UNL A   1      33.589  34.582  29.402  1.00  0.00     0.338 C 
ATOM     36  O   UNL A   1      32.539  35.022  29.840  1.00  0.00    -0.246 OA
BRANCH  35  37
ATOM     37  C   UNL A   1      34.694  34.158  30.284  1.00  0.00     0.060 A 
ATOM     38  C   UNL A   1      35.991  34.545  29.925  1.00  0.00     0.016 A 
ATOM     39  C   UNL A   1      34.482  33.315  31.379  1.00  0.00     0.016 A 
ATOM     40  C   UNL A   1      37.088  34.056  30.630  1.00  0.00     0.010 A 
ATOM     41  C   UNL A   1      35.588  32.816  32.078  1.00  0.00     0.010 A 
ATOM     42  C   UNL A   1      36.896  33.158  31.687  1.00  0.00    -0.014 A 
BRANCH  42  43
ATOM     43  C   UNL A   1      38.070  32.468  32.279  1.00  0.00     0.031 A 
ATOM     44  C   UNL A   1      38.703  31.328  31.525  1.00  0.00     0.074 A 
ATOM     45  C   UNL A   1      38.591  32.879  33.449  1.00  0.00     0.049 A 
ATOM     46  N   UNL A   1      39.714  30.571  31.860  1.00  0.00    -0.248 NA
ATOM     47  C   UNL A   1      38.111  31.004  30.218  1.00  0.00     0.031 C 
ATOM     48  C   UNL A   1      38.095  34.003  34.242  1.00  0.00     0.029 A 
ATOM     49  N   UNL A   1      39.649  32.394  34.176  1.00  0.00    -0.354 N 
ATOM     50  C   UNL A   1      39.884  29.678  30.807  1.00  0.00     0.074 A 
ATOM     51  C   UNL A   1      38.847  29.970  29.839  1.00  0.00     0.031 C 
ATOM     52  C   UNL A   1      38.843  34.114  35.354  1.00  0.00     0.029 A 
ATOM     53  C   UNL A   1      39.843  33.048  35.369  1.00  0.00     0.049 A 
ATOM     54  H   UNL A   1      40.216  31.649  33.872  1.00  0.00     0.167 HD
ATOM     55  C   UNL A   1      40.822  28.709  30.658  1.00  0.00     0.034 A 
ATOM     56  C   UNL A   1      40.711  32.798  36.371  1.00  0.00     0.034 A 
ATOM     57  C   UNL A   1      41.838  28.418  31.640  1.00  0.00     0.049 A 
ATOM     58  C   UNL A   1      41.685  31.654  36.227  1.00  0.00     0.074 A 
ATOM     59  C   UNL A   1      42.842  27.466  31.588  1.00  0.00     0.029 A 
ATOM     60  N   UNL A   1      41.970  29.065  32.863  1.00  0.00    -0.354 N 
ATOM     61  N   UNL A   1      41.839  30.819  35.223  1.00  0.00    -0.248 NA
ATOM     62  C   UNL A   1      42.605  31.421  37.347  1.00  0.00     0.031 C 
ATOM     63  C   UNL A   1      43.535  27.492  32.805  1.00  0.00     0.029 A 
ATOM     64  C   UNL A   1      43.015  28.511  33.587  1.00  0.00     0.049 A 
ATOM     65  H   UNL A   1      41.404  29.810  33.170  1.00  0.00     0.167 HD
ATOM     66  C   UNL A   1      42.892  29.982  35.584  1.00  0.00     0.074 A 
ATOM     67  C   UNL A   1      43.343  30.420  36.888  1.00  0.00     0.031 C 
ATOM     68  C   UNL A   1      43.441  28.948  34.896  1.00  0.00     0.034 A 
BRANCH  55  69
ATOM     69  C   UNL A   1      40.749  27.862  29.411  1.00  0.00     0.023 A 
ATOM     70  C   UNL A   1      41.640  28.042  28.338  1.00  0.00     0.031 A 
ATOM     71  C   UNL A   1      39.754  26.878  29.281  1.00  0.00     0.131 A 
ATOM     72  C   UNL A   1      41.476  27.298  27.159  1.00  0.00     0.055 A 
ATOM     73  C   UNL A   1      39.641  26.090  28.134  1.00  0.00     0.041 A 
ATOM     74  F   UNL A   1      38.861  26.676  30.263  1.00  0.00    -0.206 F 
ATOM     75  C   UNL A   1      40.497  26.307  27.059  1.00  0.00     0.022 A 
BRANCH  72  76
ATOM     76  S   UNL A   1      42.476  27.734  25.709  1.00  0.00     0.124 S 
ATOM     77  O   UNL A   1      43.820  27.777  26.279  1.00  0.00    -0.237 OA
ATOM     78  O   UNL A   1      42.204  26.631  24.794  1.00  0.00    -0.237 OA
ATOM     79  O   UNL A   1      41.940  29.031  25.299  1.00  0.00    -0.744 OA
ENDBRANCH  72  76
ENDBRANCH  55  69
BRANCH  56  80
ATOM     80  C   UNL A   1      40.672  33.606  37.623  1.00  0.00     0.023 A 
ATOM     81  C   UNL A   1      39.886  33.218  38.719  1.00  0.00     0.031 A 
ATOM     82  C   UNL A   1      41.382  34.817  37.718  1.00  0.00     0.131 A 
ATOM     83  C   UNL A   1      39.796  34.051  39.846  1.00  0.00     0.055 A 
ATOM     84  C   UNL A   1      41.330  35.618  38.859  1.00  0.00     0.041 A 
ATOM     85  F   UNL A   1      42.148  35.236  36.697  1.00  0.00    -0.206 F 
ATOM     86  C   UNL A   1      40.522  35.241  39.928  1.00  0.00     0.022 A 
BRANCH  83  87
ATOM     87  S   UNL A   1      38.650  33.596  41.176  1.00  0.00     0.124 S 
ATOM     88  O   UNL A   1      39.553  33.459  42.313  1.00  0.00    -0.237 OA
ATOM     89  O   UNL A   1      37.750  34.743  41.205  1.00  0.00    -0.237 OA
ATOM     90  O   UNL A   1      38.053  32.349  40.699  1.00  0.00    -0.744 OA
ENDBRANCH  83  87
ENDBRANCH  56  80
BRANCH  68  91
ATOM     91  C   UNL A   1      44.620  28.251  35.533  1.00  0.00     0.023 A 
ATOM     92  C   UNL A   1      44.462  27.376  36.621  1.00  0.00     0.031 A 
ATOM     93  C   UNL A   1      45.921  28.480  35.051  1.00  0.00     0.131 A 
ATOM     94  C   UNL A   1      45.592  26.802  37.225  1.00  0.00     0.055 A 
ATOM     95  C   UNL A   1      47.035  27.862  35.620  1.00  0.00     0.041 A 
ATOM     96  F   UNL A   1      46.129  29.308  34.013  1.00  0.00    -0.206 F 
ATOM     97  C   UNL A   1      46.875  27.027  36.722  1.00  0.00     0.022 A 
BRANCH  94  98
ATOM     98  S   UNL A   1      45.370  25.824  38.738  1.00  0.00     0.124 S 
ATOM     99  O   UNL A   1      45.496  24.458  38.238  1.00  0.00    -0.237 OA
ATOM    100  O   UNL A   1      46.463  26.299  39.580  1.00  0.00    -0.237 OA
ATOM    101  O   UNL A   1      44.031  26.196  39.194  1.00  0.00    -0.744 OA
ENDBRANCH  94  98
ENDBRANCH  68  91
ENDBRANCH  42  43
ENDBRANCH  35  37
ENDBRANCH  34  35
ENDBRANCH  33  34
ENDBRANCH  32  33
ENDBRANCH   1  32
TORSDOF 22
ENDMDL
