MODEL 1
REMARK VINA RESULT:     -11.6      0.000      0.000
REMARK SMILES O=C(Cn1cnc(-c2ccccc2)c1-c1ccccc1)OCCOCCOC(=O)c1ccc(-c2c3nc(c(-c4cc(S(=O)(=O)[O-])ccc4F)c4ccc([nH]4)c(-c4cc(S(=O)(=O)[O-])ccc4F)c4nc(c(-c5cc(S(=O)(=O)[O-])ccc5F)c5ccc2[nH]5)C=C4)C=C3)cc1
REMARK SMILES IDX 25 1 24 2 23 3 22 4 21 5 2 6 1 7 3 8 4 9 5 10 14 11 6 12
REMARK SMILES IDX 7 13 15 14 16 15 20 16 17 17 19 18 18 19 8 20 9 21 13 22
REMARK SMILES IDX 10 23 12 24 11 25 26 26 27 27 28 28 29 29 30 30 31 31 92 32
REMARK SMILES IDX 32 33 91 34 33 35 34 36 35 37 85 38 36 39 90 40 84 41 86 42
REMARK SMILES IDX 37 43 89 44 83 45 82 46 38 48 70 49 50 50 69 51 51 52 54 53
REMARK SMILES IDX 68 54 87 55 52 56 53 57 67 59 88 60 55 61 39 62 40 63 48 64
REMARK SMILES IDX 41 65 47 66 49 67 46 68 42 69 43 70 44 71 45 72 71 73 72 74
REMARK SMILES IDX 80 75 73 76 79 77 81 78 78 79 74 80 75 81 76 82 77 83 56 84
REMARK SMILES IDX 57 85 65 86 58 87 64 88 66 89 63 90 59 91 60 92 61 93 62 94
REMARK H PARENT 86 47 54 58
REMARK Flexibility Score: inf
ROOT
ATOM      1  C   UNL A   1      39.820  22.066  26.583  1.00  0.00     0.202 C 
ENDROOT
BRANCH   1   2
ATOM      2  O   UNL A   1      38.701  22.450  25.776  1.00  0.00    -0.374 OA
BRANCH   2   3
ATOM      3  C   UNL A   1      37.638  21.529  25.604  1.00  0.00     0.202 C 
BRANCH   3   4
ATOM      4  C   UNL A   1      36.221  22.012  25.916  1.00  0.00     0.261 C 
BRANCH   4   5
ATOM      5  O   UNL A   1      35.345  22.219  24.796  1.00  0.00    -0.462 OA
BRANCH   5   6
ATOM      6  C   UNL A   1      34.769  23.405  24.489  1.00  0.00     0.326 C 
ATOM      7  O   UNL A   1      35.318  24.173  23.698  1.00  0.00    -0.250 OA
BRANCH   6   8
ATOM      8  C   UNL A   1      33.548  23.841  25.239  1.00  0.00     0.246 C 
BRANCH   8   9
ATOM      9  N   UNL A   1      32.463  24.485  24.520  1.00  0.00    -0.319 N 
ATOM     10  C   UNL A   1      31.795  23.816  23.521  1.00  0.00     0.201 A 
ATOM     11  C   UNL A   1      31.900  25.741  24.636  1.00  0.00     0.076 A 
ATOM     12  N   UNL A   1      30.828  24.535  23.012  1.00  0.00    -0.236 NA
ATOM     13  C   UNL A   1      30.894  25.734  23.676  1.00  0.00     0.096 A 
BRANCH  11  14
ATOM     14  C   UNL A   1      32.337  26.802  25.544  1.00  0.00     0.000 A 
ATOM     15  C   UNL A   1      33.543  27.474  25.340  1.00  0.00     0.010 A 
ATOM     16  C   UNL A   1      31.528  27.176  26.629  1.00  0.00     0.010 A 
ATOM     17  C   UNL A   1      33.914  28.524  26.186  1.00  0.00     0.001 A 
ATOM     18  C   UNL A   1      31.896  28.227  27.469  1.00  0.00     0.001 A 
ATOM     19  C   UNL A   1      33.089  28.904  27.244  1.00  0.00     0.000 A 
ENDBRANCH  11  14
BRANCH  13  20
ATOM     20  C   UNL A   1      29.951  26.800  23.423  1.00  0.00     0.002 A 
ATOM     21  C   UNL A   1      28.617  26.631  23.802  1.00  0.00     0.010 A 
ATOM     22  C   UNL A   1      30.350  27.992  22.811  1.00  0.00     0.010 A 
ATOM     23  C   UNL A   1      27.699  27.664  23.617  1.00  0.00     0.001 A 
ATOM     24  C   UNL A   1      29.434  29.029  22.633  1.00  0.00     0.001 A 
ATOM     25  C   UNL A   1      28.111  28.867  23.043  1.00  0.00     0.000 A 
ENDBRANCH  13  20
ENDBRANCH   8   9
ENDBRANCH   6   8
ENDBRANCH   5   6
ENDBRANCH   4   5
ENDBRANCH   3   4
ENDBRANCH   2   3
ENDBRANCH   1   2
BRANCH   1  26
ATOM     26  C   UNL A   1      41.100  22.890  26.529  1.00  0.00     0.261 C 
BRANCH  26  27
ATOM     27  O   UNL A   1      40.910  24.131  27.211  1.00  0.00    -0.460 OA
BRANCH  27  28
ATOM     28  C   UNL A   1      40.970  25.248  26.462  1.00  0.00     0.338 C 
ATOM     29  O   UNL A   1      41.748  25.477  25.540  1.00  0.00    -0.246 OA
BRANCH  28  30
ATOM     30  C   UNL A   1      40.078  26.264  27.027  1.00  0.00     0.060 A 
ATOM     31  C   UNL A   1      40.414  27.575  26.690  1.00  0.00     0.016 A 
ATOM     32  C   UNL A   1      39.304  25.954  28.156  1.00  0.00     0.016 A 
ATOM     33  C   UNL A   1      40.277  28.532  27.660  1.00  0.00     0.010 A 
ATOM     34  C   UNL A   1      39.172  26.916  29.130  1.00  0.00     0.010 A 
ATOM     35  C   UNL A   1      39.771  28.153  28.909  1.00  0.00    -0.014 A 
BRANCH  35  36
ATOM     36  C   UNL A   1      39.948  29.106  29.981  1.00  0.00     0.031 A 
ATOM     37  C   UNL A   1      38.791  29.984  30.208  1.00  0.00     0.074 A 
ATOM     38  C   UNL A   1      41.075  29.188  30.709  1.00  0.00     0.049 A 
ATOM     39  N   UNL A   1      38.712  31.256  30.020  1.00  0.00    -0.248 NA
ATOM     40  C   UNL A   1      37.524  29.333  30.558  1.00  0.00     0.031 C 
ATOM     41  C   UNL A   1      42.182  28.231  30.788  1.00  0.00     0.029 A 
ATOM     42  N   UNL A   1      41.408  30.133  31.626  1.00  0.00    -0.354 N 
ATOM     43  C   UNL A   1      37.427  31.609  30.407  1.00  0.00     0.074 A 
ATOM     44  C   UNL A   1      36.700  30.377  30.571  1.00  0.00     0.031 C 
ATOM     45  C   UNL A   1      42.943  28.532  31.864  1.00  0.00     0.029 A 
ATOM     46  C   UNL A   1      42.455  29.770  32.455  1.00  0.00     0.049 A 
ATOM     47  H   UNL A   1      40.946  31.000  31.694  1.00  0.00     0.167 HD
ATOM     48  C   UNL A   1      37.108  32.884  30.746  1.00  0.00     0.034 A 
ATOM     49  C   UNL A   1      42.820  30.393  33.603  1.00  0.00     0.034 A 
ATOM     50  C   UNL A   1      38.071  33.828  30.233  1.00  0.00     0.049 A 
ATOM     51  C   UNL A   1      42.304  31.785  33.538  1.00  0.00     0.074 A 
ATOM     52  C   UNL A   1      38.502  34.168  28.964  1.00  0.00     0.029 A 
ATOM     53  N   UNL A   1      39.014  34.342  31.092  1.00  0.00    -0.354 N 
ATOM     54  N   UNL A   1      42.727  32.675  32.682  1.00  0.00    -0.248 NA
ATOM     55  C   UNL A   1      41.008  32.074  34.133  1.00  0.00     0.031 C 
ATOM     56  C   UNL A   1      39.895  34.436  29.100  1.00  0.00     0.029 A 
ATOM     57  C   UNL A   1      40.228  34.283  30.448  1.00  0.00     0.049 A 
ATOM     58  H   UNL A   1      38.852  34.686  32.000  1.00  0.00     0.167 HD
ATOM     59  C   UNL A   1      41.600  33.399  32.322  1.00  0.00     0.074 A 
ATOM     60  C   UNL A   1      40.598  33.059  33.327  1.00  0.00     0.031 C 
ATOM     61  C   UNL A   1      41.494  33.993  31.096  1.00  0.00     0.034 A 
BRANCH  48  62
ATOM     62  C   UNL A   1      36.066  33.241  31.771  1.00  0.00     0.023 A 
ATOM     63  C   UNL A   1      34.923  33.932  31.335  1.00  0.00     0.031 A 
ATOM     64  C   UNL A   1      36.245  33.165  33.172  1.00  0.00     0.131 A 
ATOM     65  C   UNL A   1      34.056  34.541  32.258  1.00  0.00     0.055 A 
ATOM     66  C   UNL A   1      35.339  33.702  34.088  1.00  0.00     0.041 A 
ATOM     67  F   UNL A   1      37.351  32.658  33.733  1.00  0.00    -0.206 F 
ATOM     68  C   UNL A   1      34.248  34.417  33.632  1.00  0.00     0.022 A 
BRANCH  65  69
ATOM     69  S   UNL A   1      32.773  35.655  31.630  1.00  0.00     0.124 S 
ATOM     70  O   UNL A   1      31.654  35.356  32.516  1.00  0.00    -0.237 OA
ATOM     71  O   UNL A   1      33.402  36.960  31.802  1.00  0.00    -0.237 OA
ATOM     72  O   UNL A   1      32.602  35.223  30.245  1.00  0.00    -0.744 OA
ENDBRANCH  65  69
ENDBRANCH  48  62
BRANCH  49  73
ATOM     73  C   UNL A   1      43.243  29.716  34.857  1.00  0.00     0.023 A 
ATOM     74  C   UNL A   1      42.541  28.626  35.400  1.00  0.00     0.031 A 
ATOM     75  C   UNL A   1      44.503  30.013  35.428  1.00  0.00     0.131 A 
ATOM     76  C   UNL A   1      43.093  27.895  36.477  1.00  0.00     0.055 A 
ATOM     77  C   UNL A   1      45.036  29.300  36.501  1.00  0.00     0.041 A 
ATOM     78  F   UNL A   1      45.301  30.960  34.907  1.00  0.00    -0.206 F 
ATOM     79  C   UNL A   1      44.333  28.230  37.029  1.00  0.00     0.022 A 
BRANCH  76  80
ATOM     80  S   UNL A   1      42.237  26.419  37.110  1.00  0.00     0.124 S 
ATOM     81  O   UNL A   1      40.901  26.932  37.386  1.00  0.00    -0.237 OA
ATOM     82  O   UNL A   1      42.357  25.487  35.994  1.00  0.00    -0.237 OA
ATOM     83  O   UNL A   1      43.015  26.057  38.295  1.00  0.00    -0.744 OA
ENDBRANCH  76  80
ENDBRANCH  49  73
BRANCH  61  84
ATOM     84  C   UNL A   1      42.742  34.129  30.246  1.00  0.00     0.023 A 
ATOM     85  C   UNL A   1      43.184  33.159  29.318  1.00  0.00     0.031 A 
ATOM     86  C   UNL A   1      43.426  35.357  30.282  1.00  0.00     0.131 A 
ATOM     87  C   UNL A   1      44.278  33.438  28.476  1.00  0.00     0.055 A 
ATOM     88  C   UNL A   1      44.497  35.636  29.432  1.00  0.00     0.041 A 
ATOM     89  F   UNL A   1      43.033  36.331  31.120  1.00  0.00    -0.206 F 
ATOM     90  C   UNL A   1      44.930  34.675  28.527  1.00  0.00     0.022 A 
BRANCH  87  91
ATOM     91  S   UNL A   1      44.866  32.192  27.284  1.00  0.00     0.124 S 
ATOM     92  O   UNL A   1      43.861  31.138  27.371  1.00  0.00    -0.237 OA
ATOM     93  O   UNL A   1      44.902  32.943  26.032  1.00  0.00    -0.237 OA
ATOM     94  O   UNL A   1      46.184  31.818  27.804  1.00  0.00    -0.744 OA
ENDBRANCH  87  91
ENDBRANCH  61  84
ENDBRANCH  35  36
ENDBRANCH  28  30
ENDBRANCH  27  28
ENDBRANCH  26  27
ENDBRANCH   1  26
TORSDOF 20
ENDMDL
MODEL 2
REMARK VINA RESULT:     -11.5      3.129      8.623
REMARK SMILES O=C(Cn1cnc(-c2ccccc2)c1-c1ccccc1)OCCOCCOC(=O)c1ccc(-c2c3nc(c(-c4cc(S(=O)(=O)[O-])ccc4F)c4ccc([nH]4)c(-c4cc(S(=O)(=O)[O-])ccc4F)c4nc(c(-c5cc(S(=O)(=O)[O-])ccc5F)c5ccc2[nH]5)C=C4)C=C3)cc1
REMARK SMILES IDX 25 1 24 2 23 3 22 4 21 5 2 6 1 7 3 8 4 9 5 10 14 11 6 12
REMARK SMILES IDX 7 13 15 14 16 15 20 16 17 17 19 18 18 19 8 20 9 21 13 22
REMARK SMILES IDX 10 23 12 24 11 25 26 26 27 27 28 28 29 29 30 30 31 31 92 32
REMARK SMILES IDX 32 33 91 34 33 35 34 36 35 37 85 38 36 39 90 40 84 41 86 42
REMARK SMILES IDX 37 43 89 44 83 45 82 46 38 48 70 49 50 50 69 51 51 52 54 53
REMARK SMILES IDX 68 54 87 55 52 56 53 57 67 59 88 60 55 61 39 62 40 63 48 64
REMARK SMILES IDX 41 65 47 66 49 67 46 68 42 69 43 70 44 71 45 72 71 73 72 74
REMARK SMILES IDX 80 75 73 76 79 77 81 78 78 79 74 80 75 81 76 82 77 83 56 84
REMARK SMILES IDX 57 85 65 86 58 87 64 88 66 89 63 90 59 91 60 92 61 93 62 94
REMARK H PARENT 86 47 54 58
REMARK Flexibility Score: inf
ROOT
ATOM      1  C   UNL A   1      31.708  30.490  25.788  1.00  0.00     0.202 C 
ENDROOT
BRANCH   1   2
ATOM      2  O   UNL A   1      32.115  29.448  24.893  1.00  0.00    -0.374 OA
BRANCH   2   3
ATOM      3  C   UNL A   1      31.130  28.812  24.096  1.00  0.00     0.202 C 
BRANCH   3   4
ATOM      4  C   UNL A   1      31.414  28.661  22.601  1.00  0.00     0.261 C 
BRANCH   4   5
ATOM      5  O   UNL A   1      31.645  27.328  22.117  1.00  0.00    -0.462 OA
BRANCH   5   6
ATOM      6  C   UNL A   1      32.811  26.656  22.264  1.00  0.00     0.326 C 
ATOM      7  O   UNL A   1      33.604  26.578  21.325  1.00  0.00    -0.250 OA
BRANCH   6   8
ATOM      8  C   UNL A   1      33.052  25.878  23.521  1.00  0.00     0.246 C 
BRANCH   8   9
ATOM      9  N   UNL A   1      32.579  24.507  23.610  1.00  0.00    -0.319 N 
ATOM     10  C   UNL A   1      31.266  24.203  23.338  1.00  0.00     0.201 A 
ATOM     11  C   UNL A   1      33.225  23.330  23.937  1.00  0.00     0.076 A 
ATOM     12  N   UNL A   1      31.031  22.920  23.432  1.00  0.00    -0.236 NA
ATOM     13  C   UNL A   1      32.226  22.370  23.821  1.00  0.00     0.096 A 
BRANCH  11  14
ATOM     14  C   UNL A   1      34.625  23.199  24.344  1.00  0.00     0.000 A 
ATOM     15  C   UNL A   1      35.605  22.800  23.434  1.00  0.00     0.010 A 
ATOM     16  C   UNL A   1      35.005  23.499  25.661  1.00  0.00     0.010 A 
ATOM     17  C   UNL A   1      36.946  22.738  23.828  1.00  0.00     0.001 A 
ATOM     18  C   UNL A   1      36.342  23.443  26.053  1.00  0.00     0.001 A 
ATOM     19  C   UNL A   1      37.314  23.065  25.133  1.00  0.00     0.000 A 
ENDBRANCH  11  14
BRANCH  13  20
ATOM     20  C   UNL A   1      32.390  20.945  23.999  1.00  0.00     0.002 A 
ATOM     21  C   UNL A   1      32.665  20.448  25.276  1.00  0.00     0.010 A 
ATOM     22  C   UNL A   1      32.278  20.061  22.922  1.00  0.00     0.010 A 
ATOM     23  C   UNL A   1      32.776  19.074  25.484  1.00  0.00     0.001 A 
ATOM     24  C   UNL A   1      32.381  18.685  23.131  1.00  0.00     0.001 A 
ATOM     25  C   UNL A   1      32.623  18.193  24.413  1.00  0.00     0.000 A 
ENDBRANCH  13  20
ENDBRANCH   8   9
ENDBRANCH   6   8
ENDBRANCH   5   6
ENDBRANCH   4   5
ENDBRANCH   3   4
ENDBRANCH   2   3
ENDBRANCH   1   2
BRANCH   1  26
ATOM     26  C   UNL A   1      32.308  30.551  27.187  1.00  0.00     0.261 C 
BRANCH  26  27
ATOM     27  O   UNL A   1      33.376  31.499  27.219  1.00  0.00    -0.460 OA
BRANCH  27  28
ATOM     28  C   UNL A   1      33.099  32.707  27.743  1.00  0.00     0.338 C 
ATOM     29  O   UNL A   1      32.159  33.441  27.448  1.00  0.00    -0.246 OA
BRANCH  28  30
ATOM     30  C   UNL A   1      34.201  33.129  28.611  1.00  0.00     0.060 A 
ATOM     31  C   UNL A   1      35.195  33.861  27.963  1.00  0.00     0.016 A 
ATOM     32  C   UNL A   1      34.437  32.441  29.812  1.00  0.00     0.016 A 
ATOM     33  C   UNL A   1      36.495  33.619  28.323  1.00  0.00     0.010 A 
ATOM     34  C   UNL A   1      35.743  32.196  30.168  1.00  0.00     0.010 A 
ATOM     35  C   UNL A   1      36.747  32.692  29.341  1.00  0.00    -0.014 A 
BRANCH  35  36
ATOM     36  C   UNL A   1      38.113  32.236  29.458  1.00  0.00     0.031 A 
ATOM     37  C   UNL A   1      38.300  30.807  29.174  1.00  0.00     0.074 A 
ATOM     38  C   UNL A   1      39.129  33.048  29.799  1.00  0.00     0.049 A 
ATOM     39  N   UNL A   1      38.650  29.874  29.993  1.00  0.00    -0.248 NA
ATOM     40  C   UNL A   1      37.915  30.340  27.838  1.00  0.00     0.031 C 
ATOM     41  C   UNL A   1      39.152  34.512  29.843  1.00  0.00     0.029 A 
ATOM     42  N   UNL A   1      40.412  32.703  30.086  1.00  0.00    -0.354 N 
ATOM     43  C   UNL A   1      38.711  28.716  29.232  1.00  0.00     0.074 A 
ATOM     44  C   UNL A   1      38.098  29.028  27.967  1.00  0.00     0.031 C 
ATOM     45  C   UNL A   1      40.438  34.927  29.915  1.00  0.00     0.029 A 
ATOM     46  C   UNL A   1      41.301  33.763  30.057  1.00  0.00     0.049 A 
ATOM     47  H   UNL A   1      40.684  31.780  30.295  1.00  0.00     0.167 HD
ATOM     48  C   UNL A   1      39.431  27.637  29.632  1.00  0.00     0.034 A 
ATOM     49  C   UNL A   1      42.653  33.673  30.047  1.00  0.00     0.034 A 
ATOM     50  C   UNL A   1      39.703  27.673  31.048  1.00  0.00     0.049 A 
ATOM     51  C   UNL A   1      43.017  32.347  30.612  1.00  0.00     0.074 A 
ATOM     52  C   UNL A   1      38.908  27.686  32.179  1.00  0.00     0.029 A 
ATOM     53  N   UNL A   1      40.952  28.064  31.471  1.00  0.00    -0.354 N 
ATOM     54  N   UNL A   1      42.801  32.005  31.852  1.00  0.00    -0.248 NA
ATOM     55  C   UNL A   1      43.223  31.235  29.695  1.00  0.00     0.031 C 
ATOM     56  C   UNL A   1      39.587  28.532  33.104  1.00  0.00     0.029 A 
ATOM     57  C   UNL A   1      40.773  28.956  32.502  1.00  0.00     0.049 A 
ATOM     58  H   UNL A   1      41.814  27.763  31.103  1.00  0.00     0.167 HD
ATOM     59  C   UNL A   1      42.435  30.667  31.803  1.00  0.00     0.074 A 
ATOM     60  C   UNL A   1      42.821  30.221  30.469  1.00  0.00     0.031 C 
ATOM     61  C   UNL A   1      41.611  30.117  32.744  1.00  0.00     0.034 A 
BRANCH  48  62
ATOM     62  C   UNL A   1      40.113  26.689  28.682  1.00  0.00     0.023 A 
ATOM     63  C   UNL A   1      41.237  27.155  27.980  1.00  0.00     0.031 A 
ATOM     64  C   UNL A   1      39.579  25.453  28.246  1.00  0.00     0.131 A 
ATOM     65  C   UNL A   1      41.747  26.438  26.884  1.00  0.00     0.055 A 
ATOM     66  C   UNL A   1      40.138  24.705  27.208  1.00  0.00     0.041 A 
ATOM     67  F   UNL A   1      38.435  24.950  28.726  1.00  0.00    -0.206 F 
ATOM     68  C   UNL A   1      41.215  25.209  26.503  1.00  0.00     0.022 A 
BRANCH  65  69
ATOM     69  S   UNL A   1      43.004  27.230  25.847  1.00  0.00     0.124 S 
ATOM     70  O   UNL A   1      43.971  26.153  25.670  1.00  0.00    -0.237 OA
ATOM     71  O   UNL A   1      42.227  27.601  24.669  1.00  0.00    -0.237 OA
ATOM     72  O   UNL A   1      43.462  28.348  26.669  1.00  0.00    -0.744 OA
ENDBRANCH  65  69
ENDBRANCH  48  62
BRANCH  49  73
ATOM     73  C   UNL A   1      43.569  34.513  29.232  1.00  0.00     0.023 A 
ATOM     74  C   UNL A   1      44.128  34.066  28.021  1.00  0.00     0.031 A 
ATOM     75  C   UNL A   1      43.736  35.883  29.544  1.00  0.00     0.131 A 
ATOM     76  C   UNL A   1      44.827  34.969  27.189  1.00  0.00     0.055 A 
ATOM     77  C   UNL A   1      44.442  36.766  28.728  1.00  0.00     0.041 A 
ATOM     78  F   UNL A   1      43.144  36.432  30.618  1.00  0.00    -0.206 F 
ATOM     79  C   UNL A   1      44.988  36.312  27.540  1.00  0.00     0.022 A 
BRANCH  76  80
ATOM     80  S   UNL A   1      45.455  34.418  25.573  1.00  0.00     0.124 S 
ATOM     81  O   UNL A   1      44.277  34.546  24.724  1.00  0.00    -0.237 OA
ATOM     82  O   UNL A   1      46.541  35.360  25.322  1.00  0.00    -0.237 OA
ATOM     83  O   UNL A   1      45.886  33.043  25.826  1.00  0.00    -0.744 OA
ENDBRANCH  76  80
ENDBRANCH  49  73
BRANCH  61  84
ATOM     84  C   UNL A   1      41.350  30.891  34.021  1.00  0.00     0.023 A 
ATOM     85  C   UNL A   1      40.362  31.892  34.159  1.00  0.00     0.031 A 
ATOM     86  C   UNL A   1      42.039  30.491  35.180  1.00  0.00     0.131 A 
ATOM     87  C   UNL A   1      40.103  32.456  35.424  1.00  0.00     0.055 A 
ATOM     88  C   UNL A   1      41.766  31.039  36.433  1.00  0.00     0.041 A 
ATOM     89  F   UNL A   1      42.967  29.521  35.118  1.00  0.00    -0.206 F 
ATOM     90  C   UNL A   1      40.798  32.028  36.560  1.00  0.00     0.022 A 
BRANCH  87  91
ATOM     91  S   UNL A   1      38.841  33.757  35.613  1.00  0.00     0.124 S 
ATOM     92  O   UNL A   1      37.621  33.118  35.135  1.00  0.00    -0.237 OA
ATOM     93  O   UNL A   1      38.897  34.045  37.044  1.00  0.00    -0.237 OA
ATOM     94  O   UNL A   1      39.336  34.838  34.758  1.00  0.00    -0.744 OA
ENDBRANCH  87  91
ENDBRANCH  61  84
ENDBRANCH  35  36
ENDBRANCH  28  30
ENDBRANCH  27  28
ENDBRANCH  26  27
ENDBRANCH   1  26
TORSDOF 20
ENDMDL
MODEL 3
REMARK VINA RESULT:     -11.5      4.244     10.229
REMARK SMILES O=C(Cn1cnc(-c2ccccc2)c1-c1ccccc1)OCCOCCOC(=O)c1ccc(-c2c3nc(c(-c4cc(S(=O)(=O)[O-])ccc4F)c4ccc([nH]4)c(-c4cc(S(=O)(=O)[O-])ccc4F)c4nc(c(-c5cc(S(=O)(=O)[O-])ccc5F)c5ccc2[nH]5)C=C4)C=C3)cc1
REMARK SMILES IDX 25 1 24 2 23 3 22 4 21 5 2 6 1 7 3 8 4 9 5 10 14 11 6 12
REMARK SMILES IDX 7 13 15 14 16 15 20 16 17 17 19 18 18 19 8 20 9 21 13 22
REMARK SMILES IDX 10 23 12 24 11 25 26 26 27 27 28 28 29 29 30 30 31 31 92 32
REMARK SMILES IDX 32 33 91 34 33 35 34 36 35 37 85 38 36 39 90 40 84 41 86 42
REMARK SMILES IDX 37 43 89 44 83 45 82 46 38 48 70 49 50 50 69 51 51 52 54 53
REMARK SMILES IDX 68 54 87 55 52 56 53 57 67 59 88 60 55 61 39 62 40 63 48 64
REMARK SMILES IDX 41 65 47 66 49 67 46 68 42 69 43 70 44 71 45 72 71 73 72 74
REMARK SMILES IDX 80 75 73 76 79 77 81 78 78 79 74 80 75 81 76 82 77 83 56 84
REMARK SMILES IDX 57 85 65 86 58 87 64 88 66 89 63 90 59 91 60 92 61 93 62 94
REMARK H PARENT 86 47 54 58
REMARK Flexibility Score: inf
ROOT
ATOM      1  C   UNL A   1      33.937  30.545  27.924  1.00  0.00     0.202 C 
ENDROOT
BRANCH   1   2
ATOM      2  O   UNL A   1      33.078  30.959  26.856  1.00  0.00    -0.374 OA
BRANCH   2   3
ATOM      3  C   UNL A   1      31.880  30.236  26.627  1.00  0.00     0.202 C 
BRANCH   3   4
ATOM      4  C   UNL A   1      31.612  29.737  25.206  1.00  0.00     0.261 C 
BRANCH   4   5
ATOM      5  O   UNL A   1      32.559  28.807  24.656  1.00  0.00    -0.462 OA
BRANCH   5   6
ATOM      6  C   UNL A   1      32.533  27.472  24.881  1.00  0.00     0.326 C 
ATOM      7  O   UNL A   1      32.250  27.037  25.997  1.00  0.00    -0.250 OA
BRANCH   6   8
ATOM      8  C   UNL A   1      33.009  26.542  23.807  1.00  0.00     0.246 C 
BRANCH   8   9
ATOM      9  N   UNL A   1      32.510  25.178  23.774  1.00  0.00    -0.319 N 
ATOM     10  C   UNL A   1      31.182  24.927  23.519  1.00  0.00     0.201 A 
ATOM     11  C   UNL A   1      33.141  23.963  23.959  1.00  0.00     0.076 A 
ATOM     12  N   UNL A   1      30.924  23.645  23.492  1.00  0.00    -0.236 NA
ATOM     13  C   UNL A   1      32.119  23.038  23.782  1.00  0.00     0.096 A 
BRANCH  11  14
ATOM     14  C   UNL A   1      34.550  23.767  24.302  1.00  0.00     0.000 A 
ATOM     15  C   UNL A   1      35.022  24.030  25.589  1.00  0.00     0.010 A 
ATOM     16  C   UNL A   1      35.449  23.283  23.337  1.00  0.00     0.010 A 
ATOM     17  C   UNL A   1      36.360  23.779  25.912  1.00  0.00     0.001 A 
ATOM     18  C   UNL A   1      36.781  23.028  23.661  1.00  0.00     0.001 A 
ATOM     19  C   UNL A   1      37.235  23.273  24.952  1.00  0.00     0.000 A 
ENDBRANCH  11  14
BRANCH  13  20
ATOM     20  C   UNL A   1      32.258  21.600  23.810  1.00  0.00     0.002 A 
ATOM     21  C   UNL A   1      32.509  20.966  25.031  1.00  0.00     0.010 A 
ATOM     22  C   UNL A   1      32.147  20.836  22.645  1.00  0.00     0.010 A 
ATOM     23  C   UNL A   1      32.596  19.576  25.094  1.00  0.00     0.001 A 
ATOM     24  C   UNL A   1      32.226  19.444  22.709  1.00  0.00     0.001 A 
ATOM     25  C   UNL A   1      32.443  18.816  23.934  1.00  0.00     0.000 A 
ENDBRANCH  13  20
ENDBRANCH   8   9
ENDBRANCH   6   8
ENDBRANCH   5   6
ENDBRANCH   4   5
ENDBRANCH   3   4
ENDBRANCH   2   3
ENDBRANCH   1   2
BRANCH   1  26
ATOM     26  C   UNL A   1      35.093  31.444  28.346  1.00  0.00     0.261 C 
BRANCH  26  27
ATOM     27  O   UNL A   1      36.331  30.889  27.898  1.00  0.00    -0.460 OA
BRANCH  27  28
ATOM     28  C   UNL A   1      37.155  30.405  28.845  1.00  0.00     0.338 C 
ATOM     29  O   UNL A   1      37.373  30.891  29.953  1.00  0.00    -0.246 OA
BRANCH  28  30
ATOM     30  C   UNL A   1      37.926  29.285  28.299  1.00  0.00     0.060 A 
ATOM     31  C   UNL A   1      38.368  28.371  29.254  1.00  0.00     0.016 A 
ATOM     32  C   UNL A   1      38.541  29.417  27.044  1.00  0.00     0.016 A 
ATOM     33  C   UNL A   1      39.624  27.846  29.093  1.00  0.00     0.010 A 
ATOM     34  C   UNL A   1      39.804  28.893  26.887  1.00  0.00     0.010 A 
ATOM     35  C   UNL A   1      40.367  28.220  27.967  1.00  0.00    -0.014 A 
BRANCH  35  36
ATOM     36  C   UNL A   1      41.778  27.907  28.007  1.00  0.00     0.031 A 
ATOM     37  C   UNL A   1      42.126  26.608  27.415  1.00  0.00     0.074 A 
ATOM     38  C   UNL A   1      42.696  28.731  28.541  1.00  0.00     0.049 A 
ATOM     39  N   UNL A   1      42.585  25.562  28.012  1.00  0.00    -0.248 NA
ATOM     40  C   UNL A   1      41.790  26.412  26.001  1.00  0.00     0.031 C 
ATOM     41  C   UNL A   1      42.550  30.141  28.912  1.00  0.00     0.029 A 
ATOM     42  N   UNL A   1      44.011  28.478  28.770  1.00  0.00    -0.354 N 
ATOM     43  C   UNL A   1      42.775  24.618  27.013  1.00  0.00     0.074 A 
ATOM     44  C   UNL A   1      42.123  25.134  25.838  1.00  0.00     0.031 C 
ATOM     45  C   UNL A   1      43.780  30.672  29.100  1.00  0.00     0.029 A 
ATOM     46  C   UNL A   1      44.772  29.612  28.997  1.00  0.00     0.049 A 
ATOM     47  H   UNL A   1      44.388  27.569  28.773  1.00  0.00     0.167 HD
ATOM     48  C   UNL A   1      43.617  23.565  27.176  1.00  0.00     0.034 A 
ATOM     49  C   UNL A   1      46.126  29.680  28.994  1.00  0.00     0.034 A 
ATOM     50  C   UNL A   1      43.891  23.313  28.570  1.00  0.00     0.049 A 
ATOM     51  C   UNL A   1      46.642  28.311  29.256  1.00  0.00     0.074 A 
ATOM     52  C   UNL A   1      43.106  22.982  29.659  1.00  0.00     0.029 A 
ATOM     53  N   UNL A   1      45.089  23.739  29.095  1.00  0.00    -0.354 N 
ATOM     54  N   UNL A   1      46.474  27.678  30.384  1.00  0.00    -0.248 NA
ATOM     55  C   UNL A   1      46.970  27.464  28.119  1.00  0.00     0.031 C 
ATOM     56  C   UNL A   1      43.688  23.671  30.763  1.00  0.00     0.029 A 
ATOM     57  C   UNL A   1      44.814  24.351  30.295  1.00  0.00     0.049 A 
ATOM     58  H   UNL A   1      45.978  23.628  28.687  1.00  0.00     0.167 HD
ATOM     59  C   UNL A   1      46.265  26.352  30.030  1.00  0.00     0.074 A 
ATOM     60  C   UNL A   1      46.691  26.264  28.638  1.00  0.00     0.031 C 
ATOM     61  C   UNL A   1      45.514  25.515  30.807  1.00  0.00     0.034 A 
BRANCH  48  62
ATOM     62  C   UNL A   1      44.398  22.938  26.053  1.00  0.00     0.023 A 
ATOM     63  C   UNL A   1      44.015  21.657  25.619  1.00  0.00     0.031 A 
ATOM     64  C   UNL A   1      45.637  23.413  25.562  1.00  0.00     0.131 A 
ATOM     65  C   UNL A   1      44.857  20.900  24.787  1.00  0.00     0.055 A 
ATOM     66  C   UNL A   1      46.432  22.690  24.671  1.00  0.00     0.041 A 
ATOM     67  F   UNL A   1      46.196  24.552  25.991  1.00  0.00    -0.206 F 
ATOM     68  C   UNL A   1      46.055  21.414  24.297  1.00  0.00     0.022 A 
BRANCH  65  69
ATOM     69  S   UNL A   1      44.446  19.159  24.502  1.00  0.00     0.124 S 
ATOM     70  O   UNL A   1      44.671  19.027  23.067  1.00  0.00    -0.237 OA
ATOM     71  O   UNL A   1      45.402  18.482  25.371  1.00  0.00    -0.237 OA
ATOM     72  O   UNL A   1      43.049  19.070  24.922  1.00  0.00    -0.744 OA
ENDBRANCH  65  69
ENDBRANCH  48  62
BRANCH  49  73
ATOM     73  C   UNL A   1      46.935  30.780  28.406  1.00  0.00     0.023 A 
ATOM     74  C   UNL A   1      46.392  31.724  27.516  1.00  0.00     0.031 A 
ATOM     75  C   UNL A   1      48.234  31.042  28.900  1.00  0.00     0.131 A 
ATOM     76  C   UNL A   1      47.146  32.860  27.145  1.00  0.00     0.055 A 
ATOM     77  C   UNL A   1      48.981  32.155  28.517  1.00  0.00     0.041 A 
ATOM     78  F   UNL A   1      48.794  30.263  29.840  1.00  0.00    -0.206 F 
ATOM     79  C   UNL A   1      48.435  33.076  27.638  1.00  0.00     0.022 A 
BRANCH  76  80
ATOM     80  S   UNL A   1      46.405  34.137  26.081  1.00  0.00     0.124 S 
ATOM     81  O   UNL A   1      47.526  34.519  25.231  1.00  0.00    -0.237 OA
ATOM     82  O   UNL A   1      45.318  33.410  25.433  1.00  0.00    -0.237 OA
ATOM     83  O   UNL A   1      45.974  35.163  27.031  1.00  0.00    -0.744 OA
ENDBRANCH  76  80
ENDBRANCH  49  73
BRANCH  61  84
ATOM     84  C   UNL A   1      45.173  25.949  32.219  1.00  0.00     0.023 A 
ATOM     85  C   UNL A   1      44.006  26.662  32.575  1.00  0.00     0.031 A 
ATOM     86  C   UNL A   1      46.001  25.492  33.261  1.00  0.00     0.131 A 
ATOM     87  C   UNL A   1      43.711  26.897  33.932  1.00  0.00     0.055 A 
ATOM     88  C   UNL A   1      45.694  25.712  34.604  1.00  0.00     0.041 A 
ATOM     89  F   UNL A   1      47.108  24.780  32.988  1.00  0.00    -0.206 F 
ATOM     90  C   UNL A   1      44.548  26.419  34.945  1.00  0.00     0.022 A 
BRANCH  87  91
ATOM     91  S   UNL A   1      42.216  27.827  34.403  1.00  0.00     0.124 S 
ATOM     92  O   UNL A   1      41.231  26.781  34.655  1.00  0.00    -0.237 OA
ATOM     93  O   UNL A   1      42.666  28.578  35.572  1.00  0.00    -0.237 OA
ATOM     94  O   UNL A   1      41.940  28.649  33.224  1.00  0.00    -0.744 OA
ENDBRANCH  87  91
ENDBRANCH  61  84
ENDBRANCH  35  36
ENDBRANCH  28  30
ENDBRANCH  27  28
ENDBRANCH  26  27
ENDBRANCH   1  26
TORSDOF 20
ENDMDL
