MODEL 1
REMARK VINA RESULT:     -11.2      0.000      0.000
REMARK SMILES O=C(OCCOCCOC(=O)[C@@]12CCC(=O)N1c1cc(Cl)ccc1S2)c1ccc(-c2c3nc(c(-c4cc(S(=O)(=O)[O-])ccc4F)c4ccc([nH]4)c(-c4cc(S(=O)(=O)[O-])ccc4F)c4nc(c(-c5cc(S(=O)(=O)[O-])ccc5F)c5ccc2[nH]5)C=C4)C=C3)cc1
REMARK SMILES IDX 4 1 3 2 2 3 1 4 26 5 27 6 88 7 28 8 87 9 29 10 30 11 31 12
REMARK SMILES IDX 81 13 32 14 86 15 80 16 82 17 33 18 85 19 79 20 78 21 34 23
REMARK SMILES IDX 66 24 46 25 65 26 47 27 50 28 64 29 83 30 48 31 49 32 63 34
REMARK SMILES IDX 84 35 51 36 35 37 36 38 44 39 37 40 43 41 45 42 42 43 38 44
REMARK SMILES IDX 39 45 40 46 41 47 67 48 68 49 76 50 69 51 75 52 77 53 74 54
REMARK SMILES IDX 70 55 71 56 72 57 73 58 52 59 53 60 61 61 54 62 60 63 62 64
REMARK SMILES IDX 59 65 55 66 56 67 57 68 58 69 5 70 6 71 7 72 8 73 9 74 10 75
REMARK SMILES IDX 11 76 12 77 13 78 17 79 25 80 14 81 15 82 18 83 24 84 16 85
REMARK SMILES IDX 19 86 23 87 20 88 22 89 21 90
REMARK H PARENT 82 22 50 33
REMARK Flexibility Score: inf
ROOT
ATOM      1  C   UNL A   1      32.094  32.943  26.743  1.00  0.00     0.261 C 
ENDROOT
BRANCH   1   2
ATOM      2  O   UNL A   1      32.147  33.798  27.881  1.00  0.00    -0.460 OA
BRANCH   2   3
ATOM      3  C   UNL A   1      33.244  34.409  28.387  1.00  0.00     0.338 C 
ATOM      4  O   UNL A   1      33.237  35.641  28.407  1.00  0.00    -0.246 OA
BRANCH   3   5
ATOM      5  C   UNL A   1      34.477  33.702  28.882  1.00  0.00     0.060 A 
ATOM      6  C   UNL A   1      34.265  32.718  29.867  1.00  0.00     0.016 A 
ATOM      7  C   UNL A   1      35.802  33.960  28.517  1.00  0.00     0.016 A 
ATOM      8  C   UNL A   1      35.333  32.070  30.494  1.00  0.00     0.010 A 
ATOM      9  C   UNL A   1      36.873  33.333  29.141  1.00  0.00     0.010 A 
ATOM     10  C   UNL A   1      36.641  32.400  30.142  1.00  0.00    -0.014 A 
BRANCH  10  11
ATOM     11  C   UNL A   1      37.809  31.730  30.729  1.00  0.00     0.031 A 
ATOM     12  C   UNL A   1      38.472  30.602  30.007  1.00  0.00     0.074 A 
ATOM     13  C   UNL A   1      38.131  32.059  31.990  1.00  0.00     0.049 A 
ATOM     14  N   UNL A   1      39.507  29.900  30.373  1.00  0.00    -0.248 NA
ATOM     15  C   UNL A   1      37.885  30.190  28.720  1.00  0.00     0.031 C 
ATOM     16  C   UNL A   1      37.423  33.060  32.792  1.00  0.00     0.029 A 
ATOM     17  N   UNL A   1      39.084  31.560  32.833  1.00  0.00    -0.354 N 
ATOM     18  C   UNL A   1      39.723  28.984  29.351  1.00  0.00     0.074 A 
ATOM     19  C   UNL A   1      38.671  29.177  28.378  1.00  0.00     0.031 C 
ATOM     20  C   UNL A   1      37.947  33.077  34.026  1.00  0.00     0.029 A 
ATOM     21  C   UNL A   1      39.026  32.096  34.096  1.00  0.00     0.049 A 
ATOM     22  H   UNL A   1      39.745  30.883  32.562  1.00  0.00     0.167 HD
ATOM     23  C   UNL A   1      40.732  28.089  29.244  1.00  0.00     0.034 A 
ATOM     24  C   UNL A   1      39.768  31.827  35.187  1.00  0.00     0.034 A 
ATOM     25  C   UNL A   1      41.738  27.925  30.263  1.00  0.00     0.049 A 
ATOM     26  C   UNL A   1      40.920  30.871  35.029  1.00  0.00     0.074 A 
ATOM     27  C   UNL A   1      42.868  27.129  30.231  1.00  0.00     0.029 A 
ATOM     28  N   UNL A   1      41.725  28.555  31.500  1.00  0.00    -0.354 N 
ATOM     29  N   UNL A   1      41.237  30.143  33.983  1.00  0.00    -0.248 NA
ATOM     30  C   UNL A   1      41.840  30.730  36.162  1.00  0.00     0.031 C 
ATOM     31  C   UNL A   1      43.501  27.228  31.470  1.00  0.00     0.029 A 
ATOM     32  C   UNL A   1      42.811  28.144  32.253  1.00  0.00     0.049 A 
ATOM     33  H   UNL A   1      41.043  29.200  31.800  1.00  0.00     0.167 HD
ATOM     34  C   UNL A   1      42.409  29.475  34.321  1.00  0.00     0.074 A 
ATOM     35  C   UNL A   1      42.751  29.904  35.663  1.00  0.00     0.031 C 
ATOM     36  C   UNL A   1      43.132  28.592  33.589  1.00  0.00     0.034 A 
BRANCH  23  37
ATOM     37  C   UNL A   1      40.853  27.260  27.990  1.00  0.00     0.023 A 
ATOM     38  C   UNL A   1      40.621  25.871  28.027  1.00  0.00     0.031 A 
ATOM     39  C   UNL A   1      41.362  27.814  26.800  1.00  0.00     0.131 A 
ATOM     40  C   UNL A   1      40.941  25.081  26.915  1.00  0.00     0.055 A 
ATOM     41  C   UNL A   1      41.641  27.027  25.682  1.00  0.00     0.041 A 
ATOM     42  F   UNL A   1      41.607  29.131  26.712  1.00  0.00    -0.206 F 
ATOM     43  C   UNL A   1      41.444  25.652  25.741  1.00  0.00     0.022 A 
BRANCH  40  44
ATOM     44  S   UNL A   1      40.778  23.275  26.968  1.00  0.00     0.124 S 
ATOM     45  O   UNL A   1      39.353  23.092  26.693  1.00  0.00    -0.237 OA
ATOM     46  O   UNL A   1      41.677  22.859  25.894  1.00  0.00    -0.237 OA
ATOM     47  O   UNL A   1      41.198  22.924  28.319  1.00  0.00    -0.744 OA
ENDBRANCH  40  44
ENDBRANCH  23  37
BRANCH  24  48
ATOM     48  C   UNL A   1      39.481  32.579  36.439  1.00  0.00     0.023 A 
ATOM     49  C   UNL A   1      38.613  32.046  37.412  1.00  0.00     0.031 A 
ATOM     50  C   UNL A   1      39.909  33.908  36.590  1.00  0.00     0.131 A 
ATOM     51  C   UNL A   1      38.146  32.863  38.451  1.00  0.00     0.055 A 
ATOM     52  C   UNL A   1      39.492  34.697  37.663  1.00  0.00     0.041 A 
ATOM     53  F   UNL A   1      40.710  34.468  35.671  1.00  0.00    -0.206 F 
ATOM     54  C   UNL A   1      38.589  34.182  38.588  1.00  0.00     0.022 A 
BRANCH  51  55
ATOM     55  S   UNL A   1      36.818  32.297  39.554  1.00  0.00     0.124 S 
ATOM     56  O   UNL A   1      37.104  30.870  39.664  1.00  0.00    -0.237 OA
ATOM     57  O   UNL A   1      37.070  33.086  40.758  1.00  0.00    -0.237 OA
ATOM     58  O   UNL A   1      35.598  32.645  38.833  1.00  0.00    -0.744 OA
ENDBRANCH  51  55
ENDBRANCH  24  48
BRANCH  36  59
ATOM     59  C   UNL A   1      44.375  28.004  34.205  1.00  0.00     0.023 A 
ATOM     60  C   UNL A   1      44.287  26.826  34.969  1.00  0.00     0.031 A 
ATOM     61  C   UNL A   1      45.594  28.701  34.185  1.00  0.00     0.131 A 
ATOM     62  C   UNL A   1      45.386  26.406  35.726  1.00  0.00     0.055 A 
ATOM     63  C   UNL A   1      46.702  28.252  34.904  1.00  0.00     0.041 A 
ATOM     64  F   UNL A   1      45.720  29.835  33.478  1.00  0.00    -0.206 F 
ATOM     65  C   UNL A   1      46.596  27.110  35.692  1.00  0.00     0.022 A 
BRANCH  62  66
ATOM     66  S   UNL A   1      45.258  24.993  36.856  1.00  0.00     0.124 S 
ATOM     67  O   UNL A   1      44.337  25.502  37.870  1.00  0.00    -0.237 OA
ATOM     68  O   UNL A   1      44.718  23.952  35.987  1.00  0.00    -0.237 OA
ATOM     69  O   UNL A   1      46.627  24.783  37.314  1.00  0.00    -0.744 OA
ENDBRANCH  62  66
ENDBRANCH  36  59
ENDBRANCH  10  11
ENDBRANCH   3   5
ENDBRANCH   2   3
ENDBRANCH   1   2
BRANCH   1  70
ATOM     70  C   UNL A   1      32.100  31.473  27.162  1.00  0.00     0.202 C 
BRANCH  70  71
ATOM     71  O   UNL A   1      32.844  30.568  26.353  1.00  0.00    -0.374 OA
BRANCH  71  72
ATOM     72  C   UNL A   1      34.059  30.055  26.914  1.00  0.00     0.202 C 
BRANCH  72  73
ATOM     73  C   UNL A   1      34.239  28.539  26.677  1.00  0.00     0.261 C 
BRANCH  73  74
ATOM     74  O   UNL A   1      33.240  28.134  25.724  1.00  0.00    -0.461 OA
BRANCH  74  75
ATOM     75  C   UNL A   1      33.595  27.848  24.431  1.00  0.00     0.343 C 
ATOM     76  O   UNL A   1      34.345  28.530  23.751  1.00  0.00    -0.248 OA
BRANCH  75  77
ATOM     77  C   UNL A   1      33.047  26.420  24.093  1.00  0.00     0.196 C 
ATOM     78  C   UNL A   1      31.543  26.519  23.732  1.00  0.00     0.063 C 
ATOM     79  N   UNL A   1      33.474  25.601  22.948  1.00  0.00    -0.285 N 
ATOM     80  S   UNL A   1      33.517  25.405  25.563  1.00  0.00    -0.083 SA
ATOM     81  C   UNL A   1      31.599  26.778  22.219  1.00  0.00     0.104 C 
ATOM     82  C   UNL A   1      32.852  26.051  21.782  1.00  0.00     0.228 C 
ATOM     83  C   UNL A   1      33.378  24.195  23.263  1.00  0.00     0.061 A 
ATOM     84  C   UNL A   1      33.323  23.937  24.638  1.00  0.00     0.034 A 
ATOM     85  O   UNL A   1      33.159  25.813  20.631  1.00  0.00    -0.274 OA
ATOM     86  C   UNL A   1      33.008  23.194  22.374  1.00  0.00     0.048 A 
ATOM     87  C   UNL A   1      32.869  22.736  25.162  1.00  0.00     0.019 A 
ATOM     88  C   UNL A   1      32.508  21.992  22.892  1.00  0.00     0.043 A 
ATOM     89  C   UNL A   1      32.430  21.764  24.273  1.00  0.00     0.022 A 
ATOM     90  Cl  UNL A   1      31.860  20.813  21.817  1.00  0.00    -0.084 Cl
ENDBRANCH  75  77
ENDBRANCH  74  75
ENDBRANCH  73  74
ENDBRANCH  72  73
ENDBRANCH  71  72
ENDBRANCH  70  71
ENDBRANCH   1  70
TORSDOF 17
ENDMDL
MODEL 2
REMARK VINA RESULT:     -11.2      2.693      8.416
REMARK SMILES O=C(OCCOCCOC(=O)[C@@]12CCC(=O)N1c1cc(Cl)ccc1S2)c1ccc(-c2c3nc(c(-c4cc(S(=O)(=O)[O-])ccc4F)c4ccc([nH]4)c(-c4cc(S(=O)(=O)[O-])ccc4F)c4nc(c(-c5cc(S(=O)(=O)[O-])ccc5F)c5ccc2[nH]5)C=C4)C=C3)cc1
REMARK SMILES IDX 4 1 3 2 2 3 1 4 26 5 27 6 88 7 28 8 87 9 29 10 30 11 31 12
REMARK SMILES IDX 81 13 32 14 86 15 80 16 82 17 33 18 85 19 79 20 78 21 34 23
REMARK SMILES IDX 66 24 46 25 65 26 47 27 50 28 64 29 83 30 48 31 49 32 63 34
REMARK SMILES IDX 84 35 51 36 35 37 36 38 44 39 37 40 43 41 45 42 42 43 38 44
REMARK SMILES IDX 39 45 40 46 41 47 67 48 68 49 76 50 69 51 75 52 77 53 74 54
REMARK SMILES IDX 70 55 71 56 72 57 73 58 52 59 53 60 61 61 54 62 60 63 62 64
REMARK SMILES IDX 59 65 55 66 56 67 57 68 58 69 5 70 6 71 7 72 8 73 9 74 10 75
REMARK SMILES IDX 11 76 12 77 13 78 17 79 25 80 14 81 15 82 18 83 24 84 16 85
REMARK SMILES IDX 19 86 23 87 20 88 22 89 21 90
REMARK H PARENT 82 22 50 33
REMARK Flexibility Score: inf
ROOT
ATOM      1  C   UNL A   1      32.345  29.484  26.442  1.00  0.00     0.261 C 
ENDROOT
BRANCH   1   2
ATOM      2  O   UNL A   1      33.668  30.013  26.429  1.00  0.00    -0.460 OA
BRANCH   2   3
ATOM      3  C   UNL A   1      34.293  30.662  27.439  1.00  0.00     0.338 C 
ATOM      4  O   UNL A   1      33.801  31.730  27.805  1.00  0.00    -0.246 OA
BRANCH   3   5
ATOM      5  C   UNL A   1      35.560  30.201  28.110  1.00  0.00     0.060 A 
ATOM      6  C   UNL A   1      36.728  30.273  27.327  1.00  0.00     0.016 A 
ATOM      7  C   UNL A   1      35.686  29.656  29.392  1.00  0.00     0.016 A 
ATOM      8  C   UNL A   1      37.948  29.769  27.788  1.00  0.00     0.010 A 
ATOM      9  C   UNL A   1      36.888  29.140  29.857  1.00  0.00     0.010 A 
ATOM     10  C   UNL A   1      38.017  29.179  29.050  1.00  0.00    -0.014 A 
BRANCH  10  11
ATOM     11  C   UNL A   1      39.273  28.668  29.613  1.00  0.00     0.031 A 
ATOM     12  C   UNL A   1      39.956  29.403  30.721  1.00  0.00     0.074 A 
ATOM     13  C   UNL A   1      39.848  27.632  28.982  1.00  0.00     0.049 A 
ATOM     14  N   UNL A   1      41.064  29.098  31.336  1.00  0.00    -0.248 NA
ATOM     15  C   UNL A   1      39.331  30.654  31.184  1.00  0.00     0.031 C 
ATOM     16  C   UNL A   1      39.288  26.965  27.804  1.00  0.00     0.029 A 
ATOM     17  N   UNL A   1      41.040  26.999  29.196  1.00  0.00    -0.354 N 
ATOM     18  C   UNL A   1      41.257  30.096  32.283  1.00  0.00     0.074 A 
ATOM     19  C   UNL A   1      40.185  31.052  32.118  1.00  0.00     0.031 C 
ATOM     20  C   UNL A   1      40.154  26.035  27.378  1.00  0.00     0.029 A 
ATOM     21  C   UNL A   1      41.322  26.039  28.255  1.00  0.00     0.049 A 
ATOM     22  H   UNL A   1      41.638  27.210  29.949  1.00  0.00     0.167 HD
ATOM     23  C   UNL A   1      42.236  30.173  33.213  1.00  0.00     0.034 A 
ATOM     24  C   UNL A   1      42.403  25.247  28.122  1.00  0.00     0.034 A 
ATOM     25  C   UNL A   1      43.296  29.201  33.309  1.00  0.00     0.049 A 
ATOM     26  C   UNL A   1      43.451  25.310  29.199  1.00  0.00     0.074 A 
ATOM     27  C   UNL A   1      44.288  29.107  34.269  1.00  0.00     0.029 A 
ATOM     28  N   UNL A   1      43.510  28.167  32.407  1.00  0.00    -0.354 N 
ATOM     29  N   UNL A   1      43.529  26.140  30.213  1.00  0.00    -0.248 NA
ATOM     30  C   UNL A   1      44.525  24.312  29.153  1.00  0.00     0.031 C 
ATOM     31  C   UNL A   1      45.136  28.059  33.911  1.00  0.00     0.029 A 
ATOM     32  C   UNL A   1      44.635  27.448  32.769  1.00  0.00     0.049 A 
ATOM     33  H   UNL A   1      42.946  27.974  31.624  1.00  0.00     0.167 HD
ATOM     34  C   UNL A   1      44.646  25.751  30.944  1.00  0.00     0.074 A 
ATOM     35  C   UNL A   1      45.199  24.598  30.262  1.00  0.00     0.031 C 
ATOM     36  C   UNL A   1      45.163  26.297  32.073  1.00  0.00     0.034 A 
BRANCH  23  37
ATOM     37  C   UNL A   1      42.201  31.285  34.232  1.00  0.00     0.023 A 
ATOM     38  C   UNL A   1      41.215  31.300  35.238  1.00  0.00     0.031 A 
ATOM     39  C   UNL A   1      43.033  32.412  34.104  1.00  0.00     0.131 A 
ATOM     40  C   UNL A   1      41.058  32.436  36.042  1.00  0.00     0.055 A 
ATOM     41  C   UNL A   1      42.898  33.526  34.935  1.00  0.00     0.041 A 
ATOM     42  F   UNL A   1      43.986  32.453  33.158  1.00  0.00    -0.206 F 
ATOM     43  C   UNL A   1      41.898  33.546  35.900  1.00  0.00     0.022 A 
BRANCH  40  44
ATOM     44  S   UNL A   1      39.720  32.547  37.262  1.00  0.00     0.124 S 
ATOM     45  O   UNL A   1      38.945  31.342  36.970  1.00  0.00    -0.237 OA
ATOM     46  O   UNL A   1      40.457  32.522  38.523  1.00  0.00    -0.237 OA
ATOM     47  O   UNL A   1      39.056  33.804  36.941  1.00  0.00    -0.744 OA
ENDBRANCH  40  44
ENDBRANCH  23  37
BRANCH  24  48
ATOM     48  C   UNL A   1      42.433  24.279  26.990  1.00  0.00     0.023 A 
ATOM     49  C   UNL A   1      41.831  23.012  27.115  1.00  0.00     0.031 A 
ATOM     50  C   UNL A   1      43.223  24.528  25.857  1.00  0.00     0.131 A 
ATOM     51  C   UNL A   1      42.088  22.021  26.158  1.00  0.00     0.055 A 
ATOM     52  C   UNL A   1      43.423  23.559  24.872  1.00  0.00     0.041 A 
ATOM     53  F   UNL A   1      43.842  25.710  25.711  1.00  0.00    -0.206 F 
ATOM     54  C   UNL A   1      42.872  22.291  25.032  1.00  0.00     0.022 A 
BRANCH  51  55
ATOM     55  S   UNL A   1      41.560  20.304  26.430  1.00  0.00     0.124 S 
ATOM     56  O   UNL A   1      42.282  19.596  25.378  1.00  0.00    -0.237 OA
ATOM     57  O   UNL A   1      42.026  20.058  27.792  1.00  0.00    -0.237 OA
ATOM     58  O   UNL A   1      40.110  20.361  26.276  1.00  0.00    -0.744 OA
ENDBRANCH  51  55
ENDBRANCH  24  48
BRANCH  36  59
ATOM     59  C   UNL A   1      46.402  25.674  32.663  1.00  0.00     0.023 A 
ATOM     60  C   UNL A   1      46.285  24.723  33.692  1.00  0.00     0.031 A 
ATOM     61  C   UNL A   1      47.681  26.153  32.335  1.00  0.00     0.131 A 
ATOM     62  C   UNL A   1      47.424  24.316  34.394  1.00  0.00     0.055 A 
ATOM     63  C   UNL A   1      48.820  25.709  33.006  1.00  0.00     0.041 A 
ATOM     64  F   UNL A   1      47.838  27.070  31.367  1.00  0.00    -0.206 F 
ATOM     65  C   UNL A   1      48.693  24.799  34.052  1.00  0.00     0.022 A 
BRANCH  62  66
ATOM     66  S   UNL A   1      47.293  23.224  35.837  1.00  0.00     0.124 S 
ATOM     67  O   UNL A   1      48.478  22.384  35.687  1.00  0.00    -0.237 OA
ATOM     68  O   UNL A   1      47.337  24.174  36.945  1.00  0.00    -0.237 OA
ATOM     69  O   UNL A   1      46.019  22.539  35.646  1.00  0.00    -0.744 OA
ENDBRANCH  62  66
ENDBRANCH  36  59
ENDBRANCH  10  11
ENDBRANCH   3   5
ENDBRANCH   2   3
ENDBRANCH   1   2
BRANCH   1  70
ATOM     70  C   UNL A   1      32.190  28.423  27.531  1.00  0.00     0.202 C 
BRANCH  70  71
ATOM     71  O   UNL A   1      31.162  27.453  27.357  1.00  0.00    -0.374 OA
BRANCH  71  72
ATOM     72  C   UNL A   1      31.194  26.695  26.142  1.00  0.00     0.202 C 
BRANCH  72  73
ATOM     73  C   UNL A   1      31.798  25.285  26.327  1.00  0.00     0.261 C 
BRANCH  73  74
ATOM     74  O   UNL A   1      32.189  24.815  25.024  1.00  0.00    -0.461 OA
BRANCH  74  75
ATOM     75  C   UNL A   1      33.494  24.480  24.773  1.00  0.00     0.343 C 
ATOM     76  O   UNL A   1      34.433  25.257  24.840  1.00  0.00    -0.248 OA
BRANCH  75  77
ATOM     77  C   UNL A   1      33.563  22.924  24.606  1.00  0.00     0.196 C 
ATOM     78  C   UNL A   1      35.045  22.480  24.528  1.00  0.00     0.063 C 
ATOM     79  N   UNL A   1      33.114  21.947  25.610  1.00  0.00    -0.285 N 
ATOM     80  S   UNL A   1      32.481  22.587  23.146  1.00  0.00    -0.083 SA
ATOM     81  C   UNL A   1      35.389  22.266  26.009  1.00  0.00     0.104 C 
ATOM     82  C   UNL A   1      34.075  21.822  26.615  1.00  0.00     0.228 C 
ATOM     83  C   UNL A   1      32.645  20.739  24.971  1.00  0.00     0.061 A 
ATOM     84  C   UNL A   1      32.330  20.913  23.619  1.00  0.00     0.034 A 
ATOM     85  O   UNL A   1      33.941  21.337  27.721  1.00  0.00    -0.274 OA
ATOM     86  C   UNL A   1      32.812  19.451  25.465  1.00  0.00     0.048 A 
ATOM     87  C   UNL A   1      32.219  19.856  22.728  1.00  0.00     0.019 A 
ATOM     88  C   UNL A   1      32.744  18.377  24.567  1.00  0.00     0.043 A 
ATOM     89  C   UNL A   1      32.458  18.574  23.208  1.00  0.00     0.022 A 
ATOM     90  Cl  UNL A   1      33.139  16.793  25.112  1.00  0.00    -0.084 Cl
ENDBRANCH  75  77
ENDBRANCH  74  75
ENDBRANCH  73  74
ENDBRANCH  72  73
ENDBRANCH  71  72
ENDBRANCH  70  71
ENDBRANCH   1  70
TORSDOF 17
ENDMDL
MODEL 3
REMARK VINA RESULT:     -11.1      5.693     11.134
REMARK SMILES O=C(OCCOCCOC(=O)[C@@]12CCC(=O)N1c1cc(Cl)ccc1S2)c1ccc(-c2c3nc(c(-c4cc(S(=O)(=O)[O-])ccc4F)c4ccc([nH]4)c(-c4cc(S(=O)(=O)[O-])ccc4F)c4nc(c(-c5cc(S(=O)(=O)[O-])ccc5F)c5ccc2[nH]5)C=C4)C=C3)cc1
REMARK SMILES IDX 4 1 3 2 2 3 1 4 26 5 27 6 88 7 28 8 87 9 29 10 30 11 31 12
REMARK SMILES IDX 81 13 32 14 86 15 80 16 82 17 33 18 85 19 79 20 78 21 34 23
REMARK SMILES IDX 66 24 46 25 65 26 47 27 50 28 64 29 83 30 48 31 49 32 63 34
REMARK SMILES IDX 84 35 51 36 35 37 36 38 44 39 37 40 43 41 45 42 42 43 38 44
REMARK SMILES IDX 39 45 40 46 41 47 67 48 68 49 76 50 69 51 75 52 77 53 74 54
REMARK SMILES IDX 70 55 71 56 72 57 73 58 52 59 53 60 61 61 54 62 60 63 62 64
REMARK SMILES IDX 59 65 55 66 56 67 57 68 58 69 5 70 6 71 7 72 8 73 9 74 10 75
REMARK SMILES IDX 11 76 12 77 13 78 17 79 25 80 14 81 15 82 18 83 24 84 16 85
REMARK SMILES IDX 19 86 23 87 20 88 22 89 21 90
REMARK H PARENT 82 22 50 33
REMARK Flexibility Score: inf
ROOT
ATOM      1  C   UNL A   1      39.258  19.918  25.973  1.00  0.00     0.261 C 
ENDROOT
BRANCH   1   2
ATOM      2  O   UNL A   1      40.457  19.175  25.773  1.00  0.00    -0.460 OA
BRANCH   2   3
ATOM      3  C   UNL A   1      41.714  19.557  26.095  1.00  0.00     0.338 C 
ATOM      4  O   UNL A   1      42.554  18.664  26.222  1.00  0.00    -0.246 OA
BRANCH   3   5
ATOM      5  C   UNL A   1      42.147  20.976  26.353  1.00  0.00     0.060 A 
ATOM      6  C   UNL A   1      42.315  21.328  27.706  1.00  0.00     0.016 A 
ATOM      7  C   UNL A   1      42.337  21.986  25.405  1.00  0.00     0.016 A 
ATOM      8  C   UNL A   1      42.600  22.642  28.088  1.00  0.00     0.010 A 
ATOM      9  C   UNL A   1      42.608  23.298  25.772  1.00  0.00     0.010 A 
ATOM     10  C   UNL A   1      42.722  23.632  27.114  1.00  0.00    -0.014 A 
BRANCH  10  11
ATOM     11  C   UNL A   1      43.062  25.023  27.441  1.00  0.00     0.031 A 
ATOM     12  C   UNL A   1      42.017  25.950  27.972  1.00  0.00     0.074 A 
ATOM     13  C   UNL A   1      44.284  25.452  27.084  1.00  0.00     0.049 A 
ATOM     14  N   UNL A   1      42.139  27.202  28.313  1.00  0.00    -0.248 NA
ATOM     15  C   UNL A   1      40.653  25.412  28.117  1.00  0.00     0.031 C 
ATOM     16  C   UNL A   1      45.297  24.619  26.432  1.00  0.00     0.029 A 
ATOM     17  N   UNL A   1      44.859  26.689  27.161  1.00  0.00    -0.354 N 
ATOM     18  C   UNL A   1      40.880  27.599  28.746  1.00  0.00     0.074 A 
ATOM     19  C   UNL A   1      39.992  26.473  28.564  1.00  0.00     0.031 C 
ATOM     20  C   UNL A   1      46.360  25.380  26.138  1.00  0.00     0.029 A 
ATOM     21  C   UNL A   1      46.104  26.747  26.585  1.00  0.00     0.049 A 
ATOM     22  H   UNL A   1      44.424  27.463  27.587  1.00  0.00     0.167 HD
ATOM     23  C   UNL A   1      40.527  28.796  29.269  1.00  0.00     0.034 A 
ATOM     24  C   UNL A   1      46.945  27.788  26.441  1.00  0.00     0.034 A 
ATOM     25  C   UNL A   1      41.452  29.892  29.399  1.00  0.00     0.049 A 
ATOM     26  C   UNL A   1      46.556  29.093  27.080  1.00  0.00     0.074 A 
ATOM     27  C   UNL A   1      41.249  31.118  30.005  1.00  0.00     0.029 A 
ATOM     28  N   UNL A   1      42.750  29.899  28.903  1.00  0.00    -0.354 N 
ATOM     29  N   UNL A   1      45.424  29.409  27.665  1.00  0.00    -0.248 NA
ATOM     30  C   UNL A   1      47.558  30.165  27.089  1.00  0.00     0.031 C 
ATOM     31  C   UNL A   1      42.397  31.888  29.818  1.00  0.00     0.029 A 
ATOM     32  C   UNL A   1      43.349  31.119  29.162  1.00  0.00     0.049 A 
ATOM     33  H   UNL A   1      43.180  29.147  28.435  1.00  0.00     0.167 HD
ATOM     34  C   UNL A   1      45.583  30.707  28.137  1.00  0.00     0.074 A 
ATOM     35  C   UNL A   1      46.931  31.108  27.783  1.00  0.00     0.031 C 
ATOM     36  C   UNL A   1      44.698  31.491  28.801  1.00  0.00     0.034 A 
BRANCH  23  37
ATOM     37  C   UNL A   1      39.124  28.988  29.790  1.00  0.00     0.023 A 
ATOM     38  C   UNL A   1      38.164  29.672  29.020  1.00  0.00     0.031 A 
ATOM     39  C   UNL A   1      38.789  28.646  31.114  1.00  0.00     0.131 A 
ATOM     40  C   UNL A   1      36.937  30.031  29.593  1.00  0.00     0.055 A 
ATOM     41  C   UNL A   1      37.549  28.971  31.667  1.00  0.00     0.041 A 
ATOM     42  F   UNL A   1      39.669  27.998  31.894  1.00  0.00    -0.206 F 
ATOM     43  C   UNL A   1      36.623  29.679  30.910  1.00  0.00     0.022 A 
BRANCH  40  44
ATOM     44  S   UNL A   1      35.725  31.023  28.677  1.00  0.00     0.124 S 
ATOM     45  O   UNL A   1      35.062  30.010  27.859  1.00  0.00    -0.237 OA
ATOM     46  O   UNL A   1      34.914  31.582  29.756  1.00  0.00    -0.237 OA
ATOM     47  O   UNL A   1      36.542  31.979  27.938  1.00  0.00    -0.744 OA
ENDBRANCH  40  44
ENDBRANCH  23  37
BRANCH  24  48
ATOM     48  C   UNL A   1      48.253  27.551  25.769  1.00  0.00     0.023 A 
ATOM     49  C   UNL A   1      48.399  27.771  24.386  1.00  0.00     0.031 A 
ATOM     50  C   UNL A   1      49.305  26.923  26.454  1.00  0.00     0.131 A 
ATOM     51  C   UNL A   1      49.540  27.301  23.722  1.00  0.00     0.055 A 
ATOM     52  C   UNL A   1      50.469  26.514  25.800  1.00  0.00     0.041 A 
ATOM     53  F   UNL A   1      49.198  26.663  27.766  1.00  0.00    -0.206 F 
ATOM     54  C   UNL A   1      50.580  26.684  24.423  1.00  0.00     0.022 A 
BRANCH  51  55
ATOM     55  S   UNL A   1      49.634  27.318  21.908  1.00  0.00     0.124 S 
ATOM     56  O   UNL A   1      51.028  26.955  21.674  1.00  0.00    -0.237 OA
ATOM     57  O   UNL A   1      48.648  26.303  21.545  1.00  0.00    -0.237 OA
ATOM     58  O   UNL A   1      49.268  28.686  21.556  1.00  0.00    -0.744 OA
ENDBRANCH  51  55
ENDBRANCH  24  48
BRANCH  36  59
ATOM     59  C   UNL A   1      45.132  32.880  29.195  1.00  0.00     0.023 A 
ATOM     60  C   UNL A   1      45.142  33.908  28.236  1.00  0.00     0.031 A 
ATOM     61  C   UNL A   1      45.697  33.132  30.456  1.00  0.00     0.131 A 
ATOM     62  C   UNL A   1      45.754  35.130  28.535  1.00  0.00     0.055 A 
ATOM     63  C   UNL A   1      46.263  34.368  30.766  1.00  0.00     0.041 A 
ATOM     64  F   UNL A   1      45.718  32.175  31.398  1.00  0.00    -0.206 F 
ATOM     65  C   UNL A   1      46.309  35.368  29.798  1.00  0.00     0.022 A 
BRANCH  62  66
ATOM     66  S   UNL A   1      45.941  36.417  27.271  1.00  0.00     0.124 S 
ATOM     67  O   UNL A   1      47.393  36.491  27.130  1.00  0.00    -0.237 OA
ATOM     68  O   UNL A   1      45.233  35.836  26.134  1.00  0.00    -0.237 OA
ATOM     69  O   UNL A   1      45.315  37.591  27.868  1.00  0.00    -0.744 OA
ENDBRANCH  62  66
ENDBRANCH  36  59
ENDBRANCH  10  11
ENDBRANCH   3   5
ENDBRANCH   2   3
ENDBRANCH   1   2
BRANCH   1  70
ATOM     70  C   UNL A   1      38.172  19.482  24.990  1.00  0.00     0.202 C 
BRANCH  70  71
ATOM     71  O   UNL A   1      37.331  20.498  24.454  1.00  0.00    -0.374 OA
BRANCH  71  72
ATOM     72  C   UNL A   1      36.901  21.520  25.361  1.00  0.00     0.202 C 
BRANCH  72  73
ATOM     73  C   UNL A   1      35.423  21.371  25.783  1.00  0.00     0.261 C 
BRANCH  73  74
ATOM     74  O   UNL A   1      34.920  22.692  26.051  1.00  0.00    -0.461 OA
BRANCH  74  75
ATOM     75  C   UNL A   1      33.795  22.862  26.815  1.00  0.00     0.343 C 
ATOM     76  O   UNL A   1      33.715  22.583  28.001  1.00  0.00    -0.248 OA
BRANCH  75  77
ATOM     77  C   UNL A   1      32.751  23.654  25.957  1.00  0.00     0.196 C 
ATOM     78  C   UNL A   1      32.043  22.680  24.982  1.00  0.00     0.063 C 
ATOM     79  N   UNL A   1      31.550  24.315  26.489  1.00  0.00    -0.285 N 
ATOM     80  S   UNL A   1      33.735  25.040  25.232  1.00  0.00    -0.083 SA
ATOM     81  C   UNL A   1      30.863  22.186  25.832  1.00  0.00     0.104 C 
ATOM     82  C   UNL A   1      30.550  23.369  26.723  1.00  0.00     0.228 C 
ATOM     83  C   UNL A   1      31.210  25.471  25.693  1.00  0.00     0.061 A 
ATOM     84  C   UNL A   1      32.271  25.936  24.907  1.00  0.00     0.034 A 
ATOM     85  O   UNL A   1      29.548  23.491  27.400  1.00  0.00    -0.274 OA
ATOM     86  C   UNL A   1      29.920  25.899  25.403  1.00  0.00     0.048 A 
ATOM     87  C   UNL A   1      32.093  26.773  23.817  1.00  0.00     0.019 A 
ATOM     88  C   UNL A   1      29.722  26.711  24.279  1.00  0.00     0.043 A 
ATOM     89  C   UNL A   1      30.795  27.141  23.486  1.00  0.00     0.022 A 
ATOM     90  Cl  UNL A   1      28.117  27.094  23.786  1.00  0.00    -0.084 Cl
ENDBRANCH  75  77
ENDBRANCH  74  75
ENDBRANCH  73  74
ENDBRANCH  72  73
ENDBRANCH  71  72
ENDBRANCH  70  71
ENDBRANCH   1  70
TORSDOF 17
ENDMDL
