MODEL 1
REMARK VINA RESULT:     -10.2      0.000      0.000
REMARK SMILES CCn1ccnc1[C@H](F)C(=O)OCCOCCOC(=O)c1ccc(-c2c3nc(c(-c4cc(S(=O)(=O)[O-])ccc4F)c4ccc([nH]4)c(-c4cc(S(=O)(=O)[O-])ccc4F)c4nc(c(-c5cc(S(=O)(=O)[O-])ccc5F)c5ccc2[nH]5)C=C4)C=C3)cc1
REMARK SMILES IDX 16 1 15 2 14 3 13 4 12 5 10 6 11 7 8 8 9 9 7 10 3 11 4 12
REMARK SMILES IDX 5 13 6 14 2 15 1 16 17 17 18 18 19 19 20 20 21 21 22 22
REMARK SMILES IDX 83 23 23 24 82 25 24 26 25 27 26 28 76 29 27 30 81 31 75 32
REMARK SMILES IDX 77 33 28 34 80 35 74 36 73 37 29 39 61 40 41 41 60 42 42 43
REMARK SMILES IDX 45 44 59 45 78 46 43 47 44 48 58 50 79 51 46 52 30 53 31 54
REMARK SMILES IDX 39 55 32 56 38 57 40 58 37 59 33 60 34 61 35 62 36 63 62 64
REMARK SMILES IDX 63 65 71 66 64 67 70 68 72 69 69 70 65 71 66 72 67 73 68 74
REMARK SMILES IDX 47 75 48 76 56 77 49 78 55 79 57 80 54 81 50 82 51 83 52 84
REMARK SMILES IDX 53 85
REMARK H PARENT 77 38 45 49
REMARK Flexibility Score: inf
ROOT
ATOM      1  C   UNL A   1      34.972  31.112  27.727  1.00  0.00     0.202 C 
ENDROOT
BRANCH   1   2
ATOM      2  O   UNL A   1      33.637  31.497  27.409  1.00  0.00    -0.374 OA
BRANCH   2   3
ATOM      3  C   UNL A   1      32.650  30.518  27.080  1.00  0.00     0.202 C 
BRANCH   3   4
ATOM      4  C   UNL A   1      33.020  29.048  27.251  1.00  0.00     0.261 C 
BRANCH   4   5
ATOM      5  O   UNL A   1      31.851  28.223  27.214  1.00  0.00    -0.461 OA
BRANCH   5   6
ATOM      6  C   UNL A   1      32.007  27.010  26.622  1.00  0.00     0.348 C 
ATOM      7  O   UNL A   1      31.284  26.036  26.816  1.00  0.00    -0.248 OA
BRANCH   6   8
ATOM      8  C   UNL A   1      33.145  27.015  25.617  1.00  0.00     0.341 C 
ATOM      9  F   UNL A   1      34.197  26.219  25.982  1.00  0.00    -0.226 F 
BRANCH   8  10
ATOM     10  C   UNL A   1      32.558  26.596  24.315  1.00  0.00     0.155 A 
ATOM     11  N   UNL A   1      31.887  27.455  23.464  1.00  0.00    -0.332 N 
ATOM     12  C   UNL A   1      31.366  26.692  22.454  1.00  0.00     0.107 A 
ATOM     13  C   UNL A   1      31.772  25.407  22.713  1.00  0.00     0.131 A 
ATOM     14  N   UNL A   1      32.512  25.359  23.857  1.00  0.00    -0.238 NA
BRANCH  11  15
ATOM     15  C   UNL A   1      31.777  28.895  23.620  1.00  0.00     0.120 C 
ATOM     16  C   UNL A   1      30.376  29.438  23.849  1.00  0.00     0.027 C 
ENDBRANCH  11  15
ENDBRANCH   8  10
ENDBRANCH   6   8
ENDBRANCH   5   6
ENDBRANCH   4   5
ENDBRANCH   3   4
ENDBRANCH   2   3
ENDBRANCH   1   2
BRANCH   1  17
ATOM     17  C   UNL A   1      35.578  31.537  29.056  1.00  0.00     0.261 C 
BRANCH  17  18
ATOM     18  O   UNL A   1      36.862  30.975  29.259  1.00  0.00    -0.460 OA
BRANCH  18  19
ATOM     19  C   UNL A   1      36.826  29.774  29.887  1.00  0.00     0.338 C 
ATOM     20  O   UNL A   1      36.218  29.497  30.901  1.00  0.00    -0.246 OA
BRANCH  19  21
ATOM     21  C   UNL A   1      37.792  28.887  29.239  1.00  0.00     0.060 A 
ATOM     22  C   UNL A   1      38.312  27.881  30.054  1.00  0.00     0.016 A 
ATOM     23  C   UNL A   1      38.425  29.311  28.062  1.00  0.00     0.016 A 
ATOM     24  C   UNL A   1      39.612  27.498  29.844  1.00  0.00     0.010 A 
ATOM     25  C   UNL A   1      39.733  28.954  27.875  1.00  0.00     0.010 A 
ATOM     26  C   UNL A   1      40.331  28.123  28.821  1.00  0.00    -0.014 A 
BRANCH  26  27
ATOM     27  C   UNL A   1      41.713  27.746  28.635  1.00  0.00     0.031 A 
ATOM     28  C   UNL A   1      41.810  26.425  27.977  1.00  0.00     0.074 A 
ATOM     29  C   UNL A   1      42.729  28.582  28.925  1.00  0.00     0.049 A 
ATOM     30  N   UNL A   1      42.244  25.324  28.491  1.00  0.00    -0.248 NA
ATOM     31  C   UNL A   1      41.105  26.244  26.692  1.00  0.00     0.031 C 
ATOM     32  C   UNL A   1      42.657  29.976  29.365  1.00  0.00     0.029 A 
ATOM     33  N   UNL A   1      44.065  28.386  28.781  1.00  0.00    -0.354 N 
ATOM     34  C   UNL A   1      42.121  24.382  27.479  1.00  0.00     0.074 A 
ATOM     35  C   UNL A   1      41.188  24.924  26.535  1.00  0.00     0.031 C 
ATOM     36  C   UNL A   1      43.870  30.557  29.205  1.00  0.00     0.029 A 
ATOM     37  C   UNL A   1      44.824  29.554  28.756  1.00  0.00     0.049 A 
ATOM     38  H   UNL A   1      44.465  27.490  28.700  1.00  0.00     0.167 HD
ATOM     39  C   UNL A   1      43.044  23.396  27.344  1.00  0.00     0.034 A 
ATOM     40  C   UNL A   1      46.106  29.683  28.308  1.00  0.00     0.034 A 
ATOM     41  C   UNL A   1      43.771  23.205  28.580  1.00  0.00     0.049 A 
ATOM     42  C   UNL A   1      46.696  28.316  28.319  1.00  0.00     0.074 A 
ATOM     43  C   UNL A   1      43.391  22.902  29.874  1.00  0.00     0.029 A 
ATOM     44  N   UNL A   1      45.039  23.741  28.679  1.00  0.00    -0.354 N 
ATOM     45  N   UNL A   1      46.910  27.643  29.418  1.00  0.00    -0.248 NA
ATOM     46  C   UNL A   1      46.540  27.499  27.120  1.00  0.00     0.031 C 
ATOM     47  C   UNL A   1      44.219  23.718  30.701  1.00  0.00     0.029 A 
ATOM     48  C   UNL A   1      45.127  24.394  29.885  1.00  0.00     0.049 A 
ATOM     49  H   UNL A   1      45.753  23.667  28.005  1.00  0.00     0.167 HD
ATOM     50  C   UNL A   1      46.479  26.353  29.142  1.00  0.00     0.074 A 
ATOM     51  C   UNL A   1      46.341  26.303  27.686  1.00  0.00     0.031 C 
ATOM     52  C   UNL A   1      45.978  25.546  30.127  1.00  0.00     0.034 A 
BRANCH  39  53
ATOM     53  C   UNL A   1      43.567  22.925  26.005  1.00  0.00     0.023 A 
ATOM     54  C   UNL A   1      43.564  21.538  25.784  1.00  0.00     0.031 A 
ATOM     55  C   UNL A   1      44.326  23.691  25.084  1.00  0.00     0.131 A 
ATOM     56  C   UNL A   1      44.372  20.965  24.787  1.00  0.00     0.055 A 
ATOM     57  C   UNL A   1      45.073  23.120  24.052  1.00  0.00     0.041 A 
ATOM     58  F   UNL A   1      44.469  25.016  25.170  1.00  0.00    -0.206 F 
ATOM     59  C   UNL A   1      45.129  21.747  23.921  1.00  0.00     0.022 A 
BRANCH  56  60
ATOM     60  S   UNL A   1      44.557  19.168  24.777  1.00  0.00     0.124 S 
ATOM     61  O   UNL A   1      44.945  18.924  23.391  1.00  0.00    -0.237 OA
ATOM     62  O   UNL A   1      45.596  18.969  25.782  1.00  0.00    -0.237 OA
ATOM     63  O   UNL A   1      43.228  18.690  25.149  1.00  0.00    -0.744 OA
ENDBRANCH  56  60
ENDBRANCH  39  53
BRANCH  40  64
ATOM     64  C   UNL A   1      46.691  30.832  27.546  1.00  0.00     0.023 A 
ATOM     65  C   UNL A   1      45.921  31.901  27.026  1.00  0.00     0.031 A 
ATOM     66  C   UNL A   1      48.094  31.007  27.520  1.00  0.00     0.131 A 
ATOM     67  C   UNL A   1      46.558  33.061  26.509  1.00  0.00     0.055 A 
ATOM     68  C   UNL A   1      48.715  32.148  27.008  1.00  0.00     0.041 A 
ATOM     69  F   UNL A   1      48.920  30.105  28.073  1.00  0.00    -0.206 F 
ATOM     70  C   UNL A   1      47.949  33.186  26.508  1.00  0.00     0.022 A 
BRANCH  67  71
ATOM     71  S   UNL A   1      45.584  34.479  25.895  1.00  0.00     0.124 S 
ATOM     72  O   UNL A   1      46.284  35.617  26.479  1.00  0.00    -0.237 OA
ATOM     73  O   UNL A   1      45.684  34.328  24.448  1.00  0.00    -0.237 OA
ATOM     74  O   UNL A   1      44.246  34.238  26.440  1.00  0.00    -0.744 OA
ENDBRANCH  67  71
ENDBRANCH  40  64
BRANCH  52  75
ATOM     75  C   UNL A   1      46.153  25.975  31.573  1.00  0.00     0.023 A 
ATOM     76  C   UNL A   1      45.119  26.443  32.420  1.00  0.00     0.031 A 
ATOM     77  C   UNL A   1      47.421  25.774  32.147  1.00  0.00     0.131 A 
ATOM     78  C   UNL A   1      45.385  26.698  33.782  1.00  0.00     0.055 A 
ATOM     79  C   UNL A   1      47.672  26.002  33.498  1.00  0.00     0.041 A 
ATOM     80  F   UNL A   1      48.438  25.309  31.403  1.00  0.00    -0.206 F 
ATOM     81  C   UNL A   1      46.656  26.471  34.321  1.00  0.00     0.022 A 
BRANCH  78  82
ATOM     82  S   UNL A   1      44.088  27.354  34.885  1.00  0.00     0.124 S 
ATOM     83  O   UNL A   1      43.982  28.754  34.491  1.00  0.00    -0.237 OA
ATOM     84  O   UNL A   1      42.942  26.509  34.563  1.00  0.00    -0.237 OA
ATOM     85  O   UNL A   1      44.641  27.141  36.225  1.00  0.00    -0.744 OA
ENDBRANCH  78  82
ENDBRANCH  52  75
ENDBRANCH  26  27
ENDBRANCH  19  21
ENDBRANCH  18  19
ENDBRANCH  17  18
ENDBRANCH   1  17
TORSDOF 19
ENDMDL
MODEL 2
REMARK VINA RESULT:     -10.2      4.634      6.200
REMARK SMILES CCn1ccnc1[C@H](F)C(=O)OCCOCCOC(=O)c1ccc(-c2c3nc(c(-c4cc(S(=O)(=O)[O-])ccc4F)c4ccc([nH]4)c(-c4cc(S(=O)(=O)[O-])ccc4F)c4nc(c(-c5cc(S(=O)(=O)[O-])ccc5F)c5ccc2[nH]5)C=C4)C=C3)cc1
REMARK SMILES IDX 16 1 15 2 14 3 13 4 12 5 10 6 11 7 8 8 9 9 7 10 3 11 4 12
REMARK SMILES IDX 5 13 6 14 2 15 1 16 17 17 18 18 19 19 20 20 21 21 22 22
REMARK SMILES IDX 83 23 23 24 82 25 24 26 25 27 26 28 76 29 27 30 81 31 75 32
REMARK SMILES IDX 77 33 28 34 80 35 74 36 73 37 29 39 61 40 41 41 60 42 42 43
REMARK SMILES IDX 45 44 59 45 78 46 43 47 44 48 58 50 79 51 46 52 30 53 31 54
REMARK SMILES IDX 39 55 32 56 38 57 40 58 37 59 33 60 34 61 35 62 36 63 62 64
REMARK SMILES IDX 63 65 71 66 64 67 70 68 72 69 69 70 65 71 66 72 67 73 68 74
REMARK SMILES IDX 47 75 48 76 56 77 49 78 55 79 57 80 54 81 50 82 51 83 52 84
REMARK SMILES IDX 53 85
REMARK H PARENT 77 38 45 49
REMARK Flexibility Score: inf
ROOT
ATOM      1  C   UNL A   1      31.848  30.316  25.953  1.00  0.00     0.202 C 
ENDROOT
BRANCH   1   2
ATOM      2  O   UNL A   1      32.551  29.249  26.583  1.00  0.00    -0.374 OA
BRANCH   2   3
ATOM      3  C   UNL A   1      32.758  28.008  25.908  1.00  0.00     0.202 C 
BRANCH   3   4
ATOM      4  C   UNL A   1      32.573  26.722  26.708  1.00  0.00     0.261 C 
BRANCH   4   5
ATOM      5  O   UNL A   1      31.440  25.987  26.233  1.00  0.00    -0.461 OA
BRANCH   5   6
ATOM      6  C   UNL A   1      31.535  24.635  26.330  1.00  0.00     0.348 C 
ATOM      7  O   UNL A   1      31.155  23.972  27.292  1.00  0.00    -0.248 OA
BRANCH   6   8
ATOM      8  C   UNL A   1      32.099  24.017  25.063  1.00  0.00     0.341 C 
ATOM      9  F   UNL A   1      32.411  24.938  24.100  1.00  0.00    -0.226 F 
BRANCH   8  10
ATOM     10  C   UNL A   1      33.288  23.222  25.477  1.00  0.00     0.155 A 
ATOM     11  N   UNL A   1      33.289  21.845  25.590  1.00  0.00    -0.332 N 
ATOM     12  C   UNL A   1      34.494  21.488  26.131  1.00  0.00     0.107 A 
ATOM     13  C   UNL A   1      35.190  22.659  26.290  1.00  0.00     0.131 A 
ATOM     14  N   UNL A   1      34.443  23.721  25.877  1.00  0.00    -0.238 NA
BRANCH  11  15
ATOM     15  C   UNL A   1      32.209  20.956  25.194  1.00  0.00     0.120 C 
ATOM     16  C   UNL A   1      32.567  19.875  24.188  1.00  0.00     0.027 C 
ENDBRANCH  11  15
ENDBRANCH   8  10
ENDBRANCH   6   8
ENDBRANCH   5   6
ENDBRANCH   4   5
ENDBRANCH   3   4
ENDBRANCH   2   3
ENDBRANCH   1   2
BRANCH   1  17
ATOM     17  C   UNL A   1      31.777  31.674  26.636  1.00  0.00     0.261 C 
BRANCH  17  18
ATOM     18  O   UNL A   1      32.951  31.961  27.374  1.00  0.00    -0.460 OA
BRANCH  18  19
ATOM     19  C   UNL A   1      32.963  33.212  27.894  1.00  0.00     0.338 C 
ATOM     20  O   UNL A   1      32.146  34.090  27.707  1.00  0.00    -0.246 OA
BRANCH  19  21
ATOM     21  C   UNL A   1      34.233  33.406  28.596  1.00  0.00     0.060 A 
ATOM     22  C   UNL A   1      35.296  33.817  27.791  1.00  0.00     0.016 A 
ATOM     23  C   UNL A   1      34.418  32.807  29.849  1.00  0.00     0.016 A 
ATOM     24  C   UNL A   1      36.552  33.368  28.116  1.00  0.00     0.010 A 
ATOM     25  C   UNL A   1      35.664  32.330  30.152  1.00  0.00     0.010 A 
ATOM     26  C   UNL A   1      36.692  32.542  29.235  1.00  0.00    -0.014 A 
BRANCH  26  27
ATOM     27  C   UNL A   1      38.009  32.036  29.543  1.00  0.00     0.031 A 
ATOM     28  C   UNL A   1      38.106  30.596  29.218  1.00  0.00     0.074 A 
ATOM     29  C   UNL A   1      39.009  32.842  29.949  1.00  0.00     0.049 A 
ATOM     30  N   UNL A   1      38.232  29.614  30.044  1.00  0.00    -0.248 NA
ATOM     31  C   UNL A   1      37.761  30.178  27.845  1.00  0.00     0.031 C 
ATOM     32  C   UNL A   1      39.006  34.302  30.062  1.00  0.00     0.029 A 
ATOM     33  N   UNL A   1      40.296  32.525  30.248  1.00  0.00    -0.354 N 
ATOM     34  C   UNL A   1      38.266  28.477  29.249  1.00  0.00     0.074 A 
ATOM     35  C   UNL A   1      37.706  28.854  27.983  1.00  0.00     0.031 C 
ATOM     36  C   UNL A   1      40.283  34.744  30.157  1.00  0.00     0.029 A 
ATOM     37  C   UNL A   1      41.181  33.601  30.217  1.00  0.00     0.049 A 
ATOM     38  H   UNL A   1      40.580  31.609  30.467  1.00  0.00     0.167 HD
ATOM     39  C   UNL A   1      39.052  27.424  29.589  1.00  0.00     0.034 A 
ATOM     40  C   UNL A   1      42.541  33.534  30.151  1.00  0.00     0.034 A 
ATOM     41  C   UNL A   1      39.382  27.468  30.998  1.00  0.00     0.049 A 
ATOM     42  C   UNL A   1      42.919  32.167  30.606  1.00  0.00     0.074 A 
ATOM     43  C   UNL A   1      38.626  27.496  32.155  1.00  0.00     0.029 A 
ATOM     44  N   UNL A   1      40.633  27.922  31.358  1.00  0.00    -0.354 N 
ATOM     45  N   UNL A   1      42.734  31.749  31.830  1.00  0.00    -0.248 NA
ATOM     46  C   UNL A   1      42.989  31.112  29.601  1.00  0.00     0.031 C 
ATOM     47  C   UNL A   1      39.297  28.418  33.011  1.00  0.00     0.029 A 
ATOM     48  C   UNL A   1      40.476  28.825  32.382  1.00  0.00     0.049 A 
ATOM     49  H   UNL A   1      41.488  27.647  30.953  1.00  0.00     0.167 HD
ATOM     50  C   UNL A   1      42.226  30.463  31.699  1.00  0.00     0.074 A 
ATOM     51  C   UNL A   1      42.486  30.093  30.308  1.00  0.00     0.031 C 
ATOM     52  C   UNL A   1      41.374  29.940  32.632  1.00  0.00     0.034 A 
BRANCH  39  53
ATOM     53  C   UNL A   1      39.853  26.625  28.586  1.00  0.00     0.023 A 
ATOM     54  C   UNL A   1      40.970  27.264  28.024  1.00  0.00     0.031 A 
ATOM     55  C   UNL A   1      39.437  25.435  27.937  1.00  0.00     0.131 A 
ATOM     56  C   UNL A   1      41.536  26.804  26.824  1.00  0.00     0.055 A 
ATOM     57  C   UNL A   1      40.048  24.944  26.782  1.00  0.00     0.041 A 
ATOM     58  F   UNL A   1      38.371  24.724  28.315  1.00  0.00    -0.206 F 
ATOM     59  C   UNL A   1      41.080  25.649  26.196  1.00  0.00     0.022 A 
BRANCH  56  60
ATOM     60  S   UNL A   1      42.753  27.857  26.002  1.00  0.00     0.124 S 
ATOM     61  O   UNL A   1      42.655  29.082  26.789  1.00  0.00    -0.237 OA
ATOM     62  O   UNL A   1      43.978  27.081  26.166  1.00  0.00    -0.237 OA
ATOM     63  O   UNL A   1      42.250  27.949  24.634  1.00  0.00    -0.744 OA
ENDBRANCH  56  60
ENDBRANCH  39  53
BRANCH  40  64
ATOM     64  C   UNL A   1      43.460  34.435  29.385  1.00  0.00     0.023 A 
ATOM     65  C   UNL A   1      44.043  34.086  28.143  1.00  0.00     0.031 A 
ATOM     66  C   UNL A   1      43.595  35.787  29.776  1.00  0.00     0.131 A 
ATOM     67  C   UNL A   1      44.723  35.064  27.368  1.00  0.00     0.055 A 
ATOM     68  C   UNL A   1      44.267  36.743  29.012  1.00  0.00     0.041 A 
ATOM     69  F   UNL A   1      43.001  36.254  30.886  1.00  0.00    -0.206 F 
ATOM     70  C   UNL A   1      44.827  36.388  27.798  1.00  0.00     0.022 A 
BRANCH  67  71
ATOM     71  S   UNL A   1      45.425  34.651  25.731  1.00  0.00     0.124 S 
ATOM     72  O   UNL A   1      46.301  35.788  25.471  1.00  0.00    -0.237 OA
ATOM     73  O   UNL A   1      46.077  33.372  25.981  1.00  0.00    -0.237 OA
ATOM     74  O   UNL A   1      44.248  34.575  24.863  1.00  0.00    -0.744 OA
ENDBRANCH  67  71
ENDBRANCH  40  64
BRANCH  52  75
ATOM     75  C   UNL A   1      41.202  30.673  33.951  1.00  0.00     0.023 A 
ATOM     76  C   UNL A   1      40.124  31.530  34.278  1.00  0.00     0.031 A 
ATOM     77  C   UNL A   1      42.128  30.378  34.967  1.00  0.00     0.131 A 
ATOM     78  C   UNL A   1      40.015  32.060  35.581  1.00  0.00     0.055 A 
ATOM     79  C   UNL A   1      42.002  30.882  36.260  1.00  0.00     0.041 A 
ATOM     80  F   UNL A   1      43.161  29.552  34.728  1.00  0.00    -0.206 F 
ATOM     81  C   UNL A   1      40.947  31.731  36.571  1.00  0.00     0.022 A 
BRANCH  78  82
ATOM     82  S   UNL A   1      38.669  33.211  36.017  1.00  0.00     0.124 S 
ATOM     83  O   UNL A   1      37.488  32.356  36.055  1.00  0.00    -0.237 OA
ATOM     84  O   UNL A   1      39.113  33.747  37.300  1.00  0.00    -0.237 OA
ATOM     85  O   UNL A   1      38.681  34.180  34.919  1.00  0.00    -0.744 OA
ENDBRANCH  78  82
ENDBRANCH  52  75
ENDBRANCH  26  27
ENDBRANCH  19  21
ENDBRANCH  18  19
ENDBRANCH  17  18
ENDBRANCH   1  17
TORSDOF 19
ENDMDL
MODEL 3
REMARK VINA RESULT:     -10.1      2.981      7.567
REMARK SMILES CCn1ccnc1[C@H](F)C(=O)OCCOCCOC(=O)c1ccc(-c2c3nc(c(-c4cc(S(=O)(=O)[O-])ccc4F)c4ccc([nH]4)c(-c4cc(S(=O)(=O)[O-])ccc4F)c4nc(c(-c5cc(S(=O)(=O)[O-])ccc5F)c5ccc2[nH]5)C=C4)C=C3)cc1
REMARK SMILES IDX 16 1 15 2 14 3 13 4 12 5 10 6 11 7 8 8 9 9 7 10 3 11 4 12
REMARK SMILES IDX 5 13 6 14 2 15 1 16 17 17 18 18 19 19 20 20 21 21 22 22
REMARK SMILES IDX 83 23 23 24 82 25 24 26 25 27 26 28 76 29 27 30 81 31 75 32
REMARK SMILES IDX 77 33 28 34 80 35 74 36 73 37 29 39 61 40 41 41 60 42 42 43
REMARK SMILES IDX 45 44 59 45 78 46 43 47 44 48 58 50 79 51 46 52 30 53 31 54
REMARK SMILES IDX 39 55 32 56 38 57 40 58 37 59 33 60 34 61 35 62 36 63 62 64
REMARK SMILES IDX 63 65 71 66 64 67 70 68 72 69 69 70 65 71 66 72 67 73 68 74
REMARK SMILES IDX 47 75 48 76 56 77 49 78 55 79 57 80 54 81 50 82 51 83 52 84
REMARK SMILES IDX 53 85
REMARK H PARENT 77 38 45 49
REMARK Flexibility Score: inf
ROOT
ATOM      1  C   UNL A   1      33.231  29.066  27.155  1.00  0.00     0.202 C 
ENDROOT
BRANCH   1   2
ATOM      2  O   UNL A   1      32.703  28.410  26.006  1.00  0.00    -0.374 OA
BRANCH   2   3
ATOM      3  C   UNL A   1      33.100  27.078  25.673  1.00  0.00     0.202 C 
BRANCH   3   4
ATOM      4  C   UNL A   1      33.498  26.794  24.229  1.00  0.00     0.261 C 
BRANCH   4   5
ATOM      5  O   UNL A   1      33.504  25.385  23.972  1.00  0.00    -0.461 OA
BRANCH   5   6
ATOM      6  C   UNL A   1      33.557  25.028  22.662  1.00  0.00     0.348 C 
ATOM      7  O   UNL A   1      33.735  25.808  21.729  1.00  0.00    -0.248 OA
BRANCH   6   8
ATOM      8  C   UNL A   1      33.451  23.525  22.482  1.00  0.00     0.341 C 
ATOM      9  F   UNL A   1      33.336  23.140  21.173  1.00  0.00    -0.226 F 
BRANCH   8  10
ATOM     10  C   UNL A   1      34.656  22.938  23.129  1.00  0.00     0.155 A 
ATOM     11  N   UNL A   1      34.603  22.050  24.187  1.00  0.00    -0.332 N 
ATOM     12  C   UNL A   1      35.890  21.850  24.607  1.00  0.00     0.107 A 
ATOM     13  C   UNL A   1      36.675  22.595  23.763  1.00  0.00     0.131 A 
ATOM     14  N   UNL A   1      35.907  23.255  22.851  1.00  0.00    -0.238 NA
BRANCH  11  15
ATOM     15  C   UNL A   1      33.401  21.444  24.732  1.00  0.00     0.120 C 
ATOM     16  C   UNL A   1      33.068  20.048  24.231  1.00  0.00     0.027 C 
ENDBRANCH  11  15
ENDBRANCH   8  10
ENDBRANCH   6   8
ENDBRANCH   5   6
ENDBRANCH   4   5
ENDBRANCH   3   4
ENDBRANCH   2   3
ENDBRANCH   1   2
BRANCH   1  17
ATOM     17  C   UNL A   1      33.967  30.388  26.992  1.00  0.00     0.261 C 
BRANCH  17  18
ATOM     18  O   UNL A   1      35.333  30.283  27.347  1.00  0.00    -0.460 OA
BRANCH  18  19
ATOM     19  C   UNL A   1      35.754  31.285  28.156  1.00  0.00     0.338 C 
ATOM     20  O   UNL A   1      35.488  32.466  28.057  1.00  0.00    -0.246 OA
BRANCH  19  21
ATOM     21  C   UNL A   1      36.743  30.741  29.087  1.00  0.00     0.060 A 
ATOM     22  C   UNL A   1      37.869  31.539  29.288  1.00  0.00     0.016 A 
ATOM     23  C   UNL A   1      36.724  29.369  29.376  1.00  0.00     0.016 A 
ATOM     24  C   UNL A   1      39.067  30.907  29.508  1.00  0.00     0.010 A 
ATOM     25  C   UNL A   1      37.925  28.739  29.561  1.00  0.00     0.010 A 
ATOM     26  C   UNL A   1      39.086  29.510  29.534  1.00  0.00    -0.014 A 
BRANCH  26  27
ATOM     27  C   UNL A   1      40.357  28.852  29.721  1.00  0.00     0.031 A 
ATOM     28  C   UNL A   1      40.685  28.747  31.160  1.00  0.00     0.074 A 
ATOM     29  C   UNL A   1      41.045  28.314  28.695  1.00  0.00     0.049 A 
ATOM     30  N   UNL A   1      41.628  29.356  31.794  1.00  0.00    -0.248 NA
ATOM     31  C   UNL A   1      39.695  28.100  32.045  1.00  0.00     0.031 C 
ATOM     32  C   UNL A   1      40.638  28.203  27.293  1.00  0.00     0.029 A 
ATOM     33  N   UNL A   1      42.227  27.646  28.714  1.00  0.00    -0.354 N 
ATOM     34  C   UNL A   1      41.509  28.933  33.111  1.00  0.00     0.074 A 
ATOM     35  C   UNL A   1      40.181  28.408  33.246  1.00  0.00     0.031 C 
ATOM     36  C   UNL A   1      41.433  27.301  26.669  1.00  0.00     0.029 A 
ATOM     37  C   UNL A   1      42.464  26.854  27.592  1.00  0.00     0.049 A 
ATOM     38  H   UNL A   1      42.864  27.715  29.460  1.00  0.00     0.167 HD
ATOM     39  C   UNL A   1      42.615  28.747  33.876  1.00  0.00     0.034 A 
ATOM     40  C   UNL A   1      43.379  25.848  27.484  1.00  0.00     0.034 A 
ATOM     41  C   UNL A   1      43.739  29.478  33.332  1.00  0.00     0.049 A 
ATOM     42  C   UNL A   1      44.382  26.073  28.563  1.00  0.00     0.074 A 
ATOM     43  C   UNL A   1      43.960  30.810  33.038  1.00  0.00     0.029 A 
ATOM     44  N   UNL A   1      44.685  28.776  32.614  1.00  0.00    -0.354 N 
ATOM     45  N   UNL A   1      45.183  27.104  28.585  1.00  0.00    -0.248 NA
ATOM     46  C   UNL A   1      44.124  25.468  29.866  1.00  0.00     0.031 C 
ATOM     47  C   UNL A   1      44.674  30.802  31.804  1.00  0.00     0.029 A 
ATOM     48  C   UNL A   1      44.944  29.476  31.460  1.00  0.00     0.049 A 
ATOM     49  H   UNL A   1      45.101  27.924  32.883  1.00  0.00     0.167 HD
ATOM     50  C   UNL A   1      45.171  27.544  29.902  1.00  0.00     0.074 A 
ATOM     51  C   UNL A   1      44.569  26.447  30.661  1.00  0.00     0.031 C 
ATOM     52  C   UNL A   1      45.359  28.863  30.210  1.00  0.00     0.034 A 
BRANCH  39  53
ATOM     53  C   UNL A   1      42.778  27.589  34.835  1.00  0.00     0.023 A 
ATOM     54  C   UNL A   1      43.601  26.534  34.409  1.00  0.00     0.031 A 
ATOM     55  C   UNL A   1      41.968  27.317  35.967  1.00  0.00     0.131 A 
ATOM     56  C   UNL A   1      43.511  25.264  35.005  1.00  0.00     0.055 A 
ATOM     57  C   UNL A   1      41.935  26.072  36.598  1.00  0.00     0.041 A 
ATOM     58  F   UNL A   1      41.100  28.193  36.479  1.00  0.00    -0.206 F 
ATOM     59  C   UNL A   1      42.681  25.025  36.095  1.00  0.00     0.022 A 
BRANCH  56  60
ATOM     60  S   UNL A   1      44.362  23.889  34.198  1.00  0.00     0.124 S 
ATOM     61  O   UNL A   1      43.253  23.213  33.531  1.00  0.00    -0.237 OA
ATOM     62  O   UNL A   1      45.306  24.588  33.333  1.00  0.00    -0.237 OA
ATOM     63  O   UNL A   1      44.959  23.160  35.315  1.00  0.00    -0.744 OA
ENDBRANCH  56  60
ENDBRANCH  39  53
BRANCH  40  64
ATOM     64  C   UNL A   1      43.220  24.547  26.760  1.00  0.00     0.023 A 
ATOM     65  C   UNL A   1      44.229  23.975  25.947  1.00  0.00     0.031 A 
ATOM     66  C   UNL A   1      42.114  23.717  27.055  1.00  0.00     0.131 A 
ATOM     67  C   UNL A   1      44.098  22.643  25.470  1.00  0.00     0.055 A 
ATOM     68  C   UNL A   1      41.989  22.410  26.580  1.00  0.00     0.041 A 
ATOM     69  F   UNL A   1      41.145  24.118  27.892  1.00  0.00    -0.206 F 
ATOM     70  C   UNL A   1      42.986  21.862  25.792  1.00  0.00     0.022 A 
BRANCH  67  71
ATOM     71  S   UNL A   1      45.417  21.861  24.477  1.00  0.00     0.124 S 
ATOM     72  O   UNL A   1      46.227  21.204  25.496  1.00  0.00    -0.237 OA
ATOM     73  O   UNL A   1      44.665  20.989  23.583  1.00  0.00    -0.237 OA
ATOM     74  O   UNL A   1      46.067  22.995  23.817  1.00  0.00    -0.744 OA
ENDBRANCH  67  71
ENDBRANCH  40  64
BRANCH  52  75
ATOM     75  C   UNL A   1      45.855  29.799  29.122  1.00  0.00     0.023 A 
ATOM     76  C   UNL A   1      45.043  30.673  28.360  1.00  0.00     0.031 A 
ATOM     77  C   UNL A   1      47.248  29.887  28.945  1.00  0.00     0.131 A 
ATOM     78  C   UNL A   1      45.638  31.581  27.458  1.00  0.00     0.055 A 
ATOM     79  C   UNL A   1      47.832  30.804  28.074  1.00  0.00     0.041 A 
ATOM     80  F   UNL A   1      48.075  29.102  29.656  1.00  0.00    -0.206 F 
ATOM     81  C   UNL A   1      47.028  31.651  27.322  1.00  0.00     0.022 A 
BRANCH  78  82
ATOM     82  S   UNL A   1      44.615  32.681  26.423  1.00  0.00     0.124 S 
ATOM     83  O   UNL A   1      45.590  33.344  25.563  1.00  0.00    -0.237 OA
ATOM     84  O   UNL A   1      43.711  31.744  25.763  1.00  0.00    -0.237 OA
ATOM     85  O   UNL A   1      43.968  33.562  27.398  1.00  0.00    -0.744 OA
ENDBRANCH  78  82
ENDBRANCH  52  75
ENDBRANCH  26  27
ENDBRANCH  19  21
ENDBRANCH  18  19
ENDBRANCH  17  18
ENDBRANCH   1  17
TORSDOF 19
ENDMDL
