MODEL 1
REMARK VINA RESULT:     -11.4      0.000      0.000
REMARK SMILES CS(=O)(=O)c1ccc(C2=NN(c3ccc(C(=O)OCCOCCOC(=O)c4ccc(-c5c6nc(c(-c7cc(S(=O)(=O)[O-])ccc7F)c7ccc([nH]7)c(-c7cc(S(=O)(=O)[O-])ccc7F)c7nc(c(-c8cc(S(=O)(=O)[O-])ccc8F)c8ccc5[nH]8)C=C7)C=C6)cc4)cc3)[C@H](c3ccc(Cl)cc3)C2)cc1
REMARK SMILES IDX 21 1 20 2 19 3 18 4 16 5 17 6 15 7 12 8 13 9 91 10 14 11
REMARK SMILES IDX 90 12 11 13 9 14 10 15 100 16 92 17 8 18 5 19 6 20 102 21
REMARK SMILES IDX 7 22 101 23 2 24 1 25 3 26 4 27 93 28 94 29 99 30 95 31
REMARK SMILES IDX 98 32 96 33 97 34 22 35 23 36 24 37 25 38 26 39 27 40 28 41
REMARK SMILES IDX 89 42 29 43 88 44 30 45 31 46 32 47 82 48 33 49 87 50 81 51
REMARK SMILES IDX 83 52 34 53 86 54 80 55 79 56 35 58 67 59 47 60 66 61 48 62
REMARK SMILES IDX 51 63 65 64 84 65 49 66 50 67 64 69 85 70 52 71 36 72 37 73
REMARK SMILES IDX 45 74 38 75 44 76 46 77 43 78 39 79 40 80 41 81 42 82 68 83
REMARK SMILES IDX 69 84 77 85 70 86 76 87 78 88 75 89 71 90 72 91 73 92 74 93
REMARK SMILES IDX 53 94 54 95 62 96 55 97 61 98 63 99 60 100 56 101 57 102
REMARK SMILES IDX 58 103 59 104
REMARK H PARENT 83 57 51 68
REMARK Flexibility Score: inf
ROOT
ATOM      1  O   UNL A   1      42.907  21.673  27.212  1.00  0.00    -0.374 OA
ENDROOT
BRANCH   1   2
ATOM      2  C   UNL A   1      42.059  22.762  27.581  1.00  0.00     0.202 C 
BRANCH   2   3
ATOM      3  C   UNL A   1      40.605  22.398  27.896  1.00  0.00     0.261 C 
BRANCH   3   4
ATOM      4  O   UNL A   1      39.723  22.911  26.885  1.00  0.00    -0.460 OA
BRANCH   4   5
ATOM      5  C   UNL A   1      39.123  21.982  26.108  1.00  0.00     0.338 C 
ATOM      6  O   UNL A   1      39.482  20.825  25.940  1.00  0.00    -0.246 OA
BRANCH   5   7
ATOM      7  C   UNL A   1      37.868  22.522  25.525  1.00  0.00     0.060 A 
ATOM      8  C   UNL A   1      35.373  23.480  24.671  1.00  0.00     0.060 A 
ATOM      9  C   UNL A   1      36.037  24.099  25.734  1.00  0.00     0.029 A 
ATOM     10  C   UNL A   1      36.028  22.463  23.963  1.00  0.00     0.029 A 
ATOM     11  C   UNL A   1      37.275  23.619  26.164  1.00  0.00     0.018 A 
ATOM     12  C   UNL A   1      37.265  21.973  24.389  1.00  0.00     0.018 A 
BRANCH   8  13
ATOM     13  N   UNL A   1      34.019  23.724  24.429  1.00  0.00    -0.257 N 
ATOM     14  C   UNL A   1      32.376  25.077  24.429  1.00  0.00     0.071 C 
ATOM     15  N   UNL A   1      33.602  24.950  24.025  1.00  0.00    -0.176 NA
ATOM     16  C   UNL A   1      31.867  23.981  25.324  1.00  0.00     0.091 C 
ATOM     17  C   UNL A   1      33.030  22.986  25.229  1.00  0.00     0.144 C 
BRANCH  14  18
ATOM     18  C   UNL A   1      31.525  26.218  24.040  1.00  0.00    -0.002 A 
ATOM     19  C   UNL A   1      30.003  28.425  23.268  1.00  0.00     0.067 A 
ATOM     20  C   UNL A   1      31.383  28.561  23.453  1.00  0.00     0.021 A 
ATOM     21  C   UNL A   1      29.378  27.190  23.469  1.00  0.00     0.021 A 
ATOM     22  C   UNL A   1      32.141  27.459  23.849  1.00  0.00     0.011 A 
ATOM     23  C   UNL A   1      30.146  26.080  23.848  1.00  0.00     0.011 A 
BRANCH  19  24
ATOM     24  S   UNL A   1      29.115  29.883  22.772  1.00  0.00     0.175 S 
ATOM     25  C   UNL A   1      27.387  29.546  22.942  1.00  0.00     0.163 C 
ATOM     26  O   UNL A   1      29.377  30.059  21.356  1.00  0.00    -0.224 OA
ATOM     27  O   UNL A   1      29.450  30.916  23.733  1.00  0.00    -0.224 OA
ENDBRANCH  19  24
ENDBRANCH  14  18
BRANCH  17  28
ATOM     28  C   UNL A   1      32.763  21.627  24.595  1.00  0.00    -0.023 A 
ATOM     29  C   UNL A   1      32.317  21.460  23.276  1.00  0.00     0.007 A 
ATOM     30  C   UNL A   1      33.082  20.469  25.337  1.00  0.00     0.007 A 
ATOM     31  C   UNL A   1      32.201  20.181  22.719  1.00  0.00     0.021 A 
ATOM     32  C   UNL A   1      33.004  19.196  24.769  1.00  0.00     0.021 A 
ATOM     33  C   UNL A   1      32.559  19.058  23.461  1.00  0.00     0.041 A 
ATOM     34  Cl  UNL A   1      32.470  17.496  22.747  1.00  0.00    -0.084 Cl
ENDBRANCH  17  28
ENDBRANCH   8  13
ENDBRANCH   5   7
ENDBRANCH   4   5
ENDBRANCH   3   4
ENDBRANCH   2   3
ENDBRANCH   1   2
BRANCH   1  35
ATOM     35  C   UNL A   1      43.260  21.561  25.832  1.00  0.00     0.202 C 
BRANCH  35  36
ATOM     36  C   UNL A   1      43.141  22.832  24.984  1.00  0.00     0.261 C 
BRANCH  36  37
ATOM     37  O   UNL A   1      44.406  23.250  24.445  1.00  0.00    -0.460 OA
BRANCH  37  38
ATOM     38  C   UNL A   1      45.345  23.548  25.376  1.00  0.00     0.338 C 
ATOM     39  O   UNL A   1      46.431  23.003  25.522  1.00  0.00    -0.246 OA
BRANCH  38  40
ATOM     40  C   UNL A   1      44.967  24.773  26.105  1.00  0.00     0.060 A 
ATOM     41  C   UNL A   1      44.645  25.904  25.344  1.00  0.00     0.016 A 
ATOM     42  C   UNL A   1      44.989  24.842  27.500  1.00  0.00     0.016 A 
ATOM     43  C   UNL A   1      44.392  27.121  25.971  1.00  0.00     0.010 A 
ATOM     44  C   UNL A   1      44.741  26.068  28.129  1.00  0.00     0.010 A 
ATOM     45  C   UNL A   1      44.476  27.220  27.366  1.00  0.00    -0.014 A 
BRANCH  45  46
ATOM     46  C   UNL A   1      44.431  28.557  28.009  1.00  0.00     0.031 A 
ATOM     47  C   UNL A   1      43.121  29.058  28.554  1.00  0.00     0.074 A 
ATOM     48  C   UNL A   1      45.544  29.302  28.131  1.00  0.00     0.049 A 
ATOM     49  N   UNL A   1      42.837  30.204  29.119  1.00  0.00    -0.248 NA
ATOM     50  C   UNL A   1      41.975  28.142  28.442  1.00  0.00     0.031 C 
ATOM     51  C   UNL A   1      46.876  28.903  27.680  1.00  0.00     0.029 A 
ATOM     52  N   UNL A   1      45.730  30.552  28.666  1.00  0.00    -0.354 N 
ATOM     53  C   UNL A   1      41.481  30.151  29.424  1.00  0.00     0.074 A 
ATOM     54  C   UNL A   1      40.994  28.874  28.946  1.00  0.00     0.031 C 
ATOM     55  C   UNL A   1      47.741  29.897  27.945  1.00  0.00     0.029 A 
ATOM     56  C   UNL A   1      47.019  31.015  28.551  1.00  0.00     0.049 A 
ATOM     57  H   UNL A   1      45.008  31.068  29.092  1.00  0.00     0.167 HD
ATOM     58  C   UNL A   1      40.716  31.080  30.051  1.00  0.00     0.034 A 
ATOM     59  C   UNL A   1      47.549  32.214  28.870  1.00  0.00     0.034 A 
ATOM     60  C   UNL A   1      41.217  32.353  30.512  1.00  0.00     0.049 A 
ATOM     61  C   UNL A   1      46.662  33.264  29.495  1.00  0.00     0.074 A 
ATOM     62  C   UNL A   1      40.536  33.357  31.177  1.00  0.00     0.029 A 
ATOM     63  N   UNL A   1      42.520  32.804  30.342  1.00  0.00    -0.354 N 
ATOM     64  N   UNL A   1      45.384  33.198  29.790  1.00  0.00    -0.248 NA
ATOM     65  C   UNL A   1      47.292  34.547  29.835  1.00  0.00     0.031 C 
ATOM     66  C   UNL A   1      41.405  34.443  31.342  1.00  0.00     0.029 A 
ATOM     67  C   UNL A   1      42.652  34.086  30.855  1.00  0.00     0.049 A 
ATOM     68  H   UNL A   1      43.244  32.289  29.917  1.00  0.00     0.167 HD
ATOM     69  C   UNL A   1      45.067  34.419  30.381  1.00  0.00     0.074 A 
ATOM     70  C   UNL A   1      46.289  35.196  30.409  1.00  0.00     0.031 C 
ATOM     71  C   UNL A   1      43.874  34.856  30.865  1.00  0.00     0.034 A 
BRANCH  58  72
ATOM     72  C   UNL A   1      39.248  30.769  30.219  1.00  0.00     0.023 A 
ATOM     73  C   UNL A   1      38.281  31.232  29.310  1.00  0.00     0.031 A 
ATOM     74  C   UNL A   1      38.805  30.024  31.327  1.00  0.00     0.131 A 
ATOM     75  C   UNL A   1      36.919  31.009  29.561  1.00  0.00     0.055 A 
ATOM     76  C   UNL A   1      37.453  29.737  31.530  1.00  0.00     0.041 A 
ATOM     77  F   UNL A   1      39.678  29.574  32.242  1.00  0.00    -0.206 F 
ATOM     78  C   UNL A   1      36.499  30.243  30.652  1.00  0.00     0.022 A 
BRANCH  75  79
ATOM     79  S   UNL A   1      35.694  31.856  28.525  1.00  0.00     0.124 S 
ATOM     80  O   UNL A   1      36.444  33.027  28.079  1.00  0.00    -0.237 OA
ATOM     81  O   UNL A   1      35.400  30.858  27.504  1.00  0.00    -0.237 OA
ATOM     82  O   UNL A   1      34.599  32.142  29.451  1.00  0.00    -0.744 OA
ENDBRANCH  75  79
ENDBRANCH  58  72
BRANCH  59  83
ATOM     83  C   UNL A   1      48.979  32.509  28.567  1.00  0.00     0.023 A 
ATOM     84  C   UNL A   1      49.389  32.896  27.282  1.00  0.00     0.031 A 
ATOM     85  C   UNL A   1      49.967  32.359  29.558  1.00  0.00     0.131 A 
ATOM     86  C   UNL A   1      50.754  33.079  27.010  1.00  0.00     0.055 A 
ATOM     87  C   UNL A   1      51.318  32.592  29.295  1.00  0.00     0.041 A 
ATOM     88  F   UNL A   1      49.628  31.990  30.803  1.00  0.00    -0.206 F 
ATOM     89  C   UNL A   1      51.719  32.942  28.011  1.00  0.00     0.022 A 
BRANCH  86  90
ATOM     90  S   UNL A   1      51.262  33.424  25.302  1.00  0.00     0.124 S 
ATOM     91  O   UNL A   1      50.204  34.323  24.854  1.00  0.00    -0.237 OA
ATOM     92  O   UNL A   1      52.578  34.025  25.494  1.00  0.00    -0.237 OA
ATOM     93  O   UNL A   1      51.267  32.104  24.676  1.00  0.00    -0.744 OA
ENDBRANCH  86  90
ENDBRANCH  59  83
BRANCH  71  94
ATOM     94  C   UNL A   1      43.852  36.220  31.512  1.00  0.00     0.023 A 
ATOM     95  C   UNL A   1      43.807  37.404  30.754  1.00  0.00     0.031 A 
ATOM     96  C   UNL A   1      43.881  36.336  32.915  1.00  0.00     0.131 A 
ATOM     97  C   UNL A   1      43.845  38.649  31.399  1.00  0.00     0.055 A 
ATOM     98  C   UNL A   1      43.858  37.576  33.552  1.00  0.00     0.041 A 
ATOM     99  F   UNL A   1      43.928  35.240  33.689  1.00  0.00    -0.206 F 
ATOM    100  C   UNL A   1      43.852  38.743  32.793  1.00  0.00     0.022 A 
BRANCH  97 101
ATOM    101  S   UNL A   1      43.972  40.152  30.390  1.00  0.00     0.124 S 
ATOM    102  O   UNL A   1      45.238  39.943  29.694  1.00  0.00    -0.237 OA
ATOM    103  O   UNL A   1      42.771  40.078  29.565  1.00  0.00    -0.237 OA
ATOM    104  O   UNL A   1      43.980  41.230  31.378  1.00  0.00    -0.744 OA
ENDBRANCH  97 101
ENDBRANCH  71  94
ENDBRANCH  45  46
ENDBRANCH  38  40
ENDBRANCH  37  38
ENDBRANCH  36  37
ENDBRANCH  35  36
ENDBRANCH   1  35
TORSDOF 21
ENDMDL
MODEL 2
REMARK VINA RESULT:     -11.4      4.761      7.804
REMARK SMILES CS(=O)(=O)c1ccc(C2=NN(c3ccc(C(=O)OCCOCCOC(=O)c4ccc(-c5c6nc(c(-c7cc(S(=O)(=O)[O-])ccc7F)c7ccc([nH]7)c(-c7cc(S(=O)(=O)[O-])ccc7F)c7nc(c(-c8cc(S(=O)(=O)[O-])ccc8F)c8ccc5[nH]8)C=C7)C=C6)cc4)cc3)[C@H](c3ccc(Cl)cc3)C2)cc1
REMARK SMILES IDX 21 1 20 2 19 3 18 4 16 5 17 6 15 7 12 8 13 9 91 10 14 11
REMARK SMILES IDX 90 12 11 13 9 14 10 15 100 16 92 17 8 18 5 19 6 20 102 21
REMARK SMILES IDX 7 22 101 23 2 24 1 25 3 26 4 27 93 28 94 29 99 30 95 31
REMARK SMILES IDX 98 32 96 33 97 34 22 35 23 36 24 37 25 38 26 39 27 40 28 41
REMARK SMILES IDX 89 42 29 43 88 44 30 45 31 46 32 47 82 48 33 49 87 50 81 51
REMARK SMILES IDX 83 52 34 53 86 54 80 55 79 56 35 58 67 59 47 60 66 61 48 62
REMARK SMILES IDX 51 63 65 64 84 65 49 66 50 67 64 69 85 70 52 71 36 72 37 73
REMARK SMILES IDX 45 74 38 75 44 76 46 77 43 78 39 79 40 80 41 81 42 82 68 83
REMARK SMILES IDX 69 84 77 85 70 86 76 87 78 88 75 89 71 90 72 91 73 92 74 93
REMARK SMILES IDX 53 94 54 95 62 96 55 97 61 98 63 99 60 100 56 101 57 102
REMARK SMILES IDX 58 103 59 104
REMARK H PARENT 83 57 51 68
REMARK Flexibility Score: inf
ROOT
ATOM      1  O   UNL A   1      42.695  21.560  25.463  1.00  0.00    -0.374 OA
ENDROOT
BRANCH   1   2
ATOM      2  C   UNL A   1      41.468  21.287  26.142  1.00  0.00     0.202 C 
BRANCH   2   3
ATOM      3  C   UNL A   1      40.761  22.500  26.754  1.00  0.00     0.261 C 
BRANCH   3   4
ATOM      4  O   UNL A   1      39.366  22.500  26.414  1.00  0.00    -0.460 OA
BRANCH   4   5
ATOM      5  C   UNL A   1      38.798  23.719  26.280  1.00  0.00     0.338 C 
ATOM      6  O   UNL A   1      39.355  24.803  26.389  1.00  0.00    -0.246 OA
BRANCH   5   7
ATOM      7  C   UNL A   1      37.375  23.590  25.876  1.00  0.00     0.060 A 
ATOM      8  C   UNL A   1      34.725  23.578  24.952  1.00  0.00     0.060 A 
ATOM      9  C   UNL A   1      35.783  23.408  24.054  1.00  0.00     0.029 A 
ATOM     10  C   UNL A   1      35.003  23.625  26.326  1.00  0.00     0.029 A 
ATOM     11  C   UNL A   1      37.101  23.421  24.511  1.00  0.00     0.018 A 
ATOM     12  C   UNL A   1      36.320  23.642  26.792  1.00  0.00     0.018 A 
BRANCH   8  13
ATOM     13  N   UNL A   1      33.440  23.886  24.502  1.00  0.00    -0.257 N 
ATOM     14  C   UNL A   1      31.826  25.269  24.385  1.00  0.00     0.071 C 
ATOM     15  N   UNL A   1      33.105  25.166  24.199  1.00  0.00    -0.176 NA
ATOM     16  C   UNL A   1      31.159  24.076  25.015  1.00  0.00     0.091 C 
ATOM     17  C   UNL A   1      32.319  23.074  24.999  1.00  0.00     0.144 C 
BRANCH  14  18
ATOM     18  C   UNL A   1      31.062  26.473  24.006  1.00  0.00    -0.002 A 
ATOM     19  C   UNL A   1      29.532  28.710  23.338  1.00  0.00     0.067 A 
ATOM     20  C   UNL A   1      28.900  27.520  23.717  1.00  0.00     0.021 A 
ATOM     21  C   UNL A   1      30.928  28.786  23.290  1.00  0.00     0.021 A 
ATOM     22  C   UNL A   1      29.665  26.401  24.041  1.00  0.00     0.011 A 
ATOM     23  C   UNL A   1      31.695  27.664  23.634  1.00  0.00     0.011 A 
BRANCH  19  24
ATOM     24  S   UNL A   1      28.478  30.083  22.936  1.00  0.00     0.175 S 
ATOM     25  C   UNL A   1      28.788  30.524  21.251  1.00  0.00     0.163 C 
ATOM     26  O   UNL A   1      28.924  31.194  23.755  1.00  0.00    -0.224 OA
ATOM     27  O   UNL A   1      27.116  29.592  23.010  1.00  0.00    -0.224 OA
ENDBRANCH  19  24
ENDBRANCH  14  18
BRANCH  17  28
ATOM     28  C   UNL A   1      32.173  21.819  24.149  1.00  0.00    -0.023 A 
ATOM     29  C   UNL A   1      31.927  21.841  22.768  1.00  0.00     0.007 A 
ATOM     30  C   UNL A   1      32.402  20.567  24.759  1.00  0.00     0.007 A 
ATOM     31  C   UNL A   1      31.918  20.655  22.026  1.00  0.00     0.021 A 
ATOM     32  C   UNL A   1      32.432  19.387  24.013  1.00  0.00     0.021 A 
ATOM     33  C   UNL A   1      32.185  19.437  22.647  1.00  0.00     0.041 A 
ATOM     34  Cl  UNL A   1      32.231  17.993  21.715  1.00  0.00    -0.084 Cl
ENDBRANCH  17  28
ENDBRANCH   8  13
ENDBRANCH   5   7
ENDBRANCH   4   5
ENDBRANCH   3   4
ENDBRANCH   2   3
ENDBRANCH   1   2
BRANCH   1  35
ATOM     35  C   UNL A   1      42.835  22.849  24.862  1.00  0.00     0.202 C 
BRANCH  35  36
ATOM     36  C   UNL A   1      44.207  23.186  24.267  1.00  0.00     0.261 C 
BRANCH  36  37
ATOM     37  O   UNL A   1      44.698  24.461  24.715  1.00  0.00    -0.460 OA
BRANCH  37  38
ATOM     38  C   UNL A   1      45.175  24.468  25.984  1.00  0.00     0.338 C 
ATOM     39  O   UNL A   1      46.223  23.974  26.374  1.00  0.00    -0.246 OA
BRANCH  38  40
ATOM     40  C   UNL A   1      44.337  25.332  26.837  1.00  0.00     0.060 A 
ATOM     41  C   UNL A   1      44.633  26.701  26.858  1.00  0.00     0.016 A 
ATOM     42  C   UNL A   1      43.327  24.814  27.651  1.00  0.00     0.016 A 
ATOM     43  C   UNL A   1      43.956  27.550  27.729  1.00  0.00     0.010 A 
ATOM     44  C   UNL A   1      42.651  25.668  28.531  1.00  0.00     0.010 A 
ATOM     45  C   UNL A   1      42.987  27.032  28.599  1.00  0.00    -0.014 A 
BRANCH  45  46
ATOM     46  C   UNL A   1      42.434  27.893  29.675  1.00  0.00     0.031 A 
ATOM     47  C   UNL A   1      43.091  27.878  31.029  1.00  0.00     0.074 A 
ATOM     48  C   UNL A   1      41.382  28.698  29.442  1.00  0.00     0.049 A 
ATOM     49  N   UNL A   1      42.759  28.514  32.122  1.00  0.00    -0.248 NA
ATOM     50  C   UNL A   1      44.281  27.024  31.166  1.00  0.00     0.031 C 
ATOM     51  C   UNL A   1      40.691  28.829  28.160  1.00  0.00     0.029 A 
ATOM     52  N   UNL A   1      40.706  29.551  30.277  1.00  0.00    -0.354 N 
ATOM     53  C   UNL A   1      43.693  28.135  33.081  1.00  0.00     0.074 A 
ATOM     54  C   UNL A   1      44.581  27.183  32.446  1.00  0.00     0.031 C 
ATOM     55  C   UNL A   1      39.679  29.702  28.299  1.00  0.00     0.029 A 
ATOM     56  C   UNL A   1      39.628  30.164  29.685  1.00  0.00     0.049 A 
ATOM     57  H   UNL A   1      40.969  29.710  31.212  1.00  0.00     0.167 HD
ATOM     58  C   UNL A   1      43.804  28.547  34.368  1.00  0.00     0.034 A 
ATOM     59  C   UNL A   1      38.690  30.980  30.209  1.00  0.00     0.034 A 
ATOM     60  C   UNL A   1      42.902  29.489  34.988  1.00  0.00     0.049 A 
ATOM     61  C   UNL A   1      38.785  31.365  31.666  1.00  0.00     0.074 A 
ATOM     62  C   UNL A   1      42.934  29.992  36.277  1.00  0.00     0.029 A 
ATOM     63  N   UNL A   1      41.797  30.059  34.369  1.00  0.00    -0.354 N 
ATOM     64  N   UNL A   1      39.680  31.010  32.558  1.00  0.00    -0.248 NA
ATOM     65  C   UNL A   1      37.746  32.266  32.182  1.00  0.00     0.031 C 
ATOM     66  C   UNL A   1      41.809  30.805  36.459  1.00  0.00     0.029 A 
ATOM     67  C   UNL A   1      41.118  30.877  35.260  1.00  0.00     0.049 A 
ATOM     68  H   UNL A   1      41.532  29.903  33.433  1.00  0.00     0.167 HD
ATOM     69  C   UNL A   1      39.329  31.672  33.733  1.00  0.00     0.074 A 
ATOM     70  C   UNL A   1      38.148  32.454  33.430  1.00  0.00     0.031 C 
ATOM     71  C   UNL A   1      39.933  31.643  34.950  1.00  0.00     0.034 A 
BRANCH  58  72
ATOM     72  C   UNL A   1      44.905  27.935  35.200  1.00  0.00     0.023 A 
ATOM     73  C   UNL A   1      44.758  26.683  35.823  1.00  0.00     0.031 A 
ATOM     74  C   UNL A   1      46.110  28.631  35.401  1.00  0.00     0.131 A 
ATOM     75  C   UNL A   1      45.765  26.200  36.672  1.00  0.00     0.055 A 
ATOM     76  C   UNL A   1      47.142  28.109  36.184  1.00  0.00     0.041 A 
ATOM     77  F   UNL A   1      46.301  29.841  34.852  1.00  0.00    -0.206 F 
ATOM     78  C   UNL A   1      46.967  26.893  36.837  1.00  0.00     0.022 A 
BRANCH  75  79
ATOM     79  S   UNL A   1      45.424  24.725  37.673  1.00  0.00     0.124 S 
ATOM     80  O   UNL A   1      44.366  24.082  36.899  1.00  0.00    -0.237 OA
ATOM     81  O   UNL A   1      46.714  24.046  37.683  1.00  0.00    -0.237 OA
ATOM     82  O   UNL A   1      44.998  25.274  38.959  1.00  0.00    -0.744 OA
ENDBRANCH  75  79
ENDBRANCH  58  72
BRANCH  59  83
ATOM     83  C   UNL A   1      37.553  31.456  29.369  1.00  0.00     0.023 A 
ATOM     84  C   UNL A   1      36.543  30.581  28.942  1.00  0.00     0.031 A 
ATOM     85  C   UNL A   1      37.491  32.795  28.939  1.00  0.00     0.131 A 
ATOM     86  C   UNL A   1      35.537  31.043  28.079  1.00  0.00     0.055 A 
ATOM     87  C   UNL A   1      36.459  33.261  28.123  1.00  0.00     0.041 A 
ATOM     88  F   UNL A   1      38.433  33.673  29.318  1.00  0.00    -0.206 F 
ATOM     89  C   UNL A   1      35.481  32.380  27.678  1.00  0.00     0.022 A 
BRANCH  86  90
ATOM     90  S   UNL A   1      34.338  29.849  27.423  1.00  0.00     0.124 S 
ATOM     91  O   UNL A   1      33.077  30.554  27.623  1.00  0.00    -0.237 OA
ATOM     92  O   UNL A   1      34.781  29.704  26.040  1.00  0.00    -0.237 OA
ATOM     93  O   UNL A   1      34.536  28.671  28.265  1.00  0.00    -0.744 OA
ENDBRANCH  86  90
ENDBRANCH  59  83
BRANCH  71  94
ATOM     94  C   UNL A   1      39.352  32.524  36.029  1.00  0.00     0.023 A 
ATOM     95  C   UNL A   1      39.803  33.839  36.240  1.00  0.00     0.031 A 
ATOM     96  C   UNL A   1      38.330  32.035  36.864  1.00  0.00     0.131 A 
ATOM     97  C   UNL A   1      39.272  34.601  37.292  1.00  0.00     0.055 A 
ATOM     98  C   UNL A   1      37.763  32.819  37.870  1.00  0.00     0.041 A 
ATOM     99  F   UNL A   1      37.862  30.787  36.710  1.00  0.00    -0.206 F 
ATOM    100  C   UNL A   1      38.243  34.105  38.097  1.00  0.00     0.022 A 
BRANCH  97 101
ATOM    101  S   UNL A   1      40.003  36.221  37.655  1.00  0.00     0.124 S 
ATOM    102  O   UNL A   1      41.241  35.849  38.334  1.00  0.00    -0.237 OA
ATOM    103  O   UNL A   1      40.155  36.801  36.324  1.00  0.00    -0.237 OA
ATOM    104  O   UNL A   1      39.003  36.869  38.502  1.00  0.00    -0.744 OA
ENDBRANCH  97 101
ENDBRANCH  71  94
ENDBRANCH  45  46
ENDBRANCH  38  40
ENDBRANCH  37  38
ENDBRANCH  36  37
ENDBRANCH  35  36
ENDBRANCH   1  35
TORSDOF 21
ENDMDL
MODEL 3
REMARK VINA RESULT:     -11.3      3.550      6.213
REMARK SMILES CS(=O)(=O)c1ccc(C2=NN(c3ccc(C(=O)OCCOCCOC(=O)c4ccc(-c5c6nc(c(-c7cc(S(=O)(=O)[O-])ccc7F)c7ccc([nH]7)c(-c7cc(S(=O)(=O)[O-])ccc7F)c7nc(c(-c8cc(S(=O)(=O)[O-])ccc8F)c8ccc5[nH]8)C=C7)C=C6)cc4)cc3)[C@H](c3ccc(Cl)cc3)C2)cc1
REMARK SMILES IDX 21 1 20 2 19 3 18 4 16 5 17 6 15 7 12 8 13 9 91 10 14 11
REMARK SMILES IDX 90 12 11 13 9 14 10 15 100 16 92 17 8 18 5 19 6 20 102 21
REMARK SMILES IDX 7 22 101 23 2 24 1 25 3 26 4 27 93 28 94 29 99 30 95 31
REMARK SMILES IDX 98 32 96 33 97 34 22 35 23 36 24 37 25 38 26 39 27 40 28 41
REMARK SMILES IDX 89 42 29 43 88 44 30 45 31 46 32 47 82 48 33 49 87 50 81 51
REMARK SMILES IDX 83 52 34 53 86 54 80 55 79 56 35 58 67 59 47 60 66 61 48 62
REMARK SMILES IDX 51 63 65 64 84 65 49 66 50 67 64 69 85 70 52 71 36 72 37 73
REMARK SMILES IDX 45 74 38 75 44 76 46 77 43 78 39 79 40 80 41 81 42 82 68 83
REMARK SMILES IDX 69 84 77 85 70 86 76 87 78 88 75 89 71 90 72 91 73 92 74 93
REMARK SMILES IDX 53 94 54 95 62 96 55 97 61 98 63 99 60 100 56 101 57 102
REMARK SMILES IDX 58 103 59 104
REMARK H PARENT 83 57 51 68
REMARK Flexibility Score: inf
ROOT
ATOM      1  O   UNL A   1      34.700  21.096  25.807  1.00  0.00    -0.374 OA
ENDROOT
BRANCH   1   2
ATOM      2  C   UNL A   1      33.301  21.281  26.034  1.00  0.00     0.202 C 
BRANCH   2   3
ATOM      3  C   UNL A   1      32.379  20.875  24.881  1.00  0.00     0.261 C 
BRANCH   3   4
ATOM      4  O   UNL A   1      33.017  21.107  23.615  1.00  0.00    -0.460 OA
BRANCH   4   5
ATOM      5  C   UNL A   1      32.241  21.676  22.666  1.00  0.00     0.338 C 
ATOM      6  O   UNL A   1      31.648  21.102  21.763  1.00  0.00    -0.246 OA
BRANCH   5   7
ATOM      7  C   UNL A   1      32.109  23.136  22.907  1.00  0.00     0.060 A 
ATOM      8  C   UNL A   1      32.054  25.862  23.567  1.00  0.00     0.060 A 
ATOM      9  C   UNL A   1      33.223  25.285  23.064  1.00  0.00     0.029 A 
ATOM     10  C   UNL A   1      30.883  25.091  23.615  1.00  0.00     0.029 A 
ATOM     11  C   UNL A   1      33.253  23.927  22.742  1.00  0.00     0.018 A 
ATOM     12  C   UNL A   1      30.905  23.731  23.299  1.00  0.00     0.018 A 
BRANCH   8  13
ATOM     13  N   UNL A   1      32.078  27.112  24.189  1.00  0.00    -0.257 N 
ATOM     14  C   UNL A   1      32.781  28.357  25.766  1.00  0.00     0.071 C 
ATOM     15  N   UNL A   1      33.185  27.530  24.852  1.00  0.00    -0.176 NA
ATOM     16  C   UNL A   1      31.290  28.466  25.935  1.00  0.00     0.091 C 
ATOM     17  C   UNL A   1      30.817  27.638  24.734  1.00  0.00     0.144 C 
BRANCH  14  18
ATOM     18  C   UNL A   1      33.714  29.147  26.592  1.00  0.00    -0.002 A 
ATOM     19  C   UNL A   1      35.559  30.583  28.115  1.00  0.00     0.067 A 
ATOM     20  C   UNL A   1      35.894  29.315  27.628  1.00  0.00     0.021 A 
ATOM     21  C   UNL A   1      34.304  31.138  27.846  1.00  0.00     0.021 A 
ATOM     22  C   UNL A   1      34.967  28.595  26.875  1.00  0.00     0.011 A 
ATOM     23  C   UNL A   1      33.381  30.418  27.073  1.00  0.00     0.011 A 
BRANCH  19  24
ATOM     24  S   UNL A   1      36.799  31.425  29.072  1.00  0.00     0.175 S 
ATOM     25  C   UNL A   1      36.746  33.138  28.632  1.00  0.00     0.163 C 
ATOM     26  O   UNL A   1      38.079  30.911  28.625  1.00  0.00    -0.224 OA
ATOM     27  O   UNL A   1      36.388  31.323  30.458  1.00  0.00    -0.224 OA
ENDBRANCH  19  24
ENDBRANCH  14  18
BRANCH  17  28
ATOM     28  C   UNL A   1      30.034  28.346  23.636  1.00  0.00    -0.023 A 
ATOM     29  C   UNL A   1      28.638  28.290  23.519  1.00  0.00     0.007 A 
ATOM     30  C   UNL A   1      30.738  29.190  22.751  1.00  0.00     0.007 A 
ATOM     31  C   UNL A   1      27.972  29.055  22.556  1.00  0.00     0.021 A 
ATOM     32  C   UNL A   1      30.071  29.984  21.815  1.00  0.00     0.021 A 
ATOM     33  C   UNL A   1      28.687  29.909  21.720  1.00  0.00     0.041 A 
ATOM     34  Cl  UNL A   1      27.853  30.890  20.581  1.00  0.00    -0.084 Cl
ENDBRANCH  17  28
ENDBRANCH   8  13
ENDBRANCH   5   7
ENDBRANCH   4   5
ENDBRANCH   3   4
ENDBRANCH   2   3
ENDBRANCH   1   2
BRANCH   1  35
ATOM     35  C   UNL A   1      35.417  22.193  25.235  1.00  0.00     0.202 C 
BRANCH  35  36
ATOM     36  C   UNL A   1      36.479  22.856  26.119  1.00  0.00     0.261 C 
BRANCH  36  37
ATOM     37  O   UNL A   1      37.740  22.999  25.444  1.00  0.00    -0.460 OA
BRANCH  37  38
ATOM     38  C   UNL A   1      38.795  22.454  26.098  1.00  0.00     0.338 C 
ATOM     39  O   UNL A   1      39.192  21.300  26.012  1.00  0.00    -0.246 OA
BRANCH  38  40
ATOM     40  C   UNL A   1      39.547  23.502  26.813  1.00  0.00     0.060 A 
ATOM     41  C   UNL A   1      39.328  24.830  26.427  1.00  0.00     0.016 A 
ATOM     42  C   UNL A   1      40.493  23.196  27.794  1.00  0.00     0.016 A 
ATOM     43  C   UNL A   1      40.090  25.855  26.983  1.00  0.00     0.010 A 
ATOM     44  C   UNL A   1      41.263  24.227  28.347  1.00  0.00     0.010 A 
ATOM     45  C   UNL A   1      41.089  25.556  27.919  1.00  0.00    -0.014 A 
BRANCH  45  46
ATOM     46  C   UNL A   1      42.043  26.614  28.335  1.00  0.00     0.031 A 
ATOM     47  C   UNL A   1      41.584  27.665  29.309  1.00  0.00     0.074 A 
ATOM     48  C   UNL A   1      43.307  26.622  27.875  1.00  0.00     0.049 A 
ATOM     49  N   UNL A   1      42.229  28.701  29.781  1.00  0.00    -0.248 NA
ATOM     50  C   UNL A   1      40.210  27.530  29.813  1.00  0.00     0.031 C 
ATOM     51  C   UNL A   1      43.877  25.633  26.962  1.00  0.00     0.029 A 
ATOM     52  N   UNL A   1      44.338  27.498  28.109  1.00  0.00    -0.354 N 
ATOM     53  C   UNL A   1      41.338  29.346  30.633  1.00  0.00     0.074 A 
ATOM     54  C   UNL A   1      40.097  28.603  30.581  1.00  0.00     0.031 C 
ATOM     55  C   UNL A   1      45.153  25.964  26.702  1.00  0.00     0.029 A 
ATOM     56  C   UNL A   1      45.479  27.207  27.399  1.00  0.00     0.049 A 
ATOM     57  H   UNL A   1      44.267  28.261  28.726  1.00  0.00     0.167 HD
ATOM     58  C   UNL A   1      41.541  30.452  31.393  1.00  0.00     0.034 A 
ATOM     59  C   UNL A   1      46.643  27.883  27.301  1.00  0.00     0.034 A 
ATOM     60  C   UNL A   1      42.783  31.186  31.424  1.00  0.00     0.049 A 
ATOM     61  C   UNL A   1      46.820  29.156  28.094  1.00  0.00     0.074 A 
ATOM     62  C   UNL A   1      43.104  32.305  32.173  1.00  0.00     0.029 A 
ATOM     63  N   UNL A   1      43.905  30.886  30.662  1.00  0.00    -0.354 N 
ATOM     64  N   UNL A   1      45.976  29.748  28.907  1.00  0.00    -0.248 NA
ATOM     65  C   UNL A   1      48.111  29.845  27.962  1.00  0.00     0.031 C 
ATOM     66  C   UNL A   1      44.390  32.724  31.809  1.00  0.00     0.029 A 
ATOM     67  C   UNL A   1      44.904  31.820  30.894  1.00  0.00     0.049 A 
ATOM     68  H   UNL A   1      43.979  30.122  30.045  1.00  0.00     0.167 HD
ATOM     69  C   UNL A   1      46.648  30.862  29.407  1.00  0.00     0.074 A 
ATOM     70  C   UNL A   1      47.968  30.851  28.812  1.00  0.00     0.031 C 
ATOM     71  C   UNL A   1      46.214  31.805  30.284  1.00  0.00     0.034 A 
BRANCH  58  72
ATOM     72  C   UNL A   1      40.373  30.958  32.205  1.00  0.00     0.023 A 
ATOM     73  C   UNL A   1      39.678  32.130  31.856  1.00  0.00     0.031 A 
ATOM     74  C   UNL A   1      39.968  30.275  33.365  1.00  0.00     0.131 A 
ATOM     75  C   UNL A   1      38.668  32.621  32.696  1.00  0.00     0.055 A 
ATOM     76  C   UNL A   1      38.908  30.726  34.155  1.00  0.00     0.041 A 
ATOM     77  F   UNL A   1      40.607  29.163  33.762  1.00  0.00    -0.206 F 
ATOM     78  C   UNL A   1      38.261  31.914  33.830  1.00  0.00     0.022 A 
BRANCH  75  79
ATOM     79  S   UNL A   1      37.990  34.272  32.367  1.00  0.00     0.124 S 
ATOM     80  O   UNL A   1      36.576  33.974  32.157  1.00  0.00    -0.237 OA
ATOM     81  O   UNL A   1      38.317  34.997  33.589  1.00  0.00    -0.237 OA
ATOM     82  O   UNL A   1      38.712  34.707  31.172  1.00  0.00    -0.744 OA
ENDBRANCH  75  79
ENDBRANCH  58  72
BRANCH  59  83
ATOM     83  C   UNL A   1      47.718  27.400  26.387  1.00  0.00     0.023 A 
ATOM     84  C   UNL A   1      47.743  27.764  25.032  1.00  0.00     0.031 A 
ATOM     85  C   UNL A   1      48.714  26.523  26.853  1.00  0.00     0.131 A 
ATOM     86  C   UNL A   1      48.717  27.221  24.181  1.00  0.00     0.055 A 
ATOM     87  C   UNL A   1      49.712  26.026  26.013  1.00  0.00     0.041 A 
ATOM     88  F   UNL A   1      48.736  26.143  28.140  1.00  0.00    -0.206 F 
ATOM     89  C   UNL A   1      49.710  26.365  24.665  1.00  0.00     0.022 A 
BRANCH  86  90
ATOM     90  S   UNL A   1      48.625  27.589  22.406  1.00  0.00     0.124 S 
ATOM     91  O   UNL A   1      47.329  28.250  22.307  1.00  0.00    -0.237 OA
ATOM     92  O   UNL A   1      49.796  28.437  22.212  1.00  0.00    -0.237 OA
ATOM     93  O   UNL A   1      48.703  26.270  21.781  1.00  0.00    -0.744 OA
ENDBRANCH  86  90
ENDBRANCH  59  83
BRANCH  71  94
ATOM     94  C   UNL A   1      47.201  32.872  30.691  1.00  0.00     0.023 A 
ATOM     95  C   UNL A   1      47.328  34.079  29.980  1.00  0.00     0.031 A 
ATOM     96  C   UNL A   1      48.033  32.675  31.809  1.00  0.00     0.131 A 
ATOM     97  C   UNL A   1      48.299  35.017  30.362  1.00  0.00     0.055 A 
ATOM     98  C   UNL A   1      48.955  33.638  32.220  1.00  0.00     0.041 A 
ATOM     99  F   UNL A   1      47.958  31.541  32.524  1.00  0.00    -0.206 F 
ATOM    100  C   UNL A   1      49.101  34.812  31.488  1.00  0.00     0.022 A 
BRANCH  97 101
ATOM    101  S   UNL A   1      48.564  36.476  29.316  1.00  0.00     0.124 S 
ATOM    102  O   UNL A   1      48.134  35.993  28.008  1.00  0.00    -0.237 OA
ATOM    103  O   UNL A   1      47.702  37.472  29.944  1.00  0.00    -0.237 OA
ATOM    104  O   UNL A   1      49.998  36.732  29.440  1.00  0.00    -0.744 OA
ENDBRANCH  97 101
ENDBRANCH  71  94
ENDBRANCH  45  46
ENDBRANCH  38  40
ENDBRANCH  37  38
ENDBRANCH  36  37
ENDBRANCH  35  36
ENDBRANCH   1  35
TORSDOF 21
ENDMDL
