MODEL 1
REMARK VINA RESULT:     -11.3      0.000      0.000
REMARK SMILES C[C@@H]1CC(=O)N([C@@H]2C=C[C@@H](C(=O)OCCOCCOC(=O)c3ccc(-c4c5nc(c(-c6cc(S(=O)(=O)[O-])ccc6F)c6ccc([nH]6)c(-c6cc(S(=O)(=O)[O-])ccc6F)c6nc(c(-c7cc(S(=O)(=O)[O-])ccc7F)c7ccc4[nH]7)C=C6)C=C5)cc3)C2)C1=O
REMARK SMILES IDX 17 1 16 2 15 3 14 4 13 5 11 6 12 7 10 8 7 9 8 10 85 11 9 12
REMARK SMILES IDX 6 13 1 14 2 15 3 16 86 17 4 18 87 19 5 20 18 21 19 22 20 23
REMARK SMILES IDX 21 24 22 25 23 26 84 27 24 28 83 29 25 30 26 31 27 32 77 33
REMARK SMILES IDX 28 34 82 35 76 36 78 37 29 38 81 39 75 40 74 41 30 43 62 44
REMARK SMILES IDX 42 45 61 46 43 47 46 48 60 49 79 50 44 51 45 52 59 54 80 55
REMARK SMILES IDX 47 56 31 57 32 58 40 59 33 60 39 61 41 62 38 63 34 64 35 65
REMARK SMILES IDX 36 66 37 67 63 68 64 69 72 70 65 71 71 72 73 73 70 74 66 75
REMARK SMILES IDX 67 76 68 77 69 78 48 79 49 80 57 81 50 82 56 83 58 84 55 85
REMARK SMILES IDX 51 86 52 87 53 88 54 89
REMARK H PARENT 78 42 46 53
REMARK Flexibility Score: inf
ROOT
ATOM      1  C   UNL A   1      35.152  21.439  24.619  1.00  0.00     0.202 C 
ENDROOT
BRANCH   1   2
ATOM      2  O   UNL A   1      34.337  22.568  24.937  1.00  0.00    -0.374 OA
BRANCH   2   3
ATOM      3  C   UNL A   1      34.900  23.576  25.778  1.00  0.00     0.202 C 
BRANCH   3   4
ATOM      4  C   UNL A   1      34.533  25.021  25.429  1.00  0.00     0.261 C 
BRANCH   4   5
ATOM      5  O   UNL A   1      33.330  25.047  24.644  1.00  0.00    -0.463 OA
BRANCH   5   6
ATOM      6  C   UNL A   1      33.454  25.514  23.377  1.00  0.00     0.312 C 
ATOM      7  O   UNL A   1      34.073  24.946  22.482  1.00  0.00    -0.252 OA
BRANCH   6   8
ATOM      8  C   UNL A   1      32.659  26.796  23.143  1.00  0.00     0.124 C 
ATOM      9  C   UNL A   1      31.639  28.681  24.361  1.00  0.00     0.117 C 
ATOM     10  C   UNL A   1      33.004  29.016  23.847  1.00  0.00    -0.005 C 
ATOM     11  C   UNL A   1      31.558  27.160  24.157  1.00  0.00     0.049 C 
ATOM     12  C   UNL A   1      33.562  27.994  23.189  1.00  0.00    -0.014 C 
BRANCH   9  13
ATOM     13  N   UNL A   1      30.638  29.470  23.655  1.00  0.00    -0.275 N 
ATOM     14  C   UNL A   1      27.738  31.170  23.869  1.00  0.00     0.018 C 
ATOM     15  C   UNL A   1      29.120  31.213  23.233  1.00  0.00     0.085 C 
ATOM     16  C   UNL A   1      29.222  30.328  22.003  1.00  0.00     0.114 C 
ATOM     17  C   UNL A   1      30.154  30.643  24.169  1.00  0.00     0.233 C 
ATOM     18  C   UNL A   1      30.103  29.192  22.430  1.00  0.00     0.230 C 
ATOM     19  O   UNL A   1      30.464  31.159  25.233  1.00  0.00    -0.274 OA
ATOM     20  O   UNL A   1      30.284  28.204  21.735  1.00  0.00    -0.274 OA
ENDBRANCH   9  13
ENDBRANCH   6   8
ENDBRANCH   5   6
ENDBRANCH   4   5
ENDBRANCH   3   4
ENDBRANCH   2   3
ENDBRANCH   1   2
BRANCH   1  21
ATOM     21  C   UNL A   1      36.334  21.147  25.553  1.00  0.00     0.261 C 
BRANCH  21  22
ATOM     22  O   UNL A   1      37.612  21.431  24.954  1.00  0.00    -0.460 OA
BRANCH  22  23
ATOM     23  C   UNL A   1      38.680  21.097  25.722  1.00  0.00     0.338 C 
ATOM     24  O   UNL A   1      39.189  19.988  25.827  1.00  0.00    -0.246 OA
BRANCH  23  25
ATOM     25  C   UNL A   1      39.295  22.304  26.307  1.00  0.00     0.060 A 
ATOM     26  C   UNL A   1      38.718  23.541  25.995  1.00  0.00     0.016 A 
ATOM     27  C   UNL A   1      40.462  22.240  27.073  1.00  0.00     0.016 A 
ATOM     28  C   UNL A   1      39.324  24.723  26.418  1.00  0.00     0.010 A 
ATOM     29  C   UNL A   1      41.074  23.430  27.488  1.00  0.00     0.010 A 
ATOM     30  C   UNL A   1      40.525  24.678  27.139  1.00  0.00    -0.014 A 
BRANCH  30  31
ATOM     31  C   UNL A   1      41.262  25.938  27.412  1.00  0.00     0.031 A 
ATOM     32  C   UNL A   1      40.592  27.021  28.215  1.00  0.00     0.074 A 
ATOM     33  C   UNL A   1      42.527  26.100  26.982  1.00  0.00     0.049 A 
ATOM     34  N   UNL A   1      41.037  28.207  28.545  1.00  0.00    -0.248 NA
ATOM     35  C   UNL A   1      39.240  26.724  28.710  1.00  0.00     0.031 C 
ATOM     36  C   UNL A   1      43.297  25.104  26.237  1.00  0.00     0.029 A 
ATOM     37  N   UNL A   1      43.386  27.164  27.106  1.00  0.00    -0.354 N 
ATOM     38  C   UNL A   1      40.022  28.800  29.287  1.00  0.00     0.074 A 
ATOM     39  C   UNL A   1      38.925  27.855  29.325  1.00  0.00     0.031 C 
ATOM     40  C   UNL A   1      44.511  25.609  25.962  1.00  0.00     0.029 A 
ATOM     41  C   UNL A   1      44.594  26.976  26.475  1.00  0.00     0.049 A 
ATOM     42  H   UNL A   1      43.159  27.984  27.601  1.00  0.00     0.167 HD
ATOM     43  C   UNL A   1      40.010  30.015  29.890  1.00  0.00     0.034 A 
ATOM     44  C   UNL A   1      45.633  27.818  26.308  1.00  0.00     0.034 A 
ATOM     45  C   UNL A   1      41.105  30.952  29.832  1.00  0.00     0.049 A 
ATOM     46  C   UNL A   1      45.560  29.202  26.908  1.00  0.00     0.074 A 
ATOM     47  C   UNL A   1      41.200  32.205  30.413  1.00  0.00     0.029 A 
ATOM     48  N   UNL A   1      42.293  30.749  29.141  1.00  0.00    -0.354 N 
ATOM     49  N   UNL A   1      44.595  29.748  27.614  1.00  0.00    -0.248 NA
ATOM     50  C   UNL A   1      46.719  30.080  26.695  1.00  0.00     0.031 C 
ATOM     51  C   UNL A   1      42.410  32.785  30.017  1.00  0.00     0.029 A 
ATOM     52  C   UNL A   1      43.109  31.864  29.253  1.00  0.00     0.049 A 
ATOM     53  H   UNL A   1      42.522  29.930  28.644  1.00  0.00     0.167 HD
ATOM     54  C   UNL A   1      45.048  31.021  27.954  1.00  0.00     0.074 A 
ATOM     55  C   UNL A   1      46.374  31.156  27.389  1.00  0.00     0.031 C 
ATOM     56  C   UNL A   1      44.426  31.991  28.673  1.00  0.00     0.034 A 
BRANCH  43  57
ATOM     57  C   UNL A   1      38.749  30.415  30.618  1.00  0.00     0.023 A 
ATOM     58  C   UNL A   1      37.687  31.060  29.961  1.00  0.00     0.031 A 
ATOM     59  C   UNL A   1      38.617  30.166  31.997  1.00  0.00     0.131 A 
ATOM     60  C   UNL A   1      36.568  31.488  30.694  1.00  0.00     0.055 A 
ATOM     61  C   UNL A   1      37.470  30.527  32.704  1.00  0.00     0.041 A 
ATOM     62  F   UNL A   1      39.609  29.573  32.681  1.00  0.00    -0.206 F 
ATOM     63  C   UNL A   1      36.442  31.205  32.055  1.00  0.00     0.022 A 
BRANCH  60  64
ATOM     64  S   UNL A   1      35.339  32.536  29.868  1.00  0.00     0.124 S 
ATOM     65  O   UNL A   1      34.851  31.648  28.817  1.00  0.00    -0.237 OA
ATOM     66  O   UNL A   1      34.401  32.830  30.944  1.00  0.00    -0.237 OA
ATOM     67  O   UNL A   1      36.122  33.676  29.396  1.00  0.00    -0.744 OA
ENDBRANCH  60  64
ENDBRANCH  43  57
BRANCH  44  68
ATOM     68  C   UNL A   1      46.817  27.407  25.499  1.00  0.00     0.023 A 
ATOM     69  C   UNL A   1      46.990  27.853  24.179  1.00  0.00     0.031 A 
ATOM     70  C   UNL A   1      47.764  26.504  26.018  1.00  0.00     0.131 A 
ATOM     71  C   UNL A   1      48.053  27.357  23.407  1.00  0.00     0.055 A 
ATOM     72  C   UNL A   1      48.850  26.057  25.264  1.00  0.00     0.041 A 
ATOM     73  F   UNL A   1      47.644  26.044  27.274  1.00  0.00    -0.206 F 
ATOM     74  C   UNL A   1      48.991  26.474  23.945  1.00  0.00     0.022 A 
BRANCH  71  75
ATOM     75  S   UNL A   1      48.140  27.814  21.653  1.00  0.00     0.124 S 
ATOM     76  O   UNL A   1      48.312  26.514  21.016  1.00  0.00    -0.237 OA
ATOM     77  O   UNL A   1      46.850  28.464  21.447  1.00  0.00    -0.237 OA
ATOM     78  O   UNL A   1      49.299  28.700  21.589  1.00  0.00    -0.744 OA
ENDBRANCH  71  75
ENDBRANCH  44  68
BRANCH  56  79
ATOM     79  C   UNL A   1      45.199  33.263  28.925  1.00  0.00     0.023 A 
ATOM     80  C   UNL A   1      45.244  34.304  27.980  1.00  0.00     0.031 A 
ATOM     81  C   UNL A   1      45.912  33.430  30.126  1.00  0.00     0.131 A 
ATOM     82  C   UNL A   1      46.030  35.440  28.228  1.00  0.00     0.055 A 
ATOM     83  C   UNL A   1      46.644  34.588  30.393  1.00  0.00     0.041 A 
ATOM     84  F   UNL A   1      45.905  32.469  31.064  1.00  0.00    -0.206 F 
ATOM     85  C   UNL A   1      46.717  35.595  29.434  1.00  0.00     0.022 A 
BRANCH  82  86
ATOM     86  S   UNL A   1      46.218  36.675  26.913  1.00  0.00     0.124 S 
ATOM     87  O   UNL A   1      47.365  37.446  27.382  1.00  0.00    -0.237 OA
ATOM     88  O   UNL A   1      46.447  35.846  25.735  1.00  0.00    -0.237 OA
ATOM     89  O   UNL A   1      44.942  37.389  26.928  1.00  0.00    -0.744 OA
ENDBRANCH  82  86
ENDBRANCH  56  79
ENDBRANCH  30  31
ENDBRANCH  23  25
ENDBRANCH  22  23
ENDBRANCH  21  22
ENDBRANCH   1  21
TORSDOF 18
ENDMDL
MODEL 2
REMARK VINA RESULT:     -11.0      4.865     10.263
REMARK SMILES C[C@@H]1CC(=O)N([C@@H]2C=C[C@@H](C(=O)OCCOCCOC(=O)c3ccc(-c4c5nc(c(-c6cc(S(=O)(=O)[O-])ccc6F)c6ccc([nH]6)c(-c6cc(S(=O)(=O)[O-])ccc6F)c6nc(c(-c7cc(S(=O)(=O)[O-])ccc7F)c7ccc4[nH]7)C=C6)C=C5)cc3)C2)C1=O
REMARK SMILES IDX 17 1 16 2 15 3 14 4 13 5 11 6 12 7 10 8 7 9 8 10 85 11 9 12
REMARK SMILES IDX 6 13 1 14 2 15 3 16 86 17 4 18 87 19 5 20 18 21 19 22 20 23
REMARK SMILES IDX 21 24 22 25 23 26 84 27 24 28 83 29 25 30 26 31 27 32 77 33
REMARK SMILES IDX 28 34 82 35 76 36 78 37 29 38 81 39 75 40 74 41 30 43 62 44
REMARK SMILES IDX 42 45 61 46 43 47 46 48 60 49 79 50 44 51 45 52 59 54 80 55
REMARK SMILES IDX 47 56 31 57 32 58 40 59 33 60 39 61 41 62 38 63 34 64 35 65
REMARK SMILES IDX 36 66 37 67 63 68 64 69 72 70 65 71 71 72 73 73 70 74 66 75
REMARK SMILES IDX 67 76 68 77 69 78 48 79 49 80 57 81 50 82 56 83 58 84 55 85
REMARK SMILES IDX 51 86 52 87 53 88 54 89
REMARK H PARENT 78 42 46 53
REMARK Flexibility Score: inf
ROOT
ATOM      1  C   UNL A   1      31.524  29.572  24.957  1.00  0.00     0.202 C 
ENDROOT
BRANCH   1   2
ATOM      2  O   UNL A   1      30.780  29.630  23.740  1.00  0.00    -0.374 OA
BRANCH   2   3
ATOM      3  C   UNL A   1      31.098  28.679  22.722  1.00  0.00     0.202 C 
BRANCH   3   4
ATOM      4  C   UNL A   1      31.390  27.256  23.203  1.00  0.00     0.261 C 
BRANCH   4   5
ATOM      5  O   UNL A   1      32.806  27.009  23.180  1.00  0.00    -0.463 OA
BRANCH   5   6
ATOM      6  C   UNL A   1      33.216  25.955  22.432  1.00  0.00     0.312 C 
ATOM      7  O   UNL A   1      33.651  26.039  21.287  1.00  0.00    -0.252 OA
BRANCH   6   8
ATOM      8  C   UNL A   1      33.166  24.636  23.198  1.00  0.00     0.124 C 
ATOM      9  C   UNL A   1      34.607  22.769  23.918  1.00  0.00     0.117 C 
ATOM     10  C   UNL A   1      34.449  23.803  24.989  1.00  0.00    -0.005 C 
ATOM     11  C   UNL A   1      34.021  23.464  22.679  1.00  0.00     0.049 C 
ATOM     12  C   UNL A   1      33.671  24.819  24.599  1.00  0.00    -0.014 C 
BRANCH   9  13
ATOM     13  N   UNL A   1      33.948  21.533  24.323  1.00  0.00    -0.275 N 
ATOM     14  C   UNL A   1      33.987  18.167  24.227  1.00  0.00     0.018 C 
ATOM     15  C   UNL A   1      33.709  19.347  25.148  1.00  0.00     0.085 C 
ATOM     16  C   UNL A   1      32.334  19.950  24.920  1.00  0.00     0.114 C 
ATOM     17  C   UNL A   1      34.651  20.485  24.852  1.00  0.00     0.233 C 
ATOM     18  C   UNL A   1      32.608  21.277  24.277  1.00  0.00     0.230 C 
ATOM     19  O   UNL A   1      35.858  20.432  25.039  1.00  0.00    -0.274 OA
ATOM     20  O   UNL A   1      31.721  21.980  23.816  1.00  0.00    -0.274 OA
ENDBRANCH   9  13
ENDBRANCH   6   8
ENDBRANCH   5   6
ENDBRANCH   4   5
ENDBRANCH   3   4
ENDBRANCH   2   3
ENDBRANCH   1   2
BRANCH   1  21
ATOM     21  C   UNL A   1      31.437  30.790  25.888  1.00  0.00     0.261 C 
BRANCH  21  22
ATOM     22  O   UNL A   1      32.317  30.698  27.024  1.00  0.00    -0.460 OA
BRANCH  22  23
ATOM     23  C   UNL A   1      33.068  31.806  27.245  1.00  0.00     0.338 C 
ATOM     24  O   UNL A   1      32.693  32.971  27.181  1.00  0.00    -0.246 OA
BRANCH  23  25
ATOM     25  C   UNL A   1      34.398  31.436  27.764  1.00  0.00     0.060 A 
ATOM     26  C   UNL A   1      34.609  30.094  28.107  1.00  0.00     0.016 A 
ATOM     27  C   UNL A   1      35.393  32.390  27.993  1.00  0.00     0.016 A 
ATOM     28  C   UNL A   1      35.802  29.707  28.714  1.00  0.00     0.010 A 
ATOM     29  C   UNL A   1      36.587  31.999  28.612  1.00  0.00     0.010 A 
ATOM     30  C   UNL A   1      36.787  30.661  29.002  1.00  0.00    -0.014 A 
BRANCH  30  31
ATOM     31  C   UNL A   1      37.964  30.275  29.822  1.00  0.00     0.031 A 
ATOM     32  C   UNL A   1      38.952  29.285  29.267  1.00  0.00     0.074 A 
ATOM     33  C   UNL A   1      38.168  30.828  31.032  1.00  0.00     0.049 A 
ATOM     34  N   UNL A   1      40.028  28.785  29.820  1.00  0.00    -0.248 NA
ATOM     35  C   UNL A   1      38.689  28.793  27.906  1.00  0.00     0.031 C 
ATOM     36  C   UNL A   1      37.307  31.833  31.655  1.00  0.00     0.029 A 
ATOM     37  N   UNL A   1      39.163  30.620  31.955  1.00  0.00    -0.354 N 
ATOM     38  C   UNL A   1      40.574  27.922  28.876  1.00  0.00     0.074 A 
ATOM     39  C   UNL A   1      39.686  27.938  27.732  1.00  0.00     0.031 C 
ATOM     40  C   UNL A   1      37.806  32.146  32.863  1.00  0.00     0.029 A 
ATOM     41  C   UNL A   1      38.998  31.338  33.116  1.00  0.00     0.049 A 
ATOM     42  H   UNL A   1      39.923  30.014  31.800  1.00  0.00     0.167 HD
ATOM     43  C   UNL A   1      41.714  27.191  28.953  1.00  0.00     0.034 A 
ATOM     44  C   UNL A   1      39.711  31.325  34.262  1.00  0.00     0.034 A 
ATOM     45  C   UNL A   1      42.581  27.172  30.106  1.00  0.00     0.049 A 
ATOM     46  C   UNL A   1      40.925  30.432  34.360  1.00  0.00     0.074 A 
ATOM     47  C   UNL A   1      43.763  26.475  30.285  1.00  0.00     0.029 A 
ATOM     48  N   UNL A   1      42.356  27.874  31.284  1.00  0.00    -0.354 N 
ATOM     49  N   UNL A   1      41.433  29.624  33.457  1.00  0.00    -0.248 NA
ATOM     50  C   UNL A   1      41.664  30.454  35.629  1.00  0.00     0.031 C 
ATOM     51  C   UNL A   1      44.213  26.698  31.592  1.00  0.00     0.029 A 
ATOM     52  C   UNL A   1      43.357  27.598  32.204  1.00  0.00     0.049 A 
ATOM     53  H   UNL A   1      41.596  28.479  31.443  1.00  0.00     0.167 HD
ATOM     54  C   UNL A   1      42.569  29.069  34.041  1.00  0.00     0.074 A 
ATOM     55  C   UNL A   1      42.678  29.643  35.366  1.00  0.00     0.031 C 
ATOM     56  C   UNL A   1      43.447  28.168  33.528  1.00  0.00     0.034 A 
BRANCH  43  57
ATOM     57  C   UNL A   1      42.055  26.311  27.774  1.00  0.00     0.023 A 
ATOM     58  C   UNL A   1      41.662  24.962  27.719  1.00  0.00     0.031 A 
ATOM     59  C   UNL A   1      42.801  26.825  26.699  1.00  0.00     0.131 A 
ATOM     60  C   UNL A   1      42.071  24.159  26.642  1.00  0.00     0.055 A 
ATOM     61  C   UNL A   1      43.140  26.040  25.595  1.00  0.00     0.041 A 
ATOM     62  F   UNL A   1      43.222  28.100  26.708  1.00  0.00    -0.206 F 
ATOM     63  C   UNL A   1      42.786  24.694  25.569  1.00  0.00     0.022 A 
BRANCH  60  64
ATOM     64  S   UNL A   1      41.766  22.372  26.727  1.00  0.00     0.124 S 
ATOM     65  O   UNL A   1      40.327  22.329  26.973  1.00  0.00    -0.237 OA
ATOM     66  O   UNL A   1      42.205  21.914  25.415  1.00  0.00    -0.237 OA
ATOM     67  O   UNL A   1      42.596  21.936  27.849  1.00  0.00    -0.744 OA
ENDBRANCH  60  64
ENDBRANCH  43  57
BRANCH  44  68
ATOM     68  C   UNL A   1      39.278  32.142  35.431  1.00  0.00     0.023 A 
ATOM     69  C   UNL A   1      39.665  33.485  35.567  1.00  0.00     0.031 A 
ATOM     70  C   UNL A   1      38.520  31.568  36.469  1.00  0.00     0.131 A 
ATOM     71  C   UNL A   1      39.337  34.193  36.735  1.00  0.00     0.055 A 
ATOM     72  C   UNL A   1      38.149  32.292  37.603  1.00  0.00     0.041 A 
ATOM     73  F   UNL A   1      38.126  30.286  36.392  1.00  0.00    -0.206 F 
ATOM     74  C   UNL A   1      38.570  33.610  37.746  1.00  0.00     0.022 A 
BRANCH  71  75
ATOM     75  S   UNL A   1      40.008  35.864  36.955  1.00  0.00     0.124 S 
ATOM     76  O   UNL A   1      39.287  36.320  38.138  1.00  0.00    -0.237 OA
ATOM     77  O   UNL A   1      41.431  35.596  37.133  1.00  0.00    -0.237 OA
ATOM     78  O   UNL A   1      39.654  36.539  35.708  1.00  0.00    -0.744 OA
ENDBRANCH  71  75
ENDBRANCH  44  68
BRANCH  56  79
ATOM     79  C   UNL A   1      44.627  27.789  34.391  1.00  0.00     0.023 A 
ATOM     80  C   UNL A   1      45.836  28.505  34.352  1.00  0.00     0.031 A 
ATOM     81  C   UNL A   1      44.541  26.683  35.257  1.00  0.00     0.131 A 
ATOM     82  C   UNL A   1      46.928  28.075  35.121  1.00  0.00     0.055 A 
ATOM     83  C   UNL A   1      45.611  26.296  36.065  1.00  0.00     0.041 A 
ATOM     84  F   UNL A   1      43.411  25.962  35.334  1.00  0.00    -0.206 F 
ATOM     85  C   UNL A   1      46.818  26.986  35.989  1.00  0.00     0.022 A 
BRANCH  82  86
ATOM     86  S   UNL A   1      48.526  28.905  34.908  1.00  0.00     0.124 S 
ATOM     87  O   UNL A   1      49.469  27.816  35.149  1.00  0.00    -0.237 OA
ATOM     88  O   UNL A   1      48.448  29.386  33.532  1.00  0.00    -0.237 OA
ATOM     89  O   UNL A   1      48.511  29.950  35.930  1.00  0.00    -0.744 OA
ENDBRANCH  82  86
ENDBRANCH  56  79
ENDBRANCH  30  31
ENDBRANCH  23  25
ENDBRANCH  22  23
ENDBRANCH  21  22
ENDBRANCH   1  21
TORSDOF 18
ENDMDL
MODEL 3
REMARK VINA RESULT:     -11.0      5.772      9.723
REMARK SMILES C[C@@H]1CC(=O)N([C@@H]2C=C[C@@H](C(=O)OCCOCCOC(=O)c3ccc(-c4c5nc(c(-c6cc(S(=O)(=O)[O-])ccc6F)c6ccc([nH]6)c(-c6cc(S(=O)(=O)[O-])ccc6F)c6nc(c(-c7cc(S(=O)(=O)[O-])ccc7F)c7ccc4[nH]7)C=C6)C=C5)cc3)C2)C1=O
REMARK SMILES IDX 17 1 16 2 15 3 14 4 13 5 11 6 12 7 10 8 7 9 8 10 85 11 9 12
REMARK SMILES IDX 6 13 1 14 2 15 3 16 86 17 4 18 87 19 5 20 18 21 19 22 20 23
REMARK SMILES IDX 21 24 22 25 23 26 84 27 24 28 83 29 25 30 26 31 27 32 77 33
REMARK SMILES IDX 28 34 82 35 76 36 78 37 29 38 81 39 75 40 74 41 30 43 62 44
REMARK SMILES IDX 42 45 61 46 43 47 46 48 60 49 79 50 44 51 45 52 59 54 80 55
REMARK SMILES IDX 47 56 31 57 32 58 40 59 33 60 39 61 41 62 38 63 34 64 35 65
REMARK SMILES IDX 36 66 37 67 63 68 64 69 72 70 65 71 71 72 73 73 70 74 66 75
REMARK SMILES IDX 67 76 68 77 69 78 48 79 49 80 57 81 50 82 56 83 58 84 55 85
REMARK SMILES IDX 51 86 52 87 53 88 54 89
REMARK H PARENT 78 42 46 53
REMARK Flexibility Score: inf
ROOT
ATOM      1  C   UNL A   1      34.993  34.286  27.961  1.00  0.00     0.202 C 
ENDROOT
BRANCH   1   2
ATOM      2  O   UNL A   1      34.943  35.512  28.691  1.00  0.00    -0.374 OA
BRANCH   2   3
ATOM      3  C   UNL A   1      33.899  36.434  28.368  1.00  0.00     0.202 C 
BRANCH   3   4
ATOM      4  C   UNL A   1      32.716  36.473  29.338  1.00  0.00     0.261 C 
BRANCH   4   5
ATOM      5  O   UNL A   1      33.087  37.168  30.540  1.00  0.00    -0.463 OA
BRANCH   5   6
ATOM      6  C   UNL A   1      32.888  36.500  31.703  1.00  0.00     0.312 C 
ATOM      7  O   UNL A   1      31.815  36.435  32.295  1.00  0.00    -0.252 OA
BRANCH   6   8
ATOM      8  C   UNL A   1      34.132  35.747  32.168  1.00  0.00     0.124 C 
ATOM      9  C   UNL A   1      34.964  34.363  34.031  1.00  0.00     0.117 C 
ATOM     10  C   UNL A   1      34.454  33.531  32.896  1.00  0.00    -0.005 C 
ATOM     11  C   UNL A   1      34.476  35.775  33.669  1.00  0.00     0.049 C 
ATOM     12  C   UNL A   1      33.998  34.280  31.885  1.00  0.00    -0.014 C 
BRANCH   9  13
ATOM     13  N   UNL A   1      36.408  34.203  34.152  1.00  0.00    -0.275 N 
ATOM     14  C   UNL A   1      39.159  34.829  35.990  1.00  0.00     0.018 C 
ATOM     15  C   UNL A   1      38.486  33.753  35.150  1.00  0.00     0.085 C 
ATOM     16  C   UNL A   1      38.682  33.971  33.661  1.00  0.00     0.114 C 
ATOM     17  C   UNL A   1      36.990  33.803  35.324  1.00  0.00     0.233 C 
ATOM     18  C   UNL A   1      37.328  34.376  33.158  1.00  0.00     0.230 C 
ATOM     19  O   UNL A   1      36.421  33.549  36.375  1.00  0.00    -0.274 OA
ATOM     20  O   UNL A   1      37.142  34.776  32.019  1.00  0.00    -0.274 OA
ENDBRANCH   9  13
ENDBRANCH   6   8
ENDBRANCH   5   6
ENDBRANCH   4   5
ENDBRANCH   3   4
ENDBRANCH   2   3
ENDBRANCH   1   2
BRANCH   1  21
ATOM     21  C   UNL A   1      33.929  33.230  28.297  1.00  0.00     0.261 C 
BRANCH  21  22
ATOM     22  O   UNL A   1      34.475  32.061  28.935  1.00  0.00    -0.460 OA
BRANCH  22  23
ATOM     23  C   UNL A   1      34.555  30.969  28.134  1.00  0.00     0.338 C 
ATOM     24  O   UNL A   1      33.780  30.661  27.235  1.00  0.00    -0.246 OA
BRANCH  23  25
ATOM     25  C   UNL A   1      35.825  30.253  28.357  1.00  0.00     0.060 A 
ATOM     26  C   UNL A   1      35.999  29.613  29.591  1.00  0.00     0.016 A 
ATOM     27  C   UNL A   1      36.860  30.276  27.419  1.00  0.00     0.016 A 
ATOM     28  C   UNL A   1      37.222  29.024  29.907  1.00  0.00     0.010 A 
ATOM     29  C   UNL A   1      38.092  29.692  27.744  1.00  0.00     0.010 A 
ATOM     30  C   UNL A   1      38.289  29.088  29.000  1.00  0.00    -0.014 A 
BRANCH  30  31
ATOM     31  C   UNL A   1      39.638  28.634  29.423  1.00  0.00     0.031 A 
ATOM     32  C   UNL A   1      40.362  29.393  30.503  1.00  0.00     0.074 A 
ATOM     33  C   UNL A   1      40.195  27.537  28.879  1.00  0.00     0.049 A 
ATOM     34  N   UNL A   1      41.555  29.192  31.003  1.00  0.00    -0.248 NA
ATOM     35  C   UNL A   1      39.643  30.531  31.094  1.00  0.00     0.031 C 
ATOM     36  C   UNL A   1      39.571  26.692  27.861  1.00  0.00     0.029 A 
ATOM     37  N   UNL A   1      41.414  26.946  29.103  1.00  0.00    -0.354 N 
ATOM     38  C   UNL A   1      41.731  30.176  31.970  1.00  0.00     0.074 A 
ATOM     39  C   UNL A   1      40.537  30.995  31.957  1.00  0.00     0.031 C 
ATOM     40  C   UNL A   1      40.417  25.698  27.541  1.00  0.00     0.029 A 
ATOM     41  C   UNL A   1      41.656  25.855  28.301  1.00  0.00     0.049 A 
ATOM     42  H   UNL A   1      42.055  27.273  29.776  1.00  0.00     0.167 HD
ATOM     43  C   UNL A   1      42.787  30.372  32.799  1.00  0.00     0.034 A 
ATOM     44  C   UNL A   1      42.759  25.090  28.175  1.00  0.00     0.034 A 
ATOM     45  C   UNL A   1      43.978  29.557  32.791  1.00  0.00     0.049 A 
ATOM     46  C   UNL A   1      43.960  25.384  29.043  1.00  0.00     0.074 A 
ATOM     47  C   UNL A   1      45.101  29.663  33.593  1.00  0.00     0.029 A 
ATOM     48  N   UNL A   1      44.209  28.491  31.930  1.00  0.00    -0.354 N 
ATOM     49  N   UNL A   1      44.111  26.315  29.958  1.00  0.00    -0.248 NA
ATOM     50  C   UNL A   1      45.135  24.521  28.865  1.00  0.00     0.031 C 
ATOM     51  C   UNL A   1      46.036  28.711  33.171  1.00  0.00     0.029 A 
ATOM     52  C   UNL A   1      45.467  27.956  32.158  1.00  0.00     0.049 A 
ATOM     53  H   UNL A   1      43.570  28.164  31.256  1.00  0.00     0.167 HD
ATOM     54  C   UNL A   1      45.386  26.125  30.485  1.00  0.00     0.074 A 
ATOM     55  C   UNL A   1      45.956  24.986  29.796  1.00  0.00     0.031 C 
ATOM     56  C   UNL A   1      46.029  26.826  31.454  1.00  0.00     0.034 A 
BRANCH  43  57
ATOM     57  C   UNL A   1      42.718  31.547  33.744  1.00  0.00     0.023 A 
ATOM     58  C   UNL A   1      42.412  31.385  35.107  1.00  0.00     0.031 A 
ATOM     59  C   UNL A   1      42.942  32.852  33.270  1.00  0.00     0.131 A 
ATOM     60  C   UNL A   1      42.277  32.512  35.933  1.00  0.00     0.055 A 
ATOM     61  C   UNL A   1      42.881  33.963  34.114  1.00  0.00     0.041 A 
ATOM     62  F   UNL A   1      43.216  33.070  31.974  1.00  0.00    -0.206 F 
ATOM     63  C   UNL A   1      42.533  33.797  35.451  1.00  0.00     0.022 A 
BRANCH  60  64
ATOM     64  S   UNL A   1      41.635  32.285  37.614  1.00  0.00     0.124 S 
ATOM     65  O   UNL A   1      41.789  33.625  38.173  1.00  0.00    -0.237 OA
ATOM     66  O   UNL A   1      40.265  31.847  37.372  1.00  0.00    -0.237 OA
ATOM     67  O   UNL A   1      42.521  31.273  38.186  1.00  0.00    -0.744 OA
ENDBRANCH  60  64
ENDBRANCH  43  57
BRANCH  44  68
ATOM     68  C   UNL A   1      42.811  23.999  27.159  1.00  0.00     0.023 A 
ATOM     69  C   UNL A   1      42.183  22.764  27.381  1.00  0.00     0.031 A 
ATOM     70  C   UNL A   1      43.551  24.157  25.972  1.00  0.00     0.131 A 
ATOM     71  C   UNL A   1      42.346  21.719  26.456  1.00  0.00     0.055 A 
ATOM     72  C   UNL A   1      43.665  23.134  25.029  1.00  0.00     0.041 A 
ATOM     73  F   UNL A   1      44.175  25.318  25.711  1.00  0.00    -0.206 F 
ATOM     74  C   UNL A   1      43.071  21.901  25.276  1.00  0.00     0.022 A 
BRANCH  71  75
ATOM     75  S   UNL A   1      41.673  20.085  26.863  1.00  0.00     0.124 S 
ATOM     76  O   UNL A   1      40.455  20.437  27.584  1.00  0.00    -0.237 OA
ATOM     77  O   UNL A   1      41.489  19.496  25.541  1.00  0.00    -0.237 OA
ATOM     78  O   UNL A   1      42.725  19.476  27.674  1.00  0.00    -0.744 OA
ENDBRANCH  71  75
ENDBRANCH  44  68
BRANCH  56  79
ATOM     79  C   UNL A   1      47.403  26.345  31.855  1.00  0.00     0.023 A 
ATOM     80  C   UNL A   1      47.587  25.353  32.834  1.00  0.00     0.031 A 
ATOM     81  C   UNL A   1      48.548  26.901  31.255  1.00  0.00     0.131 A 
ATOM     82  C   UNL A   1      48.884  24.986  33.223  1.00  0.00     0.055 A 
ATOM     83  C   UNL A   1      49.835  26.489  31.602  1.00  0.00     0.041 A 
ATOM     84  F   UNL A   1      48.432  27.853  30.314  1.00  0.00    -0.206 F 
ATOM     85  C   UNL A   1      50.009  25.535  32.602  1.00  0.00     0.022 A 
BRANCH  82  86
ATOM     86  S   UNL A   1      49.087  23.843  34.616  1.00  0.00     0.124 S 
ATOM     87  O   UNL A   1      50.124  22.942  34.122  1.00  0.00    -0.237 OA
ATOM     88  O   UNL A   1      49.484  24.737  35.699  1.00  0.00    -0.237 OA
ATOM     89  O   UNL A   1      47.762  23.243  34.764  1.00  0.00    -0.744 OA
ENDBRANCH  82  86
ENDBRANCH  56  79
ENDBRANCH  30  31
ENDBRANCH  23  25
ENDBRANCH  22  23
ENDBRANCH  21  22
ENDBRANCH   1  21
TORSDOF 18
ENDMDL
