MODEL 1
REMARK VINA RESULT:     -11.7      0.000      0.000
REMARK SMILES COc1cccc([C@H]2CC(c3ccc(S(C)(=O)=O)cc3)=NN2c2ccc(C(=O)OCCOCCOC(=O)c3ccc(-c4c5nc(c(-c6cc(S(=O)(=O)[O-])ccc6F)c6ccc([nH]6)c(-c6cc(S(=O)(=O)[O-])ccc6F)c6nc(c(-c7cc(S(=O)(=O)[O-])ccc7F)c7ccc4[nH]7)C=C6)C=C5)cc3)cc2)c1
REMARK SMILES IDX 32 1 31 2 30 3 29 4 27 5 28 6 26 7 23 8 24 9 102 10 25 11
REMARK SMILES IDX 101 12 22 13 8 14 9 15 10 16 21 17 7 18 3 19 4 20 103 21
REMARK SMILES IDX 5 22 6 23 2 24 1 25 11 26 12 27 20 28 13 29 19 30 14 31
REMARK SMILES IDX 15 32 16 33 17 34 18 35 33 36 34 37 35 38 36 39 37 40 38 41
REMARK SMILES IDX 39 42 100 43 40 44 99 45 41 46 42 47 43 48 93 49 44 50 98 51
REMARK SMILES IDX 92 52 94 53 45 54 97 55 91 56 90 57 46 59 78 60 58 61 77 62
REMARK SMILES IDX 59 63 62 64 76 65 95 66 60 67 61 68 75 70 96 71 63 72 47 73
REMARK SMILES IDX 48 74 56 75 49 76 55 77 57 78 54 79 50 80 51 81 52 82 53 83
REMARK SMILES IDX 79 84 80 85 88 86 81 87 87 88 89 89 86 90 82 91 83 92 84 93
REMARK SMILES IDX 85 94 64 95 65 96 73 97 66 98 72 99 74 100 71 101 67 102
REMARK SMILES IDX 68 103 69 104 70 105
REMARK H PARENT 94 58 62 69
REMARK Flexibility Score: inf
ROOT
ATOM      1  O   UNL A   1      42.298  21.701  25.365  1.00  0.00    -0.374 OA
ENDROOT
BRANCH   1   2
ATOM      2  C   UNL A   1      41.822  20.665  26.226  1.00  0.00     0.202 C 
BRANCH   2   3
ATOM      3  C   UNL A   1      40.694  21.053  27.186  1.00  0.00     0.261 C 
BRANCH   3   4
ATOM      4  O   UNL A   1      39.484  21.371  26.480  1.00  0.00    -0.460 OA
BRANCH   4   5
ATOM      5  C   UNL A   1      39.227  22.696  26.362  1.00  0.00     0.338 C 
ATOM      6  O   UNL A   1      40.005  23.616  26.562  1.00  0.00    -0.246 OA
BRANCH   5   7
ATOM      7  C   UNL A   1      37.878  22.908  25.795  1.00  0.00     0.060 A 
ATOM      8  C   UNL A   1      35.431  23.373  24.492  1.00  0.00     0.060 A 
ATOM      9  C   UNL A   1      36.328  22.416  24.001  1.00  0.00     0.029 A 
ATOM     10  C   UNL A   1      35.738  24.022  25.699  1.00  0.00     0.029 A 
ATOM     11  C   UNL A   1      37.555  22.207  24.628  1.00  0.00     0.018 A 
ATOM     12  C   UNL A   1      36.948  23.782  26.363  1.00  0.00     0.018 A 
BRANCH   8  13
ATOM     13  N   UNL A   1      34.322  23.753  23.736  1.00  0.00    -0.257 N 
ATOM     14  C   UNL A   1      33.505  22.752  23.032  1.00  0.00     0.144 C 
ATOM     15  C   UNL A   1      32.245  23.542  22.666  1.00  0.00     0.091 C 
ATOM     16  C   UNL A   1      32.543  24.849  23.343  1.00  0.00     0.071 C 
ATOM     17  N   UNL A   1      33.681  24.933  23.958  1.00  0.00    -0.176 NA
BRANCH  14  18
ATOM     18  C   UNL A   1      33.214  21.519  23.883  1.00  0.00    -0.019 A 
ATOM     19  C   UNL A   1      32.622  19.161  24.109  1.00  0.00     0.119 A 
ATOM     20  C   UNL A   1      32.519  19.327  25.490  1.00  0.00     0.046 A 
ATOM     21  C   UNL A   1      32.958  20.256  23.308  1.00  0.00     0.052 A 
ATOM     22  C   UNL A   1      32.771  20.566  26.075  1.00  0.00     0.004 A 
ATOM     23  C   UNL A   1      33.120  21.654  25.277  1.00  0.00     0.006 A 
BRANCH  19  24
ATOM     24  O   UNL A   1      32.331  17.900  23.663  1.00  0.00    -0.497 OA
ATOM     25  C   UNL A   1      33.433  17.027  23.464  1.00  0.00     0.278 C 
ENDBRANCH  19  24
ENDBRANCH  14  18
BRANCH  16  26
ATOM     26  C   UNL A   1      31.608  25.974  23.234  1.00  0.00    -0.002 A 
ATOM     27  C   UNL A   1      32.095  27.198  22.764  1.00  0.00     0.011 A 
ATOM     28  C   UNL A   1      30.257  25.814  23.554  1.00  0.00     0.011 A 
ATOM     29  C   UNL A   1      31.220  28.270  22.589  1.00  0.00     0.021 A 
ATOM     30  C   UNL A   1      29.384  26.895  23.406  1.00  0.00     0.021 A 
ATOM     31  C   UNL A   1      29.870  28.116  22.922  1.00  0.00     0.067 A 
BRANCH  31  32
ATOM     32  S   UNL A   1      28.759  29.484  22.690  1.00  0.00     0.175 S 
ATOM     33  C   UNL A   1      29.438  30.778  23.695  1.00  0.00     0.163 C 
ATOM     34  O   UNL A   1      28.863  29.879  21.299  1.00  0.00    -0.224 OA
ATOM     35  O   UNL A   1      27.479  29.114  23.266  1.00  0.00    -0.224 OA
ENDBRANCH  31  32
ENDBRANCH  16  26
ENDBRANCH   8  13
ENDBRANCH   5   7
ENDBRANCH   4   5
ENDBRANCH   3   4
ENDBRANCH   2   3
ENDBRANCH   1   2
BRANCH   1  36
ATOM     36  C   UNL A   1      43.693  22.007  25.438  1.00  0.00     0.202 C 
BRANCH  36  37
ATOM     37  C   UNL A   1      44.230  22.990  24.391  1.00  0.00     0.261 C 
BRANCH  37  38
ATOM     38  O   UNL A   1      43.668  24.305  24.550  1.00  0.00    -0.460 OA
BRANCH  38  39
ATOM     39  C   UNL A   1      44.459  25.181  25.214  1.00  0.00     0.338 C 
ATOM     40  O   UNL A   1      45.615  25.477  24.942  1.00  0.00    -0.246 OA
BRANCH  39  41
ATOM     41  C   UNL A   1      43.674  25.903  26.235  1.00  0.00     0.060 A 
ATOM     42  C   UNL A   1      43.786  27.298  26.263  1.00  0.00     0.016 A 
ATOM     43  C   UNL A   1      42.892  25.237  27.182  1.00  0.00     0.016 A 
ATOM     44  C   UNL A   1      43.164  28.031  27.270  1.00  0.00     0.010 A 
ATOM     45  C   UNL A   1      42.271  25.975  28.199  1.00  0.00     0.010 A 
ATOM     46  C   UNL A   1      42.435  27.371  28.268  1.00  0.00    -0.014 A 
BRANCH  46  47
ATOM     47  C   UNL A   1      41.978  28.136  29.457  1.00  0.00     0.031 A 
ATOM     48  C   UNL A   1      40.687  28.907  29.375  1.00  0.00     0.074 A 
ATOM     49  C   UNL A   1      42.674  28.100  30.608  1.00  0.00     0.049 A 
ATOM     50  N   UNL A   1      40.093  29.632  30.287  1.00  0.00    -0.248 NA
ATOM     51  C   UNL A   1      39.975  28.852  28.089  1.00  0.00     0.031 C 
ATOM     52  C   UNL A   1      43.915  27.356  30.819  1.00  0.00     0.029 A 
ATOM     53  N   UNL A   1      42.433  28.701  31.818  1.00  0.00    -0.354 N 
ATOM     54  C   UNL A   1      38.935  30.119  29.689  1.00  0.00     0.074 A 
ATOM     55  C   UNL A   1      38.937  29.642  28.322  1.00  0.00     0.031 C 
ATOM     56  C   UNL A   1      44.328  27.548  32.084  1.00  0.00     0.029 A 
ATOM     57  C   UNL A   1      43.401  28.453  32.761  1.00  0.00     0.049 A 
ATOM     58  H   UNL A   1      41.641  29.260  31.993  1.00  0.00     0.167 HD
ATOM     59  C   UNL A   1      37.955  30.883  30.232  1.00  0.00     0.034 A 
ATOM     60  C   UNL A   1      43.535  28.919  34.020  1.00  0.00     0.034 A 
ATOM     61  C   UNL A   1      37.973  31.362  31.594  1.00  0.00     0.049 A 
ATOM     62  C   UNL A   1      42.473  29.838  34.577  1.00  0.00     0.074 A 
ATOM     63  C   UNL A   1      37.023  32.126  32.251  1.00  0.00     0.029 A 
ATOM     64  N   UNL A   1      38.997  31.136  32.505  1.00  0.00    -0.354 N 
ATOM     65  N   UNL A   1      41.374  30.275  34.007  1.00  0.00    -0.248 NA
ATOM     66  C   UNL A   1      42.668  30.316  35.952  1.00  0.00     0.031 C 
ATOM     67  C   UNL A   1      37.508  32.422  33.531  1.00  0.00     0.029 A 
ATOM     68  C   UNL A   1      38.722  31.777  33.703  1.00  0.00     0.049 A 
ATOM     69  H   UNL A   1      39.802  30.599  32.325  1.00  0.00     0.167 HD
ATOM     70  C   UNL A   1      40.733  31.057  34.965  1.00  0.00     0.074 A 
ATOM     71  C   UNL A   1      41.561  31.016  36.153  1.00  0.00     0.031 C 
ATOM     72  C   UNL A   1      39.565  31.743  34.876  1.00  0.00     0.034 A 
BRANCH  59  73
ATOM     73  C   UNL A   1      36.812  31.286  29.332  1.00  0.00     0.023 A 
ATOM     74  C   UNL A   1      35.919  30.340  28.796  1.00  0.00     0.031 A 
ATOM     75  C   UNL A   1      36.629  32.635  28.980  1.00  0.00     0.131 A 
ATOM     76  C   UNL A   1      34.932  30.746  27.886  1.00  0.00     0.055 A 
ATOM     77  C   UNL A   1      35.597  33.043  28.133  1.00  0.00     0.041 A 
ATOM     78  F   UNL A   1      37.463  33.581  29.441  1.00  0.00    -0.206 F 
ATOM     79  C   UNL A   1      34.750  32.094  27.569  1.00  0.00     0.022 A 
BRANCH  76  80
ATOM     80  S   UNL A   1      33.982  29.472  27.009  1.00  0.00     0.124 S 
ATOM     81  O   UNL A   1      35.037  28.760  26.291  1.00  0.00    -0.237 OA
ATOM     82  O   UNL A   1      33.349  28.744  28.103  1.00  0.00    -0.237 OA
ATOM     83  O   UNL A   1      33.074  30.244  26.163  1.00  0.00    -0.744 OA
ENDBRANCH  76  80
ENDBRANCH  59  73
BRANCH  60  84
ATOM     84  C   UNL A   1      44.732  28.563  34.835  1.00  0.00     0.023 A 
ATOM     85  C   UNL A   1      45.922  29.302  34.747  1.00  0.00     0.031 A 
ATOM     86  C   UNL A   1      44.719  27.434  35.674  1.00  0.00     0.131 A 
ATOM     87  C   UNL A   1      47.063  28.878  35.447  1.00  0.00     0.055 A 
ATOM     88  C   UNL A   1      45.840  27.046  36.410  1.00  0.00     0.041 A 
ATOM     89  F   UNL A   1      43.608  26.690  35.794  1.00  0.00    -0.206 F 
ATOM     90  C   UNL A   1      47.026  27.764  36.287  1.00  0.00     0.022 A 
BRANCH  87  91
ATOM     91  S   UNL A   1      48.626  29.757  35.175  1.00  0.00     0.124 S 
ATOM     92  O   UNL A   1      48.627  29.920  33.725  1.00  0.00    -0.237 OA
ATOM     93  O   UNL A   1      48.430  30.973  35.958  1.00  0.00    -0.237 OA
ATOM     94  O   UNL A   1      49.630  28.835  35.701  1.00  0.00    -0.744 OA
ENDBRANCH  87  91
ENDBRANCH  60  84
BRANCH  72  95
ATOM     95  C   UNL A   1      39.100  32.474  36.113  1.00  0.00     0.023 A 
ATOM     96  C   UNL A   1      39.518  33.784  36.401  1.00  0.00     0.031 A 
ATOM     97  C   UNL A   1      38.236  31.840  37.026  1.00  0.00     0.131 A 
ATOM     98  C   UNL A   1      39.120  34.399  37.598  1.00  0.00     0.055 A 
ATOM     99  C   UNL A   1      37.794  32.480  38.185  1.00  0.00     0.041 A 
ATOM    100  F   UNL A   1      37.806  30.587  36.804  1.00  0.00    -0.206 F 
ATOM    101  C   UNL A   1      38.246  33.762  38.483  1.00  0.00     0.022 A 
BRANCH  98 102
ATOM    102  S   UNL A   1      39.833  36.009  38.031  1.00  0.00     0.124 S 
ATOM    103  O   UNL A   1      38.814  36.565  38.916  1.00  0.00    -0.237 OA
ATOM    104  O   UNL A   1      41.091  35.633  38.668  1.00  0.00    -0.237 OA
ATOM    105  O   UNL A   1      39.969  36.684  36.742  1.00  0.00    -0.744 OA
ENDBRANCH  98 102
ENDBRANCH  72  95
ENDBRANCH  46  47
ENDBRANCH  39  41
ENDBRANCH  38  39
ENDBRANCH  37  38
ENDBRANCH  36  37
ENDBRANCH   1  36
TORSDOF 22
ENDMDL
MODEL 2
REMARK VINA RESULT:     -11.7      1.505      7.356
REMARK SMILES COc1cccc([C@H]2CC(c3ccc(S(C)(=O)=O)cc3)=NN2c2ccc(C(=O)OCCOCCOC(=O)c3ccc(-c4c5nc(c(-c6cc(S(=O)(=O)[O-])ccc6F)c6ccc([nH]6)c(-c6cc(S(=O)(=O)[O-])ccc6F)c6nc(c(-c7cc(S(=O)(=O)[O-])ccc7F)c7ccc4[nH]7)C=C6)C=C5)cc3)cc2)c1
REMARK SMILES IDX 32 1 31 2 30 3 29 4 27 5 28 6 26 7 23 8 24 9 102 10 25 11
REMARK SMILES IDX 101 12 22 13 8 14 9 15 10 16 21 17 7 18 3 19 4 20 103 21
REMARK SMILES IDX 5 22 6 23 2 24 1 25 11 26 12 27 20 28 13 29 19 30 14 31
REMARK SMILES IDX 15 32 16 33 17 34 18 35 33 36 34 37 35 38 36 39 37 40 38 41
REMARK SMILES IDX 39 42 100 43 40 44 99 45 41 46 42 47 43 48 93 49 44 50 98 51
REMARK SMILES IDX 92 52 94 53 45 54 97 55 91 56 90 57 46 59 78 60 58 61 77 62
REMARK SMILES IDX 59 63 62 64 76 65 95 66 60 67 61 68 75 70 96 71 63 72 47 73
REMARK SMILES IDX 48 74 56 75 49 76 55 77 57 78 54 79 50 80 51 81 52 82 53 83
REMARK SMILES IDX 79 84 80 85 88 86 81 87 87 88 89 89 86 90 82 91 83 92 84 93
REMARK SMILES IDX 85 94 64 95 65 96 73 97 66 98 72 99 74 100 71 101 67 102
REMARK SMILES IDX 68 103 69 104 70 105
REMARK H PARENT 94 58 62 69
REMARK Flexibility Score: inf
ROOT
ATOM      1  O   UNL A   1      41.966  20.111  25.501  1.00  0.00    -0.374 OA
ENDROOT
BRANCH   1   2
ATOM      2  C   UNL A   1      40.719  19.978  26.185  1.00  0.00     0.202 C 
BRANCH   2   3
ATOM      3  C   UNL A   1      40.146  21.261  26.794  1.00  0.00     0.261 C 
BRANCH   3   4
ATOM      4  O   UNL A   1      39.385  22.010  25.832  1.00  0.00    -0.460 OA
BRANCH   4   5
ATOM      5  C   UNL A   1      38.823  23.145  26.312  1.00  0.00     0.338 C 
ATOM      6  O   UNL A   1      39.340  23.963  27.059  1.00  0.00    -0.246 OA
BRANCH   5   7
ATOM      7  C   UNL A   1      37.502  23.368  25.685  1.00  0.00     0.060 A 
ATOM      8  C   UNL A   1      35.121  23.898  24.290  1.00  0.00     0.060 A 
ATOM      9  C   UNL A   1      36.114  23.093  23.721  1.00  0.00     0.029 A 
ATOM     10  C   UNL A   1      35.299  24.352  25.608  1.00  0.00     0.029 A 
ATOM     11  C   UNL A   1      37.309  22.855  24.399  1.00  0.00     0.018 A 
ATOM     12  C   UNL A   1      36.477  24.077  26.315  1.00  0.00     0.018 A 
BRANCH   8  13
ATOM     13  N   UNL A   1      34.039  24.332  23.524  1.00  0.00    -0.257 N 
ATOM     14  C   UNL A   1      33.224  23.380  22.755  1.00  0.00     0.144 C 
ATOM     15  C   UNL A   1      31.988  24.209  22.391  1.00  0.00     0.091 C 
ATOM     16  C   UNL A   1      32.292  25.478  23.134  1.00  0.00     0.071 C 
ATOM     17  N   UNL A   1      33.414  25.514  23.782  1.00  0.00    -0.176 NA
BRANCH  14  18
ATOM     18  C   UNL A   1      32.888  22.116  23.541  1.00  0.00    -0.019 A 
ATOM     19  C   UNL A   1      32.457  19.715  23.660  1.00  0.00     0.119 A 
ATOM     20  C   UNL A   1      32.098  19.854  25.001  1.00  0.00     0.046 A 
ATOM     21  C   UNL A   1      32.840  20.844  22.931  1.00  0.00     0.052 A 
ATOM     22  C   UNL A   1      32.142  21.101  25.621  1.00  0.00     0.004 A 
ATOM     23  C   UNL A   1      32.538  22.224  24.897  1.00  0.00     0.006 A 
BRANCH  19  24
ATOM     24  O   UNL A   1      32.352  18.441  23.171  1.00  0.00    -0.497 OA
ATOM     25  C   UNL A   1      33.328  17.509  23.613  1.00  0.00     0.278 C 
ENDBRANCH  19  24
ENDBRANCH  14  18
BRANCH  16  26
ATOM     26  C   UNL A   1      31.380  26.625  23.051  1.00  0.00    -0.002 A 
ATOM     27  C   UNL A   1      30.039  26.433  23.395  1.00  0.00     0.011 A 
ATOM     28  C   UNL A   1      31.852  27.887  22.676  1.00  0.00     0.011 A 
ATOM     29  C   UNL A   1      29.159  27.515  23.387  1.00  0.00     0.021 A 
ATOM     30  C   UNL A   1      30.966  28.967  22.640  1.00  0.00     0.021 A 
ATOM     31  C   UNL A   1      29.626  28.776  22.998  1.00  0.00     0.067 A 
BRANCH  31  32
ATOM     32  S   UNL A   1      28.501  30.153  22.997  1.00  0.00     0.175 S 
ATOM     33  C   UNL A   1      28.422  30.655  21.298  1.00  0.00     0.163 C 
ATOM     34  O   UNL A   1      27.204  29.636  23.385  1.00  0.00    -0.224 OA
ATOM     35  O   UNL A   1      29.126  31.231  23.740  1.00  0.00    -0.224 OA
ENDBRANCH  31  32
ENDBRANCH  16  26
ENDBRANCH   8  13
ENDBRANCH   5   7
ENDBRANCH   4   5
ENDBRANCH   3   4
ENDBRANCH   2   3
ENDBRANCH   1   2
BRANCH   1  36
ATOM     36  C   UNL A   1      42.876  21.090  26.008  1.00  0.00     0.202 C 
BRANCH  36  37
ATOM     37  C   UNL A   1      43.448  22.082  24.988  1.00  0.00     0.261 C 
BRANCH  37  38
ATOM     38  O   UNL A   1      42.886  23.398  25.145  1.00  0.00    -0.460 OA
BRANCH  38  39
ATOM     39  C   UNL A   1      43.799  24.393  25.253  1.00  0.00     0.338 C 
ATOM     40  O   UNL A   1      44.617  24.731  24.408  1.00  0.00    -0.246 OA
BRANCH  39  41
ATOM     41  C   UNL A   1      43.560  25.171  26.484  1.00  0.00     0.060 A 
ATOM     42  C   UNL A   1      42.706  24.612  27.442  1.00  0.00     0.016 A 
ATOM     43  C   UNL A   1      44.105  26.443  26.679  1.00  0.00     0.016 A 
ATOM     44  C   UNL A   1      42.349  25.342  28.572  1.00  0.00     0.010 A 
ATOM     45  C   UNL A   1      43.740  27.180  27.813  1.00  0.00     0.010 A 
ATOM     46  C   UNL A   1      42.831  26.646  28.746  1.00  0.00    -0.014 A 
BRANCH  46  47
ATOM     47  C   UNL A   1      42.259  27.491  29.826  1.00  0.00     0.031 A 
ATOM     48  C   UNL A   1      42.890  27.450  31.193  1.00  0.00     0.074 A 
ATOM     49  C   UNL A   1      41.231  28.323  29.579  1.00  0.00     0.049 A 
ATOM     50  N   UNL A   1      42.567  28.107  32.277  1.00  0.00    -0.248 NA
ATOM     51  C   UNL A   1      44.036  26.543  31.357  1.00  0.00     0.031 C 
ATOM     52  C   UNL A   1      40.567  28.478  28.286  1.00  0.00     0.029 A 
ATOM     53  N   UNL A   1      40.569  29.195  30.405  1.00  0.00    -0.354 N 
ATOM     54  C   UNL A   1      43.470  27.697  33.252  1.00  0.00     0.074 A 
ATOM     55  C   UNL A   1      44.324  26.700  32.640  1.00  0.00     0.031 C 
ATOM     56  C   UNL A   1      39.587  29.391  28.407  1.00  0.00     0.029 A 
ATOM     57  C   UNL A   1      39.533  29.859  29.790  1.00  0.00     0.049 A 
ATOM     58  H   UNL A   1      40.811  29.332  31.349  1.00  0.00     0.167 HD
ATOM     59  C   UNL A   1      43.586  28.121  34.536  1.00  0.00     0.034 A 
ATOM     60  C   UNL A   1      38.634  30.730  30.292  1.00  0.00     0.034 A 
ATOM     61  C   UNL A   1      42.719  29.107  35.136  1.00  0.00     0.049 A 
ATOM     62  C   UNL A   1      38.728  31.124  31.747  1.00  0.00     0.074 A 
ATOM     63  C   UNL A   1      42.760  29.622  36.421  1.00  0.00     0.029 A 
ATOM     64  N   UNL A   1      41.646  29.718  34.500  1.00  0.00    -0.354 N 
ATOM     65  N   UNL A   1      39.600  30.743  32.653  1.00  0.00    -0.248 NA
ATOM     66  C   UNL A   1      37.724  32.075  32.242  1.00  0.00     0.031 C 
ATOM     67  C   UNL A   1      41.670  30.485  36.582  1.00  0.00     0.029 A 
ATOM     68  C   UNL A   1      40.995  30.574  35.375  1.00  0.00     0.049 A 
ATOM     69  H   UNL A   1      41.387  29.565  33.562  1.00  0.00     0.167 HD
ATOM     70  C   UNL A   1      39.263  31.429  33.818  1.00  0.00     0.074 A 
ATOM     71  C   UNL A   1      38.121  32.260  33.492  1.00  0.00     0.031 C 
ATOM     72  C   UNL A   1      39.846  31.384  35.043  1.00  0.00     0.034 A 
BRANCH  59  73
ATOM     73  C   UNL A   1      44.657  27.478  35.384  1.00  0.00     0.023 A 
ATOM     74  C   UNL A   1      45.971  27.978  35.426  1.00  0.00     0.031 A 
ATOM     75  C   UNL A   1      44.367  26.327  36.138  1.00  0.00     0.131 A 
ATOM     76  C   UNL A   1      46.958  27.293  36.149  1.00  0.00     0.055 A 
ATOM     77  C   UNL A   1      45.336  25.693  36.918  1.00  0.00     0.041 A 
ATOM     78  F   UNL A   1      43.137  25.789  36.120  1.00  0.00    -0.206 F 
ATOM     79  C   UNL A   1      46.645  26.167  36.914  1.00  0.00     0.022 A 
BRANCH  76  80
ATOM     80  S   UNL A   1      48.688  27.807  35.960  1.00  0.00     0.124 S 
ATOM     81  O   UNL A   1      48.666  28.437  34.642  1.00  0.00    -0.237 OA
ATOM     82  O   UNL A   1      48.874  28.705  37.095  1.00  0.00    -0.237 OA
ATOM     83  O   UNL A   1      49.430  26.550  36.030  1.00  0.00    -0.744 OA
ENDBRANCH  76  80
ENDBRANCH  59  73
BRANCH  60  84
ATOM     84  C   UNL A   1      37.539  31.265  29.433  1.00  0.00     0.023 A 
ATOM     85  C   UNL A   1      36.483  30.447  29.002  1.00  0.00     0.031 A 
ATOM     86  C   UNL A   1      37.567  32.597  28.980  1.00  0.00     0.131 A 
ATOM     87  C   UNL A   1      35.525  30.953  28.108  1.00  0.00     0.055 A 
ATOM     88  C   UNL A   1      36.584  33.111  28.134  1.00  0.00     0.041 A 
ATOM     89  F   UNL A   1      38.556  33.422  29.360  1.00  0.00    -0.206 F 
ATOM     90  C   UNL A   1      35.561  32.282  27.681  1.00  0.00     0.022 A 
BRANCH  87  91
ATOM     91  S   UNL A   1      34.276  29.821  27.439  1.00  0.00     0.124 S 
ATOM     92  O   UNL A   1      33.083  30.660  27.438  1.00  0.00    -0.237 OA
ATOM     93  O   UNL A   1      34.834  29.494  26.130  1.00  0.00    -0.237 OA
ATOM     94  O   UNL A   1      34.266  28.720  28.400  1.00  0.00    -0.744 OA
ENDBRANCH  87  91
ENDBRANCH  60  84
BRANCH  72  95
ATOM     95  C   UNL A   1      39.275  32.288  36.110  1.00  0.00     0.023 A 
ATOM     96  C   UNL A   1      38.431  31.800  37.122  1.00  0.00     0.031 A 
ATOM     97  C   UNL A   1      39.570  33.664  36.103  1.00  0.00     0.131 A 
ATOM     98  C   UNL A   1      37.865  32.686  38.050  1.00  0.00     0.055 A 
ATOM     99  C   UNL A   1      39.053  34.532  37.066  1.00  0.00     0.041 A 
ATOM    100  F   UNL A   1      40.370  34.187  35.159  1.00  0.00    -0.206 F 
ATOM    101  C   UNL A   1      38.184  34.047  38.039  1.00  0.00     0.022 A 
BRANCH  98 102
ATOM    102  S   UNL A   1      36.628  32.056  39.218  1.00  0.00     0.124 S 
ATOM    103  O   UNL A   1      37.263  32.321  40.505  1.00  0.00    -0.237 OA
ATOM    104  O   UNL A   1      35.459  32.871  38.905  1.00  0.00    -0.237 OA
ATOM    105  O   UNL A   1      36.511  30.642  38.864  1.00  0.00    -0.744 OA
ENDBRANCH  98 102
ENDBRANCH  72  95
ENDBRANCH  46  47
ENDBRANCH  39  41
ENDBRANCH  38  39
ENDBRANCH  37  38
ENDBRANCH  36  37
ENDBRANCH   1  36
TORSDOF 22
ENDMDL
MODEL 3
REMARK VINA RESULT:     -11.0      4.562      9.609
REMARK SMILES COc1cccc([C@H]2CC(c3ccc(S(C)(=O)=O)cc3)=NN2c2ccc(C(=O)OCCOCCOC(=O)c3ccc(-c4c5nc(c(-c6cc(S(=O)(=O)[O-])ccc6F)c6ccc([nH]6)c(-c6cc(S(=O)(=O)[O-])ccc6F)c6nc(c(-c7cc(S(=O)(=O)[O-])ccc7F)c7ccc4[nH]7)C=C6)C=C5)cc3)cc2)c1
REMARK SMILES IDX 32 1 31 2 30 3 29 4 27 5 28 6 26 7 23 8 24 9 102 10 25 11
REMARK SMILES IDX 101 12 22 13 8 14 9 15 10 16 21 17 7 18 3 19 4 20 103 21
REMARK SMILES IDX 5 22 6 23 2 24 1 25 11 26 12 27 20 28 13 29 19 30 14 31
REMARK SMILES IDX 15 32 16 33 17 34 18 35 33 36 34 37 35 38 36 39 37 40 38 41
REMARK SMILES IDX 39 42 100 43 40 44 99 45 41 46 42 47 43 48 93 49 44 50 98 51
REMARK SMILES IDX 92 52 94 53 45 54 97 55 91 56 90 57 46 59 78 60 58 61 77 62
REMARK SMILES IDX 59 63 62 64 76 65 95 66 60 67 61 68 75 70 96 71 63 72 47 73
REMARK SMILES IDX 48 74 56 75 49 76 55 77 57 78 54 79 50 80 51 81 52 82 53 83
REMARK SMILES IDX 79 84 80 85 88 86 81 87 87 88 89 89 86 90 82 91 83 92 84 93
REMARK SMILES IDX 85 94 64 95 65 96 73 97 66 98 72 99 74 100 71 101 67 102
REMARK SMILES IDX 68 103 69 104 70 105
REMARK H PARENT 94 58 62 69
REMARK Flexibility Score: inf
ROOT
ATOM      1  O   UNL A   1      37.956  22.091  25.874  1.00  0.00    -0.374 OA
ENDROOT
BRANCH   1   2
ATOM      2  C   UNL A   1      37.290  21.492  24.761  1.00  0.00     0.202 C 
BRANCH   2   3
ATOM      3  C   UNL A   1      35.968  20.783  25.070  1.00  0.00     0.261 C 
BRANCH   3   4
ATOM      4  O   UNL A   1      35.057  21.643  25.772  1.00  0.00    -0.460 OA
BRANCH   4   5
ATOM      5  C   UNL A   1      33.872  21.846  25.148  1.00  0.00     0.338 C 
ATOM      6  O   UNL A   1      33.093  20.991  24.755  1.00  0.00    -0.246 OA
BRANCH   5   7
ATOM      7  C   UNL A   1      33.544  23.288  25.127  1.00  0.00     0.060 A 
ATOM      8  C   UNL A   1      33.171  26.072  25.023  1.00  0.00     0.060 A 
ATOM      9  C   UNL A   1      33.631  25.373  23.900  1.00  0.00     0.029 A 
ATOM     10  C   UNL A   1      32.808  25.339  26.165  1.00  0.00     0.029 A 
ATOM     11  C   UNL A   1      33.847  23.997  23.960  1.00  0.00     0.018 A 
ATOM     12  C   UNL A   1      32.975  23.950  26.218  1.00  0.00     0.018 A 
BRANCH   8  13
ATOM     13  N   UNL A   1      33.185  27.466  25.040  1.00  0.00    -0.257 N 
ATOM     14  C   UNL A   1      32.363  28.245  24.102  1.00  0.00     0.144 C 
ATOM     15  C   UNL A   1      32.405  29.653  24.704  1.00  0.00     0.091 C 
ATOM     16  C   UNL A   1      33.175  29.381  25.964  1.00  0.00     0.071 C 
ATOM     17  N   UNL A   1      33.568  28.159  26.148  1.00  0.00    -0.176 NA
BRANCH  14  18
ATOM     18  C   UNL A   1      30.945  27.697  23.959  1.00  0.00    -0.019 A 
ATOM     19  C   UNL A   1      28.607  27.943  23.301  1.00  0.00     0.119 A 
ATOM     20  C   UNL A   1      28.322  26.705  23.877  1.00  0.00     0.046 A 
ATOM     21  C   UNL A   1      29.912  28.441  23.351  1.00  0.00     0.052 A 
ATOM     22  C   UNL A   1      29.331  25.955  24.479  1.00  0.00     0.004 A 
ATOM     23  C   UNL A   1      30.635  26.446  24.517  1.00  0.00     0.006 A 
BRANCH  19  24
ATOM     24  O   UNL A   1      27.525  28.582  22.760  1.00  0.00    -0.497 OA
ATOM     25  C   UNL A   1      27.566  30.002  22.747  1.00  0.00     0.278 C 
ENDBRANCH  19  24
ENDBRANCH  14  18
BRANCH  16  26
ATOM     26  C   UNL A   1      33.512  30.475  26.882  1.00  0.00    -0.002 A 
ATOM     27  C   UNL A   1      34.779  30.479  27.473  1.00  0.00     0.011 A 
ATOM     28  C   UNL A   1      32.602  31.507  27.127  1.00  0.00     0.011 A 
ATOM     29  C   UNL A   1      35.154  31.537  28.301  1.00  0.00     0.021 A 
ATOM     30  C   UNL A   1      32.966  32.554  27.979  1.00  0.00     0.021 A 
ATOM     31  C   UNL A   1      34.240  32.564  28.559  1.00  0.00     0.067 A 
BRANCH  31  32
ATOM     32  S   UNL A   1      34.727  33.913  29.609  1.00  0.00     0.175 S 
ATOM     33  C   UNL A   1      34.032  35.349  28.833  1.00  0.00     0.163 C 
ATOM     34  O   UNL A   1      34.064  33.713  30.883  1.00  0.00    -0.224 OA
ATOM     35  O   UNL A   1      36.171  34.033  29.531  1.00  0.00    -0.224 OA
ENDBRANCH  31  32
ENDBRANCH  16  26
ENDBRANCH   8  13
ENDBRANCH   5   7
ENDBRANCH   4   5
ENDBRANCH   3   4
ENDBRANCH   2   3
ENDBRANCH   1   2
BRANCH   1  36
ATOM     36  C   UNL A   1      39.302  21.678  26.117  1.00  0.00     0.202 C 
BRANCH  36  37
ATOM     37  C   UNL A   1      39.625  20.207  25.830  1.00  0.00     0.261 C 
BRANCH  37  38
ATOM     38  O   UNL A   1      40.669  19.708  26.686  1.00  0.00    -0.460 OA
BRANCH  38  39
ATOM     39  C   UNL A   1      41.902  19.697  26.127  1.00  0.00     0.338 C 
ATOM     40  O   UNL A   1      42.374  18.824  25.409  1.00  0.00    -0.246 OA
BRANCH  39  41
ATOM     41  C   UNL A   1      42.571  20.995  26.342  1.00  0.00     0.060 A 
ATOM     42  C   UNL A   1      42.707  21.435  27.664  1.00  0.00     0.016 A 
ATOM     43  C   UNL A   1      43.004  21.795  25.282  1.00  0.00     0.016 A 
ATOM     44  C   UNL A   1      43.225  22.700  27.931  1.00  0.00     0.010 A 
ATOM     45  C   UNL A   1      43.518  23.071  25.551  1.00  0.00     0.010 A 
ATOM     46  C   UNL A   1      43.597  23.542  26.875  1.00  0.00    -0.014 A 
BRANCH  46  47
ATOM     47  C   UNL A   1      43.922  24.963  27.162  1.00  0.00     0.031 A 
ATOM     48  C   UNL A   1      45.314  25.463  26.876  1.00  0.00     0.074 A 
ATOM     49  C   UNL A   1      42.980  25.807  27.619  1.00  0.00     0.049 A 
ATOM     50  N   UNL A   1      45.815  26.661  27.037  1.00  0.00    -0.248 NA
ATOM     51  C   UNL A   1      46.263  24.478  26.337  1.00  0.00     0.031 C 
ATOM     52  C   UNL A   1      41.590  25.446  27.895  1.00  0.00     0.029 A 
ATOM     53  N   UNL A   1      43.049  27.142  27.929  1.00  0.00    -0.354 N 
ATOM     54  C   UNL A   1      47.139  26.576  26.617  1.00  0.00     0.074 A 
ATOM     55  C   UNL A   1      47.371  25.197  26.239  1.00  0.00     0.031 C 
ATOM     56  C   UNL A   1      40.937  26.536  28.336  1.00  0.00     0.029 A 
ATOM     57  C   UNL A   1      41.868  27.660  28.406  1.00  0.00     0.049 A 
ATOM     58  H   UNL A   1      43.867  27.678  27.820  1.00  0.00     0.167 HD
ATOM     59  C   UNL A   1      48.071  27.558  26.543  1.00  0.00     0.034 A 
ATOM     60  C   UNL A   1      41.578  28.896  28.864  1.00  0.00     0.034 A 
ATOM     61  C   UNL A   1      47.829  28.926  26.936  1.00  0.00     0.049 A 
ATOM     62  C   UNL A   1      42.656  29.953  28.852  1.00  0.00     0.074 A 
ATOM     63  C   UNL A   1      48.696  30.004  26.884  1.00  0.00     0.029 A 
ATOM     64  N   UNL A   1      46.637  29.403  27.467  1.00  0.00    -0.354 N 
ATOM     65  N   UNL A   1      43.899  29.864  28.435  1.00  0.00    -0.248 NA
ATOM     66  C   UNL A   1      42.287  31.280  29.362  1.00  0.00     0.031 C 
ATOM     67  C   UNL A   1      48.054  31.111  27.451  1.00  0.00     0.029 A 
ATOM     68  C   UNL A   1      46.758  30.748  27.782  1.00  0.00     0.049 A 
ATOM     69  H   UNL A   1      45.824  28.864  27.599  1.00  0.00     0.167 HD
ATOM     70  C   UNL A   1      44.450  31.132  28.608  1.00  0.00     0.074 A 
ATOM     71  C   UNL A   1      43.399  31.969  29.150  1.00  0.00     0.031 C 
ATOM     72  C   UNL A   1      45.707  31.568  28.339  1.00  0.00     0.034 A 
BRANCH  59  73
ATOM     73  C   UNL A   1      49.451  27.170  26.066  1.00  0.00     0.023 A 
ATOM     74  C   UNL A   1      50.509  26.940  26.963  1.00  0.00     0.031 A 
ATOM     75  C   UNL A   1      49.719  27.059  24.690  1.00  0.00     0.131 A 
ATOM     76  C   UNL A   1      51.798  26.679  26.474  1.00  0.00     0.055 A 
ATOM     77  C   UNL A   1      50.987  26.724  24.211  1.00  0.00     0.041 A 
ATOM     78  F   UNL A   1      48.755  27.291  23.784  1.00  0.00    -0.206 F 
ATOM     79  C   UNL A   1      52.039  26.546  25.105  1.00  0.00     0.022 A 
BRANCH  76  80
ATOM     80  S   UNL A   1      53.184  26.659  27.644  1.00  0.00     0.124 S 
ATOM     81  O   UNL A   1      52.599  25.954  28.783  1.00  0.00    -0.237 OA
ATOM     82  O   UNL A   1      54.211  25.936  26.903  1.00  0.00    -0.237 OA
ATOM     83  O   UNL A   1      53.460  28.076  27.873  1.00  0.00    -0.744 OA
ENDBRANCH  76  80
ENDBRANCH  59  73
BRANCH  60  84
ATOM     84  C   UNL A   1      40.225  29.200  29.411  1.00  0.00     0.023 A 
ATOM     85  C   UNL A   1      39.986  29.233  30.794  1.00  0.00     0.031 A 
ATOM     86  C   UNL A   1      39.132  29.406  28.549  1.00  0.00     0.131 A 
ATOM     87  C   UNL A   1      38.679  29.418  31.274  1.00  0.00     0.055 A 
ATOM     88  C   UNL A   1      37.844  29.643  29.031  1.00  0.00     0.041 A 
ATOM     89  F   UNL A   1      39.304  29.383  27.218  1.00  0.00    -0.206 F 
ATOM     90  C   UNL A   1      37.610  29.636  30.403  1.00  0.00     0.022 A 
BRANCH  87  91
ATOM     91  S   UNL A   1      38.382  29.282  33.058  1.00  0.00     0.124 S 
ATOM     92  O   UNL A   1      37.887  30.617  33.379  1.00  0.00    -0.237 OA
ATOM     93  O   UNL A   1      37.404  28.201  33.121  1.00  0.00    -0.237 OA
ATOM     94  O   UNL A   1      39.701  28.958  33.599  1.00  0.00    -0.744 OA
ENDBRANCH  87  91
ENDBRANCH  60  84
BRANCH  72  95
ATOM     95  C   UNL A   1      45.998  33.027  28.596  1.00  0.00     0.023 A 
ATOM     96  C   UNL A   1      46.464  33.483  29.841  1.00  0.00     0.031 A 
ATOM     97  C   UNL A   1      45.791  33.980  27.580  1.00  0.00     0.131 A 
ATOM     98  C   UNL A   1      46.652  34.856  30.059  1.00  0.00     0.055 A 
ATOM     99  C   UNL A   1      46.039  35.338  27.784  1.00  0.00     0.041 A 
ATOM    100  F   UNL A   1      45.345  33.602  26.371  1.00  0.00    -0.206 F 
ATOM    101  C   UNL A   1      46.459  35.785  29.033  1.00  0.00     0.022 A 
BRANCH  98 102
ATOM    102  S   UNL A   1      47.063  35.426  31.732  1.00  0.00     0.124 S 
ATOM    103  O   UNL A   1      45.751  35.465  32.370  1.00  0.00    -0.237 OA
ATOM    104  O   UNL A   1      47.969  34.384  32.203  1.00  0.00    -0.237 OA
ATOM    105  O   UNL A   1      47.682  36.731  31.508  1.00  0.00    -0.744 OA
ENDBRANCH  98 102
ENDBRANCH  72  95
ENDBRANCH  46  47
ENDBRANCH  39  41
ENDBRANCH  38  39
ENDBRANCH  37  38
ENDBRANCH  36  37
ENDBRANCH   1  36
TORSDOF 22
ENDMDL
