MODEL 1
REMARK VINA RESULT:     -11.6      0.000      0.000
REMARK SMILES Cc1cscc1-c1ncc(C(=O)OCCOCCOC(=O)c2ccc(-c3c4nc(c(-c5cc(S(=O)(=O)[O-])ccc5F)c5ccc([nH]5)c(-c5cc(S(=O)(=O)[O-])ccc5F)c5nc(c(-c6cc(S(=O)(=O)[O-])ccc6F)c6ccc3[nH]6)C=C5)C=C4)cc2)c(=O)[nH]1
REMARK SMILES IDX 17 1 16 2 15 3 14 4 13 5 11 6 12 7 10 8 7 9 8 10 87 11 9 12
REMARK SMILES IDX 85 13 86 15 6 16 1 17 2 18 3 19 4 20 5 21 18 22 19 23 20 24
REMARK SMILES IDX 21 25 22 26 23 27 84 28 24 29 83 30 25 31 26 32 27 33 77 34
REMARK SMILES IDX 28 35 82 36 76 37 78 38 29 39 81 40 75 41 74 42 30 44 62 45
REMARK SMILES IDX 42 46 61 47 43 48 46 49 60 50 79 51 44 52 45 53 59 55 80 56
REMARK SMILES IDX 47 57 31 58 32 59 40 60 33 61 39 62 41 63 38 64 34 65 35 66
REMARK SMILES IDX 36 67 37 68 63 69 64 70 72 71 65 72 71 73 73 74 70 75 66 76
REMARK SMILES IDX 67 77 68 78 69 79 48 80 49 81 57 82 50 83 56 84 58 85 55 86
REMARK SMILES IDX 51 87 52 88 53 89 54 90
REMARK H PARENT 87 14 78 43 46 54
REMARK Flexibility Score: inf
ROOT
ATOM      1  C   UNL A   1      31.651  30.246  25.567  1.00  0.00     0.202 C 
ENDROOT
BRANCH   1   2
ATOM      2  O   UNL A   1      32.944  29.775  25.187  1.00  0.00    -0.374 OA
BRANCH   2   3
ATOM      3  C   UNL A   1      32.989  28.615  24.352  1.00  0.00     0.202 C 
BRANCH   3   4
ATOM      4  C   UNL A   1      33.346  27.308  25.064  1.00  0.00     0.261 C 
BRANCH   4   5
ATOM      5  O   UNL A   1      32.299  26.337  24.899  1.00  0.00    -0.459 OA
BRANCH   5   6
ATOM      6  C   UNL A   1      31.911  25.692  26.023  1.00  0.00     0.345 C 
ATOM      7  O   UNL A   1      31.396  26.208  27.006  1.00  0.00    -0.246 OA
BRANCH   6   8
ATOM      8  C   UNL A   1      32.050  24.236  25.878  1.00  0.00     0.143 A 
ATOM      9  C   UNL A   1      32.454  21.612  25.252  1.00  0.00     0.141 A 
ATOM     10  N   UNL A   1      33.299  22.475  24.793  1.00  0.00    -0.237 NA
ATOM     11  N   UNL A   1      31.431  21.930  26.101  1.00  0.00    -0.306 N 
ATOM     12  C   UNL A   1      33.058  23.788  25.113  1.00  0.00     0.135 A 
ATOM     13  C   UNL A   1      31.180  23.218  26.493  1.00  0.00     0.265 A 
ATOM     14  H   UNL A   1      30.855  21.208  26.443  1.00  0.00     0.171 HD
ATOM     15  O   UNL A   1      30.269  23.475  27.270  1.00  0.00    -0.269 OA
BRANCH   9  16
ATOM     16  C   UNL A   1      32.539  20.233  24.801  1.00  0.00     0.031 A 
ATOM     17  C   UNL A   1      32.063  20.580  22.261  1.00  0.00     0.046 C 
ATOM     18  C   UNL A   1      32.319  19.730  23.464  1.00  0.00    -0.029 A 
ATOM     19  C   UNL A   1      32.378  18.349  23.433  1.00  0.00     0.069 A 
ATOM     20  S   UNL A   1      32.711  17.660  24.958  1.00  0.00    -0.151 S 
ATOM     21  C   UNL A   1      32.775  19.198  25.691  1.00  0.00     0.077 A 
ENDBRANCH   9  16
ENDBRANCH   6   8
ENDBRANCH   5   6
ENDBRANCH   4   5
ENDBRANCH   3   4
ENDBRANCH   2   3
ENDBRANCH   1   2
BRANCH   1  22
ATOM     22  C   UNL A   1      31.608  31.505  26.441  1.00  0.00     0.261 C 
BRANCH  22  23
ATOM     23  O   UNL A   1      32.544  31.439  27.531  1.00  0.00    -0.460 OA
BRANCH  23  24
ATOM     24  C   UNL A   1      33.395  32.491  27.596  1.00  0.00     0.338 C 
ATOM     25  O   UNL A   1      33.091  33.677  27.546  1.00  0.00    -0.246 OA
BRANCH  24  26
ATOM     26  C   UNL A   1      34.762  32.040  27.923  1.00  0.00     0.060 A 
ATOM     27  C   UNL A   1      34.947  30.665  28.112  1.00  0.00     0.016 A 
ATOM     28  C   UNL A   1      35.824  32.929  28.114  1.00  0.00     0.016 A 
ATOM     29  C   UNL A   1      36.171  30.180  28.566  1.00  0.00     0.010 A 
ATOM     30  C   UNL A   1      37.054  32.439  28.573  1.00  0.00     0.010 A 
ATOM     31  C   UNL A   1      37.217  31.068  28.845  1.00  0.00    -0.014 A 
BRANCH  31  32
ATOM     32  C   UNL A   1      38.404  30.560  29.579  1.00  0.00     0.031 A 
ATOM     33  C   UNL A   1      38.606  30.973  31.013  1.00  0.00     0.074 A 
ATOM     34  C   UNL A   1      39.241  29.676  29.006  1.00  0.00     0.049 A 
ATOM     35  N   UNL A   1      39.527  30.603  31.865  1.00  0.00    -0.248 NA
ATOM     36  C   UNL A   1      37.635  31.935  31.557  1.00  0.00     0.031 C 
ATOM     37  C   UNL A   1      39.125  29.171  27.638  1.00  0.00     0.029 A 
ATOM     38  N   UNL A   1      40.345  29.034  29.508  1.00  0.00    -0.354 N 
ATOM     39  C   UNL A   1      39.245  31.279  33.048  1.00  0.00     0.074 A 
ATOM     40  C   UNL A   1      38.097  32.121  32.784  1.00  0.00     0.031 C 
ATOM     41  C   UNL A   1      40.115  28.292  27.413  1.00  0.00     0.029 A 
ATOM     42  C   UNL A   1      40.951  28.189  28.609  1.00  0.00     0.049 A 
ATOM     43  H   UNL A   1      40.673  29.167  30.427  1.00  0.00     0.167 HD
ATOM     44  C   UNL A   1      39.872  31.193  34.247  1.00  0.00     0.034 A 
ATOM     45  C   UNL A   1      42.056  27.426  28.733  1.00  0.00     0.034 A 
ATOM     46  C   UNL A   1      41.026  30.361  34.491  1.00  0.00     0.049 A 
ATOM     47  C   UNL A   1      42.784  27.404  30.055  1.00  0.00     0.074 A 
ATOM     48  C   UNL A   1      41.740  30.197  35.666  1.00  0.00     0.029 A 
ATOM     49  N   UNL A   1      41.643  29.558  33.539  1.00  0.00    -0.354 N 
ATOM     50  N   UNL A   1      42.500  28.039  31.169  1.00  0.00    -0.248 NA
ATOM     51  C   UNL A   1      43.974  26.547  30.139  1.00  0.00     0.031 C 
ATOM     52  C   UNL A   1      42.826  29.353  35.407  1.00  0.00     0.029 A 
ATOM     53  C   UNL A   1      42.745  28.922  34.093  1.00  0.00     0.049 A 
ATOM     54  H   UNL A   1      41.343  29.455  32.608  1.00  0.00     0.167 HD
ATOM     55  C   UNL A   1      43.455  27.627  32.096  1.00  0.00     0.074 A 
ATOM     56  C   UNL A   1      44.314  26.683  31.412  1.00  0.00     0.031 C 
ATOM     57  C   UNL A   1      43.601  27.988  33.397  1.00  0.00     0.034 A 
BRANCH  44  58
ATOM     58  C   UNL A   1      39.348  32.065  35.365  1.00  0.00     0.023 A 
ATOM     59  C   UNL A   1      39.807  33.381  35.556  1.00  0.00     0.031 A 
ATOM     60  C   UNL A   1      38.404  31.560  36.277  1.00  0.00     0.131 A 
ATOM     61  C   UNL A   1      39.380  34.117  36.672  1.00  0.00     0.055 A 
ATOM     62  C   UNL A   1      37.922  32.326  37.339  1.00  0.00     0.041 A 
ATOM     63  F   UNL A   1      37.946  30.303  36.162  1.00  0.00    -0.206 F 
ATOM     64  C   UNL A   1      38.422  33.608  37.552  1.00  0.00     0.022 A 
BRANCH  61  65
ATOM     65  S   UNL A   1      40.208  35.688  37.045  1.00  0.00     0.124 S 
ATOM     66  O   UNL A   1      41.615  35.323  36.894  1.00  0.00    -0.237 OA
ATOM     67  O   UNL A   1      39.665  36.580  36.027  1.00  0.00    -0.237 OA
ATOM     68  O   UNL A   1      39.792  35.978  38.416  1.00  0.00    -0.744 OA
ENDBRANCH  61  65
ENDBRANCH  44  58
BRANCH  45  69
ATOM     69  C   UNL A   1      42.559  26.635  27.575  1.00  0.00     0.023 A 
ATOM     70  C   UNL A   1      42.164  25.303  27.373  1.00  0.00     0.031 A 
ATOM     71  C   UNL A   1      43.488  27.190  26.675  1.00  0.00     0.131 A 
ATOM     72  C   UNL A   1      42.729  24.556  26.327  1.00  0.00     0.055 A 
ATOM     73  C   UNL A   1      44.007  26.460  25.605  1.00  0.00     0.041 A 
ATOM     74  F   UNL A   1      43.900  28.460  26.823  1.00  0.00    -0.206 F 
ATOM     75  C   UNL A   1      43.637  25.130  25.434  1.00  0.00     0.022 A 
BRANCH  72  76
ATOM     76  S   UNL A   1      42.319  22.794  26.194  1.00  0.00     0.124 S 
ATOM     77  O   UNL A   1      43.154  22.215  27.240  1.00  0.00    -0.237 OA
ATOM     78  O   UNL A   1      40.881  22.798  26.447  1.00  0.00    -0.237 OA
ATOM     79  O   UNL A   1      42.706  22.456  24.827  1.00  0.00    -0.744 OA
ENDBRANCH  72  76
ENDBRANCH  45  69
BRANCH  57  80
ATOM     80  C   UNL A   1      44.705  27.313  34.179  1.00  0.00     0.023 A 
ATOM     81  C   UNL A   1      44.520  26.068  34.803  1.00  0.00     0.031 A 
ATOM     82  C   UNL A   1      45.957  27.940  34.312  1.00  0.00     0.131 A 
ATOM     83  C   UNL A   1      45.550  25.518  35.584  1.00  0.00     0.055 A 
ATOM     84  C   UNL A   1      46.998  27.359  35.037  1.00  0.00     0.041 A 
ATOM     85  F   UNL A   1      46.190  29.132  33.738  1.00  0.00    -0.206 F 
ATOM     86  C   UNL A   1      46.792  26.148  35.691  1.00  0.00     0.022 A 
BRANCH  83  87
ATOM     87  S   UNL A   1      45.210  24.015  36.542  1.00  0.00     0.124 S 
ATOM     88  O   UNL A   1      44.192  23.358  35.728  1.00  0.00    -0.237 OA
ATOM     89  O   UNL A   1      46.517  23.365  36.577  1.00  0.00    -0.237 OA
ATOM     90  O   UNL A   1      44.739  24.527  37.828  1.00  0.00    -0.744 OA
ENDBRANCH  83  87
ENDBRANCH  57  80
ENDBRANCH  31  32
ENDBRANCH  24  26
ENDBRANCH  23  24
ENDBRANCH  22  23
ENDBRANCH   1  22
TORSDOF 18
ENDMDL
MODEL 2
REMARK VINA RESULT:     -11.4      2.680      4.129
REMARK SMILES Cc1cscc1-c1ncc(C(=O)OCCOCCOC(=O)c2ccc(-c3c4nc(c(-c5cc(S(=O)(=O)[O-])ccc5F)c5ccc([nH]5)c(-c5cc(S(=O)(=O)[O-])ccc5F)c5nc(c(-c6cc(S(=O)(=O)[O-])ccc6F)c6ccc3[nH]6)C=C5)C=C4)cc2)c(=O)[nH]1
REMARK SMILES IDX 17 1 16 2 15 3 14 4 13 5 11 6 12 7 10 8 7 9 8 10 87 11 9 12
REMARK SMILES IDX 85 13 86 15 6 16 1 17 2 18 3 19 4 20 5 21 18 22 19 23 20 24
REMARK SMILES IDX 21 25 22 26 23 27 84 28 24 29 83 30 25 31 26 32 27 33 77 34
REMARK SMILES IDX 28 35 82 36 76 37 78 38 29 39 81 40 75 41 74 42 30 44 62 45
REMARK SMILES IDX 42 46 61 47 43 48 46 49 60 50 79 51 44 52 45 53 59 55 80 56
REMARK SMILES IDX 47 57 31 58 32 59 40 60 33 61 39 62 41 63 38 64 34 65 35 66
REMARK SMILES IDX 36 67 37 68 63 69 64 70 72 71 65 72 71 73 73 74 70 75 66 76
REMARK SMILES IDX 67 77 68 78 69 79 48 80 49 81 57 82 50 83 56 84 58 85 55 86
REMARK SMILES IDX 51 87 52 88 53 89 54 90
REMARK H PARENT 87 14 78 43 46 54
REMARK Flexibility Score: inf
ROOT
ATOM      1  C   UNL A   1      32.270  29.432  25.305  1.00  0.00     0.202 C 
ENDROOT
BRANCH   1   2
ATOM      2  O   UNL A   1      31.978  28.196  25.955  1.00  0.00    -0.374 OA
BRANCH   2   3
ATOM      3  C   UNL A   1      32.678  27.039  25.489  1.00  0.00     0.202 C 
BRANCH   3   4
ATOM      4  C   UNL A   1      31.974  25.703  25.741  1.00  0.00     0.261 C 
BRANCH   4   5
ATOM      5  O   UNL A   1      30.592  25.774  25.351  1.00  0.00    -0.459 OA
BRANCH   5   6
ATOM      6  C   UNL A   1      30.345  25.612  24.031  1.00  0.00     0.345 C 
ATOM      7  O   UNL A   1      30.463  24.570  23.400  1.00  0.00    -0.246 OA
BRANCH   6   8
ATOM      8  C   UNL A   1      29.762  26.827  23.444  1.00  0.00     0.143 A 
ATOM      9  C   UNL A   1      29.044  29.232  22.376  1.00  0.00     0.141 A 
ATOM     10  N   UNL A   1      30.225  28.783  22.103  1.00  0.00    -0.237 NA
ATOM     11  N   UNL A   1      28.112  28.530  23.089  1.00  0.00    -0.306 N 
ATOM     12  C   UNL A   1      30.560  27.578  22.669  1.00  0.00     0.135 A 
ATOM     13  C   UNL A   1      28.379  27.301  23.630  1.00  0.00     0.265 A 
ATOM     14  H   UNL A   1      27.219  28.923  23.217  1.00  0.00     0.171 HD
ATOM     15  O   UNL A   1      27.521  26.685  24.248  1.00  0.00    -0.269 OA
BRANCH   9  16
ATOM     16  C   UNL A   1      28.691  30.581  21.967  1.00  0.00     0.031 A 
ATOM     17  C   UNL A   1      29.152  31.843  24.202  1.00  0.00     0.046 C 
ATOM     18  C   UNL A   1      28.683  31.773  22.784  1.00  0.00    -0.029 A 
ATOM     19  C   UNL A   1      28.185  32.856  22.083  1.00  0.00     0.069 A 
ATOM     20  S   UNL A   1      27.755  32.472  20.477  1.00  0.00    -0.151 S 
ATOM     21  C   UNL A   1      28.221  30.847  20.691  1.00  0.00     0.077 A 
ENDBRANCH   9  16
ENDBRANCH   6   8
ENDBRANCH   5   6
ENDBRANCH   4   5
ENDBRANCH   3   4
ENDBRANCH   2   3
ENDBRANCH   1   2
BRANCH   1  22
ATOM     22  C   UNL A   1      31.915  30.712  26.070  1.00  0.00     0.261 C 
BRANCH  22  23
ATOM     23  O   UNL A   1      32.586  30.787  27.340  1.00  0.00    -0.460 OA
BRANCH  23  24
ATOM     24  C   UNL A   1      33.359  31.888  27.496  1.00  0.00     0.338 C 
ATOM     25  O   UNL A   1      32.977  33.051  27.506  1.00  0.00    -0.246 OA
BRANCH  24  26
ATOM     26  C   UNL A   1      34.745  31.510  27.839  1.00  0.00     0.060 A 
ATOM     27  C   UNL A   1      34.996  30.150  28.051  1.00  0.00     0.016 A 
ATOM     28  C   UNL A   1      35.759  32.454  28.024  1.00  0.00     0.016 A 
ATOM     29  C   UNL A   1      36.239  29.734  28.522  1.00  0.00     0.010 A 
ATOM     30  C   UNL A   1      37.009  32.033  28.500  1.00  0.00     0.010 A 
ATOM     31  C   UNL A   1      37.238  30.677  28.795  1.00  0.00    -0.014 A 
BRANCH  31  32
ATOM     32  C   UNL A   1      38.442  30.239  29.545  1.00  0.00     0.031 A 
ATOM     33  C   UNL A   1      38.625  30.705  30.966  1.00  0.00     0.074 A 
ATOM     34  C   UNL A   1      39.315  29.372  29.001  1.00  0.00     0.049 A 
ATOM     35  N   UNL A   1      39.558  30.399  31.830  1.00  0.00    -0.248 NA
ATOM     36  C   UNL A   1      37.614  31.644  31.479  1.00  0.00     0.031 C 
ATOM     37  C   UNL A   1      39.222  28.821  27.650  1.00  0.00     0.029 A 
ATOM     38  N   UNL A   1      40.443  28.791  29.525  1.00  0.00    -0.354 N 
ATOM     39  C   UNL A   1      39.245  31.099  32.991  1.00  0.00     0.074 A 
ATOM     40  C   UNL A   1      38.066  31.886  32.700  1.00  0.00     0.031 C 
ATOM     41  C   UNL A   1      40.248  27.975  27.453  1.00  0.00     0.029 A 
ATOM     42  C   UNL A   1      41.084  27.943  28.652  1.00  0.00     0.049 A 
ATOM     43  H   UNL A   1      40.763  28.965  30.439  1.00  0.00     0.167 HD
ATOM     44  C   UNL A   1      39.873  31.076  34.193  1.00  0.00     0.034 A 
ATOM     45  C   UNL A   1      42.218  27.230  28.802  1.00  0.00     0.034 A 
ATOM     46  C   UNL A   1      41.059  30.299  34.464  1.00  0.00     0.049 A 
ATOM     47  C   UNL A   1      42.944  27.278  30.125  1.00  0.00     0.074 A 
ATOM     48  C   UNL A   1      41.777  30.200  35.644  1.00  0.00     0.029 A 
ATOM     49  N   UNL A   1      41.710  29.492  33.538  1.00  0.00    -0.354 N 
ATOM     50  N   UNL A   1      42.632  27.935  31.218  1.00  0.00    -0.248 NA
ATOM     51  C   UNL A   1      44.167  26.472  30.236  1.00  0.00     0.031 C 
ATOM     52  C   UNL A   1      42.895  29.393  35.413  1.00  0.00     0.029 A 
ATOM     53  C   UNL A   1      42.835  28.918  34.113  1.00  0.00     0.049 A 
ATOM     54  H   UNL A   1      41.416  29.348  32.611  1.00  0.00     0.167 HD
ATOM     55  C   UNL A   1      43.601  27.591  32.158  1.00  0.00     0.074 A 
ATOM     56  C   UNL A   1      44.499  26.662  31.505  1.00  0.00     0.031 C 
ATOM     57  C   UNL A   1      43.730  27.999  33.448  1.00  0.00     0.034 A 
BRANCH  44  58
ATOM     58  C   UNL A   1      39.312  31.961  35.282  1.00  0.00     0.023 A 
ATOM     59  C   UNL A   1      39.703  33.305  35.421  1.00  0.00     0.031 A 
ATOM     60  C   UNL A   1      38.402  31.442  36.221  1.00  0.00     0.131 A 
ATOM     61  C   UNL A   1      39.246  34.059  36.513  1.00  0.00     0.055 A 
ATOM     62  C   UNL A   1      37.888  32.221  37.258  1.00  0.00     0.041 A 
ATOM     63  F   UNL A   1      38.009  30.160  36.156  1.00  0.00    -0.206 F 
ATOM     64  C   UNL A   1      38.322  33.534  37.419  1.00  0.00     0.022 A 
BRANCH  61  65
ATOM     65  S   UNL A   1      39.994  35.683  36.821  1.00  0.00     0.124 S 
ATOM     66  O   UNL A   1      39.301  36.102  38.037  1.00  0.00    -0.237 OA
ATOM     67  O   UNL A   1      41.408  35.356  36.970  1.00  0.00    -0.237 OA
ATOM     68  O   UNL A   1      39.654  36.450  35.624  1.00  0.00    -0.744 OA
ENDBRANCH  61  65
ENDBRANCH  44  58
BRANCH  45  69
ATOM     69  C   UNL A   1      42.756  26.423  27.669  1.00  0.00     0.023 A 
ATOM     70  C   UNL A   1      42.536  25.039  27.589  1.00  0.00     0.031 A 
ATOM     71  C   UNL A   1      43.544  27.024  26.671  1.00  0.00     0.131 A 
ATOM     72  C   UNL A   1      43.134  24.294  26.561  1.00  0.00     0.055 A 
ATOM     73  C   UNL A   1      44.093  26.288  25.620  1.00  0.00     0.041 A 
ATOM     74  F   UNL A   1      43.786  28.345  26.700  1.00  0.00    -0.206 F 
ATOM     75  C   UNL A   1      43.900  24.911  25.568  1.00  0.00     0.022 A 
BRANCH  72  76
ATOM     76  S   UNL A   1      42.962  22.488  26.580  1.00  0.00     0.124 S 
ATOM     77  O   UNL A   1      44.355  22.057  26.548  1.00  0.00    -0.237 OA
ATOM     78  O   UNL A   1      42.249  22.266  27.834  1.00  0.00    -0.237 OA
ATOM     79  O   UNL A   1      42.194  22.206  25.370  1.00  0.00    -0.744 OA
ENDBRANCH  72  76
ENDBRANCH  45  69
BRANCH  57  80
ATOM     80  C   UNL A   1      44.858  27.393  34.251  1.00  0.00     0.023 A 
ATOM     81  C   UNL A   1      44.693  26.210  34.991  1.00  0.00     0.031 A 
ATOM     82  C   UNL A   1      46.113  28.025  34.287  1.00  0.00     0.131 A 
ATOM     83  C   UNL A   1      45.746  25.729  35.785  1.00  0.00     0.055 A 
ATOM     84  C   UNL A   1      47.177  27.508  35.027  1.00  0.00     0.041 A 
ATOM     85  F   UNL A   1      46.329  29.159  33.599  1.00  0.00    -0.206 F 
ATOM     86  C   UNL A   1      46.992  26.362  35.795  1.00  0.00     0.022 A 
BRANCH  83  87
ATOM     87  S   UNL A   1      45.437  24.320  36.886  1.00  0.00     0.124 S 
ATOM     88  O   UNL A   1      45.075  23.269  35.941  1.00  0.00    -0.237 OA
ATOM     89  O   UNL A   1      46.723  24.160  37.556  1.00  0.00    -0.237 OA
ATOM     90  O   UNL A   1      44.347  24.786  37.741  1.00  0.00    -0.744 OA
ENDBRANCH  83  87
ENDBRANCH  57  80
ENDBRANCH  31  32
ENDBRANCH  24  26
ENDBRANCH  23  24
ENDBRANCH  22  23
ENDBRANCH   1  22
TORSDOF 18
ENDMDL
MODEL 3
REMARK VINA RESULT:     -11.3      1.197      1.850
REMARK SMILES Cc1cscc1-c1ncc(C(=O)OCCOCCOC(=O)c2ccc(-c3c4nc(c(-c5cc(S(=O)(=O)[O-])ccc5F)c5ccc([nH]5)c(-c5cc(S(=O)(=O)[O-])ccc5F)c5nc(c(-c6cc(S(=O)(=O)[O-])ccc6F)c6ccc3[nH]6)C=C5)C=C4)cc2)c(=O)[nH]1
REMARK SMILES IDX 17 1 16 2 15 3 14 4 13 5 11 6 12 7 10 8 7 9 8 10 87 11 9 12
REMARK SMILES IDX 85 13 86 15 6 16 1 17 2 18 3 19 4 20 5 21 18 22 19 23 20 24
REMARK SMILES IDX 21 25 22 26 23 27 84 28 24 29 83 30 25 31 26 32 27 33 77 34
REMARK SMILES IDX 28 35 82 36 76 37 78 38 29 39 81 40 75 41 74 42 30 44 62 45
REMARK SMILES IDX 42 46 61 47 43 48 46 49 60 50 79 51 44 52 45 53 59 55 80 56
REMARK SMILES IDX 47 57 31 58 32 59 40 60 33 61 39 62 41 63 38 64 34 65 35 66
REMARK SMILES IDX 36 67 37 68 63 69 64 70 72 71 65 72 71 73 73 74 70 75 66 76
REMARK SMILES IDX 67 77 68 78 69 79 48 80 49 81 57 82 50 83 56 84 58 85 55 86
REMARK SMILES IDX 51 87 52 88 53 89 54 90
REMARK H PARENT 87 14 78 43 46 54
REMARK Flexibility Score: inf
ROOT
ATOM      1  C   UNL A   1      31.460  30.068  25.629  1.00  0.00     0.202 C 
ENDROOT
BRANCH   1   2
ATOM      2  O   UNL A   1      32.366  29.018  25.968  1.00  0.00    -0.374 OA
BRANCH   2   3
ATOM      3  C   UNL A   1      33.035  28.366  24.886  1.00  0.00     0.202 C 
BRANCH   3   4
ATOM      4  C   UNL A   1      32.750  28.944  23.497  1.00  0.00     0.261 C 
BRANCH   4   5
ATOM      5  O   UNL A   1      32.838  27.919  22.492  1.00  0.00    -0.459 OA
BRANCH   5   6
ATOM      6  C   UNL A   1      31.761  27.110  22.380  1.00  0.00     0.345 C 
ATOM      7  O   UNL A   1      30.652  27.440  21.980  1.00  0.00    -0.246 OA
BRANCH   6   8
ATOM      8  C   UNL A   1      32.111  25.711  22.664  1.00  0.00     0.143 A 
ATOM      9  C   UNL A   1      32.765  23.222  23.570  1.00  0.00     0.141 A 
ATOM     10  N   UNL A   1      31.992  23.946  24.310  1.00  0.00    -0.237 NA
ATOM     11  N   UNL A   1      33.194  23.598  22.327  1.00  0.00    -0.306 N 
ATOM     12  C   UNL A   1      31.696  25.199  23.833  1.00  0.00     0.135 A 
ATOM     13  C   UNL A   1      32.882  24.816  21.783  1.00  0.00     0.265 A 
ATOM     14  H   UNL A   1      33.745  22.971  21.805  1.00  0.00     0.171 HD
ATOM     15  O   UNL A   1      33.262  25.120  20.661  1.00  0.00    -0.269 OA
BRANCH   9  16
ATOM     16  C   UNL A   1      33.270  21.965  24.095  1.00  0.00     0.031 A 
ATOM     17  C   UNL A   1      35.649  22.732  24.837  1.00  0.00     0.046 C 
ATOM     18  C   UNL A   1      34.586  21.701  24.630  1.00  0.00    -0.029 A 
ATOM     19  C   UNL A   1      34.744  20.361  24.933  1.00  0.00     0.069 A 
ATOM     20  S   UNL A   1      33.348  19.435  24.611  1.00  0.00    -0.151 S 
ATOM     21  C   UNL A   1      32.508  20.809  24.052  1.00  0.00     0.077 A 
ENDBRANCH   9  16
ENDBRANCH   6   8
ENDBRANCH   5   6
ENDBRANCH   4   5
ENDBRANCH   3   4
ENDBRANCH   2   3
ENDBRANCH   1   2
BRANCH   1  22
ATOM     22  C   UNL A   1      31.695  31.423  26.305  1.00  0.00     0.261 C 
BRANCH  22  23
ATOM     23  O   UNL A   1      32.566  31.316  27.445  1.00  0.00    -0.460 OA
BRANCH  23  24
ATOM     24  C   UNL A   1      33.411  32.363  27.599  1.00  0.00     0.338 C 
ATOM     25  O   UNL A   1      33.105  33.549  27.619  1.00  0.00    -0.246 OA
BRANCH  24  26
ATOM     26  C   UNL A   1      34.772  31.893  27.928  1.00  0.00     0.060 A 
ATOM     27  C   UNL A   1      34.928  30.524  28.170  1.00  0.00     0.016 A 
ATOM     28  C   UNL A   1      35.855  32.764  28.071  1.00  0.00     0.016 A 
ATOM     29  C   UNL A   1      36.146  30.029  28.629  1.00  0.00     0.010 A 
ATOM     30  C   UNL A   1      37.080  32.265  28.536  1.00  0.00     0.010 A 
ATOM     31  C   UNL A   1      37.215  30.903  28.861  1.00  0.00    -0.014 A 
BRANCH  31  32
ATOM     32  C   UNL A   1      38.399  30.397  29.600  1.00  0.00     0.031 A 
ATOM     33  C   UNL A   1      38.607  30.832  31.028  1.00  0.00     0.074 A 
ATOM     34  C   UNL A   1      39.228  29.497  29.041  1.00  0.00     0.049 A 
ATOM     35  N   UNL A   1      39.527  30.468  31.884  1.00  0.00    -0.248 NA
ATOM     36  C   UNL A   1      37.644  31.810  31.558  1.00  0.00     0.031 C 
ATOM     37  C   UNL A   1      39.106  28.972  27.681  1.00  0.00     0.029 A 
ATOM     38  N   UNL A   1      40.328  28.855  29.552  1.00  0.00    -0.354 N 
ATOM     39  C   UNL A   1      39.251  31.165  33.057  1.00  0.00     0.074 A 
ATOM     40  C   UNL A   1      38.110  32.012  32.781  1.00  0.00     0.031 C 
ATOM     41  C   UNL A   1      40.089  28.081  27.469  1.00  0.00     0.029 A 
ATOM     42  C   UNL A   1      40.926  27.991  28.665  1.00  0.00     0.049 A 
ATOM     43  H   UNL A   1      40.659  29.000  30.468  1.00  0.00     0.167 HD
ATOM     44  C   UNL A   1      39.880  31.094  34.256  1.00  0.00     0.034 A 
ATOM     45  C   UNL A   1      42.025  27.222  28.800  1.00  0.00     0.034 A 
ATOM     46  C   UNL A   1      41.028  30.257  34.512  1.00  0.00     0.049 A 
ATOM     47  C   UNL A   1      42.756  27.215  30.121  1.00  0.00     0.074 A 
ATOM     48  C   UNL A   1      41.742  30.106  35.688  1.00  0.00     0.029 A 
ATOM     49  N   UNL A   1      41.637  29.434  33.572  1.00  0.00    -0.354 N 
ATOM     50  N   UNL A   1      42.478  27.870  31.225  1.00  0.00    -0.248 NA
ATOM     51  C   UNL A   1      43.938  26.350  30.217  1.00  0.00     0.031 C 
ATOM     52  C   UNL A   1      42.821  29.249  35.441  1.00  0.00     0.029 A 
ATOM     53  C   UNL A   1      42.734  28.797  34.134  1.00  0.00     0.049 A 
ATOM     54  H   UNL A   1      41.334  29.318  32.643  1.00  0.00     0.167 HD
ATOM     55  C   UNL A   1      43.431  27.466  32.157  1.00  0.00     0.074 A 
ATOM     56  C   UNL A   1      44.282  26.504  31.487  1.00  0.00     0.031 C 
ATOM     57  C   UNL A   1      43.582  27.846  33.452  1.00  0.00     0.034 A 
BRANCH  44  58
ATOM     58  C   UNL A   1      39.364  31.988  35.360  1.00  0.00     0.023 A 
ATOM     59  C   UNL A   1      39.801  33.317  35.503  1.00  0.00     0.031 A 
ATOM     60  C   UNL A   1      38.452  31.491  36.308  1.00  0.00     0.131 A 
ATOM     61  C   UNL A   1      39.386  34.077  36.607  1.00  0.00     0.055 A 
ATOM     62  C   UNL A   1      37.979  32.279  37.360  1.00  0.00     0.041 A 
ATOM     63  F   UNL A   1      38.016  30.223  36.240  1.00  0.00    -0.206 F 
ATOM     64  C   UNL A   1      38.459  33.575  37.524  1.00  0.00     0.022 A 
BRANCH  61  65
ATOM     65  S   UNL A   1      40.191  35.673  36.916  1.00  0.00     0.124 S 
ATOM     66  O   UNL A   1      39.655  36.489  35.829  1.00  0.00    -0.237 OA
ATOM     67  O   UNL A   1      39.725  36.008  38.257  1.00  0.00    -0.237 OA
ATOM     68  O   UNL A   1      41.616  35.365  36.809  1.00  0.00    -0.744 OA
ENDBRANCH  61  65
ENDBRANCH  44  58
BRANCH  45  69
ATOM     69  C   UNL A   1      42.520  26.408  27.654  1.00  0.00     0.023 A 
ATOM     70  C   UNL A   1      42.285  25.026  27.584  1.00  0.00     0.031 A 
ATOM     71  C   UNL A   1      43.283  26.999  26.631  1.00  0.00     0.131 A 
ATOM     72  C   UNL A   1      42.845  24.273  26.539  1.00  0.00     0.055 A 
ATOM     73  C   UNL A   1      43.794  26.255  25.566  1.00  0.00     0.041 A 
ATOM     74  F   UNL A   1      43.538  28.318  26.649  1.00  0.00    -0.206 F 
ATOM     75  C   UNL A   1      43.586  24.881  25.523  1.00  0.00     0.022 A 
BRANCH  72  76
ATOM     76  S   UNL A   1      42.657  22.469  26.568  1.00  0.00     0.124 S 
ATOM     77  O   UNL A   1      43.907  22.030  25.956  1.00  0.00    -0.237 OA
ATOM     78  O   UNL A   1      42.513  22.203  27.996  1.00  0.00    -0.237 OA
ATOM     79  O   UNL A   1      41.456  22.238  25.770  1.00  0.00    -0.744 OA
ENDBRANCH  72  76
ENDBRANCH  45  69
BRANCH  57  80
ATOM     80  C   UNL A   1      44.682  27.175  34.243  1.00  0.00     0.023 A 
ATOM     81  C   UNL A   1      44.488  25.942  34.888  1.00  0.00     0.031 A 
ATOM     82  C   UNL A   1      45.939  27.794  34.363  1.00  0.00     0.131 A 
ATOM     83  C   UNL A   1      45.514  25.396  35.676  1.00  0.00     0.055 A 
ATOM     84  C   UNL A   1      46.977  27.216  35.096  1.00  0.00     0.041 A 
ATOM     85  F   UNL A   1      46.181  28.973  33.768  1.00  0.00    -0.206 F 
ATOM     86  C   UNL A   1      46.762  26.018  35.771  1.00  0.00     0.022 A 
BRANCH  83  87
ATOM     87  S   UNL A   1      45.164  23.913  36.661  1.00  0.00     0.124 S 
ATOM     88  O   UNL A   1      44.724  24.485  37.928  1.00  0.00    -0.237 OA
ATOM     89  O   UNL A   1      44.133  23.250  35.868  1.00  0.00    -0.237 OA
ATOM     90  O   UNL A   1      46.451  23.220  36.707  1.00  0.00    -0.744 OA
ENDBRANCH  83  87
ENDBRANCH  57  80
ENDBRANCH  31  32
ENDBRANCH  24  26
ENDBRANCH  23  24
ENDBRANCH  22  23
ENDBRANCH   1  22
TORSDOF 18
ENDMDL
