MODEL 1
REMARK VINA RESULT:     -10.9      0.000      0.000
REMARK SMILES CC(C)CCc1cc2c(cc1Cl)C=C(C(=O)OCCOCCOC(=O)c1ccc(-c3c4nc(c(-c5cc(S(=O)(=O)[O-])ccc5F)c5ccc([nH]5)c(-c5cc(S(=O)(=O)[O-])ccc5F)c5nc(c(-c6cc(S(=O)(=O)[O-])ccc6F)c6ccc3[nH]6)C=C5)C=C4)cc1)[C@@H](C(F)(F)F)O2
REMARK SMILES IDX 20 1 19 2 18 3 17 4 15 5 16 6 14 7 6 8 7 9 11 10 8 11 10 12
REMARK SMILES IDX 12 13 9 14 94 15 13 16 89 17 5 18 4 19 2 20 1 21 3 22 90 23
REMARK SMILES IDX 91 24 92 25 93 26 21 27 22 28 23 29 24 30 25 31 26 32 27 33
REMARK SMILES IDX 88 34 28 35 87 36 29 37 30 38 31 39 81 40 32 41 86 42 80 43
REMARK SMILES IDX 82 44 33 45 85 46 79 47 78 48 34 50 66 51 46 52 65 53 47 54
REMARK SMILES IDX 50 55 64 56 83 57 48 58 49 59 63 61 84 62 51 63 35 64 36 65
REMARK SMILES IDX 44 66 37 67 43 68 45 69 42 70 38 71 39 72 40 73 41 74 67 75
REMARK SMILES IDX 68 76 76 77 69 78 75 79 77 80 74 81 70 82 71 83 72 84 73 85
REMARK SMILES IDX 52 86 53 87 61 88 54 89 60 90 62 91 59 92 55 93 56 94 57 95
REMARK SMILES IDX 58 96
REMARK H PARENT 82 49 50 60
REMARK Flexibility Score: inf
ROOT
ATOM      1  O   UNL A   1      36.599  21.362  25.372  1.00  0.00    -0.374 OA
ENDROOT
BRANCH   1   2
ATOM      2  C   UNL A   1      35.179  21.236  25.326  1.00  0.00     0.202 C 
BRANCH   2   3
ATOM      3  C   UNL A   1      34.395  21.522  26.611  1.00  0.00     0.261 C 
BRANCH   3   4
ATOM      4  O   UNL A   1      34.206  22.928  26.827  1.00  0.00    -0.460 OA
BRANCH   4   5
ATOM      5  C   UNL A   1      32.912  23.323  26.841  1.00  0.00     0.338 C 
ATOM      6  O   UNL A   1      32.057  23.016  27.655  1.00  0.00    -0.246 OA
BRANCH   5   7
ATOM      7  C   UNL A   1      32.691  24.328  25.783  1.00  0.00     0.087 C 
ATOM      8  C   UNL A   1      31.255  28.482  23.366  1.00  0.00    -0.026 A 
ATOM      9  C   UNL A   1      31.633  27.185  22.963  1.00  0.00     0.052 A 
ATOM     10  C   UNL A   1      31.463  28.843  24.706  1.00  0.00     0.045 A 
ATOM     11  C   UNL A   1      32.093  26.247  23.887  1.00  0.00     0.128 A 
ATOM     12  C   UNL A   1      31.939  27.907  25.629  1.00  0.00     0.032 A 
ATOM     13  Cl  UNL A   1      31.135  30.430  25.308  1.00  0.00    -0.084 Cl
ATOM     14  C   UNL A   1      32.214  26.599  25.227  1.00  0.00     0.019 A 
ATOM     15  O   UNL A   1      32.392  25.007  23.399  1.00  0.00    -0.475 OA
ATOM     16  C   UNL A   1      32.562  25.591  26.208  1.00  0.00     0.027 C 
ATOM     17  C   UNL A   1      32.599  23.912  24.340  1.00  0.00     0.316 C 
BRANCH   8  18
ATOM     18  C   UNL A   1      30.626  29.411  22.349  1.00  0.00     0.037 C 
BRANCH  18  19
ATOM     19  C   UNL A   1      29.124  29.675  22.574  1.00  0.00     0.008 C 
BRANCH  19  20
ATOM     20  C   UNL A   1      28.727  31.153  22.772  1.00  0.00    -0.017 C 
ATOM     21  C   UNL A   1      28.440  31.865  21.450  1.00  0.00     0.007 C 
ATOM     22  C   UNL A   1      27.496  31.240  23.680  1.00  0.00     0.007 C 
ENDBRANCH  19  20
ENDBRANCH  18  19
ENDBRANCH   8  18
BRANCH  17  23
ATOM     23  C   UNL A   1      31.509  22.855  24.105  1.00  0.00     0.430 C 
ATOM     24  F   UNL A   1      30.921  23.017  22.897  1.00  0.00    -0.167 F 
ATOM     25  F   UNL A   1      32.012  21.600  24.133  1.00  0.00    -0.167 F 
ATOM     26  F   UNL A   1      30.536  22.923  25.043  1.00  0.00    -0.167 F 
ENDBRANCH  17  23
ENDBRANCH   5   7
ENDBRANCH   4   5
ENDBRANCH   3   4
ENDBRANCH   2   3
ENDBRANCH   1   2
BRANCH   1  27
ATOM     27  C   UNL A   1      37.385  20.541  24.510  1.00  0.00     0.202 C 
BRANCH  27  28
ATOM     28  C   UNL A   1      38.308  19.484  25.129  1.00  0.00     0.261 C 
BRANCH  28  29
ATOM     29  O   UNL A   1      38.920  19.919  26.355  1.00  0.00    -0.460 OA
BRANCH  29  30
ATOM     30  C   UNL A   1      40.264  20.100  26.284  1.00  0.00     0.338 C 
ATOM     31  O   UNL A   1      41.076  19.360  25.748  1.00  0.00    -0.246 OA
BRANCH  30  32
ATOM     32  C   UNL A   1      40.599  21.449  26.773  1.00  0.00     0.060 A 
ATOM     33  C   UNL A   1      41.382  21.628  27.914  1.00  0.00     0.016 A 
ATOM     34  C   UNL A   1      40.146  22.552  26.038  1.00  0.00     0.016 A 
ATOM     35  C   UNL A   1      41.737  22.923  28.301  1.00  0.00     0.010 A 
ATOM     36  C   UNL A   1      40.501  23.843  26.427  1.00  0.00     0.010 A 
ATOM     37  C   UNL A   1      41.319  24.038  27.548  1.00  0.00    -0.014 A 
BRANCH  37  38
ATOM     38  C   UNL A   1      41.871  25.385  27.838  1.00  0.00     0.031 A 
ATOM     39  C   UNL A   1      43.260  25.773  27.433  1.00  0.00     0.074 A 
ATOM     40  C   UNL A   1      41.094  26.254  28.514  1.00  0.00     0.049 A 
ATOM     41  N   UNL A   1      43.856  26.929  27.568  1.00  0.00    -0.248 NA
ATOM     42  C   UNL A   1      44.090  24.736  26.805  1.00  0.00     0.031 C 
ATOM     43  C   UNL A   1      39.745  25.957  28.998  1.00  0.00     0.029 A 
ATOM     44  N   UNL A   1      41.313  27.549  28.911  1.00  0.00    -0.354 N 
ATOM     45  C   UNL A   1      45.126  26.769  27.028  1.00  0.00     0.074 A 
ATOM     46  C   UNL A   1      45.230  25.387  26.610  1.00  0.00     0.031 C 
ATOM     47  C   UNL A   1      39.244  27.046  29.596  1.00  0.00     0.029 A 
ATOM     48  C   UNL A   1      40.249  28.107  29.583  1.00  0.00     0.049 A 
ATOM     49  H   UNL A   1      42.151  28.033  28.732  1.00  0.00     0.167 HD
ATOM     50  C   UNL A   1      46.098  27.701  26.880  1.00  0.00     0.034 A 
ATOM     51  C   UNL A   1      40.095  29.332  30.128  1.00  0.00     0.034 A 
ATOM     52  C   UNL A   1      45.972  29.071  27.317  1.00  0.00     0.049 A 
ATOM     53  C   UNL A   1      41.204  30.340  29.976  1.00  0.00     0.074 A 
ATOM     54  C   UNL A   1      46.882  30.102  27.162  1.00  0.00     0.029 A 
ATOM     55  N   UNL A   1      44.886  29.602  28.001  1.00  0.00    -0.354 N 
ATOM     56  N   UNL A   1      42.354  30.209  29.357  1.00  0.00    -0.248 NA
ATOM     57  C   UNL A   1      40.996  31.664  30.575  1.00  0.00     0.031 C 
ATOM     58  C   UNL A   1      46.390  31.225  27.824  1.00  0.00     0.029 A 
ATOM     59  C   UNL A   1      45.125  30.933  28.310  1.00  0.00     0.049 A 
ATOM     60  H   UNL A   1      44.068  29.108  28.233  1.00  0.00     0.167 HD
ATOM     61  C   UNL A   1      42.994  31.441  29.468  1.00  0.00     0.074 A 
ATOM     62  C   UNL A   1      42.091  32.311  30.193  1.00  0.00     0.031 C 
ATOM     63  C   UNL A   1      44.219  31.810  29.016  1.00  0.00     0.034 A 
BRANCH  50  64
ATOM     64  C   UNL A   1      47.388  27.311  26.197  1.00  0.00     0.023 A 
ATOM     65  C   UNL A   1      48.482  26.857  26.960  1.00  0.00     0.031 A 
ATOM     66  C   UNL A   1      47.591  27.552  24.826  1.00  0.00     0.131 A 
ATOM     67  C   UNL A   1      49.738  26.709  26.358  1.00  0.00     0.055 A 
ATOM     68  C   UNL A   1      48.833  27.354  24.222  1.00  0.00     0.041 A 
ATOM     69  F   UNL A   1      46.584  27.994  24.056  1.00  0.00    -0.206 F 
ATOM     70  C   UNL A   1      49.917  26.947  24.992  1.00  0.00     0.022 A 
BRANCH  67  71
ATOM     71  S   UNL A   1      51.205  26.291  27.340  1.00  0.00     0.124 S 
ATOM     72  O   UNL A   1      50.682  26.360  28.703  1.00  0.00    -0.237 OA
ATOM     73  O   UNL A   1      51.520  24.948  26.860  1.00  0.00    -0.237 OA
ATOM     74  O   UNL A   1      52.168  27.329  26.992  1.00  0.00    -0.744 OA
ENDBRANCH  67  71
ENDBRANCH  50  64
BRANCH  51  75
ATOM     75  C   UNL A   1      38.807  29.664  30.805  1.00  0.00     0.023 A 
ATOM     76  C   UNL A   1      37.842  30.465  30.166  1.00  0.00     0.031 A 
ATOM     77  C   UNL A   1      38.576  29.290  32.140  1.00  0.00     0.131 A 
ATOM     78  C   UNL A   1      36.736  30.932  30.887  1.00  0.00     0.055 A 
ATOM     79  C   UNL A   1      37.429  29.691  32.828  1.00  0.00     0.041 A 
ATOM     80  F   UNL A   1      39.472  28.541  32.798  1.00  0.00    -0.206 F 
ATOM     81  C   UNL A   1      36.512  30.533  32.208  1.00  0.00     0.022 A 
BRANCH  78  82
ATOM     82  S   UNL A   1      35.634  32.189  30.182  1.00  0.00     0.124 S 
ATOM     83  O   UNL A   1      36.504  33.359  30.120  1.00  0.00    -0.237 OA
ATOM     84  O   UNL A   1      35.287  31.591  28.895  1.00  0.00    -0.237 OA
ATOM     85  O   UNL A   1      34.540  32.267  31.144  1.00  0.00    -0.744 OA
ENDBRANCH  78  82
ENDBRANCH  51  75
BRANCH  63  86
ATOM     86  C   UNL A   1      44.695  33.224  29.262  1.00  0.00     0.023 A 
ATOM     87  C   UNL A   1      44.508  34.209  28.271  1.00  0.00     0.031 A 
ATOM     88  C   UNL A   1      45.480  33.553  30.380  1.00  0.00     0.131 A 
ATOM     89  C   UNL A   1      45.148  35.449  28.387  1.00  0.00     0.055 A 
ATOM     90  C   UNL A   1      46.065  34.812  30.521  1.00  0.00     0.041 A 
ATOM     91  F   UNL A   1      45.699  32.649  31.349  1.00  0.00    -0.206 F 
ATOM     92  C   UNL A   1      45.916  35.760  29.513  1.00  0.00     0.022 A 
BRANCH  89  93
ATOM     93  S   UNL A   1      45.097  36.659  27.036  1.00  0.00     0.124 S 
ATOM     94  O   UNL A   1      43.674  36.682  26.703  1.00  0.00    -0.237 OA
ATOM     95  O   UNL A   1      45.604  37.864  27.685  1.00  0.00    -0.237 OA
ATOM     96  O   UNL A   1      45.964  36.083  26.014  1.00  0.00    -0.744 OA
ENDBRANCH  89  93
ENDBRANCH  63  86
ENDBRANCH  37  38
ENDBRANCH  30  32
ENDBRANCH  29  30
ENDBRANCH  28  29
ENDBRANCH  27  28
ENDBRANCH   1  27
TORSDOF 21
ENDMDL
MODEL 2
REMARK VINA RESULT:     -10.9      2.150      2.526
REMARK SMILES CC(C)CCc1cc2c(cc1Cl)C=C(C(=O)OCCOCCOC(=O)c1ccc(-c3c4nc(c(-c5cc(S(=O)(=O)[O-])ccc5F)c5ccc([nH]5)c(-c5cc(S(=O)(=O)[O-])ccc5F)c5nc(c(-c6cc(S(=O)(=O)[O-])ccc6F)c6ccc3[nH]6)C=C5)C=C4)cc1)[C@@H](C(F)(F)F)O2
REMARK SMILES IDX 20 1 19 2 18 3 17 4 15 5 16 6 14 7 6 8 7 9 11 10 8 11 10 12
REMARK SMILES IDX 12 13 9 14 94 15 13 16 89 17 5 18 4 19 2 20 1 21 3 22 90 23
REMARK SMILES IDX 91 24 92 25 93 26 21 27 22 28 23 29 24 30 25 31 26 32 27 33
REMARK SMILES IDX 88 34 28 35 87 36 29 37 30 38 31 39 81 40 32 41 86 42 80 43
REMARK SMILES IDX 82 44 33 45 85 46 79 47 78 48 34 50 66 51 46 52 65 53 47 54
REMARK SMILES IDX 50 55 64 56 83 57 48 58 49 59 63 61 84 62 51 63 35 64 36 65
REMARK SMILES IDX 44 66 37 67 43 68 45 69 42 70 38 71 39 72 40 73 41 74 67 75
REMARK SMILES IDX 68 76 76 77 69 78 75 79 77 80 74 81 70 82 71 83 72 84 73 85
REMARK SMILES IDX 52 86 53 87 61 88 54 89 60 90 62 91 59 92 55 93 56 94 57 95
REMARK SMILES IDX 58 96
REMARK H PARENT 82 49 50 60
REMARK Flexibility Score: inf
ROOT
ATOM      1  O   UNL A   1      35.710  20.794  25.629  1.00  0.00    -0.374 OA
ENDROOT
BRANCH   1   2
ATOM      2  C   UNL A   1      34.300  20.872  25.432  1.00  0.00     0.202 C 
BRANCH   2   3
ATOM      3  C   UNL A   1      33.648  22.258  25.478  1.00  0.00     0.261 C 
BRANCH   3   4
ATOM      4  O   UNL A   1      34.602  23.294  25.755  1.00  0.00    -0.460 OA
BRANCH   4   5
ATOM      5  C   UNL A   1      35.196  23.817  24.658  1.00  0.00     0.338 C 
ATOM      6  O   UNL A   1      36.149  23.359  24.049  1.00  0.00    -0.246 OA
BRANCH   5   7
ATOM      7  C   UNL A   1      34.427  24.985  24.188  1.00  0.00     0.087 C 
ATOM      8  C   UNL A   1      31.376  28.965  24.079  1.00  0.00    -0.026 A 
ATOM      9  C   UNL A   1      31.904  28.097  23.101  1.00  0.00     0.052 A 
ATOM     10  C   UNL A   1      31.900  28.890  25.379  1.00  0.00     0.045 A 
ATOM     11  C   UNL A   1      32.835  27.114  23.435  1.00  0.00     0.128 A 
ATOM     12  C   UNL A   1      32.845  27.915  25.709  1.00  0.00     0.032 A 
ATOM     13  Cl  UNL A   1      31.412  29.961  26.646  1.00  0.00    -0.084 Cl
ATOM     14  C   UNL A   1      33.281  27.002  24.748  1.00  0.00     0.019 A 
ATOM     15  O   UNL A   1      33.250  26.299  22.421  1.00  0.00    -0.475 OA
ATOM     16  C   UNL A   1      34.144  25.900  25.124  1.00  0.00     0.027 C 
ATOM     17  C   UNL A   1      33.991  25.087  22.752  1.00  0.00     0.316 C 
BRANCH   8  18
ATOM     18  C   UNL A   1      30.262  29.914  23.692  1.00  0.00     0.037 C 
BRANCH  18  19
ATOM     19  C   UNL A   1      28.921  29.224  23.375  1.00  0.00     0.008 C 
BRANCH  19  20
ATOM     20  C   UNL A   1      27.828  30.131  22.769  1.00  0.00    -0.017 C 
ATOM     21  C   UNL A   1      27.605  31.404  23.585  1.00  0.00     0.007 C 
ATOM     22  C   UNL A   1      28.202  30.501  21.330  1.00  0.00     0.007 C 
ENDBRANCH  19  20
ENDBRANCH  18  19
ENDBRANCH   8  18
BRANCH  17  23
ATOM     23  C   UNL A   1      33.163  23.872  22.305  1.00  0.00     0.430 C 
ATOM     24  F   UNL A   1      33.876  22.727  22.413  1.00  0.00    -0.167 F 
ATOM     25  F   UNL A   1      32.052  23.717  23.060  1.00  0.00    -0.167 F 
ATOM     26  F   UNL A   1      32.766  23.984  21.017  1.00  0.00    -0.167 F 
ENDBRANCH  17  23
ENDBRANCH   5   7
ENDBRANCH   4   5
ENDBRANCH   3   4
ENDBRANCH   2   3
ENDBRANCH   1   2
BRANCH   1  27
ATOM     27  C   UNL A   1      36.461  19.881  24.830  1.00  0.00     0.202 C 
BRANCH  27  28
ATOM     28  C   UNL A   1      37.979  19.794  25.029  1.00  0.00     0.261 C 
BRANCH  28  29
ATOM     29  O   UNL A   1      38.556  21.021  25.506  1.00  0.00    -0.460 OA
BRANCH  29  30
ATOM     30  C   UNL A   1      39.681  20.866  26.251  1.00  0.00     0.338 C 
ATOM     31  O   UNL A   1      40.366  19.857  26.344  1.00  0.00    -0.246 OA
BRANCH  30  32
ATOM     32  C   UNL A   1      40.094  22.176  26.784  1.00  0.00     0.060 A 
ATOM     33  C   UNL A   1      41.046  22.274  27.799  1.00  0.00     0.016 A 
ATOM     34  C   UNL A   1      39.537  23.329  26.215  1.00  0.00     0.016 A 
ATOM     35  C   UNL A   1      41.463  23.538  28.224  1.00  0.00     0.010 A 
ATOM     36  C   UNL A   1      39.954  24.589  26.641  1.00  0.00     0.010 A 
ATOM     37  C   UNL A   1      40.938  24.704  27.633  1.00  0.00    -0.014 A 
BRANCH  37  38
ATOM     38  C   UNL A   1      41.534  26.029  27.936  1.00  0.00     0.031 A 
ATOM     39  C   UNL A   1      42.939  26.370  27.547  1.00  0.00     0.074 A 
ATOM     40  C   UNL A   1      40.781  26.921  28.609  1.00  0.00     0.049 A 
ATOM     41  N   UNL A   1      43.575  27.503  27.694  1.00  0.00    -0.248 NA
ATOM     42  C   UNL A   1      43.739  25.307  26.921  1.00  0.00     0.031 C 
ATOM     43  C   UNL A   1      39.418  26.670  29.078  1.00  0.00     0.029 A 
ATOM     44  N   UNL A   1      41.043  28.206  29.016  1.00  0.00    -0.354 N 
ATOM     45  C   UNL A   1      44.844  27.301  27.164  1.00  0.00     0.074 A 
ATOM     46  C   UNL A   1      44.903  25.919  26.740  1.00  0.00     0.031 C 
ATOM     47  C   UNL A   1      38.951  27.773  29.678  1.00  0.00     0.029 A 
ATOM     48  C   UNL A   1      39.993  28.797  29.680  1.00  0.00     0.049 A 
ATOM     49  H   UNL A   1      41.899  28.660  28.848  1.00  0.00     0.167 HD
ATOM     50  C   UNL A   1      45.850  28.199  27.032  1.00  0.00     0.034 A 
ATOM     51  C   UNL A   1      39.877  30.024  30.232  1.00  0.00     0.034 A 
ATOM     52  C   UNL A   1      45.767  29.570  27.475  1.00  0.00     0.049 A 
ATOM     53  C   UNL A   1      41.022  30.993  30.095  1.00  0.00     0.074 A 
ATOM     54  C   UNL A   1      46.715  30.569  27.335  1.00  0.00     0.029 A 
ATOM     55  N   UNL A   1      44.695  30.136  28.152  1.00  0.00    -0.354 N 
ATOM     56  N   UNL A   1      42.173  30.825  29.487  1.00  0.00    -0.248 NA
ATOM     57  C   UNL A   1      40.856  32.320  30.700  1.00  0.00     0.031 C 
ATOM     58  C   UNL A   1      46.257  31.706  27.999  1.00  0.00     0.029 A 
ATOM     59  C   UNL A   1      44.978  31.455  28.470  1.00  0.00     0.049 A 
ATOM     60  H   UNL A   1      43.857  29.669  28.373  1.00  0.00     0.167 HD
ATOM     61  C   UNL A   1      42.855  32.033  29.611  1.00  0.00     0.074 A 
ATOM     62  C   UNL A   1      41.976  32.930  30.333  1.00  0.00     0.031 C 
ATOM     63  C   UNL A   1      44.096  32.360  29.173  1.00  0.00     0.034 A 
BRANCH  50  64
ATOM     64  C   UNL A   1      47.131  27.767  26.358  1.00  0.00     0.023 A 
ATOM     65  C   UNL A   1      47.319  28.003  24.982  1.00  0.00     0.031 A 
ATOM     66  C   UNL A   1      48.080  26.976  27.031  1.00  0.00     0.131 A 
ATOM     67  C   UNL A   1      48.399  27.411  24.314  1.00  0.00     0.055 A 
ATOM     68  C   UNL A   1      49.182  26.431  26.371  1.00  0.00     0.041 A 
ATOM     69  F   UNL A   1      47.943  26.714  28.340  1.00  0.00    -0.206 F 
ATOM     70  C   UNL A   1      49.335  26.634  25.003  1.00  0.00     0.022 A 
BRANCH  67  71
ATOM     71  S   UNL A   1      48.580  27.550  22.514  1.00  0.00     0.124 S 
ATOM     72  O   UNL A   1      47.381  28.302  22.151  1.00  0.00    -0.237 OA
ATOM     73  O   UNL A   1      49.837  28.284  22.391  1.00  0.00    -0.237 OA
ATOM     74  O   UNL A   1      48.608  26.167  22.056  1.00  0.00    -0.744 OA
ENDBRANCH  67  71
ENDBRANCH  50  64
BRANCH  51  75
ATOM     75  C   UNL A   1      38.595  30.398  30.898  1.00  0.00     0.023 A 
ATOM     76  C   UNL A   1      37.642  31.193  30.234  1.00  0.00     0.031 A 
ATOM     77  C   UNL A   1      38.359  30.071  32.244  1.00  0.00     0.131 A 
ATOM     78  C   UNL A   1      36.544  31.700  30.939  1.00  0.00     0.055 A 
ATOM     79  C   UNL A   1      37.219  30.512  32.919  1.00  0.00     0.041 A 
ATOM     80  F   UNL A   1      39.244  29.330  32.926  1.00  0.00    -0.206 F 
ATOM     81  C   UNL A   1      36.315  31.348  32.273  1.00  0.00     0.022 A 
BRANCH  78  82
ATOM     82  S   UNL A   1      35.461  32.951  30.195  1.00  0.00     0.124 S 
ATOM     83  O   UNL A   1      34.949  33.650  31.368  1.00  0.00    -0.237 OA
ATOM     84  O   UNL A   1      36.402  33.705  29.370  1.00  0.00    -0.237 OA
ATOM     85  O   UNL A   1      34.482  32.162  29.454  1.00  0.00    -0.744 OA
ENDBRANCH  78  82
ENDBRANCH  51  75
BRANCH  63  86
ATOM     86  C   UNL A   1      44.620  33.756  29.431  1.00  0.00     0.023 A 
ATOM     87  C   UNL A   1      45.245  34.054  30.659  1.00  0.00     0.031 A 
ATOM     88  C   UNL A   1      44.346  34.819  28.553  1.00  0.00     0.131 A 
ATOM     89  C   UNL A   1      45.517  35.384  31.000  1.00  0.00     0.055 A 
ATOM     90  C   UNL A   1      44.677  36.137  28.872  1.00  0.00     0.041 A 
ATOM     91  F   UNL A   1      43.742  34.592  27.375  1.00  0.00    -0.206 F 
ATOM     92  C   UNL A   1      45.247  36.426  30.108  1.00  0.00     0.022 A 
BRANCH  89  93
ATOM     93  S   UNL A   1      46.128  35.821  32.652  1.00  0.00     0.124 S 
ATOM     94  O   UNL A   1      46.466  34.511  33.205  1.00  0.00    -0.237 OA
ATOM     95  O   UNL A   1      47.269  36.677  32.340  1.00  0.00    -0.237 OA
ATOM     96  O   UNL A   1      44.995  36.488  33.283  1.00  0.00    -0.744 OA
ENDBRANCH  89  93
ENDBRANCH  63  86
ENDBRANCH  37  38
ENDBRANCH  30  32
ENDBRANCH  29  30
ENDBRANCH  28  29
ENDBRANCH  27  28
ENDBRANCH   1  27
TORSDOF 21
ENDMDL
MODEL 3
REMARK VINA RESULT:     -10.7      5.370     10.869
REMARK SMILES CC(C)CCc1cc2c(cc1Cl)C=C(C(=O)OCCOCCOC(=O)c1ccc(-c3c4nc(c(-c5cc(S(=O)(=O)[O-])ccc5F)c5ccc([nH]5)c(-c5cc(S(=O)(=O)[O-])ccc5F)c5nc(c(-c6cc(S(=O)(=O)[O-])ccc6F)c6ccc3[nH]6)C=C5)C=C4)cc1)[C@@H](C(F)(F)F)O2
REMARK SMILES IDX 20 1 19 2 18 3 17 4 15 5 16 6 14 7 6 8 7 9 11 10 8 11 10 12
REMARK SMILES IDX 12 13 9 14 94 15 13 16 89 17 5 18 4 19 2 20 1 21 3 22 90 23
REMARK SMILES IDX 91 24 92 25 93 26 21 27 22 28 23 29 24 30 25 31 26 32 27 33
REMARK SMILES IDX 88 34 28 35 87 36 29 37 30 38 31 39 81 40 32 41 86 42 80 43
REMARK SMILES IDX 82 44 33 45 85 46 79 47 78 48 34 50 66 51 46 52 65 53 47 54
REMARK SMILES IDX 50 55 64 56 83 57 48 58 49 59 63 61 84 62 51 63 35 64 36 65
REMARK SMILES IDX 44 66 37 67 43 68 45 69 42 70 38 71 39 72 40 73 41 74 67 75
REMARK SMILES IDX 68 76 76 77 69 78 75 79 77 80 74 81 70 82 71 83 72 84 73 85
REMARK SMILES IDX 52 86 53 87 61 88 54 89 60 90 62 91 59 92 55 93 56 94 57 95
REMARK SMILES IDX 58 96
REMARK H PARENT 82 49 50 60
REMARK Flexibility Score: inf
ROOT
ATOM      1  O   UNL A   1      31.699  30.738  25.999  1.00  0.00    -0.374 OA
ENDROOT
BRANCH   1   2
ATOM      2  C   UNL A   1      32.958  30.095  26.183  1.00  0.00     0.202 C 
BRANCH   2   3
ATOM      3  C   UNL A   1      33.082  28.630  25.751  1.00  0.00     0.261 C 
BRANCH   3   4
ATOM      4  O   UNL A   1      32.493  28.395  24.463  1.00  0.00    -0.460 OA
BRANCH   4   5
ATOM      5  C   UNL A   1      33.156  27.497  23.699  1.00  0.00     0.338 C 
ATOM      6  O   UNL A   1      33.907  27.735  22.767  1.00  0.00    -0.246 OA
BRANCH   5   7
ATOM      7  C   UNL A   1      32.959  26.141  24.247  1.00  0.00     0.087 C 
ATOM      8  C   UNL A   1      33.650  21.307  25.398  1.00  0.00    -0.026 A 
ATOM      9  C   UNL A   1      32.532  22.167  25.371  1.00  0.00     0.052 A 
ATOM     10  C   UNL A   1      34.925  21.879  25.259  1.00  0.00     0.045 A 
ATOM     11  C   UNL A   1      32.675  23.528  25.100  1.00  0.00     0.128 A 
ATOM     12  C   UNL A   1      35.067  23.245  25.002  1.00  0.00     0.032 A 
ATOM     13  Cl  UNL A   1      36.380  20.953  25.371  1.00  0.00    -0.084 Cl
ATOM     14  C   UNL A   1      33.941  24.061  24.882  1.00  0.00     0.019 A 
ATOM     15  O   UNL A   1      31.525  24.264  25.055  1.00  0.00    -0.475 OA
ATOM     16  C   UNL A   1      34.080  25.442  24.468  1.00  0.00     0.027 C 
ATOM     17  C   UNL A   1      31.573  25.611  24.500  1.00  0.00     0.316 C 
BRANCH   8  18
ATOM     18  C   UNL A   1      33.425  19.819  25.552  1.00  0.00     0.037 C 
BRANCH  18  19
ATOM     19  C   UNL A   1      33.716  18.997  24.281  1.00  0.00     0.008 C 
BRANCH  19  20
ATOM     20  C   UNL A   1      33.809  17.469  24.477  1.00  0.00    -0.017 C 
ATOM     21  C   UNL A   1      32.566  16.889  25.152  1.00  0.00     0.007 C 
ATOM     22  C   UNL A   1      34.026  16.786  23.124  1.00  0.00     0.007 C 
ENDBRANCH  19  20
ENDBRANCH  18  19
ENDBRANCH   8  18
BRANCH  17  23
ATOM     23  C   UNL A   1      30.693  25.653  23.242  1.00  0.00     0.430 C 
ATOM     24  F   UNL A   1      29.887  26.742  23.243  1.00  0.00    -0.167 F 
ATOM     25  F   UNL A   1      31.433  25.713  22.112  1.00  0.00    -0.167 F 
ATOM     26  F   UNL A   1      29.899  24.561  23.151  1.00  0.00    -0.167 F 
ENDBRANCH  17  23
ENDBRANCH   5   7
ENDBRANCH   4   5
ENDBRANCH   3   4
ENDBRANCH   2   3
ENDBRANCH   1   2
BRANCH   1  27
ATOM     27  C   UNL A   1      31.500  32.027  26.576  1.00  0.00     0.202 C 
BRANCH  27  28
ATOM     28  C   UNL A   1      32.589  32.610  27.485  1.00  0.00     0.261 C 
BRANCH  28  29
ATOM     29  O   UNL A   1      32.546  34.044  27.569  1.00  0.00    -0.460 OA
BRANCH  29  30
ATOM     30  C   UNL A   1      33.072  34.561  28.709  1.00  0.00     0.338 C 
ATOM     31  O   UNL A   1      32.576  35.421  29.422  1.00  0.00    -0.246 OA
BRANCH  30  32
ATOM     32  C   UNL A   1      34.259  33.776  29.095  1.00  0.00     0.060 A 
ATOM     33  C   UNL A   1      35.532  34.125  28.644  1.00  0.00     0.016 A 
ATOM     34  C   UNL A   1      34.083  32.692  29.966  1.00  0.00     0.016 A 
ATOM     35  C   UNL A   1      36.638  33.399  29.093  1.00  0.00     0.010 A 
ATOM     36  C   UNL A   1      35.187  31.969  30.412  1.00  0.00     0.010 A 
ATOM     37  C   UNL A   1      36.477  32.331  29.998  1.00  0.00    -0.014 A 
BRANCH  37  38
ATOM     38  C   UNL A   1      37.663  31.704  30.632  1.00  0.00     0.031 A 
ATOM     39  C   UNL A   1      38.113  32.082  32.010  1.00  0.00     0.074 A 
ATOM     40  C   UNL A   1      38.356  30.797  29.918  1.00  0.00     0.049 A 
ATOM     41  N   UNL A   1      39.093  31.580  32.715  1.00  0.00    -0.248 NA
ATOM     42  C   UNL A   1      37.379  33.163  32.683  1.00  0.00     0.031 C 
ATOM     43  C   UNL A   1      38.031  30.395  28.549  1.00  0.00     0.029 A 
ATOM     44  N   UNL A   1      39.465  30.051  30.229  1.00  0.00    -0.354 N 
ATOM     45  C   UNL A   1      39.088  32.268  33.922  1.00  0.00     0.074 A 
ATOM     46  C   UNL A   1      38.037  33.259  33.832  1.00  0.00     0.031 C 
ATOM     47  C   UNL A   1      38.898  29.455  28.150  1.00  0.00     0.029 A 
ATOM     48  C   UNL A   1      39.870  29.216  29.214  1.00  0.00     0.049 A 
ATOM     49  H   UNL A   1      39.926  30.107  31.097  1.00  0.00     0.167 HD
ATOM     50  C   UNL A   1      39.877  32.069  35.005  1.00  0.00     0.034 A 
ATOM     51  C   UNL A   1      40.907  28.354  29.141  1.00  0.00     0.034 A 
ATOM     52  C   UNL A   1      40.927  31.080  35.063  1.00  0.00     0.049 A 
ATOM     53  C   UNL A   1      41.787  28.173  30.350  1.00  0.00     0.074 A 
ATOM     54  C   UNL A   1      41.743  30.767  36.136  1.00  0.00     0.029 A 
ATOM     55  N   UNL A   1      41.318  30.256  34.016  1.00  0.00    -0.354 N 
ATOM     56  N   UNL A   1      41.696  28.747  31.527  1.00  0.00    -0.248 NA
ATOM     57  C   UNL A   1      42.899  27.220  30.235  1.00  0.00     0.031 C 
ATOM     58  C   UNL A   1      42.680  29.824  35.715  1.00  0.00     0.029 A 
ATOM     59  C   UNL A   1      42.390  29.468  34.407  1.00  0.00     0.049 A 
ATOM     60  H   UNL A   1      40.897  30.234  33.126  1.00  0.00     0.167 HD
ATOM     61  C   UNL A   1      42.719  28.205  32.300  1.00  0.00     0.074 A 
ATOM     62  C   UNL A   1      43.402  27.239  31.464  1.00  0.00     0.031 C 
ATOM     63  C   UNL A   1      43.061  28.489  33.582  1.00  0.00     0.034 A 
BRANCH  50  64
ATOM     64  C   UNL A   1      39.644  32.901  36.244  1.00  0.00     0.023 A 
ATOM     65  C   UNL A   1      38.841  32.402  37.289  1.00  0.00     0.031 A 
ATOM     66  C   UNL A   1      40.066  34.241  36.314  1.00  0.00     0.131 A 
ATOM     67  C   UNL A   1      38.444  33.252  38.329  1.00  0.00     0.055 A 
ATOM     68  C   UNL A   1      39.709  35.068  37.380  1.00  0.00     0.041 A 
ATOM     69  F   UNL A   1      40.825  34.768  35.341  1.00  0.00    -0.206 F 
ATOM     70  C   UNL A   1      38.880  34.579  38.384  1.00  0.00     0.022 A 
BRANCH  67  71
ATOM     71  S   UNL A   1      37.275  32.695  39.600  1.00  0.00     0.124 S 
ATOM     72  O   UNL A   1      37.778  31.357  39.903  1.00  0.00    -0.237 OA
ATOM     73  O   UNL A   1      37.473  33.688  40.652  1.00  0.00    -0.237 OA
ATOM     74  O   UNL A   1      35.981  32.734  38.929  1.00  0.00    -0.744 OA
ENDBRANCH  67  71
ENDBRANCH  50  64
BRANCH  51  75
ATOM     75  C   UNL A   1      41.103  27.564  27.890  1.00  0.00     0.023 A 
ATOM     76  C   UNL A   1      40.807  26.189  27.851  1.00  0.00     0.031 A 
ATOM     77  C   UNL A   1      41.702  28.143  26.757  1.00  0.00     0.131 A 
ATOM     78  C   UNL A   1      41.184  25.426  26.739  1.00  0.00     0.055 A 
ATOM     79  C   UNL A   1      42.001  27.392  25.619  1.00  0.00     0.041 A 
ATOM     80  F   UNL A   1      42.019  29.446  26.751  1.00  0.00    -0.206 F 
ATOM     81  C   UNL A   1      41.761  26.022  25.614  1.00  0.00     0.022 A 
BRANCH  78  82
ATOM     82  S   UNL A   1      41.077  23.615  26.778  1.00  0.00     0.124 S 
ATOM     83  O   UNL A   1      42.004  23.230  25.719  1.00  0.00    -0.237 OA
ATOM     84  O   UNL A   1      41.516  23.321  28.140  1.00  0.00    -0.237 OA
ATOM     85  O   UNL A   1      39.668  23.347  26.510  1.00  0.00    -0.744 OA
ENDBRANCH  78  82
ENDBRANCH  51  75
BRANCH  63  86
ATOM     86  C   UNL A   1      44.225  27.754  34.210  1.00  0.00     0.023 A 
ATOM     87  C   UNL A   1      43.986  26.619  35.011  1.00  0.00     0.031 A 
ATOM     88  C   UNL A   1      45.531  28.269  34.166  1.00  0.00     0.131 A 
ATOM     89  C   UNL A   1      45.022  26.078  35.782  1.00  0.00     0.055 A 
ATOM     90  C   UNL A   1      46.574  27.687  34.888  1.00  0.00     0.041 A 
ATOM     91  F   UNL A   1      45.811  29.355  33.426  1.00  0.00    -0.206 F 
ATOM     92  C   UNL A   1      46.318  26.598  35.716  1.00  0.00     0.022 A 
BRANCH  89  93
ATOM     93  S   UNL A   1      44.703  24.751  36.978  1.00  0.00     0.124 S 
ATOM     94  O   UNL A   1      45.626  23.710  36.529  1.00  0.00    -0.237 OA
ATOM     95  O   UNL A   1      45.054  25.389  38.244  1.00  0.00    -0.237 OA
ATOM     96  O   UNL A   1      43.288  24.446  36.799  1.00  0.00    -0.744 OA
ENDBRANCH  89  93
ENDBRANCH  63  86
ENDBRANCH  37  38
ENDBRANCH  30  32
ENDBRANCH  29  30
ENDBRANCH  28  29
ENDBRANCH  27  28
ENDBRANCH   1  27
TORSDOF 21
ENDMDL
