MODEL 1
REMARK VINA RESULT:     -11.3      0.000      0.000
REMARK SMILES O=C(OCCOCCOC(=O)[C@@]1([NH2+]C2CC2)CC[C@@H]([N@@H+]2CC[N@@H+]3CCC[C@@H]3C2)C1)c1ccc(-c2c3nc(c(-c4cc(S(=O)(=O)[O-])ccc4F)c4ccc([nH]4)c(-c4cc(S(=O)(=O)[O-])ccc4F)c4nc(c(-c5cc(S(=O)(=O)[O-])ccc5F)c5ccc2[nH]5)C=C4)C=C3)cc1
REMARK SMILES IDX 5 1 4 2 3 3 2 4 1 5 30 6 31 7 92 8 32 9 91 10 33 11 34 12
REMARK SMILES IDX 35 13 85 14 36 15 90 16 84 17 86 18 37 19 89 20 83 21 82 22
REMARK SMILES IDX 38 24 70 25 50 26 69 27 51 28 54 29 68 30 87 31 52 32 53 33
REMARK SMILES IDX 67 35 88 36 55 37 39 38 40 39 48 40 41 41 47 42 49 43 46 44
REMARK SMILES IDX 42 45 43 46 44 47 45 48 71 49 72 50 80 51 73 52 79 53 81 54
REMARK SMILES IDX 78 55 74 56 75 57 76 58 77 59 56 60 57 61 65 62 58 63 64 64
REMARK SMILES IDX 66 65 63 66 59 67 60 68 61 69 62 70 6 71 7 72 8 73 9 74
REMARK SMILES IDX 10 75 11 76 12 77 17 78 29 79 18 80 19 81 13 82 14 85 15 86
REMARK SMILES IDX 16 87 20 88 21 89 28 90 22 92 27 93 23 94 26 95 24 96 25 98
REMARK H PARENT 86 23 54 34 13 83 13 84 20 91 23 97
REMARK Flexibility Score: inf
ROOT
ATOM      1  C   UNL A   1      35.353  21.216  24.544  1.00  0.00     0.202 C 
ENDROOT
BRANCH   1   2
ATOM      2  C   UNL A   1      36.360  21.326  25.688  1.00  0.00     0.261 C 
BRANCH   2   3
ATOM      3  O   UNL A   1      37.687  21.118  25.185  1.00  0.00    -0.460 OA
BRANCH   3   4
ATOM      4  C   UNL A   1      38.813  21.166  25.942  1.00  0.00     0.338 C 
ATOM      5  O   UNL A   1      39.417  20.121  26.185  1.00  0.00    -0.246 OA
BRANCH   4   6
ATOM      6  C   UNL A   1      39.418  22.463  26.372  1.00  0.00     0.060 A 
ATOM      7  C   UNL A   1      38.977  23.724  25.965  1.00  0.00     0.016 A 
ATOM      8  C   UNL A   1      40.482  22.398  27.286  1.00  0.00     0.016 A 
ATOM      9  C   UNL A   1      39.595  24.879  26.379  1.00  0.00     0.010 A 
ATOM     10  C   UNL A   1      41.092  23.567  27.747  1.00  0.00     0.010 A 
ATOM     11  C   UNL A   1      40.649  24.807  27.276  1.00  0.00    -0.014 A 
BRANCH  11  12
ATOM     12  C   UNL A   1      41.330  26.077  27.542  1.00  0.00     0.031 A 
ATOM     13  C   UNL A   1      40.638  27.052  28.435  1.00  0.00     0.074 A 
ATOM     14  C   UNL A   1      42.624  26.196  27.194  1.00  0.00     0.049 A 
ATOM     15  N   UNL A   1      41.022  28.233  28.825  1.00  0.00    -0.248 NA
ATOM     16  C   UNL A   1      39.339  26.625  28.985  1.00  0.00     0.031 C 
ATOM     17  C   UNL A   1      43.405  25.161  26.503  1.00  0.00     0.029 A 
ATOM     18  N   UNL A   1      43.528  27.189  27.431  1.00  0.00    -0.354 N 
ATOM     19  C   UNL A   1      39.991  28.715  29.624  1.00  0.00     0.074 A 
ATOM     20  C   UNL A   1      38.973  27.691  29.676  1.00  0.00     0.031 C 
ATOM     21  C   UNL A   1      44.682  25.561  26.416  1.00  0.00     0.029 A 
ATOM     22  C   UNL A   1      44.785  26.914  26.945  1.00  0.00     0.049 A 
ATOM     23  H   UNL A   1      43.302  28.023  27.903  1.00  0.00     0.167 HD
ATOM     24  C   UNL A   1      39.914  29.922  30.230  1.00  0.00     0.034 A 
ATOM     25  C   UNL A   1      45.875  27.702  26.901  1.00  0.00     0.034 A 
ATOM     26  C   UNL A   1      40.973  30.895  30.125  1.00  0.00     0.049 A 
ATOM     27  C   UNL A   1      45.724  29.087  27.478  1.00  0.00     0.074 A 
ATOM     28  C   UNL A   1      41.006  32.203  30.565  1.00  0.00     0.029 A 
ATOM     29  N   UNL A   1      42.206  30.645  29.521  1.00  0.00    -0.354 N 
ATOM     30  N   UNL A   1      44.691  29.610  28.103  1.00  0.00    -0.248 NA
ATOM     31  C   UNL A   1      46.865  29.991  27.330  1.00  0.00     0.031 C 
ATOM     32  C   UNL A   1      42.230  32.759  30.175  1.00  0.00     0.029 A 
ATOM     33  C   UNL A   1      42.997  31.778  29.559  1.00  0.00     0.049 A 
ATOM     34  H   UNL A   1      42.473  29.786  29.123  1.00  0.00     0.167 HD
ATOM     35  C   UNL A   1      45.064  30.905  28.440  1.00  0.00     0.074 A 
ATOM     36  C   UNL A   1      46.430  31.066  27.970  1.00  0.00     0.031 C 
ATOM     37  C   UNL A   1      44.354  31.878  29.069  1.00  0.00     0.034 A 
BRANCH  24  38
ATOM     38  C   UNL A   1      38.603  30.263  30.894  1.00  0.00     0.023 A 
ATOM     39  C   UNL A   1      37.547  30.885  30.201  1.00  0.00     0.031 A 
ATOM     40  C   UNL A   1      38.466  30.094  32.284  1.00  0.00     0.131 A 
ATOM     41  C   UNL A   1      36.450  31.398  30.914  1.00  0.00     0.055 A 
ATOM     42  C   UNL A   1      37.332  30.528  32.973  1.00  0.00     0.041 A 
ATOM     43  F   UNL A   1      39.456  29.545  33.006  1.00  0.00    -0.206 F 
ATOM     44  C   UNL A   1      36.325  31.203  32.291  1.00  0.00     0.022 A 
BRANCH  41  45
ATOM     45  S   UNL A   1      35.280  32.486  30.049  1.00  0.00     0.124 S 
ATOM     46  O   UNL A   1      36.153  33.578  29.624  1.00  0.00    -0.237 OA
ATOM     47  O   UNL A   1      34.773  31.625  28.988  1.00  0.00    -0.237 OA
ATOM     48  O   UNL A   1      34.310  32.840  31.084  1.00  0.00    -0.744 OA
ENDBRANCH  41  45
ENDBRANCH  24  38
BRANCH  25  49
ATOM     49  C   UNL A   1      47.127  27.254  26.223  1.00  0.00     0.023 A 
ATOM     50  C   UNL A   1      48.104  26.506  26.899  1.00  0.00     0.031 A 
ATOM     51  C   UNL A   1      47.393  27.611  24.885  1.00  0.00     0.131 A 
ATOM     52  C   UNL A   1      49.310  26.177  26.254  1.00  0.00     0.055 A 
ATOM     53  C   UNL A   1      48.564  27.229  24.230  1.00  0.00     0.041 A 
ATOM     54  F   UNL A   1      46.506  28.337  24.185  1.00  0.00    -0.206 F 
ATOM     55  C   UNL A   1      49.538  26.519  24.921  1.00  0.00     0.022 A 
BRANCH  52  56
ATOM     56  S   UNL A   1      50.624  25.377  27.217  1.00  0.00     0.124 S 
ATOM     57  O   UNL A   1      51.557  24.974  26.170  1.00  0.00    -0.237 OA
ATOM     58  O   UNL A   1      51.064  26.460  28.088  1.00  0.00    -0.237 OA
ATOM     59  O   UNL A   1      49.931  24.280  27.890  1.00  0.00    -0.744 OA
ENDBRANCH  52  56
ENDBRANCH  25  49
BRANCH  37  60
ATOM     60  C   UNL A   1      45.084  33.171  29.317  1.00  0.00     0.023 A 
ATOM     61  C   UNL A   1      44.972  34.259  28.436  1.00  0.00     0.031 A 
ATOM     62  C   UNL A   1      45.919  33.299  30.440  1.00  0.00     0.131 A 
ATOM     63  C   UNL A   1      45.741  35.407  28.656  1.00  0.00     0.055 A 
ATOM     64  C   UNL A   1      46.628  34.471  30.690  1.00  0.00     0.041 A 
ATOM     65  F   UNL A   1      46.057  32.284  31.308  1.00  0.00    -0.206 F 
ATOM     66  C   UNL A   1      46.554  35.528  29.787  1.00  0.00     0.022 A 
BRANCH  63  67
ATOM     67  S   UNL A   1      45.751  36.696  27.382  1.00  0.00     0.124 S 
ATOM     68  O   UNL A   1      46.734  36.179  26.435  1.00  0.00    -0.237 OA
ATOM     69  O   UNL A   1      44.365  36.696  26.926  1.00  0.00    -0.237 OA
ATOM     70  O   UNL A   1      46.165  37.894  28.112  1.00  0.00    -0.744 OA
ENDBRANCH  63  67
ENDBRANCH  37  60
ENDBRANCH  11  12
ENDBRANCH   4   6
ENDBRANCH   3   4
ENDBRANCH   2   3
ENDBRANCH   1   2
BRANCH   1  71
ATOM     71  O   UNL A   1      34.393  22.271  24.492  1.00  0.00    -0.374 OA
BRANCH  71  72
ATOM     72  C   UNL A   1      33.441  22.174  23.439  1.00  0.00     0.202 C 
BRANCH  72  73
ATOM     73  C   UNL A   1      33.575  23.338  22.458  1.00  0.00     0.261 C 
BRANCH  73  74
ATOM     74  O   UNL A   1      34.087  24.496  23.146  1.00  0.00    -0.459 OA
BRANCH  74  75
ATOM     75  C   UNL A   1      33.416  25.680  22.958  1.00  0.00     0.368 C 
ATOM     76  O   UNL A   1      33.448  26.322  21.917  1.00  0.00    -0.245 OA
BRANCH  75  77
ATOM     77  C   UNL A   1      32.646  26.065  24.253  1.00  0.00     0.200 C 
ATOM     78  C   UNL A   1      33.116  27.355  24.944  1.00  0.00     0.087 C 
ATOM     79  C   UNL A   1      31.194  26.437  23.827  1.00  0.00     0.146 C 
ATOM     80  C   UNL A   1      31.884  27.886  25.652  1.00  0.00     0.072 C 
ATOM     81  C   UNL A   1      30.773  27.702  24.614  1.00  0.00     0.191 C 
BRANCH  77  82
ATOM     82  N   UNL A   1      32.584  24.959  25.239  1.00  0.00    -0.329 N 
ATOM     83  H   UNL A   1      33.027  25.302  26.090  1.00  0.00     0.347 HD
ATOM     84  H   UNL A   1      33.034  24.187  24.747  1.00  0.00     0.347 HD
BRANCH  82  85
ATOM     85  C   UNL A   1      31.290  24.388  25.637  1.00  0.00     0.183 C 
ATOM     86  C   UNL A   1      30.863  22.946  25.641  1.00  0.00     0.071 C 
ATOM     87  C   UNL A   1      31.291  23.581  26.921  1.00  0.00     0.071 C 
ENDBRANCH  82  85
ENDBRANCH  77  82
BRANCH  81  88
ATOM     88  N   UNL A   1      30.514  28.908  23.816  1.00  0.00    -0.323 N 
ATOM     89  C   UNL A   1      30.670  30.178  24.549  1.00  0.00     0.324 C 
ATOM     90  C   UNL A   1      29.379  28.933  22.889  1.00  0.00     0.328 C 
ATOM     91  H   UNL A   1      31.296  28.819  23.167  1.00  0.00     0.348 HD
ATOM     92  C   UNL A   1      29.698  31.315  24.128  1.00  0.00     0.324 C 
ATOM     93  C   UNL A   1      29.431  30.182  21.980  1.00  0.00     0.240 C 
ATOM     94  N   UNL A   1      29.576  31.478  22.675  1.00  0.00    -0.323 N 
ATOM     95  C   UNL A   1      28.199  30.314  21.085  1.00  0.00     0.077 C 
ATOM     96  C   UNL A   1      28.453  32.334  22.285  1.00  0.00     0.263 C 
ATOM     97  H   UNL A   1      30.448  31.928  22.394  1.00  0.00     0.348 HD
ATOM     98  C   UNL A   1      28.058  31.814  20.914  1.00  0.00     0.068 C 
ENDBRANCH  81  88
ENDBRANCH  75  77
ENDBRANCH  74  75
ENDBRANCH  73  74
ENDBRANCH  72  73
ENDBRANCH  71  72
ENDBRANCH   1  71
TORSDOF 20
ENDMDL
MODEL 2
REMARK VINA RESULT:     -11.2      2.606      8.822
REMARK SMILES O=C(OCCOCCOC(=O)[C@@]1([NH2+]C2CC2)CC[C@@H]([N@@H+]2CC[N@@H+]3CCC[C@@H]3C2)C1)c1ccc(-c2c3nc(c(-c4cc(S(=O)(=O)[O-])ccc4F)c4ccc([nH]4)c(-c4cc(S(=O)(=O)[O-])ccc4F)c4nc(c(-c5cc(S(=O)(=O)[O-])ccc5F)c5ccc2[nH]5)C=C4)C=C3)cc1
REMARK SMILES IDX 5 1 4 2 3 3 2 4 1 5 30 6 31 7 92 8 32 9 91 10 33 11 34 12
REMARK SMILES IDX 35 13 85 14 36 15 90 16 84 17 86 18 37 19 89 20 83 21 82 22
REMARK SMILES IDX 38 24 70 25 50 26 69 27 51 28 54 29 68 30 87 31 52 32 53 33
REMARK SMILES IDX 67 35 88 36 55 37 39 38 40 39 48 40 41 41 47 42 49 43 46 44
REMARK SMILES IDX 42 45 43 46 44 47 45 48 71 49 72 50 80 51 73 52 79 53 81 54
REMARK SMILES IDX 78 55 74 56 75 57 76 58 77 59 56 60 57 61 65 62 58 63 64 64
REMARK SMILES IDX 66 65 63 66 59 67 60 68 61 69 62 70 6 71 7 72 8 73 9 74
REMARK SMILES IDX 10 75 11 76 12 77 17 78 29 79 18 80 19 81 13 82 14 85 15 86
REMARK SMILES IDX 16 87 20 88 21 89 28 90 22 92 27 93 23 94 26 95 24 96 25 98
REMARK H PARENT 86 23 54 34 13 83 13 84 20 91 23 97
REMARK Flexibility Score: inf
ROOT
ATOM      1  C   UNL A   1      37.577  21.189  24.719  1.00  0.00     0.202 C 
ENDROOT
BRANCH   1   2
ATOM      2  C   UNL A   1      38.544  20.040  25.001  1.00  0.00     0.261 C 
BRANCH   2   3
ATOM      3  O   UNL A   1      39.134  20.213  26.297  1.00  0.00    -0.460 OA
BRANCH   3   4
ATOM      4  C   UNL A   1      40.421  20.591  26.511  1.00  0.00     0.338 C 
ATOM      5  O   UNL A   1      41.328  19.800  26.254  1.00  0.00    -0.246 OA
BRANCH   4   6
ATOM      6  C   UNL A   1      40.775  21.985  26.916  1.00  0.00     0.060 A 
ATOM      7  C   UNL A   1      40.286  23.143  26.308  1.00  0.00     0.016 A 
ATOM      8  C   UNL A   1      41.631  22.130  28.020  1.00  0.00     0.016 A 
ATOM      9  C   UNL A   1      40.672  24.397  26.714  1.00  0.00     0.010 A 
ATOM     10  C   UNL A   1      41.998  23.401  28.470  1.00  0.00     0.010 A 
ATOM     11  C   UNL A   1      41.522  24.532  27.800  1.00  0.00    -0.014 A 
BRANCH  11  12
ATOM     12  C   UNL A   1      41.986  25.897  28.063  1.00  0.00     0.031 A 
ATOM     13  C   UNL A   1      43.249  26.332  27.397  1.00  0.00     0.074 A 
ATOM     14  C   UNL A   1      41.142  26.756  28.663  1.00  0.00     0.049 A 
ATOM     15  N   UNL A   1      43.866  27.477  27.463  1.00  0.00    -0.248 NA
ATOM     16  C   UNL A   1      43.894  25.345  26.515  1.00  0.00     0.031 C 
ATOM     17  C   UNL A   1      39.795  26.415  29.138  1.00  0.00     0.029 A 
ATOM     18  N   UNL A   1      41.251  28.094  28.910  1.00  0.00    -0.354 N 
ATOM     19  C   UNL A   1      45.001  27.332  26.672  1.00  0.00     0.074 A 
ATOM     20  C   UNL A   1      44.977  25.996  26.125  1.00  0.00     0.031 C 
ATOM     21  C   UNL A   1      39.190  27.529  29.576  1.00  0.00     0.029 A 
ATOM     22  C   UNL A   1      40.138  28.632  29.512  1.00  0.00     0.049 A 
ATOM     23  H   UNL A   1      42.050  28.622  28.681  1.00  0.00     0.167 HD
ATOM     24  C   UNL A   1      45.977  28.245  26.459  1.00  0.00     0.034 A 
ATOM     25  C   UNL A   1      39.944  29.874  29.994  1.00  0.00     0.034 A 
ATOM     26  C   UNL A   1      45.931  29.560  27.049  1.00  0.00     0.049 A 
ATOM     27  C   UNL A   1      41.096  30.836  29.848  1.00  0.00     0.074 A 
ATOM     28  C   UNL A   1      46.887  30.555  27.041  1.00  0.00     0.029 A 
ATOM     29  N   UNL A   1      44.842  30.057  27.764  1.00  0.00    -0.354 N 
ATOM     30  N   UNL A   1      42.245  30.658  29.232  1.00  0.00    -0.248 NA
ATOM     31  C   UNL A   1      40.939  32.151  30.471  1.00  0.00     0.031 C 
ATOM     32  C   UNL A   1      46.401  31.627  27.801  1.00  0.00     0.029 A 
ATOM     33  C   UNL A   1      45.109  31.335  28.219  1.00  0.00     0.049 A 
ATOM     34  H   UNL A   1      44.003  29.567  27.924  1.00  0.00     0.167 HD
ATOM     35  C   UNL A   1      42.947  31.847  29.380  1.00  0.00     0.074 A 
ATOM     36  C   UNL A   1      42.072  32.741  30.120  1.00  0.00     0.031 C 
ATOM     37  C   UNL A   1      44.195  32.178  28.958  1.00  0.00     0.034 A 
BRANCH  24  38
ATOM     38  C   UNL A   1      47.192  27.771  25.701  1.00  0.00     0.023 A 
ATOM     39  C   UNL A   1      47.413  28.099  24.350  1.00  0.00     0.031 A 
ATOM     40  C   UNL A   1      48.070  26.851  26.304  1.00  0.00     0.131 A 
ATOM     41  C   UNL A   1      48.422  27.440  23.627  1.00  0.00     0.055 A 
ATOM     42  C   UNL A   1      49.126  26.267  25.602  1.00  0.00     0.041 A 
ATOM     43  F   UNL A   1      47.887  26.468  27.578  1.00  0.00    -0.206 F 
ATOM     44  C   UNL A   1      49.294  26.545  24.250  1.00  0.00     0.022 A 
BRANCH  41  45
ATOM     45  S   UNL A   1      48.463  27.627  21.820  1.00  0.00     0.124 S 
ATOM     46  O   UNL A   1      49.599  28.528  21.643  1.00  0.00    -0.237 OA
ATOM     47  O   UNL A   1      48.659  26.256  21.364  1.00  0.00    -0.237 OA
ATOM     48  O   UNL A   1      47.160  28.209  21.505  1.00  0.00    -0.744 OA
ENDBRANCH  41  45
ENDBRANCH  24  38
BRANCH  25  49
ATOM     49  C   UNL A   1      38.692  30.235  30.722  1.00  0.00     0.023 A 
ATOM     50  C   UNL A   1      37.656  30.948  30.098  1.00  0.00     0.031 A 
ATOM     51  C   UNL A   1      38.528  29.910  32.084  1.00  0.00     0.131 A 
ATOM     52  C   UNL A   1      36.530  31.346  30.840  1.00  0.00     0.055 A 
ATOM     53  C   UNL A   1      37.381  30.254  32.800  1.00  0.00     0.041 A 
ATOM     54  F   UNL A   1      39.487  29.241  32.745  1.00  0.00    -0.206 F 
ATOM     55  C   UNL A   1      36.379  30.990  32.180  1.00  0.00     0.022 A 
BRANCH  52  56
ATOM     56  S   UNL A   1      35.303  32.427  30.051  1.00  0.00     0.124 S 
ATOM     57  O   UNL A   1      36.124  33.562  29.644  1.00  0.00    -0.237 OA
ATOM     58  O   UNL A   1      34.799  31.579  28.976  1.00  0.00    -0.237 OA
ATOM     59  O   UNL A   1      34.351  32.700  31.126  1.00  0.00    -0.744 OA
ENDBRANCH  52  56
ENDBRANCH  25  49
BRANCH  37  60
ATOM     60  C   UNL A   1      44.639  33.585  29.253  1.00  0.00     0.023 A 
ATOM     61  C   UNL A   1      45.309  33.910  30.444  1.00  0.00     0.031 A 
ATOM     62  C   UNL A   1      44.365  34.614  28.336  1.00  0.00     0.131 A 
ATOM     63  C   UNL A   1      45.620  35.246  30.719  1.00  0.00     0.055 A 
ATOM     64  C   UNL A   1      44.740  35.931  28.585  1.00  0.00     0.041 A 
ATOM     65  F   UNL A   1      43.725  34.350  27.185  1.00  0.00    -0.206 F 
ATOM     66  C   UNL A   1      45.357  36.257  29.790  1.00  0.00     0.022 A 
BRANCH  63  67
ATOM     67  S   UNL A   1      46.271  35.660  32.359  1.00  0.00     0.124 S 
ATOM     68  O   UNL A   1      47.688  35.340  32.213  1.00  0.00    -0.237 OA
ATOM     69  O   UNL A   1      45.947  37.078  32.475  1.00  0.00    -0.237 OA
ATOM     70  O   UNL A   1      45.526  34.777  33.255  1.00  0.00    -0.744 OA
ENDBRANCH  63  67
ENDBRANCH  37  60
ENDBRANCH  11  12
ENDBRANCH   4   6
ENDBRANCH   3   4
ENDBRANCH   2   3
ENDBRANCH   1   2
BRANCH   1  71
ATOM     71  O   UNL A   1      36.735  21.543  25.816  1.00  0.00    -0.374 OA
BRANCH  71  72
ATOM     72  C   UNL A   1      36.518  22.940  25.989  1.00  0.00     0.202 C 
BRANCH  72  73
ATOM     73  C   UNL A   1      36.733  23.701  24.682  1.00  0.00     0.261 C 
BRANCH  73  74
ATOM     74  O   UNL A   1      35.483  23.815  23.975  1.00  0.00    -0.459 OA
BRANCH  74  75
ATOM     75  C   UNL A   1      34.538  24.655  24.512  1.00  0.00     0.368 C 
ATOM     76  O   UNL A   1      34.789  25.526  25.332  1.00  0.00    -0.245 OA
BRANCH  75  77
ATOM     77  C   UNL A   1      33.136  24.315  23.931  1.00  0.00     0.200 C 
ATOM     78  C   UNL A   1      33.135  23.422  22.681  1.00  0.00     0.087 C 
ATOM     79  C   UNL A   1      32.416  23.410  24.975  1.00  0.00     0.146 C 
ATOM     80  C   UNL A   1      31.816  22.675  22.738  1.00  0.00     0.072 C 
ATOM     81  C   UNL A   1      31.704  22.268  24.211  1.00  0.00     0.191 C 
BRANCH  77  82
ATOM     82  N   UNL A   1      32.303  25.518  23.690  1.00  0.00    -0.329 N 
ATOM     83  H   UNL A   1      31.713  25.309  22.886  1.00  0.00     0.347 HD
ATOM     84  H   UNL A   1      32.996  26.261  23.592  1.00  0.00     0.347 HD
BRANCH  82  85
ATOM     85  C   UNL A   1      31.415  26.032  24.743  1.00  0.00     0.183 C 
ATOM     86  C   UNL A   1      30.663  27.334  24.781  1.00  0.00     0.071 C 
ATOM     87  C   UNL A   1      29.941  26.088  24.392  1.00  0.00     0.071 C 
ENDBRANCH  82  85
ENDBRANCH  77  82
BRANCH  81  88
ATOM     88  N   UNL A   1      32.187  20.906  24.479  1.00  0.00    -0.323 N 
ATOM     89  C   UNL A   1      33.308  20.827  25.432  1.00  0.00     0.324 C 
ATOM     90  C   UNL A   1      32.325  19.956  23.371  1.00  0.00     0.328 C 
ATOM     91  H   UNL A   1      31.352  20.549  24.942  1.00  0.00     0.348 HD
ATOM     92  C   UNL A   1      34.342  19.699  25.154  1.00  0.00     0.324 C 
ATOM     93  C   UNL A   1      32.604  18.529  23.895  1.00  0.00     0.240 C 
ATOM     94  N   UNL A   1      33.729  18.402  24.846  1.00  0.00    -0.323 N 
ATOM     95  C   UNL A   1      32.881  17.529  22.772  1.00  0.00     0.077 C 
ATOM     96  C   UNL A   1      34.681  17.432  24.300  1.00  0.00     0.263 C 
ATOM     97  H   UNL A   1      33.387  18.060  25.745  1.00  0.00     0.348 HD
ATOM     98  C   UNL A   1      33.825  16.536  23.421  1.00  0.00     0.068 C 
ENDBRANCH  81  88
ENDBRANCH  75  77
ENDBRANCH  74  75
ENDBRANCH  73  74
ENDBRANCH  72  73
ENDBRANCH  71  72
ENDBRANCH   1  71
TORSDOF 20
ENDMDL
MODEL 3
REMARK VINA RESULT:     -11.1      4.886      8.763
REMARK SMILES O=C(OCCOCCOC(=O)[C@@]1([NH2+]C2CC2)CC[C@@H]([N@@H+]2CC[N@@H+]3CCC[C@@H]3C2)C1)c1ccc(-c2c3nc(c(-c4cc(S(=O)(=O)[O-])ccc4F)c4ccc([nH]4)c(-c4cc(S(=O)(=O)[O-])ccc4F)c4nc(c(-c5cc(S(=O)(=O)[O-])ccc5F)c5ccc2[nH]5)C=C4)C=C3)cc1
REMARK SMILES IDX 5 1 4 2 3 3 2 4 1 5 30 6 31 7 92 8 32 9 91 10 33 11 34 12
REMARK SMILES IDX 35 13 85 14 36 15 90 16 84 17 86 18 37 19 89 20 83 21 82 22
REMARK SMILES IDX 38 24 70 25 50 26 69 27 51 28 54 29 68 30 87 31 52 32 53 33
REMARK SMILES IDX 67 35 88 36 55 37 39 38 40 39 48 40 41 41 47 42 49 43 46 44
REMARK SMILES IDX 42 45 43 46 44 47 45 48 71 49 72 50 80 51 73 52 79 53 81 54
REMARK SMILES IDX 78 55 74 56 75 57 76 58 77 59 56 60 57 61 65 62 58 63 64 64
REMARK SMILES IDX 66 65 63 66 59 67 60 68 61 69 62 70 6 71 7 72 8 73 9 74
REMARK SMILES IDX 10 75 11 76 12 77 17 78 29 79 18 80 19 81 13 82 14 85 15 86
REMARK SMILES IDX 16 87 20 88 21 89 28 90 22 92 27 93 23 94 26 95 24 96 25 98
REMARK H PARENT 86 23 54 34 13 83 13 84 20 91 23 97
REMARK Flexibility Score: inf
ROOT
ATOM      1  C   UNL A   1      31.911  31.796  27.112  1.00  0.00     0.202 C 
ENDROOT
BRANCH   1   2
ATOM      2  C   UNL A   1      32.527  33.156  26.786  1.00  0.00     0.261 C 
BRANCH   2   3
ATOM      3  O   UNL A   1      32.212  34.090  27.827  1.00  0.00    -0.460 OA
BRANCH   3   4
ATOM      4  C   UNL A   1      33.123  34.637  28.672  1.00  0.00     0.338 C 
ATOM      5  O   UNL A   1      32.904  35.750  29.150  1.00  0.00    -0.246 OA
BRANCH   4   6
ATOM      6  C   UNL A   1      34.315  33.872  29.147  1.00  0.00     0.060 A 
ATOM      7  C   UNL A   1      34.264  32.729  29.948  1.00  0.00     0.016 A 
ATOM      8  C   UNL A   1      35.574  34.319  28.715  1.00  0.00     0.016 A 
ATOM      9  C   UNL A   1      35.401  32.085  30.372  1.00  0.00     0.010 A 
ATOM     10  C   UNL A   1      36.736  33.649  29.104  1.00  0.00     0.010 A 
ATOM     11  C   UNL A   1      36.640  32.537  29.946  1.00  0.00    -0.014 A 
BRANCH  11  12
ATOM     12  C   UNL A   1      37.792  31.875  30.566  1.00  0.00     0.031 A 
ATOM     13  C   UNL A   1      38.016  32.110  32.023  1.00  0.00     0.074 A 
ATOM     14  C   UNL A   1      38.422  30.907  29.877  1.00  0.00     0.049 A 
ATOM     15  N   UNL A   1      38.950  31.646  32.801  1.00  0.00    -0.248 NA
ATOM     16  C   UNL A   1      37.033  32.971  32.703  1.00  0.00     0.031 C 
ATOM     17  C   UNL A   1      38.082  30.495  28.508  1.00  0.00     0.029 A 
ATOM     18  N   UNL A   1      39.417  30.048  30.242  1.00  0.00    -0.354 N 
ATOM     19  C   UNL A   1      38.701  32.199  34.052  1.00  0.00     0.074 A 
ATOM     20  C   UNL A   1      37.518  33.019  33.932  1.00  0.00     0.031 C 
ATOM     21  C   UNL A   1      38.829  29.432  28.172  1.00  0.00     0.029 A 
ATOM     22  C   UNL A   1      39.765  29.159  29.253  1.00  0.00     0.049 A 
ATOM     23  H   UNL A   1      39.845  30.065  31.129  1.00  0.00     0.167 HD
ATOM     24  C   UNL A   1      39.428  32.040  35.182  1.00  0.00     0.034 A 
ATOM     25  C   UNL A   1      40.766  28.260  29.227  1.00  0.00     0.034 A 
ATOM     26  C   UNL A   1      40.604  31.206  35.219  1.00  0.00     0.049 A 
ATOM     27  C   UNL A   1      41.635  28.188  30.457  1.00  0.00     0.074 A 
ATOM     28  C   UNL A   1      41.522  31.034  36.236  1.00  0.00     0.029 A 
ATOM     29  N   UNL A   1      41.020  30.395  34.163  1.00  0.00    -0.354 N 
ATOM     30  N   UNL A   1      41.498  28.827  31.600  1.00  0.00    -0.248 NA
ATOM     31  C   UNL A   1      42.795  27.299  30.395  1.00  0.00     0.031 C 
ATOM     32  C   UNL A   1      42.521  30.169  35.773  1.00  0.00     0.029 A 
ATOM     33  C   UNL A   1      42.189  29.737  34.495  1.00  0.00     0.049 A 
ATOM     34  H   UNL A   1      40.549  30.305  33.303  1.00  0.00     0.167 HD
ATOM     35  C   UNL A   1      42.550  28.405  32.402  1.00  0.00     0.074 A 
ATOM     36  C   UNL A   1      43.292  27.433  31.616  1.00  0.00     0.031 C 
ATOM     37  C   UNL A   1      42.886  28.780  33.664  1.00  0.00     0.034 A 
BRANCH  24  38
ATOM     38  C   UNL A   1      39.040  32.897  36.362  1.00  0.00     0.023 A 
ATOM     39  C   UNL A   1      39.514  34.212  36.527  1.00  0.00     0.031 A 
ATOM     40  C   UNL A   1      38.298  32.330  37.414  1.00  0.00     0.131 A 
ATOM     41  C   UNL A   1      39.323  34.875  37.750  1.00  0.00     0.055 A 
ATOM     42  C   UNL A   1      38.036  33.030  38.594  1.00  0.00     0.041 A 
ATOM     43  F   UNL A   1      37.853  31.066  37.333  1.00  0.00    -0.206 F 
ATOM     44  C   UNL A   1      38.567  34.302  38.775  1.00  0.00     0.022 A 
BRANCH  41  45
ATOM     45  S   UNL A   1      40.231  36.419  38.056  1.00  0.00     0.124 S 
ATOM     46  O   UNL A   1      40.639  36.793  36.704  1.00  0.00    -0.237 OA
ATOM     47  O   UNL A   1      39.218  37.265  38.674  1.00  0.00    -0.237 OA
ATOM     48  O   UNL A   1      41.322  36.007  38.937  1.00  0.00    -0.744 OA
ENDBRANCH  41  45
ENDBRANCH  24  38
BRANCH  25  49
ATOM     49  C   UNL A   1      41.053  27.456  28.002  1.00  0.00     0.023 A 
ATOM     50  C   UNL A   1      40.803  26.076  27.951  1.00  0.00     0.031 A 
ATOM     51  C   UNL A   1      41.633  28.054  26.864  1.00  0.00     0.131 A 
ATOM     52  C   UNL A   1      41.167  25.337  26.811  1.00  0.00     0.055 A 
ATOM     53  C   UNL A   1      41.936  27.327  25.712  1.00  0.00     0.041 A 
ATOM     54  F   UNL A   1      41.910  29.368  26.852  1.00  0.00    -0.206 F 
ATOM     55  C   UNL A   1      41.716  25.956  25.687  1.00  0.00     0.022 A 
BRANCH  52  56
ATOM     56  S   UNL A   1      41.005  23.530  26.854  1.00  0.00     0.124 S 
ATOM     57  O   UNL A   1      41.970  23.119  25.840  1.00  0.00    -0.237 OA
ATOM     58  O   UNL A   1      41.356  23.227  28.237  1.00  0.00    -0.237 OA
ATOM     59  O   UNL A   1      39.602  23.307  26.506  1.00  0.00    -0.744 OA
ENDBRANCH  52  56
ENDBRANCH  25  49
BRANCH  37  60
ATOM     60  C   UNL A   1      44.078  28.084  34.263  1.00  0.00     0.023 A 
ATOM     61  C   UNL A   1      43.940  26.909  35.019  1.00  0.00     0.031 A 
ATOM     62  C   UNL A   1      45.364  28.624  34.090  1.00  0.00     0.131 A 
ATOM     63  C   UNL A   1      45.065  26.348  35.636  1.00  0.00     0.055 A 
ATOM     64  C   UNL A   1      46.488  28.020  34.649  1.00  0.00     0.041 A 
ATOM     65  F   UNL A   1      45.543  29.747  33.376  1.00  0.00    -0.206 F 
ATOM     66  C   UNL A   1      46.340  26.885  35.441  1.00  0.00     0.022 A 
BRANCH  63  67
ATOM     67  S   UNL A   1      44.820  24.972  36.790  1.00  0.00     0.124 S 
ATOM     68  O   UNL A   1      44.904  23.815  35.904  1.00  0.00    -0.237 OA
ATOM     69  O   UNL A   1      45.930  25.144  37.721  1.00  0.00    -0.237 OA
ATOM     70  O   UNL A   1      43.494  25.229  37.350  1.00  0.00    -0.744 OA
ENDBRANCH  63  67
ENDBRANCH  37  60
ENDBRANCH  11  12
ENDBRANCH   4   6
ENDBRANCH   3   4
ENDBRANCH   2   3
ENDBRANCH   1   2
BRANCH   1  71
ATOM     71  O   UNL A   1      32.851  30.792  27.494  1.00  0.00    -0.374 OA
BRANCH  71  72
ATOM     72  C   UNL A   1      32.963  29.692  26.596  1.00  0.00     0.202 C 
BRANCH  72  73
ATOM     73  C   UNL A   1      32.322  28.433  27.178  1.00  0.00     0.261 C 
BRANCH  73  74
ATOM     74  O   UNL A   1      31.344  27.916  26.255  1.00  0.00    -0.459 OA
BRANCH  74  75
ATOM     75  C   UNL A   1      31.532  26.632  25.802  1.00  0.00     0.368 C 
ATOM     76  O   UNL A   1      31.446  25.641  26.513  1.00  0.00    -0.245 OA
BRANCH  75  77
ATOM     77  C   UNL A   1      31.875  26.650  24.286  1.00  0.00     0.200 C 
ATOM     78  C   UNL A   1      33.369  26.777  23.946  1.00  0.00     0.087 C 
ATOM     79  C   UNL A   1      31.535  25.237  23.724  1.00  0.00     0.146 C 
ATOM     80  C   UNL A   1      33.523  26.079  22.607  1.00  0.00     0.072 C 
ATOM     81  C   UNL A   1      32.679  24.811  22.771  1.00  0.00     0.191 C 
BRANCH  77  82
ATOM     82  N   UNL A   1      31.100  27.662  23.529  1.00  0.00    -0.329 N 
ATOM     83  H   UNL A   1      31.674  27.936  22.733  1.00  0.00     0.347 HD
ATOM     84  H   UNL A   1      30.897  28.370  24.235  1.00  0.00     0.347 HD
BRANCH  82  85
ATOM     85  C   UNL A   1      29.769  27.335  22.997  1.00  0.00     0.183 C 
ATOM     86  C   UNL A   1      28.466  27.213  23.739  1.00  0.00     0.071 C 
ATOM     87  C   UNL A   1      28.763  28.470  22.992  1.00  0.00     0.071 C 
ENDBRANCH  82  85
ENDBRANCH  77  82
BRANCH  81  88
ATOM     88  N   UNL A   1      33.462  23.636  23.178  1.00  0.00    -0.323 N 
ATOM     89  C   UNL A   1      32.770  22.729  24.111  1.00  0.00     0.324 C 
ATOM     90  C   UNL A   1      34.884  23.789  23.497  1.00  0.00     0.328 C 
ATOM     91  H   UNL A   1      33.511  23.178  22.269  1.00  0.00     0.348 HD
ATOM     92  C   UNL A   1      33.680  22.031  25.161  1.00  0.00     0.324 C 
ATOM     93  C   UNL A   1      35.568  22.413  23.658  1.00  0.00     0.240 C 
ATOM     94  N   UNL A   1      34.913  21.474  24.593  1.00  0.00    -0.323 N 
ATOM     95  C   UNL A   1      37.023  22.525  24.115  1.00  0.00     0.077 C 
ATOM     96  C   UNL A   1      35.891  21.089  25.613  1.00  0.00     0.263 C 
ATOM     97  H   UNL A   1      34.610  20.638  24.093  1.00  0.00     0.348 HD
ATOM     98  C   UNL A   1      37.230  21.253  24.914  1.00  0.00     0.068 C 
ENDBRANCH  81  88
ENDBRANCH  75  77
ENDBRANCH  74  75
ENDBRANCH  73  74
ENDBRANCH  72  73
ENDBRANCH  71  72
ENDBRANCH   1  71
TORSDOF 20
ENDMDL
