MODEL 1
REMARK VINA RESULT:     -10.6      0.000      0.000
REMARK SMILES COc1cccc(-c2ccc(=O)n(CC(=O)N[C@@H](C(=O)OCCOCCOC(=O)c3ccc(-c4c5nc(c(-c6cc(S(=O)(=O)[O-])ccc6F)c6ccc([nH]6)c(-c6cc(S(=O)(=O)[O-])ccc6F)c6nc(c(-c7cc(S(=O)(=O)[O-])ccc7F)c7ccc4[nH]7)C=C6)C=C5)cc3)C(C)C)n2)c1
REMARK SMILES IDX 23 1 22 2 21 3 19 4 20 5 18 6 17 7 15 8 16 9 14 11 13 12
REMARK SMILES IDX 8 13 9 14 96 15 10 16 11 17 12 18 7 19 3 20 4 21 97 22 5 23
REMARK SMILES IDX 6 24 2 25 1 26 93 27 94 28 95 29 24 30 25 31 26 32 27 33
REMARK SMILES IDX 28 34 29 35 30 36 31 37 92 38 32 39 91 40 33 41 34 42 35 43
REMARK SMILES IDX 85 44 36 45 90 46 84 47 86 48 37 49 89 50 83 51 82 52 38 54
REMARK SMILES IDX 70 55 50 56 69 57 51 58 54 59 68 60 87 61 52 62 53 63 67 65
REMARK SMILES IDX 88 66 55 67 39 68 40 69 48 70 41 71 47 72 49 73 46 74 42 75
REMARK SMILES IDX 43 76 44 77 45 78 71 79 72 80 80 81 73 82 79 83 81 84 78 85
REMARK SMILES IDX 74 86 75 87 76 88 77 89 56 90 57 91 65 92 58 93 64 94 66 95
REMARK SMILES IDX 63 96 59 97 60 98 61 99 62 100
REMARK H PARENT 17 10 86 53 54 64
REMARK Flexibility Score: inf
ROOT
ATOM      1  C   UNL A   1      43.205  20.598  25.698  1.00  0.00     0.202 C 
ENDROOT
BRANCH   1   2
ATOM      2  C   UNL A   1      42.366  21.878  25.752  1.00  0.00     0.261 C 
BRANCH   2   3
ATOM      3  O   UNL A   1      40.960  21.636  25.910  1.00  0.00    -0.462 OA
BRANCH   3   4
ATOM      4  C   UNL A   1      40.381  22.227  26.997  1.00  0.00     0.328 C 
ATOM      5  O   UNL A   1      40.911  22.284  28.101  1.00  0.00    -0.250 OA
BRANCH   4   6
ATOM      6  C   UNL A   1      39.001  22.856  26.688  1.00  0.00     0.194 C 
BRANCH   6   7
ATOM      7  N   UNL A   1      38.473  22.512  25.355  1.00  0.00    -0.341 N 
ATOM      8  C   UNL A   1      37.181  22.420  24.928  1.00  0.00     0.242 C 
ATOM      9  O   UNL A   1      36.992  22.470  23.709  1.00  0.00    -0.273 OA
ATOM     10  H   UNL A   1      39.155  22.319  24.672  1.00  0.00     0.164 HD
BRANCH   8  11
ATOM     11  C   UNL A   1      36.017  22.431  25.918  1.00  0.00     0.248 C 
BRANCH  11  12
ATOM     12  N   UNL A   1      34.744  22.304  25.222  1.00  0.00    -0.220 N 
ATOM     13  C   UNL A   1      32.834  23.325  24.496  1.00  0.00     0.091 A 
ATOM     14  C   UNL A   1      32.261  22.054  24.012  1.00  0.00     0.036 A 
ATOM     15  N   UNL A   1      34.003  23.451  25.043  1.00  0.00    -0.169 NA
ATOM     16  C   UNL A   1      33.029  20.969  24.132  1.00  0.00     0.075 A 
ATOM     17  C   UNL A   1      34.365  21.051  24.756  1.00  0.00     0.267 A 
ATOM     18  O   UNL A   1      35.046  20.035  24.854  1.00  0.00    -0.268 OA
BRANCH  13  19
ATOM     19  C   UNL A   1      31.988  24.527  24.343  1.00  0.00     0.006 A 
ATOM     20  C   UNL A   1      31.604  26.860  24.817  1.00  0.00     0.119 A 
ATOM     21  C   UNL A   1      30.328  26.753  24.256  1.00  0.00     0.046 A 
ATOM     22  C   UNL A   1      32.426  25.736  24.892  1.00  0.00     0.056 A 
ATOM     23  C   UNL A   1      29.892  25.542  23.716  1.00  0.00     0.005 A 
ATOM     24  C   UNL A   1      30.729  24.430  23.743  1.00  0.00     0.011 A 
BRANCH  20  25
ATOM     25  O   UNL A   1      31.933  28.094  25.306  1.00  0.00    -0.497 OA
ATOM     26  C   UNL A   1      31.672  29.172  24.409  1.00  0.00     0.278 C 
ENDBRANCH  20  25
ENDBRANCH  13  19
ENDBRANCH  11  12
ENDBRANCH   8  11
ENDBRANCH   6   7
BRANCH   6  27
ATOM     27  C   UNL A   1      39.019  24.410  26.818  1.00  0.00     0.017 C 
ATOM     28  C   UNL A   1      39.219  24.822  28.286  1.00  0.00     0.010 C 
ATOM     29  C   UNL A   1      40.102  25.090  25.975  1.00  0.00     0.010 C 
ENDBRANCH   6  27
ENDBRANCH   4   6
ENDBRANCH   3   4
ENDBRANCH   2   3
ENDBRANCH   1   2
BRANCH   1  30
ATOM     30  O   UNL A   1      44.592  20.731  25.404  1.00  0.00    -0.374 OA
BRANCH  30  31
ATOM     31  C   UNL A   1      44.967  21.565  24.309  1.00  0.00     0.202 C 
BRANCH  31  32
ATOM     32  C   UNL A   1      45.743  22.856  24.597  1.00  0.00     0.261 C 
BRANCH  32  33
ATOM     33  O   UNL A   1      44.978  24.049  24.345  1.00  0.00    -0.460 OA
BRANCH  33  34
ATOM     34  C   UNL A   1      45.442  25.149  24.987  1.00  0.00     0.338 C 
ATOM     35  O   UNL A   1      46.501  25.729  24.764  1.00  0.00    -0.246 OA
BRANCH  34  36
ATOM     36  C   UNL A   1      44.425  25.719  25.887  1.00  0.00     0.060 A 
ATOM     37  C   UNL A   1      44.321  27.115  25.922  1.00  0.00     0.016 A 
ATOM     38  C   UNL A   1      43.687  24.932  26.775  1.00  0.00     0.016 A 
ATOM     39  C   UNL A   1      43.536  27.733  26.889  1.00  0.00     0.010 A 
ATOM     40  C   UNL A   1      42.902  25.558  27.753  1.00  0.00     0.010 A 
ATOM     41  C   UNL A   1      42.859  26.960  27.844  1.00  0.00    -0.014 A 
BRANCH  41  42
ATOM     42  C   UNL A   1      42.242  27.656  29.002  1.00  0.00     0.031 A 
ATOM     43  C   UNL A   1      42.986  27.711  30.311  1.00  0.00     0.074 A 
ATOM     44  C   UNL A   1      41.077  28.312  28.860  1.00  0.00     0.049 A 
ATOM     45  N   UNL A   1      42.692  28.361  31.408  1.00  0.00    -0.248 NA
ATOM     46  C   UNL A   1      44.229  26.930  30.389  1.00  0.00     0.031 C 
ATOM     47  C   UNL A   1      40.277  28.348  27.637  1.00  0.00     0.029 A 
ATOM     48  N   UNL A   1      40.371  29.084  29.748  1.00  0.00    -0.354 N 
ATOM     49  C   UNL A   1      43.714  28.075  32.306  1.00  0.00     0.074 A 
ATOM     50  C   UNL A   1      44.612  27.156  31.636  1.00  0.00     0.031 C 
ATOM     51  C   UNL A   1      39.189  29.107  27.851  1.00  0.00     0.029 A 
ATOM     52  C   UNL A   1      39.205  29.596  29.228  1.00  0.00     0.049 A 
ATOM     53  H   UNL A   1      40.671  29.257  30.669  1.00  0.00     0.167 HD
ATOM     54  C   UNL A   1      43.895  28.543  33.567  1.00  0.00     0.034 A 
ATOM     55  C   UNL A   1      38.259  30.368  29.800  1.00  0.00     0.034 A 
ATOM     56  C   UNL A   1      42.981  29.445  34.229  1.00  0.00     0.049 A 
ATOM     57  C   UNL A   1      38.456  30.843  31.217  1.00  0.00     0.074 A 
ATOM     58  C   UNL A   1      43.076  29.997  35.496  1.00  0.00     0.029 A 
ATOM     59  N   UNL A   1      41.791  29.912  33.684  1.00  0.00    -0.354 N 
ATOM     60  N   UNL A   1      39.449  30.599  32.041  1.00  0.00    -0.248 NA
ATOM     61  C   UNL A   1      37.417  31.720  31.771  1.00  0.00     0.031 C 
ATOM     62  C   UNL A   1      41.915  30.739  35.741  1.00  0.00     0.029 A 
ATOM     63  C   UNL A   1      41.129  30.719  34.599  1.00  0.00     0.049 A 
ATOM     64  H   UNL A   1      41.464  29.702  32.780  1.00  0.00     0.167 HD
ATOM     65  C   UNL A   1      39.166  31.316  33.201  1.00  0.00     0.074 A 
ATOM     66  C   UNL A   1      37.919  32.014  32.961  1.00  0.00     0.031 C 
ATOM     67  C   UNL A   1      39.875  31.396  34.357  1.00  0.00     0.034 A 
BRANCH  54  68
ATOM     68  C   UNL A   1      45.102  28.041  34.325  1.00  0.00     0.023 A 
ATOM     69  C   UNL A   1      46.345  28.700  34.267  1.00  0.00     0.031 A 
ATOM     70  C   UNL A   1      45.019  26.865  35.092  1.00  0.00     0.131 A 
ATOM     71  C   UNL A   1      47.466  28.141  34.900  1.00  0.00     0.055 A 
ATOM     72  C   UNL A   1      46.120  26.356  35.783  1.00  0.00     0.041 A 
ATOM     73  F   UNL A   1      43.867  26.181  35.170  1.00  0.00    -0.206 F 
ATOM     74  C   UNL A   1      47.356  26.986  35.677  1.00  0.00     0.022 A 
BRANCH  71  75
ATOM     75  S   UNL A   1      49.098  28.864  34.578  1.00  0.00     0.124 S 
ATOM     76  O   UNL A   1      49.983  27.737  34.859  1.00  0.00    -0.237 OA
ATOM     77  O   UNL A   1      48.995  29.263  33.178  1.00  0.00    -0.237 OA
ATOM     78  O   UNL A   1      49.181  29.965  35.535  1.00  0.00    -0.744 OA
ENDBRANCH  71  75
ENDBRANCH  54  68
BRANCH  55  79
ATOM     79  C   UNL A   1      37.027  30.724  29.039  1.00  0.00     0.023 A 
ATOM     80  C   UNL A   1      36.555  32.044  28.982  1.00  0.00     0.031 A 
ATOM     81  C   UNL A   1      36.285  29.728  28.379  1.00  0.00     0.131 A 
ATOM     82  C   UNL A   1      35.355  32.328  28.313  1.00  0.00     0.055 A 
ATOM     83  C   UNL A   1      35.116  30.021  27.678  1.00  0.00     0.041 A 
ATOM     84  F   UNL A   1      36.698  28.450  28.397  1.00  0.00    -0.206 F 
ATOM     85  C   UNL A   1      34.638  31.327  27.650  1.00  0.00     0.022 A 
BRANCH  82  86
ATOM     86  S   UNL A   1      34.705  34.021  28.366  1.00  0.00     0.124 S 
ATOM     87  O   UNL A   1      35.169  34.558  27.092  1.00  0.00    -0.237 OA
ATOM     88  O   UNL A   1      33.268  33.788  28.480  1.00  0.00    -0.237 OA
ATOM     89  O   UNL A   1      35.336  34.591  29.554  1.00  0.00    -0.744 OA
ENDBRANCH  82  86
ENDBRANCH  55  79
BRANCH  67  90
ATOM     90  C   UNL A   1      39.330  32.307  35.433  1.00  0.00     0.023 A 
ATOM     91  C   UNL A   1      39.762  33.638  35.570  1.00  0.00     0.031 A 
ATOM     92  C   UNL A   1      38.384  31.823  36.356  1.00  0.00     0.131 A 
ATOM     93  C   UNL A   1      39.303  34.417  36.642  1.00  0.00     0.055 A 
ATOM     94  C   UNL A   1      37.882  32.625  37.382  1.00  0.00     0.041 A 
ATOM     95  F   UNL A   1      37.936  30.560  36.277  1.00  0.00    -0.206 F 
ATOM     96  C   UNL A   1      38.352  33.924  37.540  1.00  0.00     0.022 A 
BRANCH  93  97
ATOM     97  S   UNL A   1      40.048  36.048  36.918  1.00  0.00     0.124 S 
ATOM     98  O   UNL A   1      39.782  36.723  35.651  1.00  0.00    -0.237 OA
ATOM     99  O   UNL A   1      39.301  36.541  38.071  1.00  0.00    -0.237 OA
ATOM    100  O   UNL A   1      41.455  35.744  37.173  1.00  0.00    -0.744 OA
ENDBRANCH  93  97
ENDBRANCH  67  90
ENDBRANCH  41  42
ENDBRANCH  34  36
ENDBRANCH  33  34
ENDBRANCH  32  33
ENDBRANCH  31  32
ENDBRANCH  30  31
ENDBRANCH   1  30
TORSDOF 23
ENDMDL
MODEL 2
REMARK VINA RESULT:     -10.3      2.012      2.249
REMARK SMILES COc1cccc(-c2ccc(=O)n(CC(=O)N[C@@H](C(=O)OCCOCCOC(=O)c3ccc(-c4c5nc(c(-c6cc(S(=O)(=O)[O-])ccc6F)c6ccc([nH]6)c(-c6cc(S(=O)(=O)[O-])ccc6F)c6nc(c(-c7cc(S(=O)(=O)[O-])ccc7F)c7ccc4[nH]7)C=C6)C=C5)cc3)C(C)C)n2)c1
REMARK SMILES IDX 23 1 22 2 21 3 19 4 20 5 18 6 17 7 15 8 16 9 14 11 13 12
REMARK SMILES IDX 8 13 9 14 96 15 10 16 11 17 12 18 7 19 3 20 4 21 97 22 5 23
REMARK SMILES IDX 6 24 2 25 1 26 93 27 94 28 95 29 24 30 25 31 26 32 27 33
REMARK SMILES IDX 28 34 29 35 30 36 31 37 92 38 32 39 91 40 33 41 34 42 35 43
REMARK SMILES IDX 85 44 36 45 90 46 84 47 86 48 37 49 89 50 83 51 82 52 38 54
REMARK SMILES IDX 70 55 50 56 69 57 51 58 54 59 68 60 87 61 52 62 53 63 67 65
REMARK SMILES IDX 88 66 55 67 39 68 40 69 48 70 41 71 47 72 49 73 46 74 42 75
REMARK SMILES IDX 43 76 44 77 45 78 71 79 72 80 80 81 73 82 79 83 81 84 78 85
REMARK SMILES IDX 74 86 75 87 76 88 77 89 56 90 57 91 65 92 58 93 64 94 66 95
REMARK SMILES IDX 63 96 59 97 60 98 61 99 62 100
REMARK H PARENT 17 10 86 53 54 64
REMARK Flexibility Score: inf
ROOT
ATOM      1  C   UNL A   1      43.138  20.816  26.083  1.00  0.00     0.202 C 
ENDROOT
BRANCH   1   2
ATOM      2  C   UNL A   1      42.279  22.015  25.666  1.00  0.00     0.261 C 
BRANCH   2   3
ATOM      3  O   UNL A   1      40.869  21.754  25.716  1.00  0.00    -0.462 OA
BRANCH   3   4
ATOM      4  C   UNL A   1      40.230  22.196  26.839  1.00  0.00     0.328 C 
ATOM      5  O   UNL A   1      40.700  22.105  27.968  1.00  0.00    -0.250 OA
BRANCH   4   6
ATOM      6  C   UNL A   1      38.864  22.862  26.544  1.00  0.00     0.194 C 
BRANCH   6   7
ATOM      7  N   UNL A   1      38.330  22.561  25.203  1.00  0.00    -0.341 N 
ATOM      8  C   UNL A   1      37.037  22.424  24.792  1.00  0.00     0.242 C 
ATOM      9  O   UNL A   1      36.824  22.527  23.580  1.00  0.00    -0.273 OA
ATOM     10  H   UNL A   1      39.009  22.438  24.500  1.00  0.00     0.164 HD
BRANCH   8  11
ATOM     11  C   UNL A   1      35.892  22.323  25.799  1.00  0.00     0.248 C 
BRANCH  11  12
ATOM     12  N   UNL A   1      34.606  22.284  25.117  1.00  0.00    -0.220 N 
ATOM     13  C   UNL A   1      32.774  23.439  24.391  1.00  0.00     0.091 A 
ATOM     14  C   UNL A   1      32.098  22.209  23.936  1.00  0.00     0.036 A 
ATOM     15  N   UNL A   1      33.955  23.483  24.924  1.00  0.00    -0.169 NA
ATOM     16  C   UNL A   1      32.780  21.069  24.069  1.00  0.00     0.075 A 
ATOM     17  C   UNL A   1      34.124  21.057  24.678  1.00  0.00     0.267 A 
ATOM     18  O   UNL A   1      34.725  19.992  24.789  1.00  0.00    -0.268 OA
BRANCH  13  19
ATOM     19  C   UNL A   1      32.023  24.701  24.223  1.00  0.00     0.006 A 
ATOM     20  C   UNL A   1      32.032  27.065  23.750  1.00  0.00     0.119 A 
ATOM     21  C   UNL A   1      30.681  27.130  24.103  1.00  0.00     0.046 A 
ATOM     22  C   UNL A   1      32.716  25.854  23.841  1.00  0.00     0.056 A 
ATOM     23  C   UNL A   1      29.995  25.979  24.491  1.00  0.00     0.005 A 
ATOM     24  C   UNL A   1      30.662  24.757  24.535  1.00  0.00     0.011 A 
BRANCH  20  25
ATOM     25  O   UNL A   1      32.602  28.251  23.375  1.00  0.00    -0.497 OA
ATOM     26  C   UNL A   1      34.024  28.216  23.275  1.00  0.00     0.278 C 
ENDBRANCH  20  25
ENDBRANCH  13  19
ENDBRANCH  11  12
ENDBRANCH   8  11
ENDBRANCH   6   7
BRANCH   6  27
ATOM     27  C   UNL A   1      38.916  24.412  26.710  1.00  0.00     0.017 C 
ATOM     28  C   UNL A   1      38.993  24.789  28.198  1.00  0.00     0.010 C 
ATOM     29  C   UNL A   1      40.092  25.073  25.984  1.00  0.00     0.010 C 
ENDBRANCH   6  27
ENDBRANCH   4   6
ENDBRANCH   3   4
ENDBRANCH   2   3
ENDBRANCH   1   2
BRANCH   1  30
ATOM     30  O   UNL A   1      44.236  20.470  25.245  1.00  0.00    -0.374 OA
BRANCH  30  31
ATOM     31  C   UNL A   1      44.847  21.507  24.479  1.00  0.00     0.202 C 
BRANCH  31  32
ATOM     32  C   UNL A   1      46.012  22.291  25.094  1.00  0.00     0.261 C 
BRANCH  32  33
ATOM     33  O   UNL A   1      45.600  23.215  26.117  1.00  0.00    -0.460 OA
BRANCH  33  34
ATOM     34  C   UNL A   1      45.381  24.475  25.668  1.00  0.00     0.338 C 
ATOM     35  O   UNL A   1      45.817  24.963  24.630  1.00  0.00    -0.246 OA
BRANCH  34  36
ATOM     36  C   UNL A   1      44.371  25.171  26.483  1.00  0.00     0.060 A 
ATOM     37  C   UNL A   1      44.535  26.553  26.650  1.00  0.00     0.016 A 
ATOM     38  C   UNL A   1      43.372  24.488  27.179  1.00  0.00     0.016 A 
ATOM     39  C   UNL A   1      43.748  27.243  27.566  1.00  0.00     0.010 A 
ATOM     40  C   UNL A   1      42.585  25.185  28.107  1.00  0.00     0.010 A 
ATOM     41  C   UNL A   1      42.801  26.556  28.338  1.00  0.00    -0.014 A 
BRANCH  41  42
ATOM     42  C   UNL A   1      42.165  27.273  29.473  1.00  0.00     0.031 A 
ATOM     43  C   UNL A   1      42.864  27.310  30.806  1.00  0.00     0.074 A 
ATOM     44  C   UNL A   1      41.025  27.962  29.289  1.00  0.00     0.049 A 
ATOM     45  N   UNL A   1      42.551  27.971  31.891  1.00  0.00    -0.248 NA
ATOM     46  C   UNL A   1      44.080  26.492  30.930  1.00  0.00     0.031 C 
ATOM     47  C   UNL A   1      40.270  28.018  28.038  1.00  0.00     0.029 A 
ATOM     48  N   UNL A   1      40.312  28.758  30.149  1.00  0.00    -0.354 N 
ATOM     49  C   UNL A   1      43.532  27.657  32.825  1.00  0.00     0.074 A 
ATOM     50  C   UNL A   1      44.425  26.711  32.189  1.00  0.00     0.031 C 
ATOM     51  C   UNL A   1      39.198  28.810  28.212  1.00  0.00     0.029 A 
ATOM     52  C   UNL A   1      39.181  29.303  29.588  1.00  0.00     0.049 A 
ATOM     53  H   UNL A   1      40.585  28.924  31.080  1.00  0.00     0.167 HD
ATOM     54  C   UNL A   1      43.683  28.124  34.091  1.00  0.00     0.034 A 
ATOM     55  C   UNL A   1      38.238  30.104  30.125  1.00  0.00     0.034 A 
ATOM     56  C   UNL A   1      42.773  29.054  34.718  1.00  0.00     0.049 A 
ATOM     57  C   UNL A   1      38.400  30.577  31.547  1.00  0.00     0.074 A 
ATOM     58  C   UNL A   1      42.840  29.607  35.987  1.00  0.00     0.029 A 
ATOM     59  N   UNL A   1      41.617  29.555  34.132  1.00  0.00    -0.354 N 
ATOM     60  N   UNL A   1      39.356  30.306  32.406  1.00  0.00    -0.248 NA
ATOM     61  C   UNL A   1      37.369  31.486  32.062  1.00  0.00     0.031 C 
ATOM     62  C   UNL A   1      41.694  30.384  36.190  1.00  0.00     0.029 A 
ATOM     63  C   UNL A   1      40.948  30.384  35.021  1.00  0.00     0.049 A 
ATOM     64  H   UNL A   1      41.316  29.352  33.216  1.00  0.00     0.167 HD
ATOM     65  C   UNL A   1      39.054  31.035  33.554  1.00  0.00     0.074 A 
ATOM     66  C   UNL A   1      37.838  31.768  33.269  1.00  0.00     0.031 C 
ATOM     67  C   UNL A   1      39.724  31.097  34.734  1.00  0.00     0.034 A 
BRANCH  54  68
ATOM     68  C   UNL A   1      44.847  27.589  34.892  1.00  0.00     0.023 A 
ATOM     69  C   UNL A   1      44.733  26.439  35.695  1.00  0.00     0.031 A 
ATOM     70  C   UNL A   1      46.085  28.258  34.877  1.00  0.00     0.131 A 
ATOM     71  C   UNL A   1      45.807  26.038  36.504  1.00  0.00     0.055 A 
ATOM     72  C   UNL A   1      47.174  27.809  35.625  1.00  0.00     0.041 A 
ATOM     73  F   UNL A   1      46.250  29.371  34.146  1.00  0.00    -0.206 F 
ATOM     74  C   UNL A   1      47.035  26.702  36.456  1.00  0.00     0.022 A 
BRANCH  71  75
ATOM     75  S   UNL A   1      45.535  24.724  37.725  1.00  0.00     0.124 S 
ATOM     76  O   UNL A   1      45.695  23.523  36.910  1.00  0.00    -0.237 OA
ATOM     77  O   UNL A   1      46.587  24.980  38.702  1.00  0.00    -0.237 OA
ATOM     78  O   UNL A   1      44.174  24.971  38.196  1.00  0.00    -0.744 OA
ENDBRANCH  71  75
ENDBRANCH  54  68
BRANCH  55  79
ATOM     79  C   UNL A   1      37.046  30.494  29.320  1.00  0.00     0.023 A 
ATOM     80  C   UNL A   1      36.470  31.769  29.432  1.00  0.00     0.031 A 
ATOM     81  C   UNL A   1      36.444  29.572  28.445  1.00  0.00     0.131 A 
ATOM     82  C   UNL A   1      35.306  32.074  28.709  1.00  0.00     0.055 A 
ATOM     83  C   UNL A   1      35.314  29.895  27.694  1.00  0.00     0.041 A 
ATOM     84  F   UNL A   1      36.962  28.341  28.297  1.00  0.00    -0.206 F 
ATOM     85  C   UNL A   1      34.732  31.150  27.832  1.00  0.00     0.022 A 
BRANCH  82  86
ATOM     86  S   UNL A   1      34.514  33.685  28.971  1.00  0.00     0.124 S 
ATOM     87  O   UNL A   1      35.624  34.603  28.745  1.00  0.00    -0.237 OA
ATOM     88  O   UNL A   1      33.470  33.676  27.951  1.00  0.00    -0.237 OA
ATOM     89  O   UNL A   1      34.034  33.608  30.349  1.00  0.00    -0.744 OA
ENDBRANCH  82  86
ENDBRANCH  55  79
BRANCH  67  90
ATOM     90  C   UNL A   1      39.169  32.027  35.789  1.00  0.00     0.023 A 
ATOM     91  C   UNL A   1      38.440  31.550  36.891  1.00  0.00     0.031 A 
ATOM     92  C   UNL A   1      39.349  33.418  35.668  1.00  0.00     0.131 A 
ATOM     93  C   UNL A   1      37.860  32.456  37.793  1.00  0.00     0.055 A 
ATOM     94  C   UNL A   1      38.824  34.310  36.604  1.00  0.00     0.041 A 
ATOM     95  F   UNL A   1      40.034  33.932  34.635  1.00  0.00    -0.206 F 
ATOM     96  C   UNL A   1      38.061  33.833  37.665  1.00  0.00     0.022 A 
BRANCH  93  97
ATOM     97  S   UNL A   1      36.741  31.819  39.071  1.00  0.00     0.124 S 
ATOM     98  O   UNL A   1      36.628  30.411  38.703  1.00  0.00    -0.237 OA
ATOM     99  O   UNL A   1      37.480  32.099  40.299  1.00  0.00    -0.237 OA
ATOM    100  O   UNL A   1      35.524  32.607  38.887  1.00  0.00    -0.744 OA
ENDBRANCH  93  97
ENDBRANCH  67  90
ENDBRANCH  41  42
ENDBRANCH  34  36
ENDBRANCH  33  34
ENDBRANCH  32  33
ENDBRANCH  31  32
ENDBRANCH  30  31
ENDBRANCH   1  30
TORSDOF 23
ENDMDL
MODEL 3
REMARK VINA RESULT:     -10.2      3.257      9.490
REMARK SMILES COc1cccc(-c2ccc(=O)n(CC(=O)N[C@@H](C(=O)OCCOCCOC(=O)c3ccc(-c4c5nc(c(-c6cc(S(=O)(=O)[O-])ccc6F)c6ccc([nH]6)c(-c6cc(S(=O)(=O)[O-])ccc6F)c6nc(c(-c7cc(S(=O)(=O)[O-])ccc7F)c7ccc4[nH]7)C=C6)C=C5)cc3)C(C)C)n2)c1
REMARK SMILES IDX 23 1 22 2 21 3 19 4 20 5 18 6 17 7 15 8 16 9 14 11 13 12
REMARK SMILES IDX 8 13 9 14 96 15 10 16 11 17 12 18 7 19 3 20 4 21 97 22 5 23
REMARK SMILES IDX 6 24 2 25 1 26 93 27 94 28 95 29 24 30 25 31 26 32 27 33
REMARK SMILES IDX 28 34 29 35 30 36 31 37 92 38 32 39 91 40 33 41 34 42 35 43
REMARK SMILES IDX 85 44 36 45 90 46 84 47 86 48 37 49 89 50 83 51 82 52 38 54
REMARK SMILES IDX 70 55 50 56 69 57 51 58 54 59 68 60 87 61 52 62 53 63 67 65
REMARK SMILES IDX 88 66 55 67 39 68 40 69 48 70 41 71 47 72 49 73 46 74 42 75
REMARK SMILES IDX 43 76 44 77 45 78 71 79 72 80 80 81 73 82 79 83 81 84 78 85
REMARK SMILES IDX 74 86 75 87 76 88 77 89 56 90 57 91 65 92 58 93 64 94 66 95
REMARK SMILES IDX 63 96 59 97 60 98 61 99 62 100
REMARK H PARENT 17 10 86 53 54 64
REMARK Flexibility Score: inf
ROOT
ATOM      1  C   UNL A   1      35.559  33.919  29.357  1.00  0.00     0.202 C 
ENDROOT
BRANCH   1   2
ATOM      2  C   UNL A   1      36.395  33.028  28.433  1.00  0.00     0.261 C 
BRANCH   2   3
ATOM      3  O   UNL A   1      35.617  32.336  27.446  1.00  0.00    -0.462 OA
BRANCH   3   4
ATOM      4  C   UNL A   1      34.768  31.382  27.931  1.00  0.00     0.328 C 
ATOM      5  O   UNL A   1      33.837  31.624  28.692  1.00  0.00    -0.250 OA
BRANCH   4   6
ATOM      6  C   UNL A   1      35.071  29.962  27.393  1.00  0.00     0.194 C 
BRANCH   6   7
ATOM      7  N   UNL A   1      33.915  29.049  27.436  1.00  0.00    -0.341 N 
ATOM      8  C   UNL A   1      33.409  28.240  26.460  1.00  0.00     0.242 C 
ATOM      9  O   UNL A   1      32.674  27.318  26.827  1.00  0.00    -0.273 OA
ATOM     10  H   UNL A   1      33.436  29.018  28.296  1.00  0.00     0.164 HD
BRANCH   8  11
ATOM     11  C   UNL A   1      33.869  28.367  25.009  1.00  0.00     0.248 C 
BRANCH  11  12
ATOM     12  N   UNL A   1      33.705  27.104  24.302  1.00  0.00    -0.220 N 
ATOM     13  C   UNL A   1      34.273  24.897  24.144  1.00  0.00     0.091 A 
ATOM     14  C   UNL A   1      33.506  24.722  22.895  1.00  0.00     0.036 A 
ATOM     15  N   UNL A   1      34.352  26.002  24.818  1.00  0.00    -0.169 NA
ATOM     16  C   UNL A   1      32.830  25.787  22.457  1.00  0.00     0.075 A 
ATOM     17  C   UNL A   1      32.891  27.074  23.177  1.00  0.00     0.267 A 
ATOM     18  O   UNL A   1      32.261  28.034  22.746  1.00  0.00    -0.268 OA
BRANCH  13  19
ATOM     19  C   UNL A   1      35.003  23.710  24.636  1.00  0.00     0.006 A 
ATOM     20  C   UNL A   1      37.045  22.741  25.476  1.00  0.00     0.119 A 
ATOM     21  C   UNL A   1      36.473  21.470  25.370  1.00  0.00     0.046 A 
ATOM     22  C   UNL A   1      36.321  23.864  25.077  1.00  0.00     0.056 A 
ATOM     23  C   UNL A   1      35.160  21.320  24.923  1.00  0.00     0.005 A 
ATOM     24  C   UNL A   1      34.415  22.444  24.571  1.00  0.00     0.011 A 
BRANCH  20  25
ATOM     25  O   UNL A   1      38.333  22.772  25.935  1.00  0.00    -0.497 OA
ATOM     26  C   UNL A   1      38.650  23.916  26.726  1.00  0.00     0.278 C 
ENDBRANCH  20  25
ENDBRANCH  13  19
ENDBRANCH  11  12
ENDBRANCH   8  11
ENDBRANCH   6   7
BRANCH   6  27
ATOM     27  C   UNL A   1      36.254  29.286  28.151  1.00  0.00     0.017 C 
ATOM     28  C   UNL A   1      37.598  29.834  27.644  1.00  0.00     0.010 C 
ATOM     29  C   UNL A   1      36.202  29.469  29.671  1.00  0.00     0.010 C 
ENDBRANCH   6  27
ENDBRANCH   4   6
ENDBRANCH   3   4
ENDBRANCH   2   3
ENDBRANCH   1   2
BRANCH   1  30
ATOM     30  O   UNL A   1      34.913  35.047  28.777  1.00  0.00    -0.374 OA
BRANCH  30  31
ATOM     31  C   UNL A   1      33.486  35.070  28.764  1.00  0.00     0.202 C 
BRANCH  31  32
ATOM     32  C   UNL A   1      32.751  35.832  29.873  1.00  0.00     0.261 C 
BRANCH  32  33
ATOM     33  O   UNL A   1      33.574  36.102  31.022  1.00  0.00    -0.460 OA
BRANCH  33  34
ATOM     34  C   UNL A   1      33.230  35.396  32.126  1.00  0.00     0.338 C 
ATOM     35  O   UNL A   1      32.091  35.085  32.465  1.00  0.00    -0.246 OA
BRANCH  34  36
ATOM     36  C   UNL A   1      34.414  34.850  32.810  1.00  0.00     0.060 A 
ATOM     37  C   UNL A   1      35.640  35.478  32.552  1.00  0.00     0.016 A 
ATOM     38  C   UNL A   1      34.365  33.680  33.572  1.00  0.00     0.016 A 
ATOM     39  C   UNL A   1      36.826  34.900  32.993  1.00  0.00     0.010 A 
ATOM     40  C   UNL A   1      35.563  33.097  34.009  1.00  0.00     0.010 A 
ATOM     41  C   UNL A   1      36.800  33.679  33.682  1.00  0.00    -0.014 A 
BRANCH  41  42
ATOM     42  C   UNL A   1      38.088  32.974  33.911  1.00  0.00     0.031 A 
ATOM     43  C   UNL A   1      38.879  33.272  35.157  1.00  0.00     0.074 A 
ATOM     44  C   UNL A   1      38.496  32.012  33.065  1.00  0.00     0.049 A 
ATOM     45  N   UNL A   1      39.960  32.693  35.614  1.00  0.00    -0.248 NA
ATOM     46  C   UNL A   1      38.382  34.369  36.001  1.00  0.00     0.031 C 
ATOM     47  C   UNL A   1      37.803  31.621  31.839  1.00  0.00     0.029 A 
ATOM     48  N   UNL A   1      39.585  31.179  33.117  1.00  0.00    -0.354 N 
ATOM     49  C   UNL A   1      40.270  33.348  36.801  1.00  0.00     0.074 A 
ATOM     50  C   UNL A   1      39.286  34.397  36.968  1.00  0.00     0.031 C 
ATOM     51  C   UNL A   1      38.484  30.621  31.254  1.00  0.00     0.029 A 
ATOM     52  C   UNL A   1      39.668  30.312  32.053  1.00  0.00     0.049 A 
ATOM     53  H   UNL A   1      40.245  31.200  33.848  1.00  0.00     0.167 HD
ATOM     54  C   UNL A   1      41.275  33.091  37.677  1.00  0.00     0.034 A 
ATOM     55  C   UNL A   1      40.595  29.379  31.757  1.00  0.00     0.034 A 
ATOM     56  C   UNL A   1      42.261  32.052  37.488  1.00  0.00     0.049 A 
ATOM     57  C   UNL A   1      41.728  29.137  32.722  1.00  0.00     0.074 A 
ATOM     58  C   UNL A   1      43.308  31.692  38.320  1.00  0.00     0.029 A 
ATOM     59  N   UNL A   1      42.335  31.218  36.379  1.00  0.00    -0.354 N 
ATOM     60  N   UNL A   1      41.986  29.735  33.862  1.00  0.00    -0.248 NA
ATOM     61  C   UNL A   1      42.680  28.076  32.371  1.00  0.00     0.031 C 
ATOM     62  C   UNL A   1      44.052  30.692  37.684  1.00  0.00     0.029 A 
ATOM     63  C   UNL A   1      43.426  30.368  36.490  1.00  0.00     0.049 A 
ATOM     64  H   UNL A   1      41.704  31.227  35.623  1.00  0.00     0.167 HD
ATOM     65  C   UNL A   1      43.115  29.102  34.377  1.00  0.00     0.074 A 
ATOM     66  C   UNL A   1      43.474  28.066  33.430  1.00  0.00     0.031 C 
ATOM     67  C   UNL A   1      43.789  29.349  35.531  1.00  0.00     0.034 A 
BRANCH  54  68
ATOM     68  C   UNL A   1      41.381  33.986  38.890  1.00  0.00     0.023 A 
ATOM     69  C   UNL A   1      42.098  35.197  38.860  1.00  0.00     0.031 A 
ATOM     70  C   UNL A   1      40.784  33.608  40.106  1.00  0.00     0.131 A 
ATOM     71  C   UNL A   1      42.260  35.946  40.036  1.00  0.00     0.055 A 
ATOM     72  C   UNL A   1      40.884  34.395  41.253  1.00  0.00     0.041 A 
ATOM     73  F   UNL A   1      40.104  32.454  40.202  1.00  0.00    -0.206 F 
ATOM     74  C   UNL A   1      41.638  35.565  41.227  1.00  0.00     0.022 A 
BRANCH  71  75
ATOM     75  S   UNL A   1      43.413  37.347  40.025  1.00  0.00     0.124 S 
ATOM     76  O   UNL A   1      42.951  38.120  41.175  1.00  0.00    -0.237 OA
ATOM     77  O   UNL A   1      44.707  36.691  40.172  1.00  0.00    -0.237 OA
ATOM     78  O   UNL A   1      43.176  37.975  38.727  1.00  0.00    -0.744 OA
ENDBRANCH  71  75
ENDBRANCH  54  68
BRANCH  55  79
ATOM     79  C   UNL A   1      40.502  28.615  30.480  1.00  0.00     0.023 A 
ATOM     80  C   UNL A   1      41.319  28.919  29.381  1.00  0.00     0.031 A 
ATOM     81  C   UNL A   1      39.559  27.580  30.337  1.00  0.00     0.131 A 
ATOM     82  C   UNL A   1      41.153  28.222  28.174  1.00  0.00     0.055 A 
ATOM     83  C   UNL A   1      39.429  26.860  29.150  1.00  0.00     0.041 A 
ATOM     84  F   UNL A   1      38.759  27.245  31.362  1.00  0.00    -0.206 F 
ATOM     85  C   UNL A   1      40.221  27.186  28.055  1.00  0.00     0.022 A 
BRANCH  82  86
ATOM     86  S   UNL A   1      42.135  28.724  26.734  1.00  0.00     0.124 S 
ATOM     87  O   UNL A   1      42.876  27.503  26.438  1.00  0.00    -0.237 OA
ATOM     88  O   UNL A   1      41.097  29.094  25.777  1.00  0.00    -0.237 OA
ATOM     89  O   UNL A   1      42.936  29.836  27.239  1.00  0.00    -0.744 OA
ENDBRANCH  82  86
ENDBRANCH  55  79
BRANCH  67  90
ATOM     90  C   UNL A   1      44.961  28.449  35.845  1.00  0.00     0.023 A 
ATOM     91  C   UNL A   1      44.808  27.253  36.567  1.00  0.00     0.031 A 
ATOM     92  C   UNL A   1      46.260  28.814  35.441  1.00  0.00     0.131 A 
ATOM     93  C   UNL A   1      45.936  26.498  36.921  1.00  0.00     0.055 A 
ATOM     94  C   UNL A   1      47.371  28.024  35.740  1.00  0.00     0.041 A 
ATOM     95  F   UNL A   1      46.468  29.946  34.752  1.00  0.00    -0.206 F 
ATOM     96  C   UNL A   1      47.216  26.868  36.498  1.00  0.00     0.022 A 
BRANCH  93  97
ATOM     97  S   UNL A   1      45.726  25.085  38.040  1.00  0.00     0.124 S 
ATOM     98  O   UNL A   1      44.336  25.236  38.462  1.00  0.00    -0.237 OA
ATOM     99  O   UNL A   1      46.005  23.951  37.165  1.00  0.00    -0.237 OA
ATOM    100  O   UNL A   1      46.719  25.323  39.084  1.00  0.00    -0.744 OA
ENDBRANCH  93  97
ENDBRANCH  67  90
ENDBRANCH  41  42
ENDBRANCH  34  36
ENDBRANCH  33  34
ENDBRANCH  32  33
ENDBRANCH  31  32
ENDBRANCH  30  31
ENDBRANCH   1  30
TORSDOF 23
ENDMDL
