MODEL 1
REMARK VINA RESULT:      -9.3      0.000      0.000
REMARK SMILES CC[NH2+][C@@]1(C(=O)OCCOCCOC(=O)c2ccc(-c3c4nc(c(-c5cc(S(=O)(=O)[O-])ccc5F)c5ccc([nH]5)c(-c5cc(S(=O)(=O)[O-])ccc5F)c5nc(c(-c6cc(S(=O)(=O)[O-])ccc6F)c6ccc3[nH]6)C=C5)C=C4)cc2)CC[C@@H](OCCOC)C1
REMARK SMILES IDX 9 1 8 2 7 3 5 4 6 5 4 6 79 7 87 8 80 9 81 10 3 11 2 14 1 15
REMARK SMILES IDX 82 16 83 17 84 18 85 19 86 20 10 21 11 22 12 23 13 24 14 25
REMARK SMILES IDX 15 26 16 27 17 28 78 29 18 30 77 31 19 32 20 33 21 34 71 35
REMARK SMILES IDX 22 36 76 37 70 38 72 39 23 40 75 41 69 42 68 43 24 45 56 46
REMARK SMILES IDX 36 47 55 48 37 49 40 50 54 51 73 52 38 53 39 54 53 56 74 57
REMARK SMILES IDX 41 58 25 59 26 60 34 61 27 62 33 63 35 64 32 65 28 66 29 67
REMARK SMILES IDX 30 68 31 69 57 70 58 71 66 72 59 73 65 74 67 75 64 76 60 77
REMARK SMILES IDX 61 78 62 79 63 80 42 81 43 82 51 83 44 84 50 85 52 86 49 87
REMARK SMILES IDX 45 88 46 89 47 90 48 91
REMARK H PARENT 3 12 3 13 72 44 40 55
REMARK Flexibility Score: inf
ROOT
ATOM      1  C   UNL A   1      35.392  20.361  24.623  1.00  0.00     0.202 C 
ENDROOT
BRANCH   1   2
ATOM      2  C   UNL A   1      34.161  20.514  25.523  1.00  0.00     0.261 C 
BRANCH   2   3
ATOM      3  O   UNL A   1      33.080  21.207  24.885  1.00  0.00    -0.459 OA
BRANCH   3   4
ATOM      4  C   UNL A   1      33.428  22.346  24.220  1.00  0.00     0.368 C 
ATOM      5  O   UNL A   1      34.030  22.352  23.150  1.00  0.00    -0.245 OA
BRANCH   4   6
ATOM      6  C   UNL A   1      33.059  23.644  25.011  1.00  0.00     0.196 C 
ATOM      7  C   UNL A   1      31.616  23.485  25.507  1.00  0.00     0.084 C 
ATOM      8  C   UNL A   1      32.942  24.927  24.159  1.00  0.00     0.113 C 
ATOM      9  C   UNL A   1      30.766  23.802  24.276  1.00  0.00     0.039 C 
ATOM     10  C   UNL A   1      31.568  24.843  23.480  1.00  0.00     0.125 C 
BRANCH   6  11
ATOM     11  N   UNL A   1      34.060  23.898  26.089  1.00  0.00    -0.332 N 
ATOM     12  H   UNL A   1      33.612  24.463  26.811  1.00  0.00     0.347 HD
ATOM     13  H   UNL A   1      34.359  22.981  26.423  1.00  0.00     0.347 HD
BRANCH  11  14
ATOM     14  C   UNL A   1      35.273  24.594  25.651  1.00  0.00     0.257 C 
ATOM     15  C   UNL A   1      36.480  23.679  25.811  1.00  0.00     0.071 C 
ENDBRANCH  11  14
ENDBRANCH   6  11
BRANCH  10  16
ATOM     16  O   UNL A   1      30.972  26.133  23.323  1.00  0.00    -0.376 OA
BRANCH  16  17
ATOM     17  C   UNL A   1      31.073  27.025  24.426  1.00  0.00     0.189 C 
BRANCH  17  18
ATOM     18  C   UNL A   1      30.680  28.470  24.079  1.00  0.00     0.188 C 
BRANCH  18  19
ATOM     19  O   UNL A   1      31.177  29.478  24.958  1.00  0.00    -0.382 OA
ATOM     20  C   UNL A   1      32.587  29.398  25.167  1.00  0.00     0.195 C 
ENDBRANCH  18  19
ENDBRANCH  17  18
ENDBRANCH  16  17
ENDBRANCH  10  16
ENDBRANCH   4   6
ENDBRANCH   3   4
ENDBRANCH   2   3
ENDBRANCH   1   2
BRANCH   1  21
ATOM     21  O   UNL A   1      36.449  19.524  25.082  1.00  0.00    -0.374 OA
BRANCH  21  22
ATOM     22  C   UNL A   1      37.785  20.013  24.958  1.00  0.00     0.202 C 
BRANCH  22  23
ATOM     23  C   UNL A   1      38.890  19.286  25.739  1.00  0.00     0.261 C 
BRANCH  23  24
ATOM     24  O   UNL A   1      40.156  19.973  25.708  1.00  0.00    -0.460 OA
BRANCH  24  25
ATOM     25  C   UNL A   1      40.744  20.131  26.923  1.00  0.00     0.338 C 
ATOM     26  O   UNL A   1      41.232  19.258  27.621  1.00  0.00    -0.246 OA
BRANCH  25  27
ATOM     27  C   UNL A   1      40.878  21.563  27.247  1.00  0.00     0.060 A 
ATOM     28  C   UNL A   1      40.285  22.493  26.383  1.00  0.00     0.016 A 
ATOM     29  C   UNL A   1      41.667  21.992  28.315  1.00  0.00     0.016 A 
ATOM     30  C   UNL A   1      40.499  23.859  26.570  1.00  0.00     0.010 A 
ATOM     31  C   UNL A   1      41.894  23.362  28.491  1.00  0.00     0.010 A 
ATOM     32  C   UNL A   1      41.329  24.302  27.607  1.00  0.00    -0.014 A 
BRANCH  32  33
ATOM     33  C   UNL A   1      41.696  25.737  27.709  1.00  0.00     0.031 A 
ATOM     34  C   UNL A   1      42.995  26.208  27.113  1.00  0.00     0.074 A 
ATOM     35  C   UNL A   1      40.883  26.606  28.337  1.00  0.00     0.049 A 
ATOM     36  N   UNL A   1      43.553  27.388  27.172  1.00  0.00    -0.248 NA
ATOM     37  C   UNL A   1      43.765  25.215  26.348  1.00  0.00     0.031 C 
ATOM     38  C   UNL A   1      39.574  26.278  28.902  1.00  0.00     0.029 A 
ATOM     39  N   UNL A   1      41.044  27.941  28.619  1.00  0.00    -0.354 N 
ATOM     40  C   UNL A   1      44.748  27.280  26.465  1.00  0.00     0.074 A 
ATOM     41  C   UNL A   1      44.835  25.914  25.997  1.00  0.00     0.031 C 
ATOM     42  C   UNL A   1      39.062  27.375  29.486  1.00  0.00     0.029 A 
ATOM     43  C   UNL A   1      40.026  28.470  29.379  1.00  0.00     0.049 A 
ATOM     44  H   UNL A   1      41.814  28.468  28.307  1.00  0.00     0.167 HD
ATOM     45  C   UNL A   1      45.682  28.234  26.236  1.00  0.00     0.034 A 
ATOM     46  C   UNL A   1      39.908  29.683  29.960  1.00  0.00     0.034 A 
ATOM     47  C   UNL A   1      45.577  29.593  26.706  1.00  0.00     0.049 A 
ATOM     48  C   UNL A   1      41.020  30.690  29.781  1.00  0.00     0.074 A 
ATOM     49  C   UNL A   1      46.435  30.654  26.471  1.00  0.00     0.029 A 
ATOM     50  N   UNL A   1      44.567  30.074  27.529  1.00  0.00    -0.354 N 
ATOM     51  N   UNL A   1      42.126  30.585  29.079  1.00  0.00    -0.248 NA
ATOM     52  C   UNL A   1      40.873  31.976  30.480  1.00  0.00     0.031 C 
ATOM     53  C   UNL A   1      45.987  31.752  27.213  1.00  0.00     0.029 A 
ATOM     54  C   UNL A   1      44.812  31.398  27.856  1.00  0.00     0.049 A 
ATOM     55  H   UNL A   1      43.792  29.550  27.835  1.00  0.00     0.167 HD
ATOM     56  C   UNL A   1      42.788  31.801  29.233  1.00  0.00     0.074 A 
ATOM     57  C   UNL A   1      41.956  32.627  30.081  1.00  0.00     0.031 C 
ATOM     58  C   UNL A   1      43.977  32.202  28.715  1.00  0.00     0.034 A 
BRANCH  45  59
ATOM     59  C   UNL A   1      46.930  27.832  25.495  1.00  0.00     0.023 A 
ATOM     60  C   UNL A   1      47.074  28.027  24.110  1.00  0.00     0.031 A 
ATOM     61  C   UNL A   1      48.005  27.260  26.199  1.00  0.00     0.131 A 
ATOM     62  C   UNL A   1      48.252  27.614  23.468  1.00  0.00     0.055 A 
ATOM     63  C   UNL A   1      49.196  26.906  25.564  1.00  0.00     0.041 A 
ATOM     64  F   UNL A   1      47.912  27.033  27.518  1.00  0.00    -0.206 F 
ATOM     65  C   UNL A   1      49.321  27.077  24.188  1.00  0.00     0.022 A 
BRANCH  62  66
ATOM     66  S   UNL A   1      48.336  27.710  21.658  1.00  0.00     0.124 S 
ATOM     67  O   UNL A   1      49.441  28.645  21.462  1.00  0.00    -0.237 OA
ATOM     68  O   UNL A   1      48.596  26.325  21.280  1.00  0.00    -0.237 OA
ATOM     69  O   UNL A   1      47.020  28.223  21.280  1.00  0.00    -0.744 OA
ENDBRANCH  62  66
ENDBRANCH  45  59
BRANCH  46  70
ATOM     70  C   UNL A   1      38.739  30.003  30.832  1.00  0.00     0.023 A 
ATOM     71  C   UNL A   1      37.669  30.776  30.355  1.00  0.00     0.031 A 
ATOM     72  C   UNL A   1      38.721  29.617  32.184  1.00  0.00     0.131 A 
ATOM     73  C   UNL A   1      36.655  31.186  31.235  1.00  0.00     0.055 A 
ATOM     74  C   UNL A   1      37.681  29.977  33.042  1.00  0.00     0.041 A 
ATOM     75  F   UNL A   1      39.723  28.884  32.697  1.00  0.00    -0.206 F 
ATOM     76  C   UNL A   1      36.647  30.781  32.572  1.00  0.00     0.022 A 
BRANCH  73  77
ATOM     77  S   UNL A   1      35.405  32.356  30.635  1.00  0.00     0.124 S 
ATOM     78  O   UNL A   1      36.179  33.588  30.528  1.00  0.00    -0.237 OA
ATOM     79  O   UNL A   1      34.998  31.742  29.376  1.00  0.00    -0.237 OA
ATOM     80  O   UNL A   1      34.394  32.344  31.690  1.00  0.00    -0.744 OA
ENDBRANCH  73  77
ENDBRANCH  46  70
BRANCH  58  81
ATOM     81  C   UNL A   1      44.424  33.608  29.028  1.00  0.00     0.023 A 
ATOM     82  C   UNL A   1      43.893  34.717  28.349  1.00  0.00     0.031 A 
ATOM     83  C   UNL A   1      45.392  33.839  30.022  1.00  0.00     0.131 A 
ATOM     84  C   UNL A   1      44.363  36.006  28.643  1.00  0.00     0.055 A 
ATOM     85  C   UNL A   1      45.817  35.128  30.348  1.00  0.00     0.041 A 
ATOM     86  F   UNL A   1      45.932  32.814  30.701  1.00  0.00    -0.206 F 
ATOM     87  C   UNL A   1      45.309  36.220  29.650  1.00  0.00     0.022 A 
BRANCH  84  88
ATOM     88  S   UNL A   1      43.764  37.402  27.651  1.00  0.00     0.124 S 
ATOM     89  O   UNL A   1      43.030  36.725  26.587  1.00  0.00    -0.237 OA
ATOM     90  O   UNL A   1      42.954  38.144  28.611  1.00  0.00    -0.237 OA
ATOM     91  O   UNL A   1      44.991  38.075  27.228  1.00  0.00    -0.744 OA
ENDBRANCH  84  88
ENDBRANCH  58  81
ENDBRANCH  32  33
ENDBRANCH  25  27
ENDBRANCH  24  25
ENDBRANCH  23  24
ENDBRANCH  22  23
ENDBRANCH  21  22
ENDBRANCH   1  21
TORSDOF 23
ENDMDL
MODEL 2
REMARK VINA RESULT:      -9.0      2.029      8.330
REMARK SMILES CC[NH2+][C@@]1(C(=O)OCCOCCOC(=O)c2ccc(-c3c4nc(c(-c5cc(S(=O)(=O)[O-])ccc5F)c5ccc([nH]5)c(-c5cc(S(=O)(=O)[O-])ccc5F)c5nc(c(-c6cc(S(=O)(=O)[O-])ccc6F)c6ccc3[nH]6)C=C5)C=C4)cc2)CC[C@@H](OCCOC)C1
REMARK SMILES IDX 9 1 8 2 7 3 5 4 6 5 4 6 79 7 87 8 80 9 81 10 3 11 2 14 1 15
REMARK SMILES IDX 82 16 83 17 84 18 85 19 86 20 10 21 11 22 12 23 13 24 14 25
REMARK SMILES IDX 15 26 16 27 17 28 78 29 18 30 77 31 19 32 20 33 21 34 71 35
REMARK SMILES IDX 22 36 76 37 70 38 72 39 23 40 75 41 69 42 68 43 24 45 56 46
REMARK SMILES IDX 36 47 55 48 37 49 40 50 54 51 73 52 38 53 39 54 53 56 74 57
REMARK SMILES IDX 41 58 25 59 26 60 34 61 27 62 33 63 35 64 32 65 28 66 29 67
REMARK SMILES IDX 30 68 31 69 57 70 58 71 66 72 59 73 65 74 67 75 64 76 60 77
REMARK SMILES IDX 61 78 62 79 63 80 42 81 43 82 51 83 44 84 50 85 52 86 49 87
REMARK SMILES IDX 45 88 46 89 47 90 48 91
REMARK H PARENT 3 12 3 13 72 44 40 55
REMARK Flexibility Score: inf
ROOT
ATOM      1  C   UNL A   1      35.941  22.606  25.275  1.00  0.00     0.202 C 
ENDROOT
BRANCH   1   2
ATOM      2  C   UNL A   1      35.337  23.960  24.889  1.00  0.00     0.261 C 
BRANCH   2   3
ATOM      3  O   UNL A   1      33.943  23.881  24.559  1.00  0.00    -0.459 OA
BRANCH   3   4
ATOM      4  C   UNL A   1      33.651  23.190  23.420  1.00  0.00     0.368 C 
ATOM      5  O   UNL A   1      34.357  23.202  22.416  1.00  0.00    -0.245 OA
BRANCH   4   6
ATOM      6  C   UNL A   1      32.274  22.452  23.499  1.00  0.00     0.196 C 
ATOM      7  C   UNL A   1      31.964  22.215  24.983  1.00  0.00     0.084 C 
ATOM      8  C   UNL A   1      32.268  21.004  22.959  1.00  0.00     0.113 C 
ATOM      9  C   UNL A   1      32.818  21.000  25.349  1.00  0.00     0.039 C 
ATOM     10  C   UNL A   1      32.891  20.150  24.072  1.00  0.00     0.125 C 
BRANCH   6  11
ATOM     11  N   UNL A   1      31.229  23.221  22.763  1.00  0.00    -0.332 N 
ATOM     12  H   UNL A   1      31.661  23.634  21.937  1.00  0.00     0.347 HD
ATOM     13  H   UNL A   1      30.488  22.555  22.540  1.00  0.00     0.347 HD
BRANCH  11  14
ATOM     14  C   UNL A   1      30.599  24.297  23.534  1.00  0.00     0.257 C 
ATOM     15  C   UNL A   1      31.021  25.649  22.976  1.00  0.00     0.071 C 
ENDBRANCH  11  14
ENDBRANCH   6  11
BRANCH  10  16
ATOM     16  O   UNL A   1      32.308  18.846  24.131  1.00  0.00    -0.376 OA
BRANCH  16  17
ATOM     17  C   UNL A   1      32.697  17.923  23.121  1.00  0.00     0.189 C 
BRANCH  17  18
ATOM     18  C   UNL A   1      33.987  17.158  23.458  1.00  0.00     0.188 C 
BRANCH  18  19
ATOM     19  O   UNL A   1      33.811  15.838  23.968  1.00  0.00    -0.382 OA
ATOM     20  C   UNL A   1      33.357  15.812  25.321  1.00  0.00     0.195 C 
ENDBRANCH  18  19
ENDBRANCH  17  18
ENDBRANCH  16  17
ENDBRANCH  10  16
ENDBRANCH   4   6
ENDBRANCH   3   4
ENDBRANCH   2   3
ENDBRANCH   1   2
BRANCH   1  21
ATOM     21  O   UNL A   1      37.070  22.149  24.538  1.00  0.00    -0.374 OA
BRANCH  21  22
ATOM     22  C   UNL A   1      37.773  21.010  25.037  1.00  0.00     0.202 C 
BRANCH  22  23
ATOM     23  C   UNL A   1      39.085  21.254  25.798  1.00  0.00     0.261 C 
BRANCH  23  24
ATOM     24  O   UNL A   1      39.821  20.044  26.066  1.00  0.00    -0.460 OA
BRANCH  24  25
ATOM     25  C   UNL A   1      41.127  20.237  26.391  1.00  0.00     0.338 C 
ATOM     26  O   UNL A   1      42.042  19.442  26.256  1.00  0.00    -0.246 OA
BRANCH  25  27
ATOM     27  C   UNL A   1      41.355  21.637  26.793  1.00  0.00     0.060 A 
ATOM     28  C   UNL A   1      41.508  22.596  25.783  1.00  0.00     0.016 A 
ATOM     29  C   UNL A   1      41.531  21.985  28.132  1.00  0.00     0.016 A 
ATOM     30  C   UNL A   1      41.861  23.907  26.109  1.00  0.00     0.010 A 
ATOM     31  C   UNL A   1      41.901  23.296  28.456  1.00  0.00     0.010 A 
ATOM     32  C   UNL A   1      42.089  24.258  27.446  1.00  0.00    -0.014 A 
BRANCH  32  33
ATOM     33  C   UNL A   1      42.627  25.600  27.783  1.00  0.00     0.031 A 
ATOM     34  C   UNL A   1      41.716  26.622  28.405  1.00  0.00     0.074 A 
ATOM     35  C   UNL A   1      43.913  25.904  27.527  1.00  0.00     0.049 A 
ATOM     36  N   UNL A   1      41.949  27.877  28.689  1.00  0.00    -0.248 NA
ATOM     37  C   UNL A   1      40.361  26.168  28.755  1.00  0.00     0.031 C 
ATOM     38  C   UNL A   1      44.905  24.977  26.981  1.00  0.00     0.029 A 
ATOM     39  N   UNL A   1      44.603  27.082  27.677  1.00  0.00    -0.354 N 
ATOM     40  C   UNL A   1      40.769  28.370  29.237  1.00  0.00     0.074 A 
ATOM     41  C   UNL A   1      39.818  27.278  29.235  1.00  0.00     0.031 C 
ATOM     42  C   UNL A   1      46.069  25.630  26.817  1.00  0.00     0.029 A 
ATOM     43  C   UNL A   1      45.893  27.030  27.201  1.00  0.00     0.049 A 
ATOM     44  H   UNL A   1      44.211  27.887  28.086  1.00  0.00     0.167 HD
ATOM     45  C   UNL A   1      40.506  29.618  29.694  1.00  0.00     0.034 A 
ATOM     46  C   UNL A   1      46.809  28.009  27.050  1.00  0.00     0.034 A 
ATOM     47  C   UNL A   1      41.467  30.693  29.692  1.00  0.00     0.049 A 
ATOM     48  C   UNL A   1      46.449  29.418  27.463  1.00  0.00     0.074 A 
ATOM     49  C   UNL A   1      41.323  31.976  30.194  1.00  0.00     0.029 A 
ATOM     50  N   UNL A   1      42.739  30.623  29.141  1.00  0.00    -0.354 N 
ATOM     51  N   UNL A   1      45.341  29.860  28.014  1.00  0.00    -0.248 NA
ATOM     52  C   UNL A   1      47.458  30.460  27.226  1.00  0.00     0.031 C 
ATOM     53  C   UNL A   1      42.477  32.701  29.877  1.00  0.00     0.029 A 
ATOM     54  C   UNL A   1      43.368  31.853  29.239  1.00  0.00     0.049 A 
ATOM     55  H   UNL A   1      43.135  29.816  28.739  1.00  0.00     0.167 HD
ATOM     56  C   UNL A   1      45.536  31.225  28.212  1.00  0.00     0.074 A 
ATOM     57  C   UNL A   1      46.868  31.532  27.735  1.00  0.00     0.031 C 
ATOM     58  C   UNL A   1      44.692  32.144  28.745  1.00  0.00     0.034 A 
BRANCH  45  59
ATOM     59  C   UNL A   1      39.110  29.912  30.176  1.00  0.00     0.023 A 
ATOM     60  C   UNL A   1      38.161  30.563  29.369  1.00  0.00     0.031 A 
ATOM     61  C   UNL A   1      38.719  29.510  31.466  1.00  0.00     0.131 A 
ATOM     62  C   UNL A   1      36.880  30.830  29.877  1.00  0.00     0.055 A 
ATOM     63  C   UNL A   1      37.425  29.725  31.944  1.00  0.00     0.041 A 
ATOM     64  F   UNL A   1      39.591  28.903  32.284  1.00  0.00    -0.206 F 
ATOM     65  C   UNL A   1      36.499  30.396  31.149  1.00  0.00     0.022 A 
BRANCH  62  66
ATOM     66  S   UNL A   1      35.740  31.832  28.883  1.00  0.00     0.124 S 
ATOM     67  O   UNL A   1      34.631  32.027  29.814  1.00  0.00    -0.237 OA
ATOM     68  O   UNL A   1      36.538  33.014  28.582  1.00  0.00    -0.237 OA
ATOM     69  O   UNL A   1      35.440  30.974  27.738  1.00  0.00    -0.744 OA
ENDBRANCH  62  66
ENDBRANCH  45  59
BRANCH  46  70
ATOM     70  C   UNL A   1      48.130  27.730  26.412  1.00  0.00     0.023 A 
ATOM     71  C   UNL A   1      48.281  27.755  25.017  1.00  0.00     0.031 A 
ATOM     72  C   UNL A   1      49.238  27.342  27.187  1.00  0.00     0.131 A 
ATOM     73  C   UNL A   1      49.492  27.346  24.438  1.00  0.00     0.055 A 
ATOM     74  C   UNL A   1      50.459  26.992  26.609  1.00  0.00     0.041 A 
ATOM     75  F   UNL A   1      49.148  27.291  28.527  1.00  0.00    -0.206 F 
ATOM     76  C   UNL A   1      50.586  26.977  25.224  1.00  0.00     0.022 A 
BRANCH  73  77
ATOM     77  S   UNL A   1      49.581  27.189  22.631  1.00  0.00     0.124 S 
ATOM     78  O   UNL A   1      49.127  28.506  22.198  1.00  0.00    -0.237 OA
ATOM     79  O   UNL A   1      50.994  26.895  22.423  1.00  0.00    -0.237 OA
ATOM     80  O   UNL A   1      48.666  26.088  22.341  1.00  0.00    -0.744 OA
ENDBRANCH  73  77
ENDBRANCH  46  70
BRANCH  58  81
ATOM     81  C   UNL A   1      45.203  33.558  28.869  1.00  0.00     0.023 A 
ATOM     82  C   UNL A   1      45.852  34.006  30.031  1.00  0.00     0.031 A 
ATOM     83  C   UNL A   1      45.039  34.466  27.807  1.00  0.00     0.131 A 
ATOM     84  C   UNL A   1      46.280  35.339  30.121  1.00  0.00     0.055 A 
ATOM     85  C   UNL A   1      45.514  35.776  27.882  1.00  0.00     0.041 A 
ATOM     86  F   UNL A   1      44.425  34.088  26.674  1.00  0.00    -0.206 F 
ATOM     87  C   UNL A   1      46.129  36.222  29.047  1.00  0.00     0.022 A 
BRANCH  84  88
ATOM     88  S   UNL A   1      46.986  35.927  31.686  1.00  0.00     0.124 S 
ATOM     89  O   UNL A   1      45.981  35.493  32.652  1.00  0.00    -0.237 OA
ATOM     90  O   UNL A   1      48.264  35.225  31.737  1.00  0.00    -0.237 OA
ATOM     91  O   UNL A   1      47.083  37.373  31.497  1.00  0.00    -0.744 OA
ENDBRANCH  84  88
ENDBRANCH  58  81
ENDBRANCH  32  33
ENDBRANCH  25  27
ENDBRANCH  24  25
ENDBRANCH  23  24
ENDBRANCH  22  23
ENDBRANCH  21  22
ENDBRANCH   1  21
TORSDOF 23
ENDMDL
MODEL 3
REMARK VINA RESULT:      -8.9      2.846      8.152
REMARK SMILES CC[NH2+][C@@]1(C(=O)OCCOCCOC(=O)c2ccc(-c3c4nc(c(-c5cc(S(=O)(=O)[O-])ccc5F)c5ccc([nH]5)c(-c5cc(S(=O)(=O)[O-])ccc5F)c5nc(c(-c6cc(S(=O)(=O)[O-])ccc6F)c6ccc3[nH]6)C=C5)C=C4)cc2)CC[C@@H](OCCOC)C1
REMARK SMILES IDX 9 1 8 2 7 3 5 4 6 5 4 6 79 7 87 8 80 9 81 10 3 11 2 14 1 15
REMARK SMILES IDX 82 16 83 17 84 18 85 19 86 20 10 21 11 22 12 23 13 24 14 25
REMARK SMILES IDX 15 26 16 27 17 28 78 29 18 30 77 31 19 32 20 33 21 34 71 35
REMARK SMILES IDX 22 36 76 37 70 38 72 39 23 40 75 41 69 42 68 43 24 45 56 46
REMARK SMILES IDX 36 47 55 48 37 49 40 50 54 51 73 52 38 53 39 54 53 56 74 57
REMARK SMILES IDX 41 58 25 59 26 60 34 61 27 62 33 63 35 64 32 65 28 66 29 67
REMARK SMILES IDX 30 68 31 69 57 70 58 71 66 72 59 73 65 74 67 75 64 76 60 77
REMARK SMILES IDX 61 78 62 79 63 80 42 81 43 82 51 83 44 84 50 85 52 86 49 87
REMARK SMILES IDX 45 88 46 89 47 90 48 91
REMARK H PARENT 3 12 3 13 72 44 40 55
REMARK Flexibility Score: inf
ROOT
ATOM      1  C   UNL A   1      37.454  22.195  24.808  1.00  0.00     0.202 C 
ENDROOT
BRANCH   1   2
ATOM      2  C   UNL A   1      36.335  22.324  23.770  1.00  0.00     0.261 C 
BRANCH   2   3
ATOM      3  O   UNL A   1      35.557  23.519  23.926  1.00  0.00    -0.459 OA
BRANCH   3   4
ATOM      4  C   UNL A   1      34.363  23.527  23.268  1.00  0.00     0.368 C 
ATOM      5  O   UNL A   1      34.252  23.372  22.056  1.00  0.00    -0.245 OA
BRANCH   4   6
ATOM      6  C   UNL A   1      33.157  23.847  24.212  1.00  0.00     0.196 C 
ATOM      7  C   UNL A   1      32.408  25.045  23.611  1.00  0.00     0.084 C 
ATOM      8  C   UNL A   1      33.536  24.402  25.603  1.00  0.00     0.113 C 
ATOM      9  C   UNL A   1      33.255  26.252  24.017  1.00  0.00     0.039 C 
ATOM     10  C   UNL A   1      33.868  25.883  25.377  1.00  0.00     0.125 C 
BRANCH   6  11
ATOM     11  N   UNL A   1      32.317  22.631  24.415  1.00  0.00    -0.332 N 
ATOM     12  H   UNL A   1      31.449  22.916  24.869  1.00  0.00     0.347 HD
ATOM     13  H   UNL A   1      32.174  22.225  23.490  1.00  0.00     0.347 HD
BRANCH  11  14
ATOM     14  C   UNL A   1      32.937  21.585  25.233  1.00  0.00     0.257 C 
ATOM     15  C   UNL A   1      32.630  20.215  24.641  1.00  0.00     0.071 C 
ENDBRANCH  11  14
ENDBRANCH   6  11
BRANCH  10  16
ATOM     16  O   UNL A   1      33.490  26.690  26.494  1.00  0.00    -0.376 OA
BRANCH  16  17
ATOM     17  C   UNL A   1      32.919  27.960  26.204  1.00  0.00     0.189 C 
BRANCH  17  18
ATOM     18  C   UNL A   1      31.909  28.431  27.264  1.00  0.00     0.188 C 
BRANCH  18  19
ATOM     19  O   UNL A   1      31.527  29.802  27.193  1.00  0.00    -0.382 OA
ATOM     20  C   UNL A   1      32.545  30.645  26.653  1.00  0.00     0.195 C 
ENDBRANCH  18  19
ENDBRANCH  17  18
ENDBRANCH  16  17
ENDBRANCH  10  16
ENDBRANCH   4   6
ENDBRANCH   3   4
ENDBRANCH   2   3
ENDBRANCH   1   2
BRANCH   1  21
ATOM     21  O   UNL A   1      37.963  20.892  25.077  1.00  0.00    -0.374 OA
BRANCH  21  22
ATOM     22  C   UNL A   1      39.191  20.794  25.799  1.00  0.00     0.202 C 
BRANCH  22  23
ATOM     23  C   UNL A   1      39.794  19.396  26.001  1.00  0.00     0.261 C 
BRANCH  23  24
ATOM     24  O   UNL A   1      41.067  19.225  25.348  1.00  0.00    -0.460 OA
BRANCH  24  25
ATOM     25  C   UNL A   1      42.144  19.329  26.171  1.00  0.00     0.338 C 
ATOM     26  O   UNL A   1      42.924  18.442  26.474  1.00  0.00    -0.246 OA
BRANCH  25  27
ATOM     27  C   UNL A   1      42.370  20.736  26.547  1.00  0.00     0.060 A 
ATOM     28  C   UNL A   1      42.674  21.650  25.528  1.00  0.00     0.016 A 
ATOM     29  C   UNL A   1      42.398  21.132  27.884  1.00  0.00     0.016 A 
ATOM     30  C   UNL A   1      43.030  22.962  25.848  1.00  0.00     0.010 A 
ATOM     31  C   UNL A   1      42.771  22.443  28.202  1.00  0.00     0.010 A 
ATOM     32  C   UNL A   1      43.110  23.359  27.188  1.00  0.00    -0.014 A 
BRANCH  32  33
ATOM     33  C   UNL A   1      43.649  24.697  27.540  1.00  0.00     0.031 A 
ATOM     34  C   UNL A   1      42.705  25.768  28.012  1.00  0.00     0.074 A 
ATOM     35  C   UNL A   1      44.965  24.953  27.427  1.00  0.00     0.049 A 
ATOM     36  N   UNL A   1      42.945  27.026  28.276  1.00  0.00    -0.248 NA
ATOM     37  C   UNL A   1      41.304  25.368  28.214  1.00  0.00     0.031 C 
ATOM     38  C   UNL A   1      45.983  23.977  27.036  1.00  0.00     0.029 A 
ATOM     39  N   UNL A   1      45.672  26.116  27.616  1.00  0.00    -0.354 N 
ATOM     40  C   UNL A   1      41.726  27.574  28.662  1.00  0.00     0.074 A 
ATOM     41  C   UNL A   1      40.746  26.512  28.585  1.00  0.00     0.031 C 
ATOM     42  C   UNL A   1      47.179  24.589  26.989  1.00  0.00     0.029 A 
ATOM     43  C   UNL A   1      47.007  26.007  27.299  1.00  0.00     0.049 A 
ATOM     44  H   UNL A   1      45.262  26.947  27.947  1.00  0.00     0.167 HD
ATOM     45  C   UNL A   1      41.453  28.847  29.039  1.00  0.00     0.034 A 
ATOM     46  C   UNL A   1      47.967  26.953  27.224  1.00  0.00     0.034 A 
ATOM     47  C   UNL A   1      42.443  29.893  29.113  1.00  0.00     0.049 A 
ATOM     48  C   UNL A   1      47.608  28.386  27.540  1.00  0.00     0.074 A 
ATOM     49  C   UNL A   1      42.284  31.198  29.549  1.00  0.00     0.029 A 
ATOM     50  N   UNL A   1      43.768  29.763  28.721  1.00  0.00    -0.354 N 
ATOM     51  N   UNL A   1      46.458  28.882  27.939  1.00  0.00    -0.248 NA
ATOM     52  C   UNL A   1      48.672  29.389  27.388  1.00  0.00     0.031 C 
ATOM     53  C   UNL A   1      43.490  31.876  29.345  1.00  0.00     0.029 A 
ATOM     54  C   UNL A   1      44.422  30.978  28.849  1.00  0.00     0.049 A 
ATOM     55  H   UNL A   1      44.182  28.931  28.398  1.00  0.00     0.167 HD
ATOM     56  C   UNL A   1      46.674  30.248  28.110  1.00  0.00     0.074 A 
ATOM     57  C   UNL A   1      48.062  30.496  27.784  1.00  0.00     0.031 C 
ATOM     58  C   UNL A   1      45.804  31.211  28.505  1.00  0.00     0.034 A 
BRANCH  45  59
ATOM     59  C   UNL A   1      40.020  29.200  29.341  1.00  0.00     0.023 A 
ATOM     60  C   UNL A   1      39.537  29.305  30.656  1.00  0.00     0.031 A 
ATOM     61  C   UNL A   1      39.127  29.455  28.284  1.00  0.00     0.131 A 
ATOM     62  C   UNL A   1      38.187  29.617  30.879  1.00  0.00     0.055 A 
ATOM     63  C   UNL A   1      37.801  29.822  28.513  1.00  0.00     0.041 A 
ATOM     64  F   UNL A   1      39.532  29.348  27.009  1.00  0.00    -0.206 F 
ATOM     65  C   UNL A   1      37.322  29.898  29.818  1.00  0.00     0.022 A 
BRANCH  62  66
ATOM     66  S   UNL A   1      37.550  29.567  32.577  1.00  0.00     0.124 S 
ATOM     67  O   UNL A   1      38.541  30.368  33.289  1.00  0.00    -0.237 OA
ATOM     68  O   UNL A   1      36.227  30.164  32.436  1.00  0.00    -0.237 OA
ATOM     69  O   UNL A   1      37.559  28.142  32.904  1.00  0.00    -0.744 OA
ENDBRANCH  62  66
ENDBRANCH  45  59
BRANCH  46  70
ATOM     70  C   UNL A   1      49.343  26.610  26.758  1.00  0.00     0.023 A 
ATOM     71  C   UNL A   1      50.421  26.563  27.655  1.00  0.00     0.031 A 
ATOM     72  C   UNL A   1      49.614  26.415  25.391  1.00  0.00     0.131 A 
ATOM     73  C   UNL A   1      51.727  26.383  27.170  1.00  0.00     0.055 A 
ATOM     74  C   UNL A   1      50.907  26.178  24.921  1.00  0.00     0.041 A 
ATOM     75  F   UNL A   1      48.622  26.458  24.487  1.00  0.00    -0.206 F 
ATOM     76  C   UNL A   1      51.975  26.177  25.812  1.00  0.00     0.022 A 
BRANCH  73  77
ATOM     77  S   UNL A   1      53.113  26.540  28.332  1.00  0.00     0.124 S 
ATOM     78  O   UNL A   1      54.096  25.638  27.743  1.00  0.00    -0.237 OA
ATOM     79  O   UNL A   1      53.416  27.965  28.249  1.00  0.00    -0.237 OA
ATOM     80  O   UNL A   1      52.543  26.097  29.602  1.00  0.00    -0.744 OA
ENDBRANCH  73  77
ENDBRANCH  46  70
BRANCH  58  81
ATOM     81  C   UNL A   1      46.344  32.613  28.639  1.00  0.00     0.023 A 
ATOM     82  C   UNL A   1      46.435  33.474  27.532  1.00  0.00     0.031 A 
ATOM     83  C   UNL A   1      46.769  33.092  29.891  1.00  0.00     0.131 A 
ATOM     84  C   UNL A   1      46.978  34.758  27.690  1.00  0.00     0.055 A 
ATOM     85  C   UNL A   1      47.259  34.388  30.053  1.00  0.00     0.041 A 
ATOM     86  F   UNL A   1      46.704  32.309  30.979  1.00  0.00    -0.206 F 
ATOM     87  C   UNL A   1      47.375  35.226  28.947  1.00  0.00     0.022 A 
BRANCH  84  88
ATOM     88  S   UNL A   1      47.215  35.794  26.221  1.00  0.00     0.124 S 
ATOM     89  O   UNL A   1      47.251  34.800  25.152  1.00  0.00    -0.237 OA
ATOM     90  O   UNL A   1      46.037  36.655  26.250  1.00  0.00    -0.237 OA
ATOM     91  O   UNL A   1      48.483  36.474  26.480  1.00  0.00    -0.744 OA
ENDBRANCH  84  88
ENDBRANCH  58  81
ENDBRANCH  32  33
ENDBRANCH  25  27
ENDBRANCH  24  25
ENDBRANCH  23  24
ENDBRANCH  22  23
ENDBRANCH  21  22
ENDBRANCH   1  21
TORSDOF 23
ENDMDL
