MODEL 1
REMARK VINA RESULT:     -11.2      0.000      0.000
REMARK SMILES COc1cc(CC(=O)N[C@@H](CC(=O)OCCOCCOC(=O)c2ccc(-c3c4nc(c(-c5cc(S(=O)(=O)[O-])ccc5F)c5ccc([nH]5)c(-c5cc(S(=O)(=O)[O-])ccc5F)c5nc(c(-c6cc(S(=O)(=O)[O-])ccc6F)c6ccc3[nH]6)C=C5)C=C4)cc2)c2cccs2)ccc1C
REMARK SMILES IDX 16 1 15 2 14 3 12 4 13 5 11 6 10 7 9 8 7 9 8 10 6 12 5 13
REMARK SMILES IDX 3 14 4 15 93 16 92 17 94 18 91 19 2 20 1 21 86 22 87 23
REMARK SMILES IDX 90 24 88 25 89 26 17 27 18 28 19 29 20 30 21 31 22 32 23 33
REMARK SMILES IDX 24 34 85 35 25 36 84 37 26 38 27 39 28 40 78 41 29 42 83 43
REMARK SMILES IDX 77 44 79 45 30 46 82 47 76 48 75 49 31 51 63 52 43 53 62 54
REMARK SMILES IDX 44 55 47 56 61 57 80 58 45 59 46 60 60 62 81 63 48 64 32 65
REMARK SMILES IDX 33 66 41 67 34 68 40 69 42 70 39 71 35 72 36 73 37 74 38 75
REMARK SMILES IDX 64 76 65 77 73 78 66 79 72 80 74 81 71 82 67 83 68 84 69 85
REMARK SMILES IDX 70 86 49 87 50 88 58 89 51 90 57 91 59 92 56 93 52 94 53 95
REMARK SMILES IDX 54 96 55 97
REMARK H PARENT 9 11 79 50 47 61
REMARK Flexibility Score: inf
ROOT
ATOM      1  C   UNL A   1      35.449  21.245  25.735  1.00  0.00     0.202 C 
ENDROOT
BRANCH   1   2
ATOM      2  C   UNL A   1      34.356  22.191  25.405  1.00  0.00     0.261 C 
BRANCH   2   3
ATOM      3  O   UNL A   1      33.050  21.675  25.708  1.00  0.00    -0.463 OA
BRANCH   3   4
ATOM      4  C   UNL A   1      32.330  20.904  24.847  1.00  0.00     0.308 C 
ATOM      5  O   UNL A   1      32.146  19.708  24.901  1.00  0.00    -0.252 OA
BRANCH   4   6
ATOM      6  C   UNL A   1      31.817  21.812  23.757  1.00  0.00     0.153 C 
BRANCH   6   7
ATOM      7  C   UNL A   1      32.015  23.297  24.142  1.00  0.00     0.133 C 
BRANCH   7   8
ATOM      8  N   UNL A   1      30.975  23.777  25.070  1.00  0.00    -0.348 N 
ATOM      9  C   UNL A   1      31.125  24.355  26.295  1.00  0.00     0.224 C 
ATOM     10  O   UNL A   1      30.356  24.099  27.220  1.00  0.00    -0.275 OA
ATOM     11  H   UNL A   1      30.046  23.665  24.763  1.00  0.00     0.164 HD
BRANCH   9  12
ATOM     12  C   UNL A   1      32.295  25.275  26.526  1.00  0.00     0.135 C 
BRANCH  12  13
ATOM     13  C   UNL A   1      31.838  26.705  26.442  1.00  0.00    -0.035 A 
ATOM     14  C   UNL A   1      31.382  28.620  25.026  1.00  0.00     0.122 A 
ATOM     15  C   UNL A   1      31.488  27.241  25.199  1.00  0.00     0.051 A 
ATOM     16  C   UNL A   1      31.575  29.468  26.129  1.00  0.00    -0.009 A 
ATOM     17  C   UNL A   1      31.816  28.915  27.397  1.00  0.00     0.007 A 
ATOM     18  C   UNL A   1      31.538  30.964  26.013  1.00  0.00     0.048 C 
ATOM     19  C   UNL A   1      31.947  27.543  27.555  1.00  0.00     0.005 A 
BRANCH  14  20
ATOM     20  O   UNL A   1      31.176  29.212  23.809  1.00  0.00    -0.496 OA
ATOM     21  C   UNL A   1      29.903  29.015  23.210  1.00  0.00     0.278 C 
ENDBRANCH  14  20
ENDBRANCH  12  13
ENDBRANCH   9  12
ENDBRANCH   7   8
BRANCH   7  22
ATOM     22  C   UNL A   1      32.121  24.236  22.952  1.00  0.00     0.027 A 
ATOM     23  C   UNL A   1      31.282  25.274  22.586  1.00  0.00     0.017 A 
ATOM     24  S   UNL A   1      33.470  24.148  21.882  1.00  0.00    -0.147 S 
ATOM     25  C   UNL A   1      31.700  25.934  21.395  1.00  0.00     0.012 A 
ATOM     26  C   UNL A   1      32.858  25.392  20.886  1.00  0.00     0.065 A 
ENDBRANCH   7  22
ENDBRANCH   6   7
ENDBRANCH   4   6
ENDBRANCH   3   4
ENDBRANCH   2   3
ENDBRANCH   1   2
BRANCH   1  27
ATOM     27  O   UNL A   1      36.581  22.097  25.809  1.00  0.00    -0.374 OA
BRANCH  27  28
ATOM     28  C   UNL A   1      37.648  21.811  24.953  1.00  0.00     0.202 C 
BRANCH  28  29
ATOM     29  C   UNL A   1      38.884  21.317  25.692  1.00  0.00     0.261 C 
BRANCH  29  30
ATOM     30  O   UNL A   1      39.288  22.267  26.705  1.00  0.00    -0.460 OA
BRANCH  30  31
ATOM     31  C   UNL A   1      40.335  23.078  26.373  1.00  0.00     0.338 C 
ATOM     32  O   UNL A   1      41.396  22.679  25.917  1.00  0.00    -0.246 OA
BRANCH  31  33
ATOM     33  C   UNL A   1      40.056  24.494  26.752  1.00  0.00     0.060 A 
ATOM     34  C   UNL A   1      40.812  25.547  26.201  1.00  0.00     0.016 A 
ATOM     35  C   UNL A   1      39.280  24.717  27.882  1.00  0.00     0.016 A 
ATOM     36  C   UNL A   1      40.929  26.764  26.890  1.00  0.00     0.010 A 
ATOM     37  C   UNL A   1      39.560  25.828  28.645  1.00  0.00     0.010 A 
ATOM     38  C   UNL A   1      40.385  26.858  28.167  1.00  0.00    -0.014 A 
BRANCH  38  39
ATOM     39  C   UNL A   1      40.581  27.944  29.129  1.00  0.00     0.031 A 
ATOM     40  C   UNL A   1      39.564  29.010  29.077  1.00  0.00     0.074 A 
ATOM     41  C   UNL A   1      41.480  27.893  30.146  1.00  0.00     0.049 A 
ATOM     42  N   UNL A   1      39.707  30.155  29.634  1.00  0.00    -0.248 NA
ATOM     43  C   UNL A   1      38.316  28.917  28.316  1.00  0.00     0.031 C 
ATOM     44  C   UNL A   1      41.521  28.639  31.405  1.00  0.00     0.029 A 
ATOM     45  N   UNL A   1      42.633  27.112  30.242  1.00  0.00    -0.354 N 
ATOM     46  C   UNL A   1      38.478  30.764  29.636  1.00  0.00     0.074 A 
ATOM     47  C   UNL A   1      37.711  30.054  28.655  1.00  0.00     0.031 C 
ATOM     48  C   UNL A   1      42.741  28.499  31.971  1.00  0.00     0.029 A 
ATOM     49  C   UNL A   1      43.581  27.768  31.030  1.00  0.00     0.049 A 
ATOM     50  H   UNL A   1      42.758  26.232  29.820  1.00  0.00     0.167 HD
ATOM     51  C   UNL A   1      38.239  31.693  30.600  1.00  0.00     0.034 A 
ATOM     52  C   UNL A   1      44.768  28.114  30.458  1.00  0.00     0.034 A 
ATOM     53  C   UNL A   1      39.485  31.979  31.345  1.00  0.00     0.049 A 
ATOM     54  C   UNL A   1      44.756  29.641  30.308  1.00  0.00     0.074 A 
ATOM     55  C   UNL A   1      39.963  31.718  32.618  1.00  0.00     0.029 A 
ATOM     56  N   UNL A   1      40.603  32.347  30.610  1.00  0.00    -0.354 N 
ATOM     57  N   UNL A   1      43.741  30.388  30.667  1.00  0.00    -0.248 NA
ATOM     58  C   UNL A   1      45.830  30.447  29.742  1.00  0.00     0.031 C 
ATOM     59  C   UNL A   1      41.393  31.890  32.598  1.00  0.00     0.029 A 
ATOM     60  C   UNL A   1      41.776  32.292  31.329  1.00  0.00     0.049 A 
ATOM     61  H   UNL A   1      40.561  32.620  29.665  1.00  0.00     0.167 HD
ATOM     62  C   UNL A   1      43.954  31.698  30.375  1.00  0.00     0.074 A 
ATOM     63  C   UNL A   1      45.281  31.680  29.762  1.00  0.00     0.031 C 
ATOM     64  C   UNL A   1      43.020  32.668  30.648  1.00  0.00     0.034 A 
BRANCH  51  65
ATOM     65  C   UNL A   1      36.870  32.210  30.997  1.00  0.00     0.023 A 
ATOM     66  C   UNL A   1      36.097  32.841  30.005  1.00  0.00     0.031 A 
ATOM     67  C   UNL A   1      36.271  32.185  32.280  1.00  0.00     0.131 A 
ATOM     68  C   UNL A   1      34.846  33.418  30.294  1.00  0.00     0.055 A 
ATOM     69  C   UNL A   1      35.021  32.748  32.567  1.00  0.00     0.041 A 
ATOM     70  F   UNL A   1      36.841  31.627  33.348  1.00  0.00    -0.206 F 
ATOM     71  C   UNL A   1      34.301  33.376  31.572  1.00  0.00     0.022 A 
BRANCH  68  72
ATOM     72  S   UNL A   1      33.938  34.239  28.964  1.00  0.00     0.124 S 
ATOM     73  O   UNL A   1      33.709  33.141  28.029  1.00  0.00    -0.237 OA
ATOM     74  O   UNL A   1      32.766  34.752  29.662  1.00  0.00    -0.237 OA
ATOM     75  O   UNL A   1      34.875  35.261  28.497  1.00  0.00    -0.744 OA
ENDBRANCH  68  72
ENDBRANCH  51  65
BRANCH  52  76
ATOM     76  C   UNL A   1      45.216  27.051  29.449  1.00  0.00     0.023 A 
ATOM     77  C   UNL A   1      45.106  27.282  28.030  1.00  0.00     0.031 A 
ATOM     78  C   UNL A   1      46.130  26.062  29.849  1.00  0.00     0.131 A 
ATOM     79  C   UNL A   1      45.969  26.621  27.109  1.00  0.00     0.055 A 
ATOM     80  C   UNL A   1      46.971  25.410  28.931  1.00  0.00     0.041 A 
ATOM     81  F   UNL A   1      46.331  25.804  31.148  1.00  0.00    -0.206 F 
ATOM     82  C   UNL A   1      46.919  25.709  27.571  1.00  0.00     0.022 A 
BRANCH  79  83
ATOM     83  S   UNL A   1      46.040  27.065  25.307  1.00  0.00     0.124 S 
ATOM     84  O   UNL A   1      46.268  25.781  24.660  1.00  0.00    -0.237 OA
ATOM     85  O   UNL A   1      44.758  27.723  25.051  1.00  0.00    -0.237 OA
ATOM     86  O   UNL A   1      47.175  27.988  25.238  1.00  0.00    -0.744 OA
ENDBRANCH  79  83
ENDBRANCH  52  76
BRANCH  64  87
ATOM     87  C   UNL A   1      43.205  34.108  30.240  1.00  0.00     0.023 A 
ATOM     88  C   UNL A   1      43.040  34.501  28.912  1.00  0.00     0.031 A 
ATOM     89  C   UNL A   1      43.567  35.131  31.151  1.00  0.00     0.131 A 
ATOM     90  C   UNL A   1      43.067  35.858  28.565  1.00  0.00     0.055 A 
ATOM     91  C   UNL A   1      43.724  36.464  30.775  1.00  0.00     0.041 A 
ATOM     92  F   UNL A   1      43.731  34.913  32.462  1.00  0.00    -0.206 F 
ATOM     93  C   UNL A   1      43.436  36.843  29.478  1.00  0.00     0.022 A 
BRANCH  90  94
ATOM     94  S   UNL A   1      42.460  36.311  26.927  1.00  0.00     0.124 S 
ATOM     95  O   UNL A   1      41.107  35.764  26.927  1.00  0.00    -0.237 OA
ATOM     96  O   UNL A   1      42.552  37.768  26.975  1.00  0.00    -0.237 OA
ATOM     97  O   UNL A   1      43.400  35.657  26.020  1.00  0.00    -0.744 OA
ENDBRANCH  90  94
ENDBRANCH  64  87
ENDBRANCH  38  39
ENDBRANCH  31  33
ENDBRANCH  30  31
ENDBRANCH  29  30
ENDBRANCH  28  29
ENDBRANCH  27  28
ENDBRANCH   1  27
TORSDOF 23
ENDMDL
MODEL 2
REMARK VINA RESULT:     -11.1      3.914      9.551
REMARK SMILES COc1cc(CC(=O)N[C@@H](CC(=O)OCCOCCOC(=O)c2ccc(-c3c4nc(c(-c5cc(S(=O)(=O)[O-])ccc5F)c5ccc([nH]5)c(-c5cc(S(=O)(=O)[O-])ccc5F)c5nc(c(-c6cc(S(=O)(=O)[O-])ccc6F)c6ccc3[nH]6)C=C5)C=C4)cc2)c2cccs2)ccc1C
REMARK SMILES IDX 16 1 15 2 14 3 12 4 13 5 11 6 10 7 9 8 7 9 8 10 6 12 5 13
REMARK SMILES IDX 3 14 4 15 93 16 92 17 94 18 91 19 2 20 1 21 86 22 87 23
REMARK SMILES IDX 90 24 88 25 89 26 17 27 18 28 19 29 20 30 21 31 22 32 23 33
REMARK SMILES IDX 24 34 85 35 25 36 84 37 26 38 27 39 28 40 78 41 29 42 83 43
REMARK SMILES IDX 77 44 79 45 30 46 82 47 76 48 75 49 31 51 63 52 43 53 62 54
REMARK SMILES IDX 44 55 47 56 61 57 80 58 45 59 46 60 60 62 81 63 48 64 32 65
REMARK SMILES IDX 33 66 41 67 34 68 40 69 42 70 39 71 35 72 36 73 37 74 38 75
REMARK SMILES IDX 64 76 65 77 73 78 66 79 72 80 74 81 71 82 67 83 68 84 69 85
REMARK SMILES IDX 70 86 49 87 50 88 58 89 51 90 57 91 59 92 56 93 52 94 53 95
REMARK SMILES IDX 54 96 55 97
REMARK H PARENT 9 11 79 50 47 61
REMARK Flexibility Score: inf
ROOT
ATOM      1  C   UNL A   1      34.358  28.637  26.295  1.00  0.00     0.202 C 
ENDROOT
BRANCH   1   2
ATOM      2  C   UNL A   1      34.019  27.249  25.898  1.00  0.00     0.261 C 
BRANCH   2   3
ATOM      3  O   UNL A   1      33.687  27.123  24.506  1.00  0.00    -0.463 OA
BRANCH   3   4
ATOM      4  C   UNL A   1      33.511  28.188  23.677  1.00  0.00     0.308 C 
ATOM      5  O   UNL A   1      34.322  28.684  22.926  1.00  0.00    -0.252 OA
BRANCH   4   6
ATOM      6  C   UNL A   1      32.104  28.689  23.889  1.00  0.00     0.153 C 
BRANCH   6   7
ATOM      7  C   UNL A   1      31.086  27.801  23.136  1.00  0.00     0.133 C 
BRANCH   7   8
ATOM      8  N   UNL A   1      31.649  27.235  21.897  1.00  0.00    -0.348 N 
ATOM      9  C   UNL A   1      32.148  25.985  21.679  1.00  0.00     0.224 C 
ATOM     10  O   UNL A   1      33.137  25.808  20.971  1.00  0.00    -0.275 OA
ATOM     11  H   UNL A   1      31.666  27.841  21.121  1.00  0.00     0.164 HD
BRANCH   9  12
ATOM     12  C   UNL A   1      31.506  24.815  22.375  1.00  0.00     0.135 C 
BRANCH  12  13
ATOM     13  C   UNL A   1      32.550  24.040  23.130  1.00  0.00    -0.035 A 
ATOM     14  C   UNL A   1      33.621  23.603  25.261  1.00  0.00     0.122 A 
ATOM     15  C   UNL A   1      32.511  24.018  24.527  1.00  0.00     0.051 A 
ATOM     16  C   UNL A   1      34.764  23.151  24.582  1.00  0.00    -0.009 A 
ATOM     17  C   UNL A   1      34.755  23.073  23.180  1.00  0.00     0.007 A 
ATOM     18  C   UNL A   1      36.020  22.745  25.298  1.00  0.00     0.048 C 
ATOM     19  C   UNL A   1      33.656  23.514  22.457  1.00  0.00     0.005 A 
BRANCH  14  20
ATOM     20  O   UNL A   1      33.694  23.684  26.626  1.00  0.00    -0.496 OA
ATOM     21  C   UNL A   1      32.976  22.704  27.364  1.00  0.00     0.278 C 
ENDBRANCH  14  20
ENDBRANCH  12  13
ENDBRANCH   9  12
ENDBRANCH   7   8
BRANCH   7  22
ATOM     22  C   UNL A   1      29.765  28.490  22.839  1.00  0.00     0.027 A 
ATOM     23  C   UNL A   1      28.487  28.119  23.218  1.00  0.00     0.017 A 
ATOM     24  S   UNL A   1      29.730  29.989  21.989  1.00  0.00    -0.147 S 
ATOM     25  C   UNL A   1      27.484  29.014  22.744  1.00  0.00     0.012 A 
ATOM     26  C   UNL A   1      28.024  30.056  22.025  1.00  0.00     0.065 A 
ENDBRANCH   7  22
ENDBRANCH   6   7
ENDBRANCH   4   6
ENDBRANCH   3   4
ENDBRANCH   2   3
ENDBRANCH   1   2
BRANCH   1  27
ATOM     27  O   UNL A   1      33.402  28.910  27.306  1.00  0.00    -0.374 OA
BRANCH  27  28
ATOM     28  C   UNL A   1      32.720  30.127  27.221  1.00  0.00     0.202 C 
BRANCH  28  29
ATOM     29  C   UNL A   1      33.647  31.333  27.300  1.00  0.00     0.261 C 
BRANCH  29  30
ATOM     30  O   UNL A   1      34.472  31.267  28.486  1.00  0.00    -0.460 OA
BRANCH  30  31
ATOM     31  C   UNL A   1      35.793  31.561  28.306  1.00  0.00     0.338 C 
ATOM     32  O   UNL A   1      36.214  32.658  27.969  1.00  0.00    -0.246 OA
BRANCH  31  33
ATOM     33  C   UNL A   1      36.638  30.341  28.456  1.00  0.00     0.060 A 
ATOM     34  C   UNL A   1      36.725  29.676  29.695  1.00  0.00     0.016 A 
ATOM     35  C   UNL A   1      37.572  30.078  27.463  1.00  0.00     0.016 A 
ATOM     36  C   UNL A   1      37.850  28.892  29.994  1.00  0.00     0.010 A 
ATOM     37  C   UNL A   1      38.755  29.481  27.835  1.00  0.00     0.010 A 
ATOM     38  C   UNL A   1      38.913  28.887  29.097  1.00  0.00    -0.014 A 
BRANCH  38  39
ATOM     39  C   UNL A   1      40.246  28.322  29.315  1.00  0.00     0.031 A 
ATOM     40  C   UNL A   1      40.365  26.881  29.028  1.00  0.00     0.074 A 
ATOM     41  C   UNL A   1      41.352  29.076  29.543  1.00  0.00     0.049 A 
ATOM     42  N   UNL A   1      41.352  26.160  29.409  1.00  0.00    -0.248 NA
ATOM     43  C   UNL A   1      39.332  26.093  28.350  1.00  0.00     0.031 C 
ATOM     44  C   UNL A   1      42.768  28.752  29.357  1.00  0.00     0.029 A 
ATOM     45  N   UNL A   1      41.424  30.377  30.045  1.00  0.00    -0.354 N 
ATOM     46  C   UNL A   1      41.277  24.972  28.727  1.00  0.00     0.074 A 
ATOM     47  C   UNL A   1      39.930  24.907  28.243  1.00  0.00     0.031 C 
ATOM     48  C   UNL A   1      43.527  29.672  29.993  1.00  0.00     0.029 A 
ATOM     49  C   UNL A   1      42.628  30.552  30.731  1.00  0.00     0.049 A 
ATOM     50  H   UNL A   1      40.731  31.067  29.932  1.00  0.00     0.167 HD
ATOM     51  C   UNL A   1      42.435  24.284  28.535  1.00  0.00     0.034 A 
ATOM     52  C   UNL A   1      42.578  30.843  32.060  1.00  0.00     0.034 A 
ATOM     53  C   UNL A   1      43.530  24.915  29.304  1.00  0.00     0.049 A 
ATOM     54  C   UNL A   1      43.059  29.590  32.805  1.00  0.00     0.074 A 
ATOM     55  C   UNL A   1      44.666  25.646  28.999  1.00  0.00     0.029 A 
ATOM     56  N   UNL A   1      43.327  25.118  30.662  1.00  0.00    -0.354 N 
ATOM     57  N   UNL A   1      43.409  28.485  32.194  1.00  0.00    -0.248 NA
ATOM     58  C   UNL A   1      43.171  29.451  34.251  1.00  0.00     0.031 C 
ATOM     59  C   UNL A   1      45.093  26.323  30.196  1.00  0.00     0.029 A 
ATOM     60  C   UNL A   1      44.244  25.974  31.233  1.00  0.00     0.049 A 
ATOM     61  H   UNL A   1      42.599  24.692  31.169  1.00  0.00     0.167 HD
ATOM     62  C   UNL A   1      43.739  27.506  33.078  1.00  0.00     0.074 A 
ATOM     63  C   UNL A   1      43.542  28.160  34.370  1.00  0.00     0.031 C 
ATOM     64  C   UNL A   1      44.125  26.253  32.669  1.00  0.00     0.034 A 
BRANCH  51  65
ATOM     65  C   UNL A   1      42.632  23.167  27.529  1.00  0.00     0.023 A 
ATOM     66  C   UNL A   1      43.626  23.342  26.548  1.00  0.00     0.031 A 
ATOM     67  C   UNL A   1      41.897  21.963  27.413  1.00  0.00     0.131 A 
ATOM     68  C   UNL A   1      43.834  22.394  25.527  1.00  0.00     0.055 A 
ATOM     69  C   UNL A   1      42.111  21.014  26.405  1.00  0.00     0.041 A 
ATOM     70  F   UNL A   1      40.920  21.612  28.250  1.00  0.00    -0.206 F 
ATOM     71  C   UNL A   1      43.082  21.228  25.449  1.00  0.00     0.022 A 
BRANCH  68  72
ATOM     72  S   UNL A   1      45.110  22.718  24.288  1.00  0.00     0.124 S 
ATOM     73  O   UNL A   1      46.269  22.040  24.861  1.00  0.00    -0.237 OA
ATOM     74  O   UNL A   1      44.535  22.119  23.090  1.00  0.00    -0.237 OA
ATOM     75  O   UNL A   1      45.198  24.178  24.268  1.00  0.00    -0.744 OA
ENDBRANCH  68  72
ENDBRANCH  51  65
BRANCH  52  76
ATOM     76  C   UNL A   1      41.382  31.748  32.374  1.00  0.00     0.023 A 
ATOM     77  C   UNL A   1      40.281  31.273  33.175  1.00  0.00     0.031 A 
ATOM     78  C   UNL A   1      41.530  33.143  32.287  1.00  0.00     0.131 A 
ATOM     79  C   UNL A   1      39.474  32.176  33.925  1.00  0.00     0.055 A 
ATOM     80  C   UNL A   1      40.722  34.025  33.025  1.00  0.00     0.041 A 
ATOM     81  F   UNL A   1      42.547  33.678  31.598  1.00  0.00    -0.206 F 
ATOM     82  C   UNL A   1      39.721  33.548  33.867  1.00  0.00     0.022 A 
BRANCH  79  83
ATOM     83  S   UNL A   1      38.212  31.602  35.161  1.00  0.00     0.124 S 
ATOM     84  O   UNL A   1      38.796  31.994  36.436  1.00  0.00    -0.237 OA
ATOM     85  O   UNL A   1      36.981  32.282  34.755  1.00  0.00    -0.237 OA
ATOM     86  O   UNL A   1      38.162  30.156  34.936  1.00  0.00    -0.744 OA
ENDBRANCH  79  83
ENDBRANCH  52  76
BRANCH  64  87
ATOM     87  C   UNL A   1      44.397  25.132  33.639  1.00  0.00     0.023 A 
ATOM     88  C   UNL A   1      45.649  24.519  33.692  1.00  0.00     0.031 A 
ATOM     89  C   UNL A   1      43.419  24.624  34.530  1.00  0.00     0.131 A 
ATOM     90  C   UNL A   1      45.939  23.583  34.693  1.00  0.00     0.055 A 
ATOM     91  C   UNL A   1      43.674  23.597  35.437  1.00  0.00     0.041 A 
ATOM     92  F   UNL A   1      42.181  25.130  34.616  1.00  0.00    -0.206 F 
ATOM     93  C   UNL A   1      44.956  23.093  35.550  1.00  0.00     0.022 A 
BRANCH  90  94
ATOM     94  S   UNL A   1      47.670  23.138  34.939  1.00  0.00     0.124 S 
ATOM     95  O   UNL A   1      47.812  23.199  36.390  1.00  0.00    -0.237 OA
ATOM     96  O   UNL A   1      47.713  21.799  34.356  1.00  0.00    -0.237 OA
ATOM     97  O   UNL A   1      48.397  24.164  34.195  1.00  0.00    -0.744 OA
ENDBRANCH  90  94
ENDBRANCH  64  87
ENDBRANCH  38  39
ENDBRANCH  31  33
ENDBRANCH  30  31
ENDBRANCH  29  30
ENDBRANCH  28  29
ENDBRANCH  27  28
ENDBRANCH   1  27
TORSDOF 23
ENDMDL
MODEL 3
REMARK VINA RESULT:     -11.0      3.618      9.482
REMARK SMILES COc1cc(CC(=O)N[C@@H](CC(=O)OCCOCCOC(=O)c2ccc(-c3c4nc(c(-c5cc(S(=O)(=O)[O-])ccc5F)c5ccc([nH]5)c(-c5cc(S(=O)(=O)[O-])ccc5F)c5nc(c(-c6cc(S(=O)(=O)[O-])ccc6F)c6ccc3[nH]6)C=C5)C=C4)cc2)c2cccs2)ccc1C
REMARK SMILES IDX 16 1 15 2 14 3 12 4 13 5 11 6 10 7 9 8 7 9 8 10 6 12 5 13
REMARK SMILES IDX 3 14 4 15 93 16 92 17 94 18 91 19 2 20 1 21 86 22 87 23
REMARK SMILES IDX 90 24 88 25 89 26 17 27 18 28 19 29 20 30 21 31 22 32 23 33
REMARK SMILES IDX 24 34 85 35 25 36 84 37 26 38 27 39 28 40 78 41 29 42 83 43
REMARK SMILES IDX 77 44 79 45 30 46 82 47 76 48 75 49 31 51 63 52 43 53 62 54
REMARK SMILES IDX 44 55 47 56 61 57 80 58 45 59 46 60 60 62 81 63 48 64 32 65
REMARK SMILES IDX 33 66 41 67 34 68 40 69 42 70 39 71 35 72 36 73 37 74 38 75
REMARK SMILES IDX 64 76 65 77 73 78 66 79 72 80 74 81 71 82 67 83 68 84 69 85
REMARK SMILES IDX 70 86 49 87 50 88 58 89 51 90 57 91 59 92 56 93 52 94 53 95
REMARK SMILES IDX 54 96 55 97
REMARK H PARENT 9 11 79 50 47 61
REMARK Flexibility Score: inf
ROOT
ATOM      1  C   UNL A   1      31.796  28.903  25.024  1.00  0.00     0.202 C 
ENDROOT
BRANCH   1   2
ATOM      2  C   UNL A   1      32.612  28.435  23.879  1.00  0.00     0.261 C 
BRANCH   2   3
ATOM      3  O   UNL A   1      31.844  27.748  22.879  1.00  0.00    -0.463 OA
BRANCH   3   4
ATOM      4  C   UNL A   1      30.483  27.775  22.828  1.00  0.00     0.308 C 
ATOM      5  O   UNL A   1      29.772  28.709  22.528  1.00  0.00    -0.252 OA
BRANCH   4   6
ATOM      6  C   UNL A   1      29.994  26.416  23.261  1.00  0.00     0.153 C 
BRANCH   6   7
ATOM      7  C   UNL A   1      31.175  25.526  23.713  1.00  0.00     0.133 C 
BRANCH   7   8
ATOM      8  N   UNL A   1      31.802  24.814  22.584  1.00  0.00    -0.348 N 
ATOM      9  C   UNL A   1      33.092  24.873  22.149  1.00  0.00     0.224 C 
ATOM     10  O   UNL A   1      33.362  24.857  20.949  1.00  0.00    -0.275 OA
ATOM     11  H   UNL A   1      31.209  24.214  22.077  1.00  0.00     0.164 HD
BRANCH   9  12
ATOM     12  C   UNL A   1      34.195  25.026  23.163  1.00  0.00     0.135 C 
BRANCH  12  13
ATOM     13  C   UNL A   1      34.813  23.685  23.443  1.00  0.00    -0.035 A 
ATOM     14  C   UNL A   1      34.776  21.662  24.779  1.00  0.00     0.122 A 
ATOM     15  C   UNL A   1      34.118  22.760  24.229  1.00  0.00     0.051 A 
ATOM     16  C   UNL A   1      36.135  21.459  24.490  1.00  0.00    -0.009 A 
ATOM     17  C   UNL A   1      36.798  22.331  23.611  1.00  0.00     0.007 A 
ATOM     18  C   UNL A   1      36.929  20.336  25.092  1.00  0.00     0.048 C 
ATOM     19  C   UNL A   1      36.142  23.437  23.090  1.00  0.00     0.005 A 
BRANCH  14  20
ATOM     20  O   UNL A   1      34.187  20.797  25.663  1.00  0.00    -0.496 OA
ATOM     21  C   UNL A   1      33.933  21.294  26.970  1.00  0.00     0.278 C 
ENDBRANCH  14  20
ENDBRANCH  12  13
ENDBRANCH   9  12
ENDBRANCH   7   8
BRANCH   7  22
ATOM     22  C   UNL A   1      30.821  24.541  24.815  1.00  0.00     0.027 A 
ATOM     23  C   UNL A   1      30.983  23.167  24.837  1.00  0.00     0.017 A 
ATOM     24  S   UNL A   1      30.200  25.098  26.324  1.00  0.00    -0.147 S 
ATOM     25  C   UNL A   1      30.525  22.572  26.048  1.00  0.00     0.012 A 
ATOM     26  C   UNL A   1      30.036  23.510  26.929  1.00  0.00     0.065 A 
ENDBRANCH   7  22
ENDBRANCH   6   7
ENDBRANCH   4   6
ENDBRANCH   3   4
ENDBRANCH   2   3
ENDBRANCH   1   2
BRANCH   1  27
ATOM     27  O   UNL A   1      32.586  29.953  25.558  1.00  0.00    -0.374 OA
BRANCH  27  28
ATOM     28  C   UNL A   1      31.978  30.792  26.495  1.00  0.00     0.202 C 
BRANCH  28  29
ATOM     29  C   UNL A   1      32.975  31.433  27.451  1.00  0.00     0.261 C 
BRANCH  29  30
ATOM     30  O   UNL A   1      34.253  30.758  27.385  1.00  0.00    -0.460 OA
BRANCH  30  31
ATOM     31  C   UNL A   1      35.117  31.025  28.407  1.00  0.00     0.338 C 
ATOM     32  O   UNL A   1      35.107  32.055  29.065  1.00  0.00    -0.246 OA
BRANCH  31  33
ATOM     33  C   UNL A   1      36.146  29.951  28.532  1.00  0.00     0.060 A 
ATOM     34  C   UNL A   1      36.542  29.481  29.800  1.00  0.00     0.016 A 
ATOM     35  C   UNL A   1      36.923  29.670  27.416  1.00  0.00     0.016 A 
ATOM     36  C   UNL A   1      37.805  28.891  29.967  1.00  0.00     0.010 A 
ATOM     37  C   UNL A   1      38.226  29.281  27.622  1.00  0.00     0.010 A 
ATOM     38  C   UNL A   1      38.685  28.893  28.891  1.00  0.00    -0.014 A 
BRANCH  38  39
ATOM     39  C   UNL A   1      40.104  28.533  28.914  1.00  0.00     0.031 A 
ATOM     40  C   UNL A   1      40.388  27.107  28.669  1.00  0.00     0.074 A 
ATOM     41  C   UNL A   1      41.110  29.446  28.930  1.00  0.00     0.049 A 
ATOM     42  N   UNL A   1      41.517  26.555  28.916  1.00  0.00    -0.248 NA
ATOM     43  C   UNL A   1      39.390  26.142  28.199  1.00  0.00     0.031 C 
ATOM     44  C   UNL A   1      42.512  29.309  28.532  1.00  0.00     0.029 A 
ATOM     45  N   UNL A   1      41.066  30.773  29.361  1.00  0.00    -0.354 N 
ATOM     46  C   UNL A   1      41.514  25.327  28.303  1.00  0.00     0.074 A 
ATOM     47  C   UNL A   1      40.132  25.046  28.045  1.00  0.00     0.031 C 
ATOM     48  C   UNL A   1      43.217  30.364  29.000  1.00  0.00     0.029 A 
ATOM     49  C   UNL A   1      42.322  31.155  29.837  1.00  0.00     0.049 A 
ATOM     50  H   UNL A   1      40.270  31.352  29.334  1.00  0.00     0.167 HD
ATOM     51  C   UNL A   1      42.716  24.795  27.956  1.00  0.00     0.034 A 
ATOM     52  C   UNL A   1      42.434  31.520  31.144  1.00  0.00     0.034 A 
ATOM     53  C   UNL A   1      43.812  25.619  28.512  1.00  0.00     0.049 A 
ATOM     54  C   UNL A   1      43.203  30.396  31.851  1.00  0.00     0.074 A 
ATOM     55  C   UNL A   1      44.768  26.480  27.999  1.00  0.00     0.029 A 
ATOM     56  N   UNL A   1      43.792  25.877  29.876  1.00  0.00    -0.354 N 
ATOM     57  N   UNL A   1      43.614  29.313  31.238  1.00  0.00    -0.248 NA
ATOM     58  C   UNL A   1      43.554  30.365  33.265  1.00  0.00     0.031 C 
ATOM     59  C   UNL A   1      45.270  27.283  29.084  1.00  0.00     0.029 A 
ATOM     60  C   UNL A   1      44.650  26.886  30.257  1.00  0.00     0.049 A 
ATOM     61  H   UNL A   1      43.221  25.387  30.510  1.00  0.00     0.167 HD
ATOM     62  C   UNL A   1      44.214  28.447  32.096  1.00  0.00     0.074 A 
ATOM     63  C   UNL A   1      44.125  29.147  33.376  1.00  0.00     0.031 C 
ATOM     64  C   UNL A   1      44.713  27.236  31.681  1.00  0.00     0.034 A 
BRANCH  51  65
ATOM     65  C   UNL A   1      42.919  23.656  26.977  1.00  0.00     0.023 A 
ATOM     66  C   UNL A   1      42.278  22.434  27.255  1.00  0.00     0.031 A 
ATOM     67  C   UNL A   1      43.730  23.642  25.816  1.00  0.00     0.131 A 
ATOM     68  C   UNL A   1      42.464  21.298  26.446  1.00  0.00     0.055 A 
ATOM     69  C   UNL A   1      43.907  22.515  25.004  1.00  0.00     0.041 A 
ATOM     70  F   UNL A   1      44.412  24.702  25.382  1.00  0.00    -0.206 F 
ATOM     71  C   UNL A   1      43.277  21.329  25.319  1.00  0.00     0.022 A 
BRANCH  68  72
ATOM     72  S   UNL A   1      41.627  19.761  26.899  1.00  0.00     0.124 S 
ATOM     73  O   UNL A   1      40.936  20.141  28.128  1.00  0.00    -0.237 OA
ATOM     74  O   UNL A   1      40.788  19.511  25.733  1.00  0.00    -0.237 OA
ATOM     75  O   UNL A   1      42.730  18.816  27.079  1.00  0.00    -0.744 OA
ENDBRANCH  68  72
ENDBRANCH  51  65
BRANCH  52  76
ATOM     76  C   UNL A   1      41.181  32.269  31.610  1.00  0.00     0.023 A 
ATOM     77  C   UNL A   1      40.248  31.659  32.525  1.00  0.00     0.031 A 
ATOM     78  C   UNL A   1      41.145  33.671  31.529  1.00  0.00     0.131 A 
ATOM     79  C   UNL A   1      39.430  32.453  33.378  1.00  0.00     0.055 A 
ATOM     80  C   UNL A   1      40.327  34.444  32.369  1.00  0.00     0.041 A 
ATOM     81  F   UNL A   1      42.000  34.330  30.735  1.00  0.00    -0.206 F 
ATOM     82  C   UNL A   1      39.497  33.846  33.314  1.00  0.00     0.022 A 
BRANCH  79  83
ATOM     83  S   UNL A   1      38.402  31.725  34.743  1.00  0.00     0.124 S 
ATOM     84  O   UNL A   1      37.271  31.147  34.031  1.00  0.00    -0.237 OA
ATOM     85  O   UNL A   1      39.310  30.796  35.417  1.00  0.00    -0.237 OA
ATOM     86  O   UNL A   1      38.069  32.890  35.565  1.00  0.00    -0.744 OA
ENDBRANCH  79  83
ENDBRANCH  52  76
BRANCH  64  87
ATOM     87  C   UNL A   1      45.292  26.227  32.640  1.00  0.00     0.023 A 
ATOM     88  C   UNL A   1      44.461  25.421  33.419  1.00  0.00     0.031 A 
ATOM     89  C   UNL A   1      46.685  26.044  32.825  1.00  0.00     0.131 A 
ATOM     90  C   UNL A   1      44.999  24.388  34.195  1.00  0.00     0.055 A 
ATOM     91  C   UNL A   1      47.219  25.102  33.702  1.00  0.00     0.041 A 
ATOM     92  F   UNL A   1      47.606  26.722  32.128  1.00  0.00    -0.206 F 
ATOM     93  C   UNL A   1      46.373  24.236  34.368  1.00  0.00     0.022 A 
BRANCH  90  94
ATOM     94  S   UNL A   1      43.854  23.156  34.850  1.00  0.00     0.124 S 
ATOM     95  O   UNL A   1      43.023  23.942  35.755  1.00  0.00    -0.237 OA
ATOM     96  O   UNL A   1      43.197  22.692  33.630  1.00  0.00    -0.237 OA
ATOM     97  O   UNL A   1      44.731  22.181  35.493  1.00  0.00    -0.744 OA
ENDBRANCH  90  94
ENDBRANCH  64  87
ENDBRANCH  38  39
ENDBRANCH  31  33
ENDBRANCH  30  31
ENDBRANCH  29  30
ENDBRANCH  28  29
ENDBRANCH  27  28
ENDBRANCH   1  27
TORSDOF 23
ENDMDL
