MODEL 1
REMARK VINA RESULT:     -11.4      0.000      0.000
REMARK SMILES Cc1ccc(OCCC(=O)N2C[C@H](O)C[C@@H]2C(=O)OCCOCCOC(=O)c2ccc(-c3c4nc(c(-c5cc(S(=O)(=O)[O-])ccc5F)c5ccc([nH]5)c(-c5cc(S(=O)(=O)[O-])ccc5F)c5nc(c(-c6cc(S(=O)(=O)[O-])ccc6F)c6ccc3[nH]6)C=C5)C=C4)cc2)cc1
REMARK SMILES IDX 21 1 20 2 19 3 17 4 18 5 16 6 11 7 12 8 13 9 15 10 9 11
REMARK SMILES IDX 10 12 8 13 7 14 6 15 5 16 1 17 2 18 3 19 92 20 4 21 91 22
REMARK SMILES IDX 14 23 22 25 23 26 24 27 25 28 26 29 27 30 28 31 29 32 90 33
REMARK SMILES IDX 30 34 89 35 31 36 32 37 33 38 83 39 34 40 88 41 82 42 84 43
REMARK SMILES IDX 35 44 87 45 81 46 80 47 36 49 68 50 48 51 67 52 49 53 52 54
REMARK SMILES IDX 66 55 85 56 50 57 51 58 65 60 86 61 53 62 37 63 38 64 46 65
REMARK SMILES IDX 39 66 45 67 47 68 44 69 40 70 41 71 42 72 43 73 69 74 70 75
REMARK SMILES IDX 78 76 71 77 77 78 79 79 76 80 72 81 73 82 74 83 75 84 54 85
REMARK SMILES IDX 55 86 63 87 56 88 62 89 64 90 61 91 57 92 58 93 59 94 60 95
REMARK H PARENT 14 24 84 48 52 59
REMARK Flexibility Score: inf
ROOT
ATOM      1  C   UNL A   1      33.202  32.182  27.626  1.00  0.00     0.202 C 
ENDROOT
BRANCH   1   2
ATOM      2  C   UNL A   1      32.265  31.348  26.796  1.00  0.00     0.261 C 
BRANCH   2   3
ATOM      3  O   UNL A   1      32.733  30.044  26.416  1.00  0.00    -0.462 OA
BRANCH   3   4
ATOM      4  C   UNL A   1      32.595  29.549  25.150  1.00  0.00     0.329 C 
ATOM      5  O   UNL A   1      33.470  29.447  24.302  1.00  0.00    -0.250 OA
BRANCH   4   6
ATOM      6  C   UNL A   1      31.196  28.926  25.009  1.00  0.00     0.197 C 
ATOM      7  N   UNL A   1      31.286  27.631  24.340  1.00  0.00    -0.326 N 
ATOM      8  C   UNL A   1      31.374  27.835  22.909  1.00  0.00     0.152 C 
ATOM      9  C   UNL A   1      30.543  29.090  22.661  1.00  0.00     0.136 C 
ATOM     10  C   UNL A   1      30.433  29.810  24.017  1.00  0.00     0.070 C 
BRANCH   7  11
ATOM     11  C   UNL A   1      31.549  26.475  25.036  1.00  0.00     0.226 C 
ATOM     12  O   UNL A   1      32.549  25.790  24.815  1.00  0.00    -0.275 OA
BRANCH  11  13
ATOM     13  C   UNL A   1      30.545  26.068  26.090  1.00  0.00     0.141 C 
BRANCH  13  14
ATOM     14  C   UNL A   1      30.393  24.572  26.362  1.00  0.00     0.239 C 
BRANCH  14  15
ATOM     15  O   UNL A   1      31.359  23.944  27.222  1.00  0.00    -0.493 OA
BRANCH  15  16
ATOM     16  C   UNL A   1      32.027  22.835  26.773  1.00  0.00     0.119 A 
ATOM     17  C   UNL A   1      35.079  20.397  25.009  1.00  0.00     0.044 C 
ATOM     18  C   UNL A   1      33.938  21.080  25.706  1.00  0.00    -0.051 A 
ATOM     19  C   UNL A   1      34.097  21.583  27.004  1.00  0.00     0.007 A 
ATOM     20  C   UNL A   1      32.738  21.324  25.031  1.00  0.00     0.007 A 
ATOM     21  C   UNL A   1      33.150  22.471  27.527  1.00  0.00     0.046 A 
ATOM     22  C   UNL A   1      31.772  22.172  25.579  1.00  0.00     0.046 A 
ENDBRANCH  15  16
ENDBRANCH  14  15
ENDBRANCH  13  14
ENDBRANCH  11  13
ENDBRANCH   7  11
BRANCH   9  23
ATOM     23  O   UNL A   1      31.024  29.903  21.606  1.00  0.00    -0.391 OA
ATOM     24  H   UNL A   1      30.740  30.819  21.749  1.00  0.00     0.211 HD
ENDBRANCH   9  23
ENDBRANCH   4   6
ENDBRANCH   3   4
ENDBRANCH   2   3
ENDBRANCH   1   2
BRANCH   1  25
ATOM     25  O   UNL A   1      32.622  33.461  27.796  1.00  0.00    -0.374 OA
BRANCH  25  26
ATOM     26  C   UNL A   1      33.467  34.592  27.887  1.00  0.00     0.202 C 
BRANCH  26  27
ATOM     27  C   UNL A   1      33.132  35.568  29.018  1.00  0.00     0.261 C 
BRANCH  27  28
ATOM     28  O   UNL A   1      32.964  34.875  30.279  1.00  0.00    -0.460 OA
BRANCH  28  29
ATOM     29  C   UNL A   1      34.012  34.910  31.148  1.00  0.00     0.338 C 
ATOM     30  O   UNL A   1      34.355  35.909  31.774  1.00  0.00    -0.246 OA
BRANCH  29  31
ATOM     31  C   UNL A   1      34.764  33.618  31.133  1.00  0.00     0.060 A 
ATOM     32  C   UNL A   1      34.705  32.716  32.215  1.00  0.00     0.016 A 
ATOM     33  C   UNL A   1      35.767  33.480  30.185  1.00  0.00     0.016 A 
ATOM     34  C   UNL A   1      35.747  31.789  32.428  1.00  0.00     0.010 A 
ATOM     35  C   UNL A   1      36.861  32.708  30.507  1.00  0.00     0.010 A 
ATOM     36  C   UNL A   1      36.881  31.855  31.627  1.00  0.00    -0.014 A 
BRANCH  36  37
ATOM     37  C   UNL A   1      38.192  31.207  31.833  1.00  0.00     0.031 A 
ATOM     38  C   UNL A   1      38.392  29.929  31.096  1.00  0.00     0.074 A 
ATOM     39  C   UNL A   1      39.285  31.861  32.319  1.00  0.00     0.049 A 
ATOM     40  N   UNL A   1      39.503  29.298  31.049  1.00  0.00    -0.248 NA
ATOM     41  C   UNL A   1      37.346  29.241  30.333  1.00  0.00     0.031 C 
ATOM     42  C   UNL A   1      40.699  31.629  31.975  1.00  0.00     0.029 A 
ATOM     43  N   UNL A   1      39.385  32.903  33.251  1.00  0.00    -0.354 N 
ATOM     44  C   UNL A   1      39.444  28.385  30.030  1.00  0.00     0.074 A 
ATOM     45  C   UNL A   1      38.054  28.319  29.672  1.00  0.00     0.031 C 
ATOM     46  C   UNL A   1      41.499  32.256  32.853  1.00  0.00     0.029 A 
ATOM     47  C   UNL A   1      40.641  32.800  33.883  1.00  0.00     0.049 A 
ATOM     48  H   UNL A   1      38.699  33.587  33.432  1.00  0.00     0.167 HD
ATOM     49  C   UNL A   1      40.625  27.886  29.578  1.00  0.00     0.034 A 
ATOM     50  C   UNL A   1      40.720  32.595  35.223  1.00  0.00     0.034 A 
ATOM     51  C   UNL A   1      41.708  28.235  30.511  1.00  0.00     0.049 A 
ATOM     52  C   UNL A   1      41.319  31.226  35.457  1.00  0.00     0.074 A 
ATOM     53  C   UNL A   1      42.818  29.059  30.474  1.00  0.00     0.029 A 
ATOM     54  N   UNL A   1      41.535  27.887  31.850  1.00  0.00    -0.354 N 
ATOM     55  N   UNL A   1      41.386  30.310  34.524  1.00  0.00    -0.248 NA
ATOM     56  C   UNL A   1      41.993  30.810  36.678  1.00  0.00     0.031 C 
ATOM     57  C   UNL A   1      43.263  29.248  31.823  1.00  0.00     0.029 A 
ATOM     58  C   UNL A   1      42.452  28.504  32.669  1.00  0.00     0.049 A 
ATOM     59  H   UNL A   1      40.837  27.272  32.171  1.00  0.00     0.167 HD
ATOM     60  C   UNL A   1      42.151  29.259  34.938  1.00  0.00     0.074 A 
ATOM     61  C   UNL A   1      42.479  29.608  36.314  1.00  0.00     0.031 C 
ATOM     62  C   UNL A   1      42.456  28.214  34.105  1.00  0.00     0.034 A 
BRANCH  49  63
ATOM     63  C   UNL A   1      40.852  27.155  28.277  1.00  0.00     0.023 A 
ATOM     64  C   UNL A   1      41.070  25.763  28.326  1.00  0.00     0.031 A 
ATOM     65  C   UNL A   1      40.956  27.733  26.992  1.00  0.00     0.131 A 
ATOM     66  C   UNL A   1      41.361  25.020  27.167  1.00  0.00     0.055 A 
ATOM     67  C   UNL A   1      41.195  26.985  25.831  1.00  0.00     0.041 A 
ATOM     68  F   UNL A   1      40.883  29.052  26.784  1.00  0.00    -0.206 F 
ATOM     69  C   UNL A   1      41.403  25.620  25.913  1.00  0.00     0.022 A 
BRANCH  66  70
ATOM     70  S   UNL A   1      41.725  23.252  27.327  1.00  0.00     0.124 S 
ATOM     71  O   UNL A   1      40.477  22.732  27.878  1.00  0.00    -0.237 OA
ATOM     72  O   UNL A   1      42.036  22.872  25.954  1.00  0.00    -0.237 OA
ATOM     73  O   UNL A   1      42.861  23.223  28.246  1.00  0.00    -0.744 OA
ENDBRANCH  66  70
ENDBRANCH  49  63
BRANCH  50  74
ATOM     74  C   UNL A   1      39.604  33.329  35.917  1.00  0.00     0.023 A 
ATOM     75  C   UNL A   1      38.649  32.520  36.599  1.00  0.00     0.031 A 
ATOM     76  C   UNL A   1      39.818  34.626  36.414  1.00  0.00     0.131 A 
ATOM     77  C   UNL A   1      38.115  32.934  37.837  1.00  0.00     0.055 A 
ATOM     78  C   UNL A   1      39.255  35.039  37.633  1.00  0.00     0.041 A 
ATOM     79  F   UNL A   1      40.718  35.436  35.838  1.00  0.00    -0.206 F 
ATOM     80  C   UNL A   1      38.450  34.175  38.376  1.00  0.00     0.022 A 
BRANCH  77  81
ATOM     81  S   UNL A   1      37.150  31.758  38.842  1.00  0.00     0.124 S 
ATOM     82  O   UNL A   1      37.909  31.709  40.085  1.00  0.00    -0.237 OA
ATOM     83  O   UNL A   1      35.843  32.404  38.920  1.00  0.00    -0.237 OA
ATOM     84  O   UNL A   1      37.159  30.529  38.051  1.00  0.00    -0.744 OA
ENDBRANCH  77  81
ENDBRANCH  50  74
BRANCH  62  85
ATOM     85  C   UNL A   1      42.821  26.814  34.565  1.00  0.00     0.023 A 
ATOM     86  C   UNL A   1      43.932  26.123  34.077  1.00  0.00     0.031 A 
ATOM     87  C   UNL A   1      42.121  26.154  35.610  1.00  0.00     0.131 A 
ATOM     88  C   UNL A   1      44.272  24.844  34.542  1.00  0.00     0.055 A 
ATOM     89  C   UNL A   1      42.506  24.915  36.132  1.00  0.00     0.041 A 
ATOM     90  F   UNL A   1      41.045  26.682  36.207  1.00  0.00    -0.206 F 
ATOM     91  C   UNL A   1      43.582  24.240  35.586  1.00  0.00     0.022 A 
BRANCH  88  92
ATOM     92  S   UNL A   1      45.612  23.981  33.692  1.00  0.00     0.124 S 
ATOM     93  O   UNL A   1      44.918  23.403  32.544  1.00  0.00    -0.237 OA
ATOM     94  O   UNL A   1      46.538  25.067  33.386  1.00  0.00    -0.237 OA
ATOM     95  O   UNL A   1      46.086  23.018  34.682  1.00  0.00    -0.744 OA
ENDBRANCH  88  92
ENDBRANCH  62  85
ENDBRANCH  36  37
ENDBRANCH  29  31
ENDBRANCH  28  29
ENDBRANCH  27  28
ENDBRANCH  26  27
ENDBRANCH  25  26
ENDBRANCH   1  25
TORSDOF 23
ENDMDL
MODEL 2
REMARK VINA RESULT:     -11.3      2.635      3.824
REMARK SMILES Cc1ccc(OCCC(=O)N2C[C@H](O)C[C@@H]2C(=O)OCCOCCOC(=O)c2ccc(-c3c4nc(c(-c5cc(S(=O)(=O)[O-])ccc5F)c5ccc([nH]5)c(-c5cc(S(=O)(=O)[O-])ccc5F)c5nc(c(-c6cc(S(=O)(=O)[O-])ccc6F)c6ccc3[nH]6)C=C5)C=C4)cc2)cc1
REMARK SMILES IDX 21 1 20 2 19 3 17 4 18 5 16 6 11 7 12 8 13 9 15 10 9 11
REMARK SMILES IDX 10 12 8 13 7 14 6 15 5 16 1 17 2 18 3 19 92 20 4 21 91 22
REMARK SMILES IDX 14 23 22 25 23 26 24 27 25 28 26 29 27 30 28 31 29 32 90 33
REMARK SMILES IDX 30 34 89 35 31 36 32 37 33 38 83 39 34 40 88 41 82 42 84 43
REMARK SMILES IDX 35 44 87 45 81 46 80 47 36 49 68 50 48 51 67 52 49 53 52 54
REMARK SMILES IDX 66 55 85 56 50 57 51 58 65 60 86 61 53 62 37 63 38 64 46 65
REMARK SMILES IDX 39 66 45 67 47 68 44 69 40 70 41 71 42 72 43 73 69 74 70 75
REMARK SMILES IDX 78 76 71 77 77 78 79 79 76 80 72 81 73 82 74 83 75 84 54 85
REMARK SMILES IDX 55 86 63 87 56 88 62 89 64 90 61 91 57 92 58 93 59 94 60 95
REMARK H PARENT 14 24 84 48 52 59
REMARK Flexibility Score: inf
ROOT
ATOM      1  C   UNL A   1      33.898  28.556  24.168  1.00  0.00     0.202 C 
ENDROOT
BRANCH   1   2
ATOM      2  C   UNL A   1      32.576  28.835  23.507  1.00  0.00     0.261 C 
BRANCH   2   3
ATOM      3  O   UNL A   1      31.847  27.695  23.025  1.00  0.00    -0.462 OA
BRANCH   3   4
ATOM      4  C   UNL A   1      30.780  27.164  23.692  1.00  0.00     0.329 C 
ATOM      5  O   UNL A   1      29.782  27.760  24.076  1.00  0.00    -0.250 OA
BRANCH   4   6
ATOM      6  C   UNL A   1      30.915  25.632  23.709  1.00  0.00     0.197 C 
ATOM      7  N   UNL A   1      31.854  25.220  24.749  1.00  0.00    -0.326 N 
ATOM      8  C   UNL A   1      33.209  25.366  24.258  1.00  0.00     0.152 C 
ATOM      9  C   UNL A   1      33.096  25.069  22.766  1.00  0.00     0.136 C 
ATOM     10  C   UNL A   1      31.613  25.251  22.399  1.00  0.00     0.070 C 
BRANCH   7  11
ATOM     11  C   UNL A   1      31.454  25.034  26.050  1.00  0.00     0.226 C 
ATOM     12  O   UNL A   1      31.440  25.953  26.870  1.00  0.00    -0.275 OA
BRANCH  11  13
ATOM     13  C   UNL A   1      31.036  23.636  26.443  1.00  0.00     0.141 C 
BRANCH  13  14
ATOM     14  C   UNL A   1      32.132  22.702  26.955  1.00  0.00     0.239 C 
BRANCH  14  15
ATOM     15  O   UNL A   1      33.476  23.210  27.013  1.00  0.00    -0.493 OA
BRANCH  15  16
ATOM     16  C   UNL A   1      34.436  22.644  26.217  1.00  0.00     0.119 A 
ATOM     17  C   UNL A   1      37.411  19.899  24.805  1.00  0.00     0.044 C 
ATOM     18  C   UNL A   1      36.365  20.934  25.112  1.00  0.00    -0.051 A 
ATOM     19  C   UNL A   1      35.005  20.628  24.985  1.00  0.00     0.007 A 
ATOM     20  C   UNL A   1      36.732  22.178  25.635  1.00  0.00     0.007 A 
ATOM     21  C   UNL A   1      34.045  21.475  25.552  1.00  0.00     0.046 A 
ATOM     22  C   UNL A   1      35.766  23.044  26.155  1.00  0.00     0.046 A 
ENDBRANCH  15  16
ENDBRANCH  14  15
ENDBRANCH  13  14
ENDBRANCH  11  13
ENDBRANCH   7  11
BRANCH   9  23
ATOM     23  O   UNL A   1      33.992  25.812  21.958  1.00  0.00    -0.391 OA
ATOM     24  H   UNL A   1      33.515  26.540  21.531  1.00  0.00     0.211 HD
ENDBRANCH   9  23
ENDBRANCH   4   6
ENDBRANCH   3   4
ENDBRANCH   2   3
ENDBRANCH   1   2
BRANCH   1  25
ATOM     25  O   UNL A   1      33.814  28.972  25.518  1.00  0.00    -0.374 OA
BRANCH  25  26
ATOM     26  C   UNL A   1      32.603  29.529  25.991  1.00  0.00     0.202 C 
BRANCH  26  27
ATOM     27  C   UNL A   1      32.753  30.557  27.116  1.00  0.00     0.261 C 
BRANCH  27  28
ATOM     28  O   UNL A   1      34.020  31.255  27.026  1.00  0.00    -0.460 OA
BRANCH  28  29
ATOM     29  C   UNL A   1      34.700  31.451  28.190  1.00  0.00     0.338 C 
ATOM     30  O   UNL A   1      34.584  32.450  28.896  1.00  0.00    -0.246 OA
BRANCH  29  31
ATOM     31  C   UNL A   1      35.697  30.362  28.418  1.00  0.00     0.060 A 
ATOM     32  C   UNL A   1      35.879  29.781  29.690  1.00  0.00     0.016 A 
ATOM     33  C   UNL A   1      36.657  30.165  27.437  1.00  0.00     0.016 A 
ATOM     34  C   UNL A   1      37.098  29.150  30.018  1.00  0.00     0.010 A 
ATOM     35  C   UNL A   1      37.900  29.719  27.826  1.00  0.00     0.010 A 
ATOM     36  C   UNL A   1      38.152  29.209  29.114  1.00  0.00    -0.014 A 
BRANCH  36  37
ATOM     37  C   UNL A   1      39.576  28.890  29.339  1.00  0.00     0.031 A 
ATOM     38  C   UNL A   1      39.977  27.500  28.989  1.00  0.00     0.074 A 
ATOM     39  C   UNL A   1      40.546  29.839  29.474  1.00  0.00     0.049 A 
ATOM     40  N   UNL A   1      41.187  27.084  28.994  1.00  0.00    -0.248 NA
ATOM     41  C   UNL A   1      39.043  26.442  28.596  1.00  0.00     0.031 C 
ATOM     42  C   UNL A   1      41.953  29.755  29.042  1.00  0.00     0.029 A 
ATOM     43  N   UNL A   1      40.497  31.120  30.040  1.00  0.00    -0.354 N 
ATOM     44  C   UNL A   1      41.245  25.903  28.301  1.00  0.00     0.074 A 
ATOM     45  C   UNL A   1      39.876  25.494  28.153  1.00  0.00     0.031 C 
ATOM     46  C   UNL A   1      42.667  30.750  29.593  1.00  0.00     0.029 A 
ATOM     47  C   UNL A   1      41.787  31.433  30.515  1.00  0.00     0.049 A 
ATOM     48  H   UNL A   1      39.702  31.699  30.095  1.00  0.00     0.167 HD
ATOM     49  C   UNL A   1      42.470  25.497  27.875  1.00  0.00     0.034 A 
ATOM     50  C   UNL A   1      41.992  31.672  31.837  1.00  0.00     0.034 A 
ATOM     51  C   UNL A   1      43.520  26.297  28.524  1.00  0.00     0.049 A 
ATOM     52  C   UNL A   1      42.865  30.565  32.386  1.00  0.00     0.074 A 
ATOM     53  C   UNL A   1      44.439  27.244  28.112  1.00  0.00     0.029 A 
ATOM     54  N   UNL A   1      43.507  26.359  29.917  1.00  0.00    -0.354 N 
ATOM     55  N   UNL A   1      43.053  29.430  31.762  1.00  0.00    -0.248 NA
ATOM     56  C   UNL A   1      43.686  30.670  33.583  1.00  0.00     0.031 C 
ATOM     57  C   UNL A   1      44.923  27.916  29.281  1.00  0.00     0.029 A 
ATOM     58  C   UNL A   1      44.334  27.345  30.401  1.00  0.00     0.049 A 
ATOM     59  H   UNL A   1      42.968  25.764  30.487  1.00  0.00     0.167 HD
ATOM     60  C   UNL A   1      44.036  28.706  32.368  1.00  0.00     0.074 A 
ATOM     61  C   UNL A   1      44.377  29.516  33.531  1.00  0.00     0.031 C 
ATOM     62  C   UNL A   1      44.489  27.522  31.846  1.00  0.00     0.034 A 
BRANCH  49  63
ATOM     63  C   UNL A   1      42.752  24.447  26.827  1.00  0.00     0.023 A 
ATOM     64  C   UNL A   1      42.188  23.167  27.001  1.00  0.00     0.031 A 
ATOM     65  C   UNL A   1      43.606  24.579  25.710  1.00  0.00     0.131 A 
ATOM     66  C   UNL A   1      42.460  22.113  26.109  1.00  0.00     0.055 A 
ATOM     67  C   UNL A   1      43.837  23.544  24.793  1.00  0.00     0.041 A 
ATOM     68  F   UNL A   1      44.305  25.692  25.461  1.00  0.00    -0.206 F 
ATOM     69  C   UNL A   1      43.266  22.300  24.990  1.00  0.00     0.022 A 
BRANCH  66  70
ATOM     70  S   UNL A   1      41.775  20.472  26.454  1.00  0.00     0.124 S 
ATOM     71  O   UNL A   1      42.348  20.170  27.762  1.00  0.00    -0.237 OA
ATOM     72  O   UNL A   1      40.338  20.719  26.417  1.00  0.00    -0.237 OA
ATOM     73  O   UNL A   1      42.287  19.654  25.356  1.00  0.00    -0.744 OA
ENDBRANCH  66  70
ENDBRANCH  49  63
BRANCH  50  74
ATOM     74  C   UNL A   1      40.799  32.384  32.416  1.00  0.00     0.023 A 
ATOM     75  C   UNL A   1      40.001  31.633  33.328  1.00  0.00     0.031 A 
ATOM     76  C   UNL A   1      40.828  33.778  32.587  1.00  0.00     0.131 A 
ATOM     77  C   UNL A   1      39.450  32.249  34.471  1.00  0.00     0.055 A 
ATOM     78  C   UNL A   1      40.248  34.385  33.712  1.00  0.00     0.041 A 
ATOM     79  F   UNL A   1      41.575  34.548  31.781  1.00  0.00    -0.206 F 
ATOM     80  C   UNL A   1      39.609  33.617  34.686  1.00  0.00     0.022 A 
BRANCH  77  81
ATOM     81  S   UNL A   1      38.708  31.221  35.782  1.00  0.00     0.124 S 
ATOM     82  O   UNL A   1      38.206  30.074  35.035  1.00  0.00    -0.237 OA
ATOM     83  O   UNL A   1      39.843  30.961  36.661  1.00  0.00    -0.237 OA
ATOM     84  O   UNL A   1      37.687  32.085  36.370  1.00  0.00    -0.744 OA
ENDBRANCH  77  81
ENDBRANCH  50  74
BRANCH  62  85
ATOM     85  C   UNL A   1      45.154  26.417  32.649  1.00  0.00     0.023 A 
ATOM     86  C   UNL A   1      44.432  25.494  33.407  1.00  0.00     0.031 A 
ATOM     87  C   UNL A   1      46.553  26.178  32.592  1.00  0.00     0.131 A 
ATOM     88  C   UNL A   1      45.063  24.458  34.112  1.00  0.00     0.055 A 
ATOM     89  C   UNL A   1      47.176  25.099  33.227  1.00  0.00     0.041 A 
ATOM     90  F   UNL A   1      47.393  26.952  31.895  1.00  0.00    -0.206 F 
ATOM     91  C   UNL A   1      46.431  24.236  34.011  1.00  0.00     0.022 A 
BRANCH  88  92
ATOM     92  S   UNL A   1      44.037  23.455  35.208  1.00  0.00     0.124 S 
ATOM     93  O   UNL A   1      42.690  23.799  34.759  1.00  0.00    -0.237 OA
ATOM     94  O   UNL A   1      44.479  22.099  34.894  1.00  0.00    -0.237 OA
ATOM     95  O   UNL A   1      44.389  23.931  36.543  1.00  0.00    -0.744 OA
ENDBRANCH  88  92
ENDBRANCH  62  85
ENDBRANCH  36  37
ENDBRANCH  29  31
ENDBRANCH  28  29
ENDBRANCH  27  28
ENDBRANCH  26  27
ENDBRANCH  25  26
ENDBRANCH   1  25
TORSDOF 23
ENDMDL
MODEL 3
REMARK VINA RESULT:     -11.0      4.212     10.061
REMARK SMILES Cc1ccc(OCCC(=O)N2C[C@H](O)C[C@@H]2C(=O)OCCOCCOC(=O)c2ccc(-c3c4nc(c(-c5cc(S(=O)(=O)[O-])ccc5F)c5ccc([nH]5)c(-c5cc(S(=O)(=O)[O-])ccc5F)c5nc(c(-c6cc(S(=O)(=O)[O-])ccc6F)c6ccc3[nH]6)C=C5)C=C4)cc2)cc1
REMARK SMILES IDX 21 1 20 2 19 3 17 4 18 5 16 6 11 7 12 8 13 9 15 10 9 11
REMARK SMILES IDX 10 12 8 13 7 14 6 15 5 16 1 17 2 18 3 19 92 20 4 21 91 22
REMARK SMILES IDX 14 23 22 25 23 26 24 27 25 28 26 29 27 30 28 31 29 32 90 33
REMARK SMILES IDX 30 34 89 35 31 36 32 37 33 38 83 39 34 40 88 41 82 42 84 43
REMARK SMILES IDX 35 44 87 45 81 46 80 47 36 49 68 50 48 51 67 52 49 53 52 54
REMARK SMILES IDX 66 55 85 56 50 57 51 58 65 60 86 61 53 62 37 63 38 64 46 65
REMARK SMILES IDX 39 66 45 67 47 68 44 69 40 70 41 71 42 72 43 73 69 74 70 75
REMARK SMILES IDX 78 76 71 77 77 78 79 79 76 80 72 81 73 82 74 83 75 84 54 85
REMARK SMILES IDX 55 86 63 87 56 88 62 89 64 90 61 91 57 92 58 93 59 94 60 95
REMARK H PARENT 14 24 84 48 52 59
REMARK Flexibility Score: inf
ROOT
ATOM      1  C   UNL A   1      34.959  21.115  25.981  1.00  0.00     0.202 C 
ENDROOT
BRANCH   1   2
ATOM      2  C   UNL A   1      34.104  22.230  25.445  1.00  0.00     0.261 C 
BRANCH   2   3
ATOM      3  O   UNL A   1      33.690  22.119  24.074  1.00  0.00    -0.462 OA
BRANCH   3   4
ATOM      4  C   UNL A   1      34.065  23.014  23.113  1.00  0.00     0.329 C 
ATOM      5  O   UNL A   1      35.201  23.395  22.867  1.00  0.00    -0.250 OA
BRANCH   4   6
ATOM      6  C   UNL A   1      32.852  23.323  22.220  1.00  0.00     0.197 C 
ATOM      7  N   UNL A   1      32.469  24.727  22.358  1.00  0.00    -0.326 N 
ATOM      8  C   UNL A   1      31.671  24.892  23.555  1.00  0.00     0.152 C 
ATOM      9  C   UNL A   1      30.905  23.577  23.674  1.00  0.00     0.136 C 
ATOM     10  C   UNL A   1      31.671  22.552  22.821  1.00  0.00     0.070 C 
BRANCH   7  11
ATOM     11  C   UNL A   1      33.064  25.713  21.609  1.00  0.00     0.226 C 
ATOM     12  O   UNL A   1      32.998  25.733  20.379  1.00  0.00    -0.275 OA
BRANCH  11  13
ATOM     13  C   UNL A   1      33.823  26.781  22.363  1.00  0.00     0.141 C 
BRANCH  13  14
ATOM     14  C   UNL A   1      33.165  28.156  22.469  1.00  0.00     0.239 C 
BRANCH  14  15
ATOM     15  O   UNL A   1      32.155  28.344  23.475  1.00  0.00    -0.493 OA
BRANCH  15  16
ATOM     16  C   UNL A   1      32.542  28.574  24.770  1.00  0.00     0.119 A 
ATOM     17  C   UNL A   1      34.465  30.372  28.152  1.00  0.00     0.044 C 
ATOM     18  C   UNL A   1      33.671  29.649  27.101  1.00  0.00    -0.051 A 
ATOM     19  C   UNL A   1      32.535  30.243  26.536  1.00  0.00     0.007 A 
ATOM     20  C   UNL A   1      34.118  28.427  26.591  1.00  0.00     0.007 A 
ATOM     21  C   UNL A   1      31.984  29.713  25.363  1.00  0.00     0.046 A 
ATOM     22  C   UNL A   1      33.532  27.874  25.449  1.00  0.00     0.046 A 
ENDBRANCH  15  16
ENDBRANCH  14  15
ENDBRANCH  13  14
ENDBRANCH  11  13
ENDBRANCH   7  11
BRANCH   9  23
ATOM     23  O   UNL A   1      30.668  23.165  25.009  1.00  0.00    -0.391 OA
ATOM     24  H   UNL A   1      30.776  22.204  25.074  1.00  0.00     0.211 HD
ENDBRANCH   9  23
ENDBRANCH   4   6
ENDBRANCH   3   4
ENDBRANCH   2   3
ENDBRANCH   1   2
BRANCH   1  25
ATOM     25  O   UNL A   1      36.313  21.432  25.720  1.00  0.00    -0.374 OA
BRANCH  25  26
ATOM     26  C   UNL A   1      36.729  22.782  25.791  1.00  0.00     0.202 C 
BRANCH  26  27
ATOM     27  C   UNL A   1      38.213  23.024  25.502  1.00  0.00     0.261 C 
BRANCH  27  28
ATOM     28  O   UNL A   1      39.047  22.524  26.577  1.00  0.00    -0.460 OA
BRANCH  28  29
ATOM     29  C   UNL A   1      40.210  23.191  26.817  1.00  0.00     0.338 C 
ATOM     30  O   UNL A   1      41.299  22.645  26.968  1.00  0.00    -0.246 OA
BRANCH  29  31
ATOM     31  C   UNL A   1      39.960  24.653  27.005  1.00  0.00     0.060 A 
ATOM     32  C   UNL A   1      40.593  25.620  26.197  1.00  0.00     0.016 A 
ATOM     33  C   UNL A   1      39.355  25.046  28.189  1.00  0.00     0.016 A 
ATOM     34  C   UNL A   1      40.757  26.942  26.664  1.00  0.00     0.010 A 
ATOM     35  C   UNL A   1      39.686  26.276  28.709  1.00  0.00     0.010 A 
ATOM     36  C   UNL A   1      40.392  27.245  27.970  1.00  0.00    -0.014 A 
BRANCH  36  37
ATOM     37  C   UNL A   1      40.726  28.444  28.764  1.00  0.00     0.031 A 
ATOM     38  C   UNL A   1      39.699  29.522  28.748  1.00  0.00     0.074 A 
ATOM     39  C   UNL A   1      41.675  28.457  29.743  1.00  0.00     0.049 A 
ATOM     40  N   UNL A   1      39.755  30.572  29.476  1.00  0.00    -0.248 NA
ATOM     41  C   UNL A   1      38.501  29.512  27.904  1.00  0.00     0.031 C 
ATOM     42  C   UNL A   1      41.673  29.245  30.988  1.00  0.00     0.029 A 
ATOM     43  N   UNL A   1      42.884  27.756  29.851  1.00  0.00    -0.354 N 
ATOM     44  C   UNL A   1      38.519  31.164  29.485  1.00  0.00     0.074 A 
ATOM     45  C   UNL A   1      37.797  30.524  28.421  1.00  0.00     0.031 C 
ATOM     46  C   UNL A   1      42.889  29.216  31.558  1.00  0.00     0.029 A 
ATOM     47  C   UNL A   1      43.765  28.530  30.634  1.00  0.00     0.049 A 
ATOM     48  H   UNL A   1      43.083  26.878  29.451  1.00  0.00     0.167 HD
ATOM     49  C   UNL A   1      38.270  32.059  30.476  1.00  0.00     0.034 A 
ATOM     50  C   UNL A   1      44.935  28.978  30.110  1.00  0.00     0.034 A 
ATOM     51  C   UNL A   1      39.522  32.412  31.163  1.00  0.00     0.049 A 
ATOM     52  C   UNL A   1      44.867  30.487  30.026  1.00  0.00     0.074 A 
ATOM     53  C   UNL A   1      40.057  32.193  32.420  1.00  0.00     0.029 A 
ATOM     54  N   UNL A   1      40.577  32.870  30.374  1.00  0.00    -0.354 N 
ATOM     55  N   UNL A   1      43.744  31.154  30.106  1.00  0.00    -0.248 NA
ATOM     56  C   UNL A   1      46.022  31.370  29.975  1.00  0.00     0.031 C 
ATOM     57  C   UNL A   1      41.461  32.466  32.346  1.00  0.00     0.029 A 
ATOM     58  C   UNL A   1      41.768  32.893  31.061  1.00  0.00     0.049 A 
ATOM     59  H   UNL A   1      40.479  33.144  29.434  1.00  0.00     0.167 HD
ATOM     60  C   UNL A   1      43.987  32.492  30.210  1.00  0.00     0.074 A 
ATOM     61  C   UNL A   1      45.436  32.577  30.087  1.00  0.00     0.031 C 
ATOM     62  C   UNL A   1      42.977  33.398  30.407  1.00  0.00     0.034 A 
BRANCH  49  63
ATOM     63  C   UNL A   1      36.916  32.573  30.901  1.00  0.00     0.023 A 
ATOM     64  C   UNL A   1      36.089  33.158  29.919  1.00  0.00     0.031 A 
ATOM     65  C   UNL A   1      36.403  32.612  32.216  1.00  0.00     0.131 A 
ATOM     66  C   UNL A   1      34.844  33.726  30.245  1.00  0.00     0.055 A 
ATOM     67  C   UNL A   1      35.140  33.133  32.534  1.00  0.00     0.041 A 
ATOM     68  F   UNL A   1      37.103  32.200  33.278  1.00  0.00    -0.206 F 
ATOM     69  C   UNL A   1      34.352  33.697  31.547  1.00  0.00     0.022 A 
BRANCH  66  70
ATOM     70  S   UNL A   1      33.885  34.544  28.944  1.00  0.00     0.124 S 
ATOM     71  O   UNL A   1      32.706  34.999  29.674  1.00  0.00    -0.237 OA
ATOM     72  O   UNL A   1      34.802  35.580  28.484  1.00  0.00    -0.237 OA
ATOM     73  O   UNL A   1      33.636  33.471  27.983  1.00  0.00    -0.744 OA
ENDBRANCH  66  70
ENDBRANCH  49  63
BRANCH  50  74
ATOM     74  C   UNL A   1      45.497  27.949  29.167  1.00  0.00     0.023 A 
ATOM     75  C   UNL A   1      45.459  28.280  27.781  1.00  0.00     0.031 A 
ATOM     76  C   UNL A   1      46.527  27.092  29.593  1.00  0.00     0.131 A 
ATOM     77  C   UNL A   1      46.532  27.936  26.933  1.00  0.00     0.055 A 
ATOM     78  C   UNL A   1      47.574  26.729  28.731  1.00  0.00     0.041 A 
ATOM     79  F   UNL A   1      46.640  26.755  30.886  1.00  0.00    -0.206 F 
ATOM     80  C   UNL A   1      47.610  27.197  27.417  1.00  0.00     0.022 A 
BRANCH  77  81
ATOM     81  S   UNL A   1      46.615  28.637  25.252  1.00  0.00     0.124 S 
ATOM     82  O   UNL A   1      45.480  28.005  24.591  1.00  0.00    -0.237 OA
ATOM     83  O   UNL A   1      46.491  30.070  25.499  1.00  0.00    -0.237 OA
ATOM     84  O   UNL A   1      47.932  28.230  24.766  1.00  0.00    -0.744 OA
ENDBRANCH  77  81
ENDBRANCH  50  74
BRANCH  62  85
ATOM     85  C   UNL A   1      43.041  34.866  30.026  1.00  0.00     0.023 A 
ATOM     86  C   UNL A   1      43.582  35.842  30.865  1.00  0.00     0.031 A 
ATOM     87  C   UNL A   1      42.657  35.333  28.740  1.00  0.00     0.131 A 
ATOM     88  C   UNL A   1      43.665  37.188  30.479  1.00  0.00     0.055 A 
ATOM     89  C   UNL A   1      42.814  36.658  28.323  1.00  0.00     0.041 A 
ATOM     90  F   UNL A   1      42.139  34.528  27.803  1.00  0.00    -0.206 F 
ATOM     91  C   UNL A   1      43.307  37.604  29.202  1.00  0.00     0.022 A 
BRANCH  88  92
ATOM     92  S   UNL A   1      44.202  38.378  31.727  1.00  0.00     0.124 S 
ATOM     93  O   UNL A   1      43.473  37.925  32.909  1.00  0.00    -0.237 OA
ATOM     94  O   UNL A   1      45.647  38.165  31.759  1.00  0.00    -0.237 OA
ATOM     95  O   UNL A   1      43.774  39.665  31.186  1.00  0.00    -0.744 OA
ENDBRANCH  88  92
ENDBRANCH  62  85
ENDBRANCH  36  37
ENDBRANCH  29  31
ENDBRANCH  28  29
ENDBRANCH  27  28
ENDBRANCH  26  27
ENDBRANCH  25  26
ENDBRANCH   1  25
TORSDOF 23
ENDMDL
