MODEL 1
REMARK VINA RESULT:      -9.1      0.000      0.000
REMARK SMILES CCC[NH2+][C@]1(C(=O)OCCOCCOC(=O)c2ccc(-c3c4nc(c(-c5cc(S(=O)(=O)[O-])ccc5F)c5ccc([nH]5)c(-c5cc(S(=O)(=O)[O-])ccc5F)c5nc(c(-c6cc(S(=O)(=O)[O-])ccc6F)c6ccc3[nH]6)C=C5)C=C4)cc2)CC[C@@H](OC(C)(C)C)C1
REMARK SMILES IDX 11 1 10 2 9 3 8 4 6 5 7 6 5 7 80 8 88 9 81 10 82 11 4 12
REMARK SMILES IDX 3 15 2 16 1 17 83 18 84 19 85 20 86 21 87 22 12 23 13 24
REMARK SMILES IDX 14 25 15 26 16 27 17 28 18 29 79 30 19 31 78 32 20 33 21 34
REMARK SMILES IDX 22 35 72 36 23 37 77 38 71 39 73 40 24 41 76 42 70 43 69 44
REMARK SMILES IDX 25 46 57 47 37 48 56 49 38 50 41 51 55 52 74 53 39 54 40 55
REMARK SMILES IDX 54 57 75 58 42 59 26 60 27 61 35 62 28 63 34 64 36 65 33 66
REMARK SMILES IDX 29 67 30 68 31 69 32 70 58 71 59 72 67 73 60 74 66 75 68 76
REMARK SMILES IDX 65 77 61 78 62 79 63 80 64 81 43 82 44 83 52 84 45 85 51 86
REMARK SMILES IDX 53 87 50 88 46 89 47 90 48 91 49 92
REMARK H PARENT 4 13 4 14 73 45 41 56
REMARK Flexibility Score: inf
ROOT
ATOM      1  O   UNL A   1      33.733  31.500  27.856  1.00  0.00    -0.374 OA
ENDROOT
BRANCH   1   2
ATOM      2  C   UNL A   1      34.894  30.760  27.484  1.00  0.00     0.202 C 
BRANCH   2   3
ATOM      3  C   UNL A   1      34.912  29.266  27.827  1.00  0.00     0.261 C 
BRANCH   3   4
ATOM      4  O   UNL A   1      34.451  28.429  26.752  1.00  0.00    -0.459 OA
BRANCH   4   5
ATOM      5  C   UNL A   1      33.103  28.296  26.689  1.00  0.00     0.368 C 
ATOM      6  O   UNL A   1      32.379  28.090  27.664  1.00  0.00    -0.245 OA
BRANCH   5   7
ATOM      7  C   UNL A   1      32.500  28.399  25.257  1.00  0.00     0.196 C 
ATOM      8  C   UNL A   1      31.195  27.571  25.277  1.00  0.00     0.084 C 
ATOM      9  C   UNL A   1      32.009  29.789  24.807  1.00  0.00     0.113 C 
ATOM     10  C   UNL A   1      30.334  28.086  24.139  1.00  0.00     0.039 C 
ATOM     11  C   UNL A   1      30.723  29.552  23.987  1.00  0.00     0.126 C 
BRANCH   7  12
ATOM     12  N   UNL A   1      33.559  27.793  24.426  1.00  0.00    -0.332 N 
ATOM     13  H   UNL A   1      34.377  27.700  25.028  1.00  0.00     0.347 HD
ATOM     14  H   UNL A   1      33.102  26.950  24.078  1.00  0.00     0.347 HD
BRANCH  12  15
ATOM     15  C   UNL A   1      34.023  28.410  23.206  1.00  0.00     0.261 C 
BRANCH  15  16
ATOM     16  C   UNL A   1      33.323  27.757  22.005  1.00  0.00     0.058 C 
ATOM     17  C   UNL A   1      33.429  26.233  22.007  1.00  0.00     0.010 C 
ENDBRANCH  15  16
ENDBRANCH  12  15
ENDBRANCH   7  12
BRANCH  11  18
ATOM     18  O   UNL A   1      29.673  30.504  24.098  1.00  0.00    -0.372 OA
BRANCH  18  19
ATOM     19  C   UNL A   1      28.908  31.076  23.032  1.00  0.00     0.060 C 
ATOM     20  C   UNL A   1      29.145  32.574  22.813  1.00  0.00     0.042 C 
ATOM     21  C   UNL A   1      29.053  30.327  21.709  1.00  0.00     0.042 C 
ATOM     22  C   UNL A   1      27.445  30.920  23.496  1.00  0.00     0.042 C 
ENDBRANCH  18  19
ENDBRANCH  11  18
ENDBRANCH   5   7
ENDBRANCH   4   5
ENDBRANCH   3   4
ENDBRANCH   2   3
ENDBRANCH   1   2
BRANCH   1  23
ATOM     23  C   UNL A   1      33.633  32.823  27.331  1.00  0.00     0.202 C 
BRANCH  23  24
ATOM     24  C   UNL A   1      32.579  33.733  27.968  1.00  0.00     0.261 C 
BRANCH  24  25
ATOM     25  O   UNL A   1      33.184  34.925  28.507  1.00  0.00    -0.460 OA
BRANCH  25  26
ATOM     26  C   UNL A   1      33.310  34.947  29.855  1.00  0.00     0.338 C 
ATOM     27  O   UNL A   1      32.476  35.334  30.661  1.00  0.00    -0.246 OA
BRANCH  26  28
ATOM     28  C   UNL A   1      34.534  34.221  30.248  1.00  0.00     0.060 A 
ATOM     29  C   UNL A   1      34.401  33.199  31.197  1.00  0.00     0.016 A 
ATOM     30  C   UNL A   1      35.790  34.536  29.721  1.00  0.00     0.016 A 
ATOM     31  C   UNL A   1      35.524  32.508  31.646  1.00  0.00     0.010 A 
ATOM     32  C   UNL A   1      36.918  33.850  30.186  1.00  0.00     0.010 A 
ATOM     33  C   UNL A   1      36.794  32.848  31.166  1.00  0.00    -0.014 A 
BRANCH  33  34
ATOM     34  C   UNL A   1      38.002  32.221  31.761  1.00  0.00     0.031 A 
ATOM     35  C   UNL A   1      38.700  31.119  31.011  1.00  0.00     0.074 A 
ATOM     36  C   UNL A   1      38.475  32.640  32.949  1.00  0.00     0.049 A 
ATOM     37  N   UNL A   1      39.717  30.383  31.377  1.00  0.00    -0.248 NA
ATOM     38  C   UNL A   1      38.183  30.807  29.669  1.00  0.00     0.031 C 
ATOM     39  C   UNL A   1      37.921  33.742  33.736  1.00  0.00     0.029 A 
ATOM     40  N   UNL A   1      39.525  32.184  33.708  1.00  0.00    -0.354 N 
ATOM     41  C   UNL A   1      39.954  29.509  30.321  1.00  0.00     0.074 A 
ATOM     42  C   UNL A   1      38.963  29.798  29.306  1.00  0.00     0.031 C 
ATOM     43  C   UNL A   1      38.628  33.868  34.872  1.00  0.00     0.029 A 
ATOM     44  C   UNL A   1      39.649  32.822  34.921  1.00  0.00     0.049 A 
ATOM     45  H   UNL A   1      40.132  31.468  33.412  1.00  0.00     0.167 HD
ATOM     46  C   UNL A   1      40.909  28.554  30.215  1.00  0.00     0.034 A 
ATOM     47  C   UNL A   1      40.463  32.564  35.966  1.00  0.00     0.034 A 
ATOM     48  C   UNL A   1      41.891  28.284  31.236  1.00  0.00     0.049 A 
ATOM     49  C   UNL A   1      41.441  31.415  35.863  1.00  0.00     0.074 A 
ATOM     50  C   UNL A   1      42.934  27.373  31.205  1.00  0.00     0.029 A 
ATOM     51  N   UNL A   1      41.940  28.899  32.479  1.00  0.00    -0.354 N 
ATOM     52  N   UNL A   1      41.677  30.619  34.845  1.00  0.00    -0.248 NA
ATOM     53  C   UNL A   1      42.258  31.126  37.050  1.00  0.00     0.031 C 
ATOM     54  C   UNL A   1      43.553  27.373  32.459  1.00  0.00     0.029 A 
ATOM     55  C   UNL A   1      42.955  28.345  33.244  1.00  0.00     0.049 A 
ATOM     56  H   UNL A   1      41.342  29.624  32.774  1.00  0.00     0.167 HD
ATOM     57  C   UNL A   1      42.688  29.757  35.264  1.00  0.00     0.074 A 
ATOM     58  C   UNL A   1      43.033  30.144  36.615  1.00  0.00     0.031 C 
ATOM     59  C   UNL A   1      43.280  28.734  34.595  1.00  0.00     0.034 A 
BRANCH  46  60
ATOM     60  C   UNL A   1      40.910  27.685  28.983  1.00  0.00     0.023 A 
ATOM     61  C   UNL A   1      41.905  27.782  27.997  1.00  0.00     0.031 A 
ATOM     62  C   UNL A   1      39.904  26.714  28.813  1.00  0.00     0.131 A 
ATOM     63  C   UNL A   1      41.853  26.949  26.868  1.00  0.00     0.055 A 
ATOM     64  C   UNL A   1      39.896  25.844  27.724  1.00  0.00     0.041 A 
ATOM     65  F   UNL A   1      38.915  26.594  29.712  1.00  0.00    -0.206 F 
ATOM     66  C   UNL A   1      40.872  25.963  26.738  1.00  0.00     0.022 A 
BRANCH  63  67
ATOM     67  S   UNL A   1      43.030  27.236  25.518  1.00  0.00     0.124 S 
ATOM     68  O   UNL A   1      42.259  28.106  24.633  1.00  0.00    -0.237 OA
ATOM     69  O   UNL A   1      44.154  27.860  26.207  1.00  0.00    -0.237 OA
ATOM     70  O   UNL A   1      43.285  25.895  24.994  1.00  0.00    -0.744 OA
ENDBRANCH  63  67
ENDBRANCH  46  60
BRANCH  47  71
ATOM     71  C   UNL A   1      40.359  33.348  37.234  1.00  0.00     0.023 A 
ATOM     72  C   UNL A   1      39.525  32.922  38.280  1.00  0.00     0.031 A 
ATOM     73  C   UNL A   1      41.010  34.587  37.377  1.00  0.00     0.131 A 
ATOM     74  C   UNL A   1      39.311  33.757  39.389  1.00  0.00     0.055 A 
ATOM     75  C   UNL A   1      40.851  35.380  38.515  1.00  0.00     0.041 A 
ATOM     76  F   UNL A   1      41.811  35.053  36.404  1.00  0.00    -0.206 F 
ATOM     77  C   UNL A   1      39.981  34.974  39.522  1.00  0.00     0.022 A 
BRANCH  74  78
ATOM     78  S   UNL A   1      38.037  33.286  40.591  1.00  0.00     0.124 S 
ATOM     79  O   UNL A   1      38.691  32.190  41.299  1.00  0.00    -0.237 OA
ATOM     80  O   UNL A   1      37.860  34.522  41.344  1.00  0.00    -0.237 OA
ATOM     81  O   UNL A   1      36.904  32.899  39.752  1.00  0.00    -0.744 OA
ENDBRANCH  74  78
ENDBRANCH  47  71
BRANCH  59  82
ATOM     82  C   UNL A   1      44.379  27.985  35.308  1.00  0.00     0.023 A 
ATOM     83  C   UNL A   1      45.719  28.408  35.247  1.00  0.00     0.031 A 
ATOM     84  C   UNL A   1      44.083  26.836  36.063  1.00  0.00     0.131 A 
ATOM     85  C   UNL A   1      46.717  27.662  35.891  1.00  0.00     0.055 A 
ATOM     86  C   UNL A   1      45.071  26.135  36.753  1.00  0.00     0.041 A 
ATOM     87  F   UNL A   1      42.821  26.384  36.153  1.00  0.00    -0.206 F 
ATOM     88  C   UNL A   1      46.399  26.540  36.660  1.00  0.00     0.022 A 
BRANCH  85  89
ATOM     89  S   UNL A   1      48.451  28.133  35.645  1.00  0.00     0.124 S 
ATOM     90  O   UNL A   1      48.978  28.071  37.005  1.00  0.00    -0.237 OA
ATOM     91  O   UNL A   1      48.930  27.103  34.729  1.00  0.00    -0.237 OA
ATOM     92  O   UNL A   1      48.364  29.476  35.075  1.00  0.00    -0.744 OA
ENDBRANCH  85  89
ENDBRANCH  59  82
ENDBRANCH  33  34
ENDBRANCH  26  28
ENDBRANCH  25  26
ENDBRANCH  24  25
ENDBRANCH  23  24
ENDBRANCH   1  23
TORSDOF 22
ENDMDL
MODEL 2
REMARK VINA RESULT:      -9.0      2.399      7.811
REMARK SMILES CCC[NH2+][C@]1(C(=O)OCCOCCOC(=O)c2ccc(-c3c4nc(c(-c5cc(S(=O)(=O)[O-])ccc5F)c5ccc([nH]5)c(-c5cc(S(=O)(=O)[O-])ccc5F)c5nc(c(-c6cc(S(=O)(=O)[O-])ccc6F)c6ccc3[nH]6)C=C5)C=C4)cc2)CC[C@@H](OC(C)(C)C)C1
REMARK SMILES IDX 11 1 10 2 9 3 8 4 6 5 7 6 5 7 80 8 88 9 81 10 82 11 4 12
REMARK SMILES IDX 3 15 2 16 1 17 83 18 84 19 85 20 86 21 87 22 12 23 13 24
REMARK SMILES IDX 14 25 15 26 16 27 17 28 18 29 79 30 19 31 78 32 20 33 21 34
REMARK SMILES IDX 22 35 72 36 23 37 77 38 71 39 73 40 24 41 76 42 70 43 69 44
REMARK SMILES IDX 25 46 57 47 37 48 56 49 38 50 41 51 55 52 74 53 39 54 40 55
REMARK SMILES IDX 54 57 75 58 42 59 26 60 27 61 35 62 28 63 34 64 36 65 33 66
REMARK SMILES IDX 29 67 30 68 31 69 32 70 58 71 59 72 67 73 60 74 66 75 68 76
REMARK SMILES IDX 65 77 61 78 62 79 63 80 64 81 43 82 44 83 52 84 45 85 51 86
REMARK SMILES IDX 53 87 50 88 46 89 47 90 48 91 49 92
REMARK H PARENT 4 13 4 14 73 45 41 56
REMARK Flexibility Score: inf
ROOT
ATOM      1  O   UNL A   1      32.948  30.782  27.103  1.00  0.00    -0.374 OA
ENDROOT
BRANCH   1   2
ATOM      2  C   UNL A   1      32.795  29.365  27.167  1.00  0.00     0.202 C 
BRANCH   2   3
ATOM      3  C   UNL A   1      33.760  28.518  26.330  1.00  0.00     0.261 C 
BRANCH   3   4
ATOM      4  O   UNL A   1      33.439  27.116  26.334  1.00  0.00    -0.459 OA
BRANCH   4   5
ATOM      5  C   UNL A   1      32.128  26.844  26.117  1.00  0.00     0.368 C 
ATOM      6  O   UNL A   1      31.372  26.356  26.958  1.00  0.00    -0.245 OA
BRANCH   5   7
ATOM      7  C   UNL A   1      31.619  27.176  24.684  1.00  0.00     0.196 C 
ATOM      8  C   UNL A   1      30.138  26.735  24.639  1.00  0.00     0.084 C 
ATOM      9  C   UNL A   1      31.536  28.667  24.301  1.00  0.00     0.113 C 
ATOM     10  C   UNL A   1      29.482  27.518  23.517  1.00  0.00     0.039 C 
ATOM     11  C   UNL A   1      30.258  28.828  23.451  1.00  0.00     0.126 C 
BRANCH   7  12
ATOM     12  N   UNL A   1      32.497  26.345  23.837  1.00  0.00    -0.332 N 
ATOM     13  H   UNL A   1      32.868  25.613  24.444  1.00  0.00     0.347 HD
ATOM     14  H   UNL A   1      31.874  26.085  23.072  1.00  0.00     0.347 HD
BRANCH  12  15
ATOM     15  C   UNL A   1      33.628  26.897  23.132  1.00  0.00     0.261 C 
BRANCH  15  16
ATOM     16  C   UNL A   1      33.405  26.757  21.618  1.00  0.00     0.058 C 
ATOM     17  C   UNL A   1      32.461  25.611  21.257  1.00  0.00     0.010 C 
ENDBRANCH  15  16
ENDBRANCH  12  15
ENDBRANCH   7  12
BRANCH  11  18
ATOM     18  O   UNL A   1      29.503  30.023  23.596  1.00  0.00    -0.372 OA
BRANCH  18  19
ATOM     19  C   UNL A   1      28.450  30.491  22.746  1.00  0.00     0.060 C 
ATOM     20  C   UNL A   1      28.009  31.934  23.015  1.00  0.00     0.042 C 
ATOM     21  C   UNL A   1      28.741  30.303  21.259  1.00  0.00     0.042 C 
ATOM     22  C   UNL A   1      27.253  29.586  23.104  1.00  0.00     0.042 C 
ENDBRANCH  18  19
ENDBRANCH  11  18
ENDBRANCH   5   7
ENDBRANCH   4   5
ENDBRANCH   3   4
ENDBRANCH   2   3
ENDBRANCH   1   2
BRANCH   1  23
ATOM     23  C   UNL A   1      31.759  31.535  26.862  1.00  0.00     0.202 C 
BRANCH  23  24
ATOM     24  C   UNL A   1      31.902  33.059  26.873  1.00  0.00     0.261 C 
BRANCH  24  25
ATOM     25  O   UNL A   1      32.528  33.510  28.091  1.00  0.00    -0.460 OA
BRANCH  25  26
ATOM     26  C   UNL A   1      33.690  34.183  27.926  1.00  0.00     0.338 C 
ATOM     27  O   UNL A   1      33.819  35.346  27.569  1.00  0.00    -0.246 OA
BRANCH  26  28
ATOM     28  C   UNL A   1      34.807  33.376  28.458  1.00  0.00     0.060 A 
ATOM     29  C   UNL A   1      34.481  32.250  29.224  1.00  0.00     0.016 A 
ATOM     30  C   UNL A   1      36.144  33.713  28.233  1.00  0.00     0.016 A 
ATOM     31  C   UNL A   1      35.487  31.473  29.795  1.00  0.00     0.010 A 
ATOM     32  C   UNL A   1      37.152  32.940  28.820  1.00  0.00     0.010 A 
ATOM     33  C   UNL A   1      36.830  31.830  29.622  1.00  0.00    -0.014 A 
BRANCH  33  34
ATOM     34  C   UNL A   1      37.891  31.098  30.359  1.00  0.00     0.031 A 
ATOM     35  C   UNL A   1      38.149  31.439  31.802  1.00  0.00     0.074 A 
ATOM     36  C   UNL A   1      38.605  30.133  29.750  1.00  0.00     0.049 A 
ATOM     37  N   UNL A   1      39.073  30.984  32.608  1.00  0.00    -0.248 NA
ATOM     38  C   UNL A   1      37.244  32.422  32.417  1.00  0.00     0.031 C 
ATOM     39  C   UNL A   1      38.399  29.672  28.377  1.00  0.00     0.029 A 
ATOM     40  N   UNL A   1      39.653  29.371  30.205  1.00  0.00    -0.354 N 
ATOM     41  C   UNL A   1      38.874  31.635  33.820  1.00  0.00     0.074 A 
ATOM     42  C   UNL A   1      37.749  32.528  33.639  1.00  0.00     0.031 C 
ATOM     43  C   UNL A   1      39.302  28.717  28.097  1.00  0.00     0.029 A 
ATOM     44  C   UNL A   1      40.185  28.535  29.249  1.00  0.00     0.049 A 
ATOM     45  H   UNL A   1      39.993  29.418  31.127  1.00  0.00     0.167 HD
ATOM     46  C   UNL A   1      39.570  31.499  34.975  1.00  0.00     0.034 A 
ATOM     47  C   UNL A   1      41.280  27.749  29.285  1.00  0.00     0.034 A 
ATOM     48  C   UNL A   1      40.687  30.601  35.138  1.00  0.00     0.049 A 
ATOM     49  C   UNL A   1      42.106  27.707  30.552  1.00  0.00     0.074 A 
ATOM     50  C   UNL A   1      41.426  30.349  36.281  1.00  0.00     0.029 A 
ATOM     51  N   UNL A   1      41.241  29.825  34.129  1.00  0.00    -0.354 N 
ATOM     52  N   UNL A   1      41.886  28.302  31.702  1.00  0.00    -0.248 NA
ATOM     53  C   UNL A   1      43.329  26.892  30.524  1.00  0.00     0.031 C 
ATOM     54  C   UNL A   1      42.481  29.497  35.941  1.00  0.00     0.029 A 
ATOM     55  C   UNL A   1      42.350  29.144  34.608  1.00  0.00     0.049 A 
ATOM     56  H   UNL A   1      40.897  29.767  33.208  1.00  0.00     0.167 HD
ATOM     57  C   UNL A   1      42.929  27.909  32.539  1.00  0.00     0.074 A 
ATOM     58  C   UNL A   1      43.762  27.009  31.770  1.00  0.00     0.031 C 
ATOM     59  C   UNL A   1      43.179  28.259  33.826  1.00  0.00     0.034 A 
BRANCH  46  60
ATOM     60  C   UNL A   1      39.193  32.380  36.139  1.00  0.00     0.023 A 
ATOM     61  C   UNL A   1      39.695  33.684  36.286  1.00  0.00     0.031 A 
ATOM     62  C   UNL A   1      38.284  31.909  37.105  1.00  0.00     0.131 A 
ATOM     63  C   UNL A   1      39.312  34.457  37.394  1.00  0.00     0.055 A 
ATOM     64  C   UNL A   1      37.855  32.707  38.165  1.00  0.00     0.041 A 
ATOM     65  F   UNL A   1      37.792  30.662  37.027  1.00  0.00    -0.206 F 
ATOM     66  C   UNL A   1      38.375  33.989  38.318  1.00  0.00     0.022 A 
BRANCH  63  67
ATOM     67  S   UNL A   1      40.130  36.053  37.667  1.00  0.00     0.124 S 
ATOM     68  O   UNL A   1      40.094  36.636  36.328  1.00  0.00    -0.237 OA
ATOM     69  O   UNL A   1      39.270  36.683  38.661  1.00  0.00    -0.237 OA
ATOM     70  O   UNL A   1      41.462  35.680  38.139  1.00  0.00    -0.744 OA
ENDBRANCH  63  67
ENDBRANCH  46  60
BRANCH  47  71
ATOM     71  C   UNL A   1      41.720  26.984  28.080  1.00  0.00     0.023 A 
ATOM     72  C   UNL A   1      41.615  25.585  28.034  1.00  0.00     0.031 A 
ATOM     73  C   UNL A   1      42.346  27.631  26.998  1.00  0.00     0.131 A 
ATOM     74  C   UNL A   1      42.189  24.875  26.967  1.00  0.00     0.055 A 
ATOM     75  C   UNL A   1      42.850  26.925  25.904  1.00  0.00     0.041 A 
ATOM     76  F   UNL A   1      42.486  28.967  26.991  1.00  0.00    -0.206 F 
ATOM     77  C   UNL A   1      42.789  25.535  25.894  1.00  0.00     0.022 A 
BRANCH  74  78
ATOM     78  S   UNL A   1      42.256  23.065  27.071  1.00  0.00     0.124 S 
ATOM     79  O   UNL A   1      41.827  22.676  25.732  1.00  0.00    -0.237 OA
ATOM     80  O   UNL A   1      43.661  22.832  27.388  1.00  0.00    -0.237 OA
ATOM     81  O   UNL A   1      41.315  22.751  28.145  1.00  0.00    -0.744 OA
ENDBRANCH  74  78
ENDBRANCH  47  71
BRANCH  59  82
ATOM     82  C   UNL A   1      44.387  27.643  34.489  1.00  0.00     0.023 A 
ATOM     83  C   UNL A   1      44.314  26.405  35.151  1.00  0.00     0.031 A 
ATOM     84  C   UNL A   1      45.630  28.300  34.453  1.00  0.00     0.131 A 
ATOM     85  C   UNL A   1      45.450  25.885  35.789  1.00  0.00     0.055 A 
ATOM     86  C   UNL A   1      46.771  27.748  35.034  1.00  0.00     0.041 A 
ATOM     87  F   UNL A   1      45.758  29.488  33.838  1.00  0.00    -0.206 F 
ATOM     88  C   UNL A   1      46.682  26.539  35.717  1.00  0.00     0.022 A 
BRANCH  85  89
ATOM     89  S   UNL A   1      45.277  24.378  36.783  1.00  0.00     0.124 S 
ATOM     90  O   UNL A   1      44.492  23.521  35.901  1.00  0.00    -0.237 OA
ATOM     91  O   UNL A   1      46.665  23.978  36.989  1.00  0.00    -0.237 OA
ATOM     92  O   UNL A   1      44.581  24.836  37.983  1.00  0.00    -0.744 OA
ENDBRANCH  85  89
ENDBRANCH  59  82
ENDBRANCH  33  34
ENDBRANCH  26  28
ENDBRANCH  25  26
ENDBRANCH  24  25
ENDBRANCH  23  24
ENDBRANCH   1  23
TORSDOF 22
ENDMDL
MODEL 3
REMARK VINA RESULT:      -8.8      2.827      4.031
REMARK SMILES CCC[NH2+][C@]1(C(=O)OCCOCCOC(=O)c2ccc(-c3c4nc(c(-c5cc(S(=O)(=O)[O-])ccc5F)c5ccc([nH]5)c(-c5cc(S(=O)(=O)[O-])ccc5F)c5nc(c(-c6cc(S(=O)(=O)[O-])ccc6F)c6ccc3[nH]6)C=C5)C=C4)cc2)CC[C@@H](OC(C)(C)C)C1
REMARK SMILES IDX 11 1 10 2 9 3 8 4 6 5 7 6 5 7 80 8 88 9 81 10 82 11 4 12
REMARK SMILES IDX 3 15 2 16 1 17 83 18 84 19 85 20 86 21 87 22 12 23 13 24
REMARK SMILES IDX 14 25 15 26 16 27 17 28 18 29 79 30 19 31 78 32 20 33 21 34
REMARK SMILES IDX 22 35 72 36 23 37 77 38 71 39 73 40 24 41 76 42 70 43 69 44
REMARK SMILES IDX 25 46 57 47 37 48 56 49 38 50 41 51 55 52 74 53 39 54 40 55
REMARK SMILES IDX 54 57 75 58 42 59 26 60 27 61 35 62 28 63 34 64 36 65 33 66
REMARK SMILES IDX 29 67 30 68 31 69 32 70 58 71 59 72 67 73 60 74 66 75 68 76
REMARK SMILES IDX 65 77 61 78 62 79 63 80 64 81 43 82 44 83 52 84 45 85 51 86
REMARK SMILES IDX 53 87 50 88 46 89 47 90 48 91 49 92
REMARK H PARENT 4 13 4 14 73 45 41 56
REMARK Flexibility Score: inf
ROOT
ATOM      1  O   UNL A   1      33.279  30.989  27.102  1.00  0.00    -0.374 OA
ENDROOT
BRANCH   1   2
ATOM      2  C   UNL A   1      33.447  29.598  26.834  1.00  0.00     0.202 C 
BRANCH   2   3
ATOM      3  C   UNL A   1      33.553  29.176  25.365  1.00  0.00     0.261 C 
BRANCH   3   4
ATOM      4  O   UNL A   1      33.623  27.750  25.184  1.00  0.00    -0.459 OA
BRANCH   4   5
ATOM      5  C   UNL A   1      33.599  27.351  23.888  1.00  0.00     0.368 C 
ATOM      6  O   UNL A   1      34.095  27.987  22.957  1.00  0.00    -0.245 OA
BRANCH   5   7
ATOM      7  C   UNL A   1      32.860  26.006  23.631  1.00  0.00     0.196 C 
ATOM      8  C   UNL A   1      33.509  25.391  22.370  1.00  0.00     0.084 C 
ATOM      9  C   UNL A   1      33.050  24.894  24.682  1.00  0.00     0.113 C 
ATOM     10  C   UNL A   1      33.228  23.900  22.416  1.00  0.00     0.039 C 
ATOM     11  C   UNL A   1      33.138  23.566  23.901  1.00  0.00     0.126 C 
BRANCH   7  12
ATOM     12  N   UNL A   1      31.469  26.447  23.409  1.00  0.00    -0.332 N 
ATOM     13  H   UNL A   1      30.885  25.619  23.528  1.00  0.00     0.347 HD
ATOM     14  H   UNL A   1      31.380  27.216  24.073  1.00  0.00     0.347 HD
BRANCH  12  15
ATOM     15  C   UNL A   1      31.048  27.064  22.174  1.00  0.00     0.261 C 
BRANCH  15  16
ATOM     16  C   UNL A   1      30.255  28.342  22.487  1.00  0.00     0.058 C 
ATOM     17  C   UNL A   1      30.379  28.782  23.944  1.00  0.00     0.010 C 
ENDBRANCH  15  16
ENDBRANCH  12  15
ENDBRANCH   7  12
BRANCH  11  18
ATOM     18  O   UNL A   1      34.023  22.562  24.381  1.00  0.00    -0.372 OA
BRANCH  18  19
ATOM     19  C   UNL A   1      33.701  21.466  25.244  1.00  0.00     0.060 C 
ATOM     20  C   UNL A   1      33.808  21.783  26.740  1.00  0.00     0.042 C 
ATOM     21  C   UNL A   1      32.346  20.832  24.941  1.00  0.00     0.042 C 
ATOM     22  C   UNL A   1      34.787  20.416  24.933  1.00  0.00     0.042 C 
ENDBRANCH  18  19
ENDBRANCH  11  18
ENDBRANCH   5   7
ENDBRANCH   4   5
ENDBRANCH   3   4
ENDBRANCH   2   3
ENDBRANCH   1   2
BRANCH   1  23
ATOM     23  C   UNL A   1      32.013  31.549  26.755  1.00  0.00     0.202 C 
BRANCH  23  24
ATOM     24  C   UNL A   1      31.875  33.067  26.903  1.00  0.00     0.261 C 
BRANCH  24  25
ATOM     25  O   UNL A   1      32.066  33.472  28.272  1.00  0.00    -0.460 OA
BRANCH  25  26
ATOM     26  C   UNL A   1      33.009  34.424  28.465  1.00  0.00     0.338 C 
ATOM     27  O   UNL A   1      32.846  35.635  28.419  1.00  0.00    -0.246 OA
BRANCH  26  28
ATOM     28  C   UNL A   1      34.248  33.797  28.969  1.00  0.00     0.060 A 
ATOM     29  C   UNL A   1      34.112  32.738  29.875  1.00  0.00     0.016 A 
ATOM     30  C   UNL A   1      35.516  34.237  28.582  1.00  0.00     0.016 A 
ATOM     31  C   UNL A   1      35.241  32.135  30.424  1.00  0.00     0.010 A 
ATOM     32  C   UNL A   1      36.649  33.639  29.147  1.00  0.00     0.010 A 
ATOM     33  C   UNL A   1      36.518  32.600  30.088  1.00  0.00    -0.014 A 
BRANCH  33  34
ATOM     34  C   UNL A   1      37.710  32.065  30.791  1.00  0.00     0.031 A 
ATOM     35  C   UNL A   1      38.564  31.033  30.105  1.00  0.00     0.074 A 
ATOM     36  C   UNL A   1      38.033  32.504  32.022  1.00  0.00     0.049 A 
ATOM     37  N   UNL A   1      39.598  30.375  30.562  1.00  0.00    -0.248 NA
ATOM     38  C   UNL A   1      38.204  30.698  28.718  1.00  0.00     0.031 C 
ATOM     39  C   UNL A   1      37.318  33.547  32.759  1.00  0.00     0.029 A 
ATOM     40  N   UNL A   1      39.040  32.123  32.875  1.00  0.00    -0.354 N 
ATOM     41  C   UNL A   1      40.005  29.539  29.528  1.00  0.00     0.074 A 
ATOM     42  C   UNL A   1      39.095  29.761  28.425  1.00  0.00     0.031 C 
ATOM     43  C   UNL A   1      37.902  33.712  33.958  1.00  0.00     0.029 A 
ATOM     44  C   UNL A   1      38.995  32.752  34.099  1.00  0.00     0.049 A 
ATOM     45  H   UNL A   1      39.728  31.462  32.634  1.00  0.00     0.167 HD
ATOM     46  C   UNL A   1      41.040  28.665  29.509  1.00  0.00     0.034 A 
ATOM     47  C   UNL A   1      39.724  32.546  35.215  1.00  0.00     0.034 A 
ATOM     48  C   UNL A   1      41.939  28.460  30.618  1.00  0.00     0.049 A 
ATOM     49  C   UNL A   1      40.798  31.480  35.199  1.00  0.00     0.074 A 
ATOM     50  C   UNL A   1      43.052  27.637  30.680  1.00  0.00     0.029 A 
ATOM     51  N   UNL A   1      41.819  29.061  31.863  1.00  0.00    -0.354 N 
ATOM     52  N   UNL A   1      41.193  30.720  34.203  1.00  0.00    -0.248 NA
ATOM     53  C   UNL A   1      41.519  31.242  36.457  1.00  0.00     0.031 C 
ATOM     54  C   UNL A   1      43.546  27.669  31.988  1.00  0.00     0.029 A 
ATOM     55  C   UNL A   1      42.799  28.579  32.718  1.00  0.00     0.049 A 
ATOM     56  H   UNL A   1      41.139  29.730  32.104  1.00  0.00     0.167 HD
ATOM     57  C   UNL A   1      42.228  29.936  34.712  1.00  0.00     0.074 A 
ATOM     58  C   UNL A   1      42.409  30.332  36.093  1.00  0.00     0.031 C 
ATOM     59  C   UNL A   1      42.961  28.974  34.096  1.00  0.00     0.034 A 
BRANCH  46  60
ATOM     60  C   UNL A   1      41.229  27.816  28.277  1.00  0.00     0.023 A 
ATOM     61  C   UNL A   1      40.870  26.459  28.239  1.00  0.00     0.031 A 
ATOM     62  C   UNL A   1      41.751  28.394  27.104  1.00  0.00     0.131 A 
ATOM     63  C   UNL A   1      41.073  25.716  27.065  1.00  0.00     0.055 A 
ATOM     64  C   UNL A   1      41.886  27.668  25.921  1.00  0.00     0.041 A 
ATOM     65  F   UNL A   1      42.133  29.681  27.091  1.00  0.00    -0.206 F 
ATOM     66  C   UNL A   1      41.552  26.317  25.899  1.00  0.00     0.022 A 
BRANCH  63  67
ATOM     67  S   UNL A   1      40.793  23.924  27.109  1.00  0.00     0.124 S 
ATOM     68  O   UNL A   1      41.277  23.582  28.443  1.00  0.00    -0.237 OA
ATOM     69  O   UNL A   1      39.353  23.824  26.906  1.00  0.00    -0.237 OA
ATOM     70  O   UNL A   1      41.615  23.421  26.009  1.00  0.00    -0.744 OA
ENDBRANCH  63  67
ENDBRANCH  46  60
BRANCH  47  71
ATOM     71  C   UNL A   1      39.437  33.301  36.472  1.00  0.00     0.023 A 
ATOM     72  C   UNL A   1      40.148  34.469  36.791  1.00  0.00     0.031 A 
ATOM     73  C   UNL A   1      38.522  32.809  37.421  1.00  0.00     0.131 A 
ATOM     74  C   UNL A   1      39.983  35.066  38.051  1.00  0.00     0.055 A 
ATOM     75  C   UNL A   1      38.309  33.448  38.644  1.00  0.00     0.041 A 
ATOM     76  F   UNL A   1      37.822  31.689  37.177  1.00  0.00    -0.206 F 
ATOM     77  C   UNL A   1      39.057  34.575  38.972  1.00  0.00     0.022 A 
BRANCH  74  78
ATOM     78  S   UNL A   1      41.100  36.416  38.520  1.00  0.00     0.124 S 
ATOM     79  O   UNL A   1      41.704  35.890  39.740  1.00  0.00    -0.237 OA
ATOM     80  O   UNL A   1      41.976  36.502  37.356  1.00  0.00    -0.237 OA
ATOM     81  O   UNL A   1      40.200  37.552  38.707  1.00  0.00    -0.744 OA
ENDBRANCH  74  78
ENDBRANCH  47  71
BRANCH  59  82
ATOM     82  C   UNL A   1      44.045  28.306  34.907  1.00  0.00     0.023 A 
ATOM     83  C   UNL A   1      43.787  27.163  35.684  1.00  0.00     0.031 A 
ATOM     84  C   UNL A   1      45.356  28.815  34.897  1.00  0.00     0.131 A 
ATOM     85  C   UNL A   1      44.812  26.595  36.454  1.00  0.00     0.055 A 
ATOM     86  C   UNL A   1      46.387  28.208  35.615  1.00  0.00     0.041 A 
ATOM     87  F   UNL A   1      45.661  29.907  34.176  1.00  0.00    -0.206 F 
ATOM     88  C   UNL A   1      46.115  27.098  36.409  1.00  0.00     0.022 A 
BRANCH  85  89
ATOM     89  S   UNL A   1      44.403  25.234  37.580  1.00  0.00     0.124 S 
ATOM     90  O   UNL A   1      43.064  24.862  37.134  1.00  0.00    -0.237 OA
ATOM     91  O   UNL A   1      45.459  24.267  37.300  1.00  0.00    -0.237 OA
ATOM     92  O   UNL A   1      44.466  25.852  38.903  1.00  0.00    -0.744 OA
ENDBRANCH  85  89
ENDBRANCH  59  82
ENDBRANCH  33  34
ENDBRANCH  26  28
ENDBRANCH  25  26
ENDBRANCH  24  25
ENDBRANCH  23  24
ENDBRANCH   1  23
TORSDOF 22
ENDMDL
