MODEL 1
REMARK VINA RESULT:     -11.8      0.000      0.000
REMARK SMILES O=C(OCCOCCOC(=O)[C@H]1CCC(=O)N(CCc2ccccc2F)[C@@H]1c1cccs1)c1ccc(-c2c3nc(c(-c4cc(S(=O)(=O)[O-])ccc4F)c4ccc([nH]4)c(-c4cc(S(=O)(=O)[O-])ccc4F)c4nc(c(-c5cc(S(=O)(=O)[O-])ccc5F)c5ccc2[nH]5)C=C4)C=C3)cc1
REMARK SMILES IDX 6 1 5 2 4 3 3 4 2 5 1 6 33 7 34 8 95 9 35 10 94 11 36 12
REMARK SMILES IDX 37 13 38 14 88 15 39 16 93 17 87 18 89 19 40 20 92 21 86 22
REMARK SMILES IDX 85 23 41 25 73 26 53 27 72 28 54 29 57 30 71 31 90 32 55 33
REMARK SMILES IDX 56 34 70 36 91 37 58 38 42 39 43 40 51 41 44 42 50 43 52 44
REMARK SMILES IDX 49 45 45 46 46 47 47 48 48 49 74 50 75 51 83 52 76 53 82 54
REMARK SMILES IDX 84 55 81 56 77 57 78 58 79 59 80 60 59 61 60 62 68 63 61 64
REMARK SMILES IDX 67 65 69 66 66 67 62 68 63 69 64 70 65 71 7 72 8 73 9 74
REMARK SMILES IDX 10 75 11 76 12 77 13 78 27 79 14 80 17 81 15 82 16 83 28 84
REMARK SMILES IDX 29 85 32 86 30 87 31 88 18 89 19 90 20 91 21 92 25 93 22 94
REMARK SMILES IDX 24 95 26 96 23 97
REMARK H PARENT 89 24 57 35
REMARK Flexibility Score: inf
ROOT
ATOM      1  O   UNL A   1      31.699  28.761  23.463  1.00  0.00    -0.374 OA
ENDROOT
BRANCH   1   2
ATOM      2  C   UNL A   1      31.152  29.526  24.526  1.00  0.00     0.202 C 
BRANCH   2   3
ATOM      3  C   UNL A   1      31.936  29.423  25.830  1.00  0.00     0.261 C 
BRANCH   3   4
ATOM      4  O   UNL A   1      32.994  30.406  25.849  1.00  0.00    -0.460 OA
BRANCH   4   5
ATOM      5  C   UNL A   1      33.357  31.180  26.905  1.00  0.00     0.338 C 
ATOM      6  O   UNL A   1      32.640  32.108  27.264  1.00  0.00    -0.246 OA
BRANCH   5   7
ATOM      7  C   UNL A   1      34.609  30.905  27.652  1.00  0.00     0.060 A 
ATOM      8  C   UNL A   1      34.936  29.622  28.075  1.00  0.00     0.016 A 
ATOM      9  C   UNL A   1      35.519  31.938  27.888  1.00  0.00     0.016 A 
ATOM     10  C   UNL A   1      36.032  29.379  28.866  1.00  0.00     0.010 A 
ATOM     11  C   UNL A   1      36.713  31.672  28.572  1.00  0.00     0.010 A 
ATOM     12  C   UNL A   1      36.961  30.388  29.078  1.00  0.00    -0.014 A 
BRANCH  12  13
ATOM     13  C   UNL A   1      38.146  30.028  29.877  1.00  0.00     0.031 A 
ATOM     14  C   UNL A   1      39.273  29.313  29.205  1.00  0.00     0.074 A 
ATOM     15  C   UNL A   1      38.260  30.518  31.129  1.00  0.00     0.049 A 
ATOM     16  N   UNL A   1      40.376  28.851  29.721  1.00  0.00    -0.248 NA
ATOM     17  C   UNL A   1      39.143  29.095  27.755  1.00  0.00     0.031 C 
ATOM     18  C   UNL A   1      37.263  31.370  31.792  1.00  0.00     0.029 A 
ATOM     19  N   UNL A   1      39.279  30.444  32.038  1.00  0.00    -0.354 N 
ATOM     20  C   UNL A   1      41.050  28.239  28.673  1.00  0.00     0.074 A 
ATOM     21  C   UNL A   1      40.236  28.396  27.489  1.00  0.00     0.031 C 
ATOM     22  C   UNL A   1      37.759  31.808  32.958  1.00  0.00     0.029 A 
ATOM     23  C   UNL A   1      39.043  31.163  33.187  1.00  0.00     0.049 A 
ATOM     24  H   UNL A   1      40.101  29.925  31.885  1.00  0.00     0.167 HD
ATOM     25  C   UNL A   1      42.237  27.592  28.721  1.00  0.00     0.034 A 
ATOM     26  C   UNL A   1      39.763  31.246  34.322  1.00  0.00     0.034 A 
ATOM     27  C   UNL A   1      43.008  27.481  29.931  1.00  0.00     0.049 A 
ATOM     28  C   UNL A   1      41.019  30.427  34.393  1.00  0.00     0.074 A 
ATOM     29  C   UNL A   1      44.173  26.776  30.157  1.00  0.00     0.029 A 
ATOM     30  N   UNL A   1      42.679  28.110  31.129  1.00  0.00    -0.354 N 
ATOM     31  N   UNL A   1      41.575  29.703  33.447  1.00  0.00    -0.248 NA
ATOM     32  C   UNL A   1      41.721  30.390  35.678  1.00  0.00     0.031 C 
ATOM     33  C   UNL A   1      44.516  26.931  31.505  1.00  0.00     0.029 A 
ATOM     34  C   UNL A   1      43.605  27.791  32.104  1.00  0.00     0.049 A 
ATOM     35  H   UNL A   1      41.900  28.696  31.262  1.00  0.00     0.167 HD
ATOM     36  C   UNL A   1      42.696  29.121  34.021  1.00  0.00     0.074 A 
ATOM     37  C   UNL A   1      42.741  29.588  35.395  1.00  0.00     0.031 C 
ATOM     38  C   UNL A   1      43.604  28.280  33.465  1.00  0.00     0.034 A 
BRANCH  25  39
ATOM     39  C   UNL A   1      42.671  26.874  27.470  1.00  0.00     0.023 A 
ATOM     40  C   UNL A   1      42.450  25.500  27.279  1.00  0.00     0.031 A 
ATOM     41  C   UNL A   1      43.413  27.566  26.497  1.00  0.00     0.131 A 
ATOM     42  C   UNL A   1      43.031  24.847  26.181  1.00  0.00     0.055 A 
ATOM     43  C   UNL A   1      43.926  26.925  25.367  1.00  0.00     0.041 A 
ATOM     44  F   UNL A   1      43.685  28.872  26.645  1.00  0.00    -0.206 F 
ATOM     45  C   UNL A   1      43.749  25.554  25.212  1.00  0.00     0.022 A 
BRANCH  42  46
ATOM     46  S   UNL A   1      42.962  23.035  26.105  1.00  0.00     0.124 S 
ATOM     47  O   UNL A   1      43.016  22.800  24.664  1.00  0.00    -0.237 OA
ATOM     48  O   UNL A   1      44.145  22.640  26.861  1.00  0.00    -0.237 OA
ATOM     49  O   UNL A   1      41.683  22.713  26.736  1.00  0.00    -0.744 OA
ENDBRANCH  42  46
ENDBRANCH  25  39
BRANCH  26  50
ATOM     50  C   UNL A   1      39.249  32.037  35.477  1.00  0.00     0.023 A 
ATOM     51  C   UNL A   1      38.480  31.448  36.493  1.00  0.00     0.031 A 
ATOM     52  C   UNL A   1      39.574  33.403  35.606  1.00  0.00     0.131 A 
ATOM     53  C   UNL A   1      38.066  32.223  37.592  1.00  0.00     0.055 A 
ATOM     54  C   UNL A   1      39.195  34.156  36.718  1.00  0.00     0.041 A 
ATOM     55  F   UNL A   1      40.311  34.017  34.666  1.00  0.00    -0.206 F 
ATOM     56  C   UNL A   1      38.433  33.565  37.720  1.00  0.00     0.022 A 
BRANCH  53  57
ATOM     57  S   UNL A   1      37.028  31.455  38.870  1.00  0.00     0.124 S 
ATOM     58  O   UNL A   1      35.820  32.268  38.796  1.00  0.00    -0.237 OA
ATOM     59  O   UNL A   1      36.911  30.082  38.389  1.00  0.00    -0.237 OA
ATOM     60  O   UNL A   1      37.817  31.617  40.090  1.00  0.00    -0.744 OA
ENDBRANCH  53  57
ENDBRANCH  26  50
BRANCH  38  61
ATOM     61  C   UNL A   1      44.742  27.840  34.336  1.00  0.00     0.023 A 
ATOM     62  C   UNL A   1      44.695  26.629  35.042  1.00  0.00     0.031 A 
ATOM     63  C   UNL A   1      45.921  28.603  34.379  1.00  0.00     0.131 A 
ATOM     64  C   UNL A   1      45.814  26.216  35.776  1.00  0.00     0.055 A 
ATOM     65  C   UNL A   1      47.045  28.167  35.076  1.00  0.00     0.041 A 
ATOM     66  F   UNL A   1      46.006  29.765  33.711  1.00  0.00    -0.206 F 
ATOM     67  C   UNL A   1      46.995  26.966  35.780  1.00  0.00     0.022 A 
BRANCH  64  68
ATOM     68  S   UNL A   1      45.712  24.679  36.731  1.00  0.00     0.124 S 
ATOM     69  O   UNL A   1      44.327  24.276  36.504  1.00  0.00    -0.237 OA
ATOM     70  O   UNL A   1      46.730  23.844  36.102  1.00  0.00    -0.237 OA
ATOM     71  O   UNL A   1      46.019  25.104  38.095  1.00  0.00    -0.744 OA
ENDBRANCH  64  68
ENDBRANCH  38  61
ENDBRANCH  12  13
ENDBRANCH   5   7
ENDBRANCH   4   5
ENDBRANCH   3   4
ENDBRANCH   2   3
ENDBRANCH   1   2
BRANCH   1  72
ATOM     72  C   UNL A   1      33.094  28.914  23.204  1.00  0.00     0.202 C 
BRANCH  72  73
ATOM     73  C   UNL A   1      33.509  27.785  22.269  1.00  0.00     0.261 C 
BRANCH  73  74
ATOM     74  O   UNL A   1      32.477  26.788  22.304  1.00  0.00    -0.463 OA
BRANCH  74  75
ATOM     75  C   UNL A   1      32.886  25.501  22.483  1.00  0.00     0.311 C 
ATOM     76  O   UNL A   1      33.573  24.852  21.703  1.00  0.00    -0.252 OA
BRANCH  75  77
ATOM     77  C   UNL A   1      32.418  24.947  23.818  1.00  0.00     0.127 C 
ATOM     78  C   UNL A   1      30.903  24.877  23.789  1.00  0.00     0.028 C 
ATOM     79  C   UNL A   1      33.050  23.572  24.149  1.00  0.00     0.139 C 
ATOM     80  C   UNL A   1      30.424  24.473  25.156  1.00  0.00     0.101 C 
ATOM     81  N   UNL A   1      32.219  22.731  25.083  1.00  0.00    -0.334 N 
ATOM     82  C   UNL A   1      30.946  23.111  25.531  1.00  0.00     0.223 C 
ATOM     83  O   UNL A   1      30.241  22.382  26.235  1.00  0.00    -0.275 OA
BRANCH  79  84
ATOM     84  C   UNL A   1      34.572  23.687  24.498  1.00  0.00     0.028 A 
ATOM     85  C   UNL A   1      35.247  24.138  25.624  1.00  0.00     0.017 A 
ATOM     86  S   UNL A   1      35.771  23.020  23.416  1.00  0.00    -0.147 S 
ATOM     87  C   UNL A   1      36.605  23.696  25.709  1.00  0.00     0.012 A 
ATOM     88  C   UNL A   1      36.999  23.030  24.581  1.00  0.00     0.065 A 
ENDBRANCH  79  84
BRANCH  81  89
ATOM     89  C   UNL A   1      32.518  21.296  25.269  1.00  0.00     0.125 C 
BRANCH  89  90
ATOM     90  C   UNL A   1      32.560  20.420  23.997  1.00  0.00     0.060 C 
BRANCH  90  91
ATOM     91  C   UNL A   1      33.209  19.058  24.096  1.00  0.00    -0.010 A 
ATOM     92  C   UNL A   1      32.532  17.877  23.762  1.00  0.00     0.007 A 
ATOM     93  C   UNL A   1      34.542  18.949  24.510  1.00  0.00     0.126 A 
ATOM     94  C   UNL A   1      33.138  16.629  23.940  1.00  0.00     0.000 A 
ATOM     95  C   UNL A   1      35.165  17.711  24.655  1.00  0.00     0.039 A 
ATOM     96  F   UNL A   1      35.252  20.054  24.779  1.00  0.00    -0.207 F 
ATOM     97  C   UNL A   1      34.454  16.545  24.390  1.00  0.00     0.003 A 
ENDBRANCH  90  91
ENDBRANCH  89  90
ENDBRANCH  81  89
ENDBRANCH  75  77
ENDBRANCH  74  75
ENDBRANCH  73  74
ENDBRANCH  72  73
ENDBRANCH   1  72
TORSDOF 21
ENDMDL
MODEL 2
REMARK VINA RESULT:     -11.7      4.968      7.642
REMARK SMILES O=C(OCCOCCOC(=O)[C@H]1CCC(=O)N(CCc2ccccc2F)[C@@H]1c1cccs1)c1ccc(-c2c3nc(c(-c4cc(S(=O)(=O)[O-])ccc4F)c4ccc([nH]4)c(-c4cc(S(=O)(=O)[O-])ccc4F)c4nc(c(-c5cc(S(=O)(=O)[O-])ccc5F)c5ccc2[nH]5)C=C4)C=C3)cc1
REMARK SMILES IDX 6 1 5 2 4 3 3 4 2 5 1 6 33 7 34 8 95 9 35 10 94 11 36 12
REMARK SMILES IDX 37 13 38 14 88 15 39 16 93 17 87 18 89 19 40 20 92 21 86 22
REMARK SMILES IDX 85 23 41 25 73 26 53 27 72 28 54 29 57 30 71 31 90 32 55 33
REMARK SMILES IDX 56 34 70 36 91 37 58 38 42 39 43 40 51 41 44 42 50 43 52 44
REMARK SMILES IDX 49 45 45 46 46 47 47 48 48 49 74 50 75 51 83 52 76 53 82 54
REMARK SMILES IDX 84 55 81 56 77 57 78 58 79 59 80 60 59 61 60 62 68 63 61 64
REMARK SMILES IDX 67 65 69 66 66 67 62 68 63 69 64 70 65 71 7 72 8 73 9 74
REMARK SMILES IDX 10 75 11 76 12 77 13 78 27 79 14 80 17 81 15 82 16 83 28 84
REMARK SMILES IDX 29 85 32 86 30 87 31 88 18 89 19 90 20 91 21 92 25 93 22 94
REMARK SMILES IDX 24 95 26 96 23 97
REMARK H PARENT 89 24 57 35
REMARK Flexibility Score: inf
ROOT
ATOM      1  O   UNL A   1      34.371  20.847  24.368  1.00  0.00    -0.374 OA
ENDROOT
BRANCH   1   2
ATOM      2  C   UNL A   1      35.552  20.301  24.934  1.00  0.00     0.202 C 
BRANCH   2   3
ATOM      3  C   UNL A   1      36.803  21.136  24.684  1.00  0.00     0.261 C 
BRANCH   3   4
ATOM      4  O   UNL A   1      37.496  21.373  25.928  1.00  0.00    -0.460 OA
BRANCH   4   5
ATOM      5  C   UNL A   1      38.842  21.430  26.104  1.00  0.00     0.338 C 
ATOM      6  O   UNL A   1      39.539  20.454  25.843  1.00  0.00    -0.246 OA
BRANCH   5   7
ATOM      7  C   UNL A   1      39.492  22.672  26.589  1.00  0.00     0.060 A 
ATOM      8  C   UNL A   1      39.019  23.928  26.230  1.00  0.00     0.016 A 
ATOM      9  C   UNL A   1      40.566  22.592  27.479  1.00  0.00     0.016 A 
ATOM     10  C   UNL A   1      39.684  25.078  26.579  1.00  0.00     0.010 A 
ATOM     11  C   UNL A   1      41.164  23.766  27.957  1.00  0.00     0.010 A 
ATOM     12  C   UNL A   1      40.730  25.015  27.489  1.00  0.00    -0.014 A 
BRANCH  12  13
ATOM     13  C   UNL A   1      41.344  26.300  27.869  1.00  0.00     0.031 A 
ATOM     14  C   UNL A   1      42.702  26.629  27.340  1.00  0.00     0.074 A 
ATOM     15  C   UNL A   1      40.593  27.213  28.518  1.00  0.00     0.049 A 
ATOM     16  N   UNL A   1      43.451  27.666  27.589  1.00  0.00    -0.248 NA
ATOM     17  C   UNL A   1      43.294  25.665  26.398  1.00  0.00     0.031 C 
ATOM     18  C   UNL A   1      39.192  27.018  28.920  1.00  0.00     0.029 A 
ATOM     19  N   UNL A   1      40.859  28.503  28.887  1.00  0.00    -0.354 N 
ATOM     20  C   UNL A   1      44.626  27.456  26.879  1.00  0.00     0.074 A 
ATOM     21  C   UNL A   1      44.487  26.196  26.183  1.00  0.00     0.031 C 
ATOM     22  C   UNL A   1      38.703  28.171  29.395  1.00  0.00     0.029 A 
ATOM     23  C   UNL A   1      39.783  29.143  29.460  1.00  0.00     0.049 A 
ATOM     24  H   UNL A   1      41.735  28.931  28.757  1.00  0.00     0.167 HD
ATOM     25  C   UNL A   1      45.720  28.250  26.841  1.00  0.00     0.034 A 
ATOM     26  C   UNL A   1      39.698  30.364  30.023  1.00  0.00     0.034 A 
ATOM     27  C   UNL A   1      45.791  29.501  27.549  1.00  0.00     0.049 A 
ATOM     28  C   UNL A   1      40.958  31.179  30.071  1.00  0.00     0.074 A 
ATOM     29  C   UNL A   1      46.862  30.361  27.686  1.00  0.00     0.029 A 
ATOM     30  N   UNL A   1      44.725  30.071  28.240  1.00  0.00    -0.354 N 
ATOM     31  N   UNL A   1      42.129  30.904  29.542  1.00  0.00    -0.248 NA
ATOM     32  C   UNL A   1      40.910  32.438  30.820  1.00  0.00     0.031 C 
ATOM     33  C   UNL A   1      46.461  31.421  28.508  1.00  0.00     0.029 A 
ATOM     34  C   UNL A   1      45.118  31.260  28.825  1.00  0.00     0.049 A 
ATOM     35  H   UNL A   1      43.823  29.684  28.304  1.00  0.00     0.167 HD
ATOM     36  C   UNL A   1      42.963  31.954  29.893  1.00  0.00     0.074 A 
ATOM     37  C   UNL A   1      42.156  32.875  30.673  1.00  0.00     0.031 C 
ATOM     38  C   UNL A   1      44.275  32.142  29.600  1.00  0.00     0.034 A 
BRANCH  25  39
ATOM     39  C   UNL A   1      46.927  27.710  26.121  1.00  0.00     0.023 A 
ATOM     40  C   UNL A   1      47.212  28.038  24.784  1.00  0.00     0.031 A 
ATOM     41  C   UNL A   1      47.750  26.765  26.759  1.00  0.00     0.131 A 
ATOM     42  C   UNL A   1      48.244  27.368  24.108  1.00  0.00     0.055 A 
ATOM     43  C   UNL A   1      48.822  26.158  26.103  1.00  0.00     0.041 A 
ATOM     44  F   UNL A   1      47.503  26.387  28.023  1.00  0.00    -0.206 F 
ATOM     45  C   UNL A   1      49.065  26.447  24.764  1.00  0.00     0.022 A 
BRANCH  42  46
ATOM     46  S   UNL A   1      48.413  27.609  22.317  1.00  0.00     0.124 S 
ATOM     47  O   UNL A   1      48.631  26.239  21.857  1.00  0.00    -0.237 OA
ATOM     48  O   UNL A   1      47.134  28.207  21.954  1.00  0.00    -0.237 OA
ATOM     49  O   UNL A   1      49.571  28.492  22.196  1.00  0.00    -0.744 OA
ENDBRANCH  42  46
ENDBRANCH  25  39
BRANCH  26  50
ATOM     50  C   UNL A   1      38.425  30.806  30.660  1.00  0.00     0.023 A 
ATOM     51  C   UNL A   1      37.455  31.530  29.950  1.00  0.00     0.031 A 
ATOM     52  C   UNL A   1      38.138  30.455  31.996  1.00  0.00     0.131 A 
ATOM     53  C   UNL A   1      36.244  31.875  30.577  1.00  0.00     0.055 A 
ATOM     54  C   UNL A   1      36.919  30.766  32.600  1.00  0.00     0.041 A 
ATOM     55  F   UNL A   1      39.028  29.759  32.721  1.00  0.00    -0.206 F 
ATOM     56  C   UNL A   1      35.963  31.482  31.889  1.00  0.00     0.022 A 
BRANCH  53  57
ATOM     57  S   UNL A   1      35.023  32.855  29.657  1.00  0.00     0.124 S 
ATOM     58  O   UNL A   1      34.368  31.831  28.853  1.00  0.00    -0.237 OA
ATOM     59  O   UNL A   1      34.225  33.440  30.730  1.00  0.00    -0.237 OA
ATOM     60  O   UNL A   1      35.844  33.806  28.910  1.00  0.00    -0.744 OA
ENDBRANCH  53  57
ENDBRANCH  26  50
BRANCH  38  61
ATOM     61  C   UNL A   1      44.906  33.409  30.095  1.00  0.00     0.023 A 
ATOM     62  C   UNL A   1      44.899  34.579  29.321  1.00  0.00     0.031 A 
ATOM     63  C   UNL A   1      45.434  33.461  31.396  1.00  0.00     0.131 A 
ATOM     64  C   UNL A   1      45.424  35.761  29.856  1.00  0.00     0.055 A 
ATOM     65  C   UNL A   1      45.916  34.650  31.938  1.00  0.00     0.041 A 
ATOM     66  F   UNL A   1      45.452  32.363  32.169  1.00  0.00    -0.206 F 
ATOM     67  C   UNL A   1      45.913  35.810  31.167  1.00  0.00     0.022 A 
BRANCH  64  68
ATOM     68  S   UNL A   1      45.463  37.247  28.818  1.00  0.00     0.124 S 
ATOM     69  O   UNL A   1      44.189  37.152  28.111  1.00  0.00    -0.237 OA
ATOM     70  O   UNL A   1      45.568  38.320  29.800  1.00  0.00    -0.237 OA
ATOM     71  O   UNL A   1      46.650  37.051  27.987  1.00  0.00    -0.744 OA
ENDBRANCH  64  68
ENDBRANCH  38  61
ENDBRANCH  12  13
ENDBRANCH   5   7
ENDBRANCH   4   5
ENDBRANCH   3   4
ENDBRANCH   2   3
ENDBRANCH   1   2
BRANCH   1  72
ATOM     72  C   UNL A   1      33.227  19.995  24.306  1.00  0.00     0.202 C 
BRANCH  72  73
ATOM     73  C   UNL A   1      32.115  20.777  23.618  1.00  0.00     0.261 C 
BRANCH  73  74
ATOM     74  O   UNL A   1      32.718  21.896  22.951  1.00  0.00    -0.463 OA
BRANCH  74  75
ATOM     75  C   UNL A   1      32.083  23.094  23.088  1.00  0.00     0.311 C 
ATOM     76  O   UNL A   1      30.873  23.275  23.025  1.00  0.00    -0.252 OA
BRANCH  75  77
ATOM     77  C   UNL A   1      33.065  24.216  23.377  1.00  0.00     0.127 C 
ATOM     78  C   UNL A   1      32.856  25.300  22.337  1.00  0.00     0.028 C 
ATOM     79  C   UNL A   1      32.932  24.770  24.818  1.00  0.00     0.139 C 
ATOM     80  C   UNL A   1      33.922  26.344  22.522  1.00  0.00     0.101 C 
ATOM     81  N   UNL A   1      33.402  26.195  24.965  1.00  0.00    -0.334 N 
ATOM     82  C   UNL A   1      33.824  26.981  23.884  1.00  0.00     0.223 C 
ATOM     83  O   UNL A   1      34.134  28.169  24.004  1.00  0.00    -0.275 OA
BRANCH  79  84
ATOM     84  C   UNL A   1      33.455  23.760  25.892  1.00  0.00     0.028 A 
ATOM     85  C   UNL A   1      34.717  23.514  26.419  1.00  0.00     0.017 A 
ATOM     86  S   UNL A   1      32.324  22.785  26.801  1.00  0.00    -0.147 S 
ATOM     87  C   UNL A   1      34.705  22.808  27.662  1.00  0.00     0.012 A 
ATOM     88  C   UNL A   1      33.447  22.396  28.006  1.00  0.00     0.065 A 
ENDBRANCH  79  84
BRANCH  81  89
ATOM     89  C   UNL A   1      33.078  26.970  26.181  1.00  0.00     0.125 C 
BRANCH  89  90
ATOM     90  C   UNL A   1      31.606  27.399  26.366  1.00  0.00     0.060 C 
BRANCH  90  91
ATOM     91  C   UNL A   1      30.833  27.828  25.139  1.00  0.00    -0.010 A 
ATOM     92  C   UNL A   1      30.019  26.944  24.418  1.00  0.00     0.007 A 
ATOM     93  C   UNL A   1      30.898  29.156  24.703  1.00  0.00     0.126 A 
ATOM     94  C   UNL A   1      29.380  27.355  23.243  1.00  0.00     0.000 A 
ATOM     95  C   UNL A   1      30.236  29.583  23.553  1.00  0.00     0.039 A 
ATOM     96  F   UNL A   1      31.613  30.054  25.395  1.00  0.00    -0.207 F 
ATOM     97  C   UNL A   1      29.491  28.674  22.808  1.00  0.00     0.003 A 
ENDBRANCH  90  91
ENDBRANCH  89  90
ENDBRANCH  81  89
ENDBRANCH  75  77
ENDBRANCH  74  75
ENDBRANCH  73  74
ENDBRANCH  72  73
ENDBRANCH   1  72
TORSDOF 21
ENDMDL
MODEL 3
REMARK VINA RESULT:     -11.5      4.863      7.955
REMARK SMILES O=C(OCCOCCOC(=O)[C@H]1CCC(=O)N(CCc2ccccc2F)[C@@H]1c1cccs1)c1ccc(-c2c3nc(c(-c4cc(S(=O)(=O)[O-])ccc4F)c4ccc([nH]4)c(-c4cc(S(=O)(=O)[O-])ccc4F)c4nc(c(-c5cc(S(=O)(=O)[O-])ccc5F)c5ccc2[nH]5)C=C4)C=C3)cc1
REMARK SMILES IDX 6 1 5 2 4 3 3 4 2 5 1 6 33 7 34 8 95 9 35 10 94 11 36 12
REMARK SMILES IDX 37 13 38 14 88 15 39 16 93 17 87 18 89 19 40 20 92 21 86 22
REMARK SMILES IDX 85 23 41 25 73 26 53 27 72 28 54 29 57 30 71 31 90 32 55 33
REMARK SMILES IDX 56 34 70 36 91 37 58 38 42 39 43 40 51 41 44 42 50 43 52 44
REMARK SMILES IDX 49 45 45 46 46 47 47 48 48 49 74 50 75 51 83 52 76 53 82 54
REMARK SMILES IDX 84 55 81 56 77 57 78 58 79 59 80 60 59 61 60 62 68 63 61 64
REMARK SMILES IDX 67 65 69 66 66 67 62 68 63 69 64 70 65 71 7 72 8 73 9 74
REMARK SMILES IDX 10 75 11 76 12 77 13 78 27 79 14 80 17 81 15 82 16 83 28 84
REMARK SMILES IDX 29 85 32 86 30 87 31 88 18 89 19 90 20 91 21 92 25 93 22 94
REMARK SMILES IDX 24 95 26 96 23 97
REMARK H PARENT 89 24 57 35
REMARK Flexibility Score: inf
ROOT
ATOM      1  O   UNL A   1      34.133  21.175  25.507  1.00  0.00    -0.374 OA
ENDROOT
BRANCH   1   2
ATOM      2  C   UNL A   1      35.456  20.890  25.079  1.00  0.00     0.202 C 
BRANCH   2   3
ATOM      3  C   UNL A   1      36.530  21.678  25.821  1.00  0.00     0.261 C 
BRANCH   3   4
ATOM      4  O   UNL A   1      37.831  21.376  25.273  1.00  0.00    -0.460 OA
BRANCH   4   5
ATOM      5  C   UNL A   1      39.002  21.314  25.960  1.00  0.00     0.338 C 
ATOM      6  O   UNL A   1      39.563  20.235  26.123  1.00  0.00    -0.246 OA
BRANCH   5   7
ATOM      7  C   UNL A   1      39.630  22.543  26.502  1.00  0.00     0.060 A 
ATOM      8  C   UNL A   1      39.231  23.807  26.087  1.00  0.00     0.016 A 
ATOM      9  C   UNL A   1      40.603  22.444  27.501  1.00  0.00     0.016 A 
ATOM     10  C   UNL A   1      39.885  24.944  26.497  1.00  0.00     0.010 A 
ATOM     11  C   UNL A   1      41.178  23.607  28.031  1.00  0.00     0.010 A 
ATOM     12  C   UNL A   1      40.828  24.862  27.511  1.00  0.00    -0.014 A 
BRANCH  12  13
ATOM     13  C   UNL A   1      41.433  26.135  27.945  1.00  0.00     0.031 A 
ATOM     14  C   UNL A   1      42.822  26.456  27.500  1.00  0.00     0.074 A 
ATOM     15  C   UNL A   1      40.655  27.047  28.563  1.00  0.00     0.049 A 
ATOM     16  N   UNL A   1      43.567  27.480  27.807  1.00  0.00    -0.248 NA
ATOM     17  C   UNL A   1      43.457  25.499  26.580  1.00  0.00     0.031 C 
ATOM     18  C   UNL A   1      39.232  26.862  28.882  1.00  0.00     0.029 A 
ATOM     19  N   UNL A   1      40.913  28.328  28.966  1.00  0.00    -0.354 N 
ATOM     20  C   UNL A   1      44.778  27.267  27.163  1.00  0.00     0.074 A 
ATOM     21  C   UNL A   1      44.667  26.020  26.441  1.00  0.00     0.031 C 
ATOM     22  C   UNL A   1      38.728  28.014  29.345  1.00  0.00     0.029 A 
ATOM     23  C   UNL A   1      39.813  28.973  29.486  1.00  0.00     0.049 A 
ATOM     24  H   UNL A   1      41.799  28.748  28.893  1.00  0.00     0.167 HD
ATOM     25  C   UNL A   1      45.881  28.049  27.199  1.00  0.00     0.034 A 
ATOM     26  C   UNL A   1      39.709  30.185  30.062  1.00  0.00     0.034 A 
ATOM     27  C   UNL A   1      45.924  29.289  27.929  1.00  0.00     0.049 A 
ATOM     28  C   UNL A   1      40.971  30.986  30.194  1.00  0.00     0.074 A 
ATOM     29  C   UNL A   1      46.995  30.136  28.140  1.00  0.00     0.029 A 
ATOM     30  N   UNL A   1      44.827  29.862  28.566  1.00  0.00    -0.354 N 
ATOM     31  N   UNL A   1      42.168  30.705  29.729  1.00  0.00    -0.248 NA
ATOM     32  C   UNL A   1      40.894  32.234  30.958  1.00  0.00     0.031 C 
ATOM     33  C   UNL A   1      46.558  31.188  28.953  1.00  0.00     0.029 A 
ATOM     34  C   UNL A   1      45.198  31.038  29.190  1.00  0.00     0.049 A 
ATOM     35  H   UNL A   1      43.918  29.484  28.572  1.00  0.00     0.167 HD
ATOM     36  C   UNL A   1      42.992  31.741  30.143  1.00  0.00     0.074 A 
ATOM     37  C   UNL A   1      42.151  32.660  30.889  1.00  0.00     0.031 C 
ATOM     38  C   UNL A   1      44.320  31.918  29.928  1.00  0.00     0.034 A 
BRANCH  25  39
ATOM     39  C   UNL A   1      47.122  27.506  26.541  1.00  0.00     0.023 A 
ATOM     40  C   UNL A   1      48.058  26.722  27.236  1.00  0.00     0.031 A 
ATOM     41  C   UNL A   1      47.419  27.871  25.216  1.00  0.00     0.131 A 
ATOM     42  C   UNL A   1      49.280  26.394  26.628  1.00  0.00     0.055 A 
ATOM     43  C   UNL A   1      48.604  27.479  24.592  1.00  0.00     0.041 A 
ATOM     44  F   UNL A   1      46.578  28.649  24.517  1.00  0.00    -0.206 F 
ATOM     45  C   UNL A   1      49.550  26.748  25.304  1.00  0.00     0.022 A 
BRANCH  42  46
ATOM     46  S   UNL A   1      50.577  25.621  27.636  1.00  0.00     0.124 S 
ATOM     47  O   UNL A   1      50.086  24.249  27.741  1.00  0.00    -0.237 OA
ATOM     48  O   UNL A   1      51.770  25.811  26.819  1.00  0.00    -0.237 OA
ATOM     49  O   UNL A   1      50.546  26.385  28.881  1.00  0.00    -0.744 OA
ENDBRANCH  42  46
ENDBRANCH  25  39
BRANCH  26  50
ATOM     50  C   UNL A   1      38.405  30.633  30.631  1.00  0.00     0.023 A 
ATOM     51  C   UNL A   1      37.494  31.394  29.883  1.00  0.00     0.031 A 
ATOM     52  C   UNL A   1      38.029  30.250  31.936  1.00  0.00     0.131 A 
ATOM     53  C   UNL A   1      36.252  31.744  30.444  1.00  0.00     0.055 A 
ATOM     54  C   UNL A   1      36.780  30.566  32.472  1.00  0.00     0.041 A 
ATOM     55  F   UNL A   1      38.861  29.518  32.694  1.00  0.00    -0.206 F 
ATOM     56  C   UNL A   1      35.883  31.320  31.724  1.00  0.00     0.022 A 
BRANCH  53  57
ATOM     57  S   UNL A   1      35.107  32.772  29.479  1.00  0.00     0.124 S 
ATOM     58  O   UNL A   1      36.013  33.755  28.897  1.00  0.00    -0.237 OA
ATOM     59  O   UNL A   1      34.527  31.804  28.555  1.00  0.00    -0.237 OA
ATOM     60  O   UNL A   1      34.186  33.292  30.488  1.00  0.00    -0.744 OA
ENDBRANCH  53  57
ENDBRANCH  26  50
BRANCH  38  61
ATOM     61  C   UNL A   1      44.935  33.171  30.477  1.00  0.00     0.023 A 
ATOM     62  C   UNL A   1      44.981  34.353  29.723  1.00  0.00     0.031 A 
ATOM     63  C   UNL A   1      45.393  33.197  31.806  1.00  0.00     0.131 A 
ATOM     64  C   UNL A   1      45.486  35.521  30.306  1.00  0.00     0.055 A 
ATOM     65  C   UNL A   1      45.855  34.372  32.393  1.00  0.00     0.041 A 
ATOM     66  F   UNL A   1      45.359  32.086  32.560  1.00  0.00    -0.206 F 
ATOM     67  C   UNL A   1      45.904  35.544  31.642  1.00  0.00     0.022 A 
BRANCH  64  68
ATOM     68  S   UNL A   1      45.594  37.023  29.296  1.00  0.00     0.124 S 
ATOM     69  O   UNL A   1      45.154  38.050  30.236  1.00  0.00    -0.237 OA
ATOM     70  O   UNL A   1      47.005  37.059  28.928  1.00  0.00    -0.237 OA
ATOM     71  O   UNL A   1      44.674  36.758  28.191  1.00  0.00    -0.744 OA
ENDBRANCH  64  68
ENDBRANCH  38  61
ENDBRANCH  12  13
ENDBRANCH   5   7
ENDBRANCH   4   5
ENDBRANCH   3   4
ENDBRANCH   2   3
ENDBRANCH   1   2
BRANCH   1  72
ATOM     72  C   UNL A   1      33.956  21.531  26.877  1.00  0.00     0.202 C 
BRANCH  72  73
ATOM     73  C   UNL A   1      33.325  22.917  26.909  1.00  0.00     0.261 C 
BRANCH  73  74
ATOM     74  O   UNL A   1      31.913  22.758  26.704  1.00  0.00    -0.463 OA
BRANCH  74  75
ATOM     75  C   UNL A   1      31.246  23.844  26.222  1.00  0.00     0.311 C 
ATOM     76  O   UNL A   1      30.256  24.359  26.728  1.00  0.00    -0.252 OA
BRANCH  75  77
ATOM     77  C   UNL A   1      31.906  24.393  24.969  1.00  0.00     0.127 C 
ATOM     78  C   UNL A   1      31.420  23.575  23.789  1.00  0.00     0.028 C 
ATOM     79  C   UNL A   1      31.639  25.906  24.767  1.00  0.00     0.139 C 
ATOM     80  C   UNL A   1      32.180  24.012  22.567  1.00  0.00     0.101 C 
ATOM     81  N   UNL A   1      31.725  26.351  23.330  1.00  0.00    -0.334 N 
ATOM     82  C   UNL A   1      31.925  25.465  22.262  1.00  0.00     0.223 C 
ATOM     83  O   UNL A   1      31.918  25.828  21.083  1.00  0.00    -0.275 OA
BRANCH  79  84
ATOM     84  C   UNL A   1      32.408  26.788  25.806  1.00  0.00     0.028 A 
ATOM     85  C   UNL A   1      33.749  27.121  25.948  1.00  0.00     0.017 A 
ATOM     86  S   UNL A   1      31.523  27.719  26.991  1.00  0.00    -0.147 S 
ATOM     87  C   UNL A   1      33.983  28.270  26.766  1.00  0.00     0.012 A 
ATOM     88  C   UNL A   1      32.835  28.722  27.357  1.00  0.00     0.065 A 
ENDBRANCH  79  84
BRANCH  81  89
ATOM     89  C   UNL A   1      31.215  27.677  22.923  1.00  0.00     0.125 C 
BRANCH  89  90
ATOM     90  C   UNL A   1      29.688  27.893  22.999  1.00  0.00     0.060 C 
BRANCH  90  91
ATOM     91  C   UNL A   1      29.165  29.306  22.873  1.00  0.00    -0.010 A 
ATOM     92  C   UNL A   1      28.208  29.670  21.915  1.00  0.00     0.007 A 
ATOM     93  C   UNL A   1      29.619  30.299  23.749  1.00  0.00     0.126 A 
ATOM     94  C   UNL A   1      27.805  31.003  21.776  1.00  0.00     0.000 A 
ATOM     95  C   UNL A   1      29.195  31.623  23.640  1.00  0.00     0.039 A 
ATOM     96  F   UNL A   1      30.486  29.987  24.722  1.00  0.00    -0.207 F 
ATOM     97  C   UNL A   1      28.301  31.981  22.636  1.00  0.00     0.003 A 
ENDBRANCH  90  91
ENDBRANCH  89  90
ENDBRANCH  81  89
ENDBRANCH  75  77
ENDBRANCH  74  75
ENDBRANCH  73  74
ENDBRANCH  72  73
ENDBRANCH   1  72
TORSDOF 21
ENDMDL
