MODEL 1
REMARK VINA RESULT:      -9.5      0.000      0.000
REMARK SMILES O=C(CCC(=O)c1c[nH]c2ccccc12)OCCOCCOC(=O)c1ccc(-c2c3nc(c(-c4cc(S(=O)(=O)[O-])ccc4F)c4ccc([nH]4)c(-c4cc(S(=O)(=O)[O-])ccc4F)c4nc(c(-c5cc(S(=O)(=O)[O-])ccc5F)c5ccc2[nH]5)C=C4)C=C3)cc1
REMARK SMILES IDX 19 1 18 2 17 3 16 4 2 5 1 6 3 7 4 8 5 9 6 10 7 11 8 12 15 13
REMARK SMILES IDX 9 14 10 15 14 16 11 18 13 19 12 20 20 21 21 22 22 23 23 24
REMARK SMILES IDX 24 25 25 26 26 27 87 28 27 29 86 30 28 31 29 32 30 33 80 34
REMARK SMILES IDX 31 35 85 36 79 37 81 38 32 39 84 40 78 41 77 42 33 44 65 45
REMARK SMILES IDX 45 46 64 47 46 48 49 49 63 50 82 51 47 52 48 53 62 55 83 56
REMARK SMILES IDX 50 57 34 58 35 59 43 60 36 61 42 62 44 63 41 64 37 65 38 66
REMARK SMILES IDX 39 67 40 68 66 69 67 70 75 71 68 72 74 73 76 74 73 75 69 76
REMARK SMILES IDX 70 77 71 78 72 79 51 80 52 81 60 82 53 83 59 84 61 85 58 86
REMARK SMILES IDX 54 87 55 88 56 89 57 90
REMARK H PARENT 9 17 81 43 49 54
REMARK Flexibility Score: inf
ROOT
ATOM      1  O   UNL A   1      41.576  19.168  25.542  1.00  0.00    -0.374 OA
ENDROOT
BRANCH   1   2
ATOM      2  C   UNL A   1      42.869  18.748  25.973  1.00  0.00     0.202 C 
BRANCH   2   3
ATOM      3  C   UNL A   1      44.032  19.119  25.059  1.00  0.00     0.261 C 
BRANCH   3   4
ATOM      4  O   UNL A   1      44.100  20.544  24.876  1.00  0.00    -0.463 OA
BRANCH   4   5
ATOM      5  C   UNL A   1      45.315  21.137  24.884  1.00  0.00     0.306 C 
ATOM      6  O   UNL A   1      46.363  20.670  25.308  1.00  0.00    -0.252 OA
BRANCH   5   7
ATOM      7  C   UNL A   1      45.249  22.436  24.138  1.00  0.00     0.131 C 
BRANCH   7   8
ATOM      8  C   UNL A   1      46.453  23.317  24.455  1.00  0.00     0.093 C 
BRANCH   8   9
ATOM      9  C   UNL A   1      46.111  24.572  25.233  1.00  0.00     0.165 C 
ATOM     10  O   UNL A   1      46.009  25.637  24.616  1.00  0.00    -0.294 OA
BRANCH   9  11
ATOM     11  C   UNL A   1      45.831  24.522  26.674  1.00  0.00     0.043 A 
ATOM     12  C   UNL A   1      46.795  24.892  27.598  1.00  0.00     0.095 A 
ATOM     13  C   UNL A   1      44.699  24.056  27.441  1.00  0.00     0.010 A 
ATOM     14  N   UNL A   1      46.311  24.688  28.857  1.00  0.00    -0.360 N 
ATOM     15  C   UNL A   1      45.065  24.112  28.792  1.00  0.00     0.046 A 
ATOM     16  C   UNL A   1      43.420  23.524  27.156  1.00  0.00     0.011 A 
ATOM     17  H   UNL A   1      46.783  24.920  29.689  1.00  0.00     0.166 HD
ATOM     18  C   UNL A   1      44.258  23.633  29.833  1.00  0.00     0.027 A 
ATOM     19  C   UNL A   1      42.621  22.992  28.181  1.00  0.00     0.001 A 
ATOM     20  C   UNL A   1      43.043  23.037  29.503  1.00  0.00     0.002 A 
ENDBRANCH   9  11
ENDBRANCH   8   9
ENDBRANCH   7   8
ENDBRANCH   5   7
ENDBRANCH   4   5
ENDBRANCH   3   4
ENDBRANCH   2   3
ENDBRANCH   1   2
BRANCH   1  21
ATOM     21  C   UNL A   1      40.782  19.930  26.451  1.00  0.00     0.202 C 
BRANCH  21  22
ATOM     22  C   UNL A   1      40.326  21.316  25.993  1.00  0.00     0.261 C 
BRANCH  22  23
ATOM     23  O   UNL A   1      39.157  21.780  26.696  1.00  0.00    -0.460 OA
BRANCH  23  24
ATOM     24  C   UNL A   1      38.617  22.923  26.215  1.00  0.00     0.338 C 
ATOM     25  O   UNL A   1      37.625  23.033  25.515  1.00  0.00    -0.246 OA
BRANCH  24  26
ATOM     26  C   UNL A   1      39.365  24.089  26.710  1.00  0.00     0.060 A 
ATOM     27  C   UNL A   1      39.261  24.443  28.060  1.00  0.00     0.016 A 
ATOM     28  C   UNL A   1      40.018  24.922  25.801  1.00  0.00     0.016 A 
ATOM     29  C   UNL A   1      39.779  25.665  28.498  1.00  0.00     0.010 A 
ATOM     30  C   UNL A   1      40.534  26.142  26.244  1.00  0.00     0.010 A 
ATOM     31  C   UNL A   1      40.389  26.536  27.587  1.00  0.00    -0.014 A 
BRANCH  31  32
ATOM     32  C   UNL A   1      40.806  27.904  27.989  1.00  0.00     0.031 A 
ATOM     33  C   UNL A   1      42.270  28.232  28.083  1.00  0.00     0.074 A 
ATOM     34  C   UNL A   1      39.883  28.822  28.328  1.00  0.00     0.049 A 
ATOM     35  N   UNL A   1      42.850  29.292  28.583  1.00  0.00    -0.248 NA
ATOM     36  C   UNL A   1      43.205  27.232  27.541  1.00  0.00     0.031 C 
ATOM     37  C   UNL A   1      38.438  28.638  28.217  1.00  0.00     0.029 A 
ATOM     38  N   UNL A   1      40.018  30.076  28.870  1.00  0.00    -0.354 N 
ATOM     39  C   UNL A   1      44.217  29.084  28.431  1.00  0.00     0.074 A 
ATOM     40  C   UNL A   1      44.379  27.788  27.806  1.00  0.00     0.031 C 
ATOM     41  C   UNL A   1      37.817  29.711  28.734  1.00  0.00     0.029 A 
ATOM     42  C   UNL A   1      38.820  30.642  29.244  1.00  0.00     0.049 A 
ATOM     43  H   UNL A   1      40.886  30.527  28.981  1.00  0.00     0.167 HD
ATOM     44  C   UNL A   1      45.237  29.904  28.782  1.00  0.00     0.034 A 
ATOM     45  C   UNL A   1      38.564  31.755  29.961  1.00  0.00     0.034 A 
ATOM     46  C   UNL A   1      45.053  31.194  29.402  1.00  0.00     0.049 A 
ATOM     47  C   UNL A   1      39.723  32.599  30.436  1.00  0.00     0.074 A 
ATOM     48  C   UNL A   1      46.016  32.128  29.743  1.00  0.00     0.029 A 
ATOM     49  N   UNL A   1      43.831  31.722  29.794  1.00  0.00    -0.354 N 
ATOM     50  N   UNL A   1      41.010  32.411  30.252  1.00  0.00    -0.248 NA
ATOM     51  C   UNL A   1      39.398  33.805  31.210  1.00  0.00     0.031 C 
ATOM     52  C   UNL A   1      45.385  33.182  30.414  1.00  0.00     0.029 A 
ATOM     53  C   UNL A   1      44.020  32.943  30.422  1.00  0.00     0.049 A 
ATOM     54  H   UNL A   1      42.958  31.292  29.649  1.00  0.00     0.167 HD
ATOM     55  C   UNL A   1      41.642  33.490  30.864  1.00  0.00     0.074 A 
ATOM     56  C   UNL A   1      40.596  34.333  31.403  1.00  0.00     0.031 C 
ATOM     57  C   UNL A   1      42.967  33.765  30.969  1.00  0.00     0.034 A 
BRANCH  44  58
ATOM     58  C   UNL A   1      46.645  29.417  28.558  1.00  0.00     0.023 A 
ATOM     59  C   UNL A   1      47.276  28.525  29.441  1.00  0.00     0.031 A 
ATOM     60  C   UNL A   1      47.357  29.832  27.417  1.00  0.00     0.131 A 
ATOM     61  C   UNL A   1      48.592  28.106  29.188  1.00  0.00     0.055 A 
ATOM     62  C   UNL A   1      48.641  29.364  27.139  1.00  0.00     0.041 A 
ATOM     63  F   UNL A   1      46.809  30.700  26.551  1.00  0.00    -0.206 F 
ATOM     64  C   UNL A   1      49.269  28.501  28.031  1.00  0.00     0.022 A 
BRANCH  61  65
ATOM     65  S   UNL A   1      49.443  27.102  30.435  1.00  0.00     0.124 S 
ATOM     66  O   UNL A   1      48.621  25.894  30.453  1.00  0.00    -0.237 OA
ATOM     67  O   UNL A   1      50.778  26.958  29.866  1.00  0.00    -0.237 OA
ATOM     68  O   UNL A   1      49.367  27.919  31.645  1.00  0.00    -0.744 OA
ENDBRANCH  61  65
ENDBRANCH  44  58
BRANCH  45  69
ATOM     69  C   UNL A   1      37.166  32.111  30.344  1.00  0.00     0.023 A 
ATOM     70  C   UNL A   1      36.300  32.731  29.432  1.00  0.00     0.031 A 
ATOM     71  C   UNL A   1      36.704  31.911  31.659  1.00  0.00     0.131 A 
ATOM     72  C   UNL A   1      35.045  33.191  29.860  1.00  0.00     0.055 A 
ATOM     73  C   UNL A   1      35.430  32.315  32.064  1.00  0.00     0.041 A 
ATOM     74  F   UNL A   1      37.489  31.318  32.573  1.00  0.00    -0.206 F 
ATOM     75  C   UNL A   1      34.599  32.976  31.166  1.00  0.00     0.022 A 
BRANCH  72  76
ATOM     76  S   UNL A   1      34.049  34.179  28.711  1.00  0.00     0.124 S 
ATOM     77  O   UNL A   1      34.972  35.257  28.372  1.00  0.00    -0.237 OA
ATOM     78  O   UNL A   1      33.771  33.215  27.653  1.00  0.00    -0.237 OA
ATOM     79  O   UNL A   1      32.895  34.573  29.515  1.00  0.00    -0.744 OA
ENDBRANCH  72  76
ENDBRANCH  45  69
BRANCH  57  80
ATOM     80  C   UNL A   1      43.349  35.044  31.669  1.00  0.00     0.023 A 
ATOM     81  C   UNL A   1      43.551  35.090  33.059  1.00  0.00     0.031 A 
ATOM     82  C   UNL A   1      43.507  36.235  30.936  1.00  0.00     0.131 A 
ATOM     83  C   UNL A   1      43.849  36.312  33.682  1.00  0.00     0.055 A 
ATOM     84  C   UNL A   1      43.863  37.435  31.554  1.00  0.00     0.041 A 
ATOM     85  F   UNL A   1      43.323  36.249  29.607  1.00  0.00    -0.206 F 
ATOM     86  C   UNL A   1      44.024  37.480  32.936  1.00  0.00     0.022 A 
BRANCH  83  87
ATOM     87  S   UNL A   1      43.925  36.370  35.492  1.00  0.00     0.124 S 
ATOM     88  O   UNL A   1      43.285  35.111  35.863  1.00  0.00    -0.237 OA
ATOM     89  O   UNL A   1      45.361  36.453  35.743  1.00  0.00    -0.237 OA
ATOM     90  O   UNL A   1      43.169  37.574  35.830  1.00  0.00    -0.744 OA
ENDBRANCH  83  87
ENDBRANCH  57  80
ENDBRANCH  31  32
ENDBRANCH  24  26
ENDBRANCH  23  24
ENDBRANCH  22  23
ENDBRANCH  21  22
ENDBRANCH   1  21
TORSDOF 20
ENDMDL
MODEL 2
REMARK VINA RESULT:      -9.3      5.084      9.273
REMARK SMILES O=C(CCC(=O)c1c[nH]c2ccccc12)OCCOCCOC(=O)c1ccc(-c2c3nc(c(-c4cc(S(=O)(=O)[O-])ccc4F)c4ccc([nH]4)c(-c4cc(S(=O)(=O)[O-])ccc4F)c4nc(c(-c5cc(S(=O)(=O)[O-])ccc5F)c5ccc2[nH]5)C=C4)C=C3)cc1
REMARK SMILES IDX 19 1 18 2 17 3 16 4 2 5 1 6 3 7 4 8 5 9 6 10 7 11 8 12 15 13
REMARK SMILES IDX 9 14 10 15 14 16 11 18 13 19 12 20 20 21 21 22 22 23 23 24
REMARK SMILES IDX 24 25 25 26 26 27 87 28 27 29 86 30 28 31 29 32 30 33 80 34
REMARK SMILES IDX 31 35 85 36 79 37 81 38 32 39 84 40 78 41 77 42 33 44 65 45
REMARK SMILES IDX 45 46 64 47 46 48 49 49 63 50 82 51 47 52 48 53 62 55 83 56
REMARK SMILES IDX 50 57 34 58 35 59 43 60 36 61 42 62 44 63 41 64 37 65 38 66
REMARK SMILES IDX 39 67 40 68 66 69 67 70 75 71 68 72 74 73 76 74 73 75 69 76
REMARK SMILES IDX 70 77 71 78 72 79 51 80 52 81 60 82 53 83 59 84 61 85 58 86
REMARK SMILES IDX 54 87 55 88 56 89 57 90
REMARK H PARENT 9 17 81 43 49 54
REMARK Flexibility Score: inf
ROOT
ATOM      1  O   UNL A   1      33.156  29.534  24.532  1.00  0.00    -0.374 OA
ENDROOT
BRANCH   1   2
ATOM      2  C   UNL A   1      33.651  28.222  24.274  1.00  0.00     0.202 C 
BRANCH   2   3
ATOM      3  C   UNL A   1      32.845  27.384  23.289  1.00  0.00     0.261 C 
BRANCH   3   4
ATOM      4  O   UNL A   1      33.308  26.023  23.280  1.00  0.00    -0.463 OA
BRANCH   4   5
ATOM      5  C   UNL A   1      33.065  25.266  22.186  1.00  0.00     0.306 C 
ATOM      6  O   UNL A   1      32.591  25.637  21.121  1.00  0.00    -0.252 OA
BRANCH   5   7
ATOM      7  C   UNL A   1      33.614  23.887  22.393  1.00  0.00     0.131 C 
BRANCH   7   8
ATOM      8  C   UNL A   1      33.552  23.483  23.862  1.00  0.00     0.093 C 
BRANCH   8   9
ATOM      9  C   UNL A   1      32.884  22.143  24.105  1.00  0.00     0.165 C 
ATOM     10  O   UNL A   1      31.663  22.057  23.943  1.00  0.00    -0.294 OA
BRANCH   9  11
ATOM     11  C   UNL A   1      33.671  20.953  24.453  1.00  0.00     0.043 A 
ATOM     12  C   UNL A   1      34.877  21.069  25.126  1.00  0.00     0.095 A 
ATOM     13  C   UNL A   1      33.509  19.547  24.161  1.00  0.00     0.010 A 
ATOM     14  N   UNL A   1      35.435  19.832  25.263  1.00  0.00    -0.360 N 
ATOM     15  C   UNL A   1      34.661  18.895  24.622  1.00  0.00     0.046 A 
ATOM     16  C   UNL A   1      32.553  18.744  23.498  1.00  0.00     0.011 A 
ATOM     17  H   UNL A   1      36.269  19.638  25.749  1.00  0.00     0.166 HD
ATOM     18  C   UNL A   1      34.914  17.531  24.414  1.00  0.00     0.027 A 
ATOM     19  C   UNL A   1      32.814  17.389  23.236  1.00  0.00     0.001 A 
ATOM     20  C   UNL A   1      33.987  16.795  23.681  1.00  0.00     0.002 A 
ENDBRANCH   9  11
ENDBRANCH   8   9
ENDBRANCH   7   8
ENDBRANCH   5   7
ENDBRANCH   4   5
ENDBRANCH   3   4
ENDBRANCH   2   3
ENDBRANCH   1   2
BRANCH   1  21
ATOM     21  C   UNL A   1      31.802  29.666  24.964  1.00  0.00     0.202 C 
BRANCH  21  22
ATOM     22  C   UNL A   1      31.507  30.708  26.043  1.00  0.00     0.261 C 
BRANCH  22  23
ATOM     23  O   UNL A   1      32.427  30.642  27.150  1.00  0.00    -0.460 OA
BRANCH  23  24
ATOM     24  C   UNL A   1      33.159  31.761  27.355  1.00  0.00     0.338 C 
ATOM     25  O   UNL A   1      32.774  32.915  27.291  1.00  0.00    -0.246 OA
BRANCH  24  26
ATOM     26  C   UNL A   1      34.533  31.409  27.745  1.00  0.00     0.060 A 
ATOM     27  C   UNL A   1      34.828  30.082  28.077  1.00  0.00     0.016 A 
ATOM     28  C   UNL A   1      35.470  32.422  27.949  1.00  0.00     0.016 A 
ATOM     29  C   UNL A   1      36.059  29.771  28.660  1.00  0.00     0.010 A 
ATOM     30  C   UNL A   1      36.699  32.106  28.533  1.00  0.00     0.010 A 
ATOM     31  C   UNL A   1      36.989  30.785  28.922  1.00  0.00    -0.014 A 
BRANCH  31  32
ATOM     32  C   UNL A   1      38.236  30.512  29.682  1.00  0.00     0.031 A 
ATOM     33  C   UNL A   1      39.228  29.520  29.140  1.00  0.00     0.074 A 
ATOM     34  C   UNL A   1      38.445  31.097  30.875  1.00  0.00     0.049 A 
ATOM     35  N   UNL A   1      40.278  29.002  29.720  1.00  0.00    -0.248 NA
ATOM     36  C   UNL A   1      39.005  29.052  27.763  1.00  0.00     0.031 C 
ATOM     37  C   UNL A   1      37.585  32.117  31.470  1.00  0.00     0.029 A 
ATOM     38  N   UNL A   1      39.420  30.891  31.819  1.00  0.00    -0.354 N 
ATOM     39  C   UNL A   1      40.838  28.135  28.786  1.00  0.00     0.074 A 
ATOM     40  C   UNL A   1      39.998  28.187  27.608  1.00  0.00     0.031 C 
ATOM     41  C   UNL A   1      38.033  32.405  32.703  1.00  0.00     0.029 A 
ATOM     42  C   UNL A   1      39.190  31.564  32.998  1.00  0.00     0.049 A 
ATOM     43  H   UNL A   1      40.207  30.319  31.668  1.00  0.00     0.167 HD
ATOM     44  C   UNL A   1      41.949  27.370  28.908  1.00  0.00     0.034 A 
ATOM     45  C   UNL A   1      39.808  31.472  34.193  1.00  0.00     0.034 A 
ATOM     46  C   UNL A   1      42.774  27.334  30.091  1.00  0.00     0.049 A 
ATOM     47  C   UNL A   1      40.981  30.530  34.336  1.00  0.00     0.074 A 
ATOM     48  C   UNL A   1      43.954  26.640  30.296  1.00  0.00     0.029 A 
ATOM     49  N   UNL A   1      42.496  28.002  31.275  1.00  0.00    -0.354 N 
ATOM     50  N   UNL A   1      41.523  29.745  33.434  1.00  0.00    -0.248 NA
ATOM     51  C   UNL A   1      41.627  30.465  35.655  1.00  0.00     0.031 C 
ATOM     52  C   UNL A   1      44.344  26.822  31.628  1.00  0.00     0.029 A 
ATOM     53  C   UNL A   1      43.451  27.693  32.231  1.00  0.00     0.049 A 
ATOM     54  H   UNL A   1      41.732  28.606  31.417  1.00  0.00     0.167 HD
ATOM     55  C   UNL A   1      42.590  29.116  34.071  1.00  0.00     0.074 A 
ATOM     56  C   UNL A   1      42.626  29.628  35.424  1.00  0.00     0.031 C 
ATOM     57  C   UNL A   1      43.464  28.200  33.582  1.00  0.00     0.034 A 
BRANCH  44  58
ATOM     58  C   UNL A   1      42.315  26.466  27.758  1.00  0.00     0.023 A 
ATOM     59  C   UNL A   1      41.879  25.133  27.688  1.00  0.00     0.031 A 
ATOM     60  C   UNL A   1      43.093  26.964  26.696  1.00  0.00     0.131 A 
ATOM     61  C   UNL A   1      42.253  24.332  26.598  1.00  0.00     0.055 A 
ATOM     62  C   UNL A   1      43.409  26.182  25.586  1.00  0.00     0.041 A 
ATOM     63  F   UNL A   1      43.554  28.225  26.722  1.00  0.00    -0.206 F 
ATOM     64  C   UNL A   1      42.994  24.855  25.535  1.00  0.00     0.022 A 
BRANCH  61  65
ATOM     65  S   UNL A   1      41.828  22.570  26.623  1.00  0.00     0.124 S 
ATOM     66  O   UNL A   1      42.629  22.088  27.746  1.00  0.00    -0.237 OA
ATOM     67  O   UNL A   1      40.384  22.596  26.833  1.00  0.00    -0.237 OA
ATOM     68  O   UNL A   1      42.257  22.094  25.309  1.00  0.00    -0.744 OA
ENDBRANCH  61  65
ENDBRANCH  44  58
BRANCH  45  69
ATOM     69  C   UNL A   1      39.301  32.229  35.374  1.00  0.00     0.023 A 
ATOM     70  C   UNL A   1      39.703  33.550  35.617  1.00  0.00     0.031 A 
ATOM     71  C   UNL A   1      38.470  31.609  36.328  1.00  0.00     0.131 A 
ATOM     72  C   UNL A   1      39.332  34.187  36.811  1.00  0.00     0.055 A 
ATOM     73  C   UNL A   1      38.053  32.269  37.485  1.00  0.00     0.041 A 
ATOM     74  F   UNL A   1      38.050  30.346  36.145  1.00  0.00    -0.206 F 
ATOM     75  C   UNL A   1      38.500  33.560  37.741  1.00  0.00     0.022 A 
BRANCH  72  76
ATOM     76  S   UNL A   1      40.052  35.809  37.184  1.00  0.00     0.124 S 
ATOM     77  O   UNL A   1      39.322  36.188  38.389  1.00  0.00    -0.237 OA
ATOM     78  O   UNL A   1      41.460  35.477  37.362  1.00  0.00    -0.237 OA
ATOM     79  O   UNL A   1      39.744  36.598  35.993  1.00  0.00    -0.744 OA
ENDBRANCH  72  76
ENDBRANCH  45  69
BRANCH  57  80
ATOM     80  C   UNL A   1      44.549  27.722  34.514  1.00  0.00     0.023 A 
ATOM     81  C   UNL A   1      44.434  26.509  35.215  1.00  0.00     0.031 A 
ATOM     82  C   UNL A   1      45.709  28.493  34.710  1.00  0.00     0.131 A 
ATOM     83  C   UNL A   1      45.438  26.126  36.118  1.00  0.00     0.055 A 
ATOM     84  C   UNL A   1      46.732  28.076  35.564  1.00  0.00     0.041 A 
ATOM     85  F   UNL A   1      45.869  29.662  34.069  1.00  0.00    -0.206 F 
ATOM     86  C   UNL A   1      46.594  26.893  36.282  1.00  0.00     0.022 A 
BRANCH  83  87
ATOM     87  S   UNL A   1      45.175  24.648  37.135  1.00  0.00     0.124 S 
ATOM     88  O   UNL A   1      44.277  23.859  36.299  1.00  0.00    -0.237 OA
ATOM     89  O   UNL A   1      46.530  24.126  37.285  1.00  0.00    -0.237 OA
ATOM     90  O   UNL A   1      44.578  25.177  38.360  1.00  0.00    -0.744 OA
ENDBRANCH  83  87
ENDBRANCH  57  80
ENDBRANCH  31  32
ENDBRANCH  24  26
ENDBRANCH  23  24
ENDBRANCH  22  23
ENDBRANCH  21  22
ENDBRANCH   1  21
TORSDOF 20
ENDMDL
MODEL 3
REMARK VINA RESULT:      -9.1      4.641     10.682
REMARK SMILES O=C(CCC(=O)c1c[nH]c2ccccc12)OCCOCCOC(=O)c1ccc(-c2c3nc(c(-c4cc(S(=O)(=O)[O-])ccc4F)c4ccc([nH]4)c(-c4cc(S(=O)(=O)[O-])ccc4F)c4nc(c(-c5cc(S(=O)(=O)[O-])ccc5F)c5ccc2[nH]5)C=C4)C=C3)cc1
REMARK SMILES IDX 19 1 18 2 17 3 16 4 2 5 1 6 3 7 4 8 5 9 6 10 7 11 8 12 15 13
REMARK SMILES IDX 9 14 10 15 14 16 11 18 13 19 12 20 20 21 21 22 22 23 23 24
REMARK SMILES IDX 24 25 25 26 26 27 87 28 27 29 86 30 28 31 29 32 30 33 80 34
REMARK SMILES IDX 31 35 85 36 79 37 81 38 32 39 84 40 78 41 77 42 33 44 65 45
REMARK SMILES IDX 45 46 64 47 46 48 49 49 63 50 82 51 47 52 48 53 62 55 83 56
REMARK SMILES IDX 50 57 34 58 35 59 43 60 36 61 42 62 44 63 41 64 37 65 38 66
REMARK SMILES IDX 39 67 40 68 66 69 67 70 75 71 68 72 74 73 76 74 73 75 69 76
REMARK SMILES IDX 70 77 71 78 72 79 51 80 52 81 60 82 53 83 59 84 61 85 58 86
REMARK SMILES IDX 54 87 55 88 56 89 57 90
REMARK H PARENT 9 17 81 43 49 54
REMARK Flexibility Score: inf
ROOT
ATOM      1  O   UNL A   1      35.545  21.813  24.706  1.00  0.00    -0.374 OA
ENDROOT
BRANCH   1   2
ATOM      2  C   UNL A   1      34.191  21.886  25.146  1.00  0.00     0.202 C 
BRANCH   2   3
ATOM      3  C   UNL A   1      33.296  22.867  24.397  1.00  0.00     0.261 C 
BRANCH   3   4
ATOM      4  O   UNL A   1      32.391  23.522  25.302  1.00  0.00    -0.463 OA
BRANCH   4   5
ATOM      5  C   UNL A   1      32.645  24.804  25.653  1.00  0.00     0.306 C 
ATOM      6  O   UNL A   1      33.672  25.436  25.448  1.00  0.00    -0.252 OA
BRANCH   5   7
ATOM      7  C   UNL A   1      31.405  25.430  26.215  1.00  0.00     0.131 C 
BRANCH   7   8
ATOM      8  C   UNL A   1      30.271  25.424  25.194  1.00  0.00     0.093 C 
BRANCH   8   9
ATOM      9  C   UNL A   1      30.618  26.102  23.884  1.00  0.00     0.165 C 
ATOM     10  O   UNL A   1      30.907  25.395  22.914  1.00  0.00    -0.294 OA
BRANCH   9  11
ATOM     11  C   UNL A   1      30.544  27.562  23.740  1.00  0.00     0.043 A 
ATOM     12  C   UNL A   1      31.646  28.360  24.004  1.00  0.00     0.095 A 
ATOM     13  C   UNL A   1      29.460  28.467  23.433  1.00  0.00     0.010 A 
ATOM     14  N   UNL A   1      31.295  29.670  23.865  1.00  0.00    -0.360 N 
ATOM     15  C   UNL A   1      29.953  29.769  23.589  1.00  0.00     0.046 A 
ATOM     16  C   UNL A   1      28.091  28.347  23.104  1.00  0.00     0.011 A 
ATOM     17  H   UNL A   1      31.912  30.433  23.949  1.00  0.00     0.166 HD
ATOM     18  C   UNL A   1      29.155  30.917  23.481  1.00  0.00     0.027 A 
ATOM     19  C   UNL A   1      27.266  29.482  23.044  1.00  0.00     0.001 A 
ATOM     20  C   UNL A   1      27.793  30.750  23.242  1.00  0.00     0.002 A 
ENDBRANCH   9  11
ENDBRANCH   8   9
ENDBRANCH   7   8
ENDBRANCH   5   7
ENDBRANCH   4   5
ENDBRANCH   3   4
ENDBRANCH   2   3
ENDBRANCH   1   2
BRANCH   1  21
ATOM     21  C   UNL A   1      36.220  20.561  24.822  1.00  0.00     0.202 C 
BRANCH  21  22
ATOM     22  C   UNL A   1      37.738  20.596  25.006  1.00  0.00     0.261 C 
BRANCH  22  23
ATOM     23  O   UNL A   1      38.159  21.558  25.991  1.00  0.00    -0.460 OA
BRANCH  23  24
ATOM     24  C   UNL A   1      39.493  21.599  26.219  1.00  0.00     0.338 C 
ATOM     25  O   UNL A   1      40.326  20.783  25.865  1.00  0.00    -0.246 OA
BRANCH  24  26
ATOM     26  C   UNL A   1      39.852  22.837  26.927  1.00  0.00     0.060 A 
ATOM     27  C   UNL A   1      39.310  24.052  26.494  1.00  0.00     0.016 A 
ATOM     28  C   UNL A   1      40.855  22.807  27.896  1.00  0.00     0.016 A 
ATOM     29  C   UNL A   1      39.807  25.254  27.004  1.00  0.00     0.010 A 
ATOM     30  C   UNL A   1      41.349  24.012  28.403  1.00  0.00     0.010 A 
ATOM     31  C   UNL A   1      40.852  25.243  27.937  1.00  0.00    -0.014 A 
BRANCH  31  32
ATOM     32  C   UNL A   1      41.507  26.501  28.378  1.00  0.00     0.031 A 
ATOM     33  C   UNL A   1      40.676  27.585  29.006  1.00  0.00     0.074 A 
ATOM     34  C   UNL A   1      42.820  26.695  28.158  1.00  0.00     0.049 A 
ATOM     35  N   UNL A   1      41.004  28.817  29.292  1.00  0.00    -0.248 NA
ATOM     36  C   UNL A   1      39.291  27.232  29.358  1.00  0.00     0.031 C 
ATOM     37  C   UNL A   1      43.735  25.695  27.614  1.00  0.00     0.029 A 
ATOM     38  N   UNL A   1      43.605  27.809  28.326  1.00  0.00    -0.354 N 
ATOM     39  C   UNL A   1      39.865  29.395  29.846  1.00  0.00     0.074 A 
ATOM     40  C   UNL A   1      38.833  28.380  29.839  1.00  0.00     0.031 C 
ATOM     41  C   UNL A   1      44.942  26.256  27.434  1.00  0.00     0.029 A 
ATOM     42  C   UNL A   1      44.875  27.664  27.817  1.00  0.00     0.049 A 
ATOM     43  H   UNL A   1      43.290  28.631  28.768  1.00  0.00     0.167 HD
ATOM     44  C   UNL A   1      39.704  30.656  30.314  1.00  0.00     0.034 A 
ATOM     45  C   UNL A   1      45.853  28.574  27.632  1.00  0.00     0.034 A 
ATOM     46  C   UNL A   1      40.747  31.652  30.314  1.00  0.00     0.049 A 
ATOM     47  C   UNL A   1      45.612  30.001  28.064  1.00  0.00     0.074 A 
ATOM     48  C   UNL A   1      40.706  32.940  30.820  1.00  0.00     0.029 A 
ATOM     49  N   UNL A   1      42.010  31.483  29.764  1.00  0.00    -0.354 N 
ATOM     50  N   UNL A   1      44.544  30.525  28.621  1.00  0.00    -0.248 NA
ATOM     51  C   UNL A   1      46.706  30.958  27.847  1.00  0.00     0.031 C 
ATOM     52  C   UNL A   1      41.913  33.574  30.502  1.00  0.00     0.029 A 
ATOM     53  C   UNL A   1      42.737  32.658  29.869  1.00  0.00     0.049 A 
ATOM     54  H   UNL A   1      42.341  30.650  29.358  1.00  0.00     0.167 HD
ATOM     55  C   UNL A   1      44.852  31.864  28.845  1.00  0.00     0.074 A 
ATOM     56  C   UNL A   1      46.209  32.062  28.383  1.00  0.00     0.031 C 
ATOM     57  C   UNL A   1      44.085  32.844  29.388  1.00  0.00     0.034 A 
BRANCH  44  58
ATOM     58  C   UNL A   1      38.341  31.054  30.818  1.00  0.00     0.023 A 
ATOM     59  C   UNL A   1      37.371  31.623  29.976  1.00  0.00     0.031 A 
ATOM     60  C   UNL A   1      37.998  30.828  32.164  1.00  0.00     0.131 A 
ATOM     61  C   UNL A   1      36.117  31.981  30.497  1.00  0.00     0.055 A 
ATOM     62  C   UNL A   1      36.730  31.129  32.661  1.00  0.00     0.041 A 
ATOM     63  F   UNL A   1      38.893  30.306  33.017  1.00  0.00    -0.206 F 
ATOM     64  C   UNL A   1      35.782  31.715  31.828  1.00  0.00     0.022 A 
BRANCH  61  65
ATOM     65  S   UNL A   1      34.953  32.877  29.434  1.00  0.00     0.124 S 
ATOM     66  O   UNL A   1      35.844  33.798  28.731  1.00  0.00    -0.237 OA
ATOM     67  O   UNL A   1      34.375  31.808  28.628  1.00  0.00    -0.237 OA
ATOM     68  O   UNL A   1      34.037  33.508  30.382  1.00  0.00    -0.744 OA
ENDBRANCH  61  65
ENDBRANCH  44  58
BRANCH  45  69
ATOM     69  C   UNL A   1      47.124  28.199  26.945  1.00  0.00     0.023 A 
ATOM     70  C   UNL A   1      47.212  28.172  25.546  1.00  0.00     0.031 A 
ATOM     71  C   UNL A   1      48.248  27.779  27.683  1.00  0.00     0.131 A 
ATOM     72  C   UNL A   1      48.369  27.673  24.927  1.00  0.00     0.055 A 
ATOM     73  C   UNL A   1      49.418  27.342  27.062  1.00  0.00     0.041 A 
ATOM     74  F   UNL A   1      48.222  27.789  29.026  1.00  0.00    -0.206 F 
ATOM     75  C   UNL A   1      49.477  27.269  25.674  1.00  0.00     0.022 A 
BRANCH  72  76
ATOM     76  S   UNL A   1      48.356  27.451  23.127  1.00  0.00     0.124 S 
ATOM     77  O   UNL A   1      49.619  28.072  22.743  1.00  0.00    -0.237 OA
ATOM     78  O   UNL A   1      48.291  25.999  23.006  1.00  0.00    -0.237 OA
ATOM     79  O   UNL A   1      47.154  28.167  22.706  1.00  0.00    -0.744 OA
ENDBRANCH  72  76
ENDBRANCH  45  69
BRANCH  57  80
ATOM     80  C   UNL A   1      44.714  34.206  29.534  1.00  0.00     0.023 A 
ATOM     81  C   UNL A   1      44.775  35.108  28.458  1.00  0.00     0.031 A 
ATOM     82  C   UNL A   1      45.268  34.605  30.765  1.00  0.00     0.131 A 
ATOM     83  C   UNL A   1      45.420  36.344  28.618  1.00  0.00     0.055 A 
ATOM     84  C   UNL A   1      45.854  35.860  30.934  1.00  0.00     0.041 A 
ATOM     85  F   UNL A   1      45.240  33.781  31.825  1.00  0.00    -0.206 F 
ATOM     86  C   UNL A   1      45.944  36.732  29.854  1.00  0.00     0.022 A 
BRANCH  83  87
ATOM     87  S   UNL A   1      45.638  37.405  27.164  1.00  0.00     0.124 S 
ATOM     88  O   UNL A   1      46.012  36.439  26.136  1.00  0.00    -0.237 OA
ATOM     89  O   UNL A   1      44.318  38.011  27.018  1.00  0.00    -0.237 OA
ATOM     90  O   UNL A   1      46.699  38.326  27.567  1.00  0.00    -0.744 OA
ENDBRANCH  83  87
ENDBRANCH  57  80
ENDBRANCH  31  32
ENDBRANCH  24  26
ENDBRANCH  23  24
ENDBRANCH  22  23
ENDBRANCH  21  22
ENDBRANCH   1  21
TORSDOF 20
ENDMDL
