MODEL 1
REMARK VINA RESULT:     -12.0      0.000      0.000
REMARK SMILES CCc1cc(OC(F)(F)F)cc2c1O[C@H](C(F)(F)F)C(C(=O)OCCOCCOC(=O)c1ccc(-c3c4nc(c(-c5cc(S(=O)(=O)[O-])ccc5F)c5ccc([nH]5)c(-c5cc(S(=O)(=O)[O-])ccc5F)c5nc(c(-c6cc(S(=O)(=O)[O-])ccc6F)c6ccc3[nH]6)C=C5)C=C4)cc1)=C2
REMARK SMILES IDX 27 1 26 2 25 3 24 4 23 5 21 6 22 7 20 8 3 9 4 10 13 11 5 12
REMARK SMILES IDX 12 13 14 14 11 15 95 16 15 17 2 18 1 19 6 20 7 21 8 22 9 23
REMARK SMILES IDX 10 24 16 25 17 26 18 27 19 28 28 29 29 30 30 31 31 32 32 33
REMARK SMILES IDX 33 34 94 35 34 36 93 37 35 38 36 39 37 40 87 41 38 42 92 43
REMARK SMILES IDX 86 44 88 45 39 46 91 47 85 48 84 49 40 51 72 52 52 53 71 54
REMARK SMILES IDX 53 55 56 56 70 57 89 58 54 59 55 60 69 62 90 63 57 64 41 65
REMARK SMILES IDX 42 66 50 67 43 68 49 69 51 70 48 71 44 72 45 73 46 74 47 75
REMARK SMILES IDX 73 76 74 77 82 78 75 79 81 80 83 81 80 82 76 83 77 84 78 85
REMARK SMILES IDX 79 86 58 87 59 88 67 89 60 90 66 91 68 92 65 93 61 94 62 95
REMARK SMILES IDX 63 96 64 97
REMARK H PARENT 88 50 56 61
REMARK Flexibility Score: inf
ROOT
ATOM      1  C   UNL A   1      35.010  21.103  25.128  1.00  0.00     0.202 C 
ENDROOT
BRANCH   1   2
ATOM      2  O   UNL A   1      33.912  20.238  24.850  1.00  0.00    -0.374 OA
BRANCH   2   3
ATOM      3  C   UNL A   1      32.652  20.574  25.430  1.00  0.00     0.202 C 
BRANCH   3   4
ATOM      4  C   UNL A   1      32.161  22.007  25.205  1.00  0.00     0.261 C 
BRANCH   4   5
ATOM      5  O   UNL A   1      32.161  22.773  26.427  1.00  0.00    -0.460 OA
BRANCH   5   6
ATOM      6  C   UNL A   1      31.074  23.555  26.612  1.00  0.00     0.338 C 
ATOM      7  O   UNL A   1      30.113  23.300  27.322  1.00  0.00    -0.246 OA
BRANCH   6   8
ATOM      8  C   UNL A   1      31.208  24.864  25.938  1.00  0.00     0.087 C 
ATOM      9  C   UNL A   1      31.478  28.936  25.083  1.00  0.00    -0.002 A 
ATOM     10  C   UNL A   1      30.849  29.435  23.933  1.00  0.00     0.054 A 
ATOM     11  C   UNL A   1      31.345  27.571  25.364  1.00  0.00     0.131 A 
ATOM     12  C   UNL A   1      30.064  28.607  23.122  1.00  0.00     0.130 A 
ATOM     13  C   UNL A   1      30.564  26.718  24.566  1.00  0.00     0.021 A 
ATOM     14  O   UNL A   1      31.977  27.112  26.491  1.00  0.00    -0.475 OA
ATOM     15  C   UNL A   1      29.930  27.247  23.440  1.00  0.00     0.058 A 
ATOM     16  C   UNL A   1      30.372  25.325  24.993  1.00  0.00     0.027 C 
ATOM     17  C   UNL A   1      32.344  25.717  26.446  1.00  0.00     0.316 C 
BRANCH   9  18
ATOM     18  C   UNL A   1      32.339  29.820  25.963  1.00  0.00     0.036 C 
ATOM     19  C   UNL A   1      31.649  31.078  26.474  1.00  0.00     0.009 C 
ENDBRANCH   9  18
BRANCH  12  20
ATOM     20  O   UNL A   1      29.388  29.000  22.001  1.00  0.00    -0.406 OA
BRANCH  20  21
ATOM     21  C   UNL A   1      28.329  29.931  22.168  1.00  0.00     0.573 C 
ATOM     22  F   UNL A   1      27.738  30.222  20.987  1.00  0.00    -0.132 F 
ATOM     23  F   UNL A   1      27.400  29.460  23.027  1.00  0.00    -0.132 F 
ATOM     24  F   UNL A   1      28.827  31.078  22.679  1.00  0.00    -0.132 F 
ENDBRANCH  20  21
ENDBRANCH  12  20
BRANCH  17  25
ATOM     25  C   UNL A   1      33.653  25.515  25.659  1.00  0.00     0.430 C 
ATOM     26  F   UNL A   1      34.386  26.648  25.551  1.00  0.00    -0.167 F 
ATOM     27  F   UNL A   1      34.447  24.582  26.242  1.00  0.00    -0.167 F 
ATOM     28  F   UNL A   1      33.412  25.082  24.401  1.00  0.00    -0.167 F 
ENDBRANCH  17  25
ENDBRANCH   6   8
ENDBRANCH   5   6
ENDBRANCH   4   5
ENDBRANCH   3   4
ENDBRANCH   2   3
ENDBRANCH   1   2
BRANCH   1  29
ATOM     29  C   UNL A   1      36.422  20.530  24.964  1.00  0.00     0.261 C 
BRANCH  29  30
ATOM     30  O   UNL A   1      37.433  21.548  25.030  1.00  0.00    -0.460 OA
BRANCH  30  31
ATOM     31  C   UNL A   1      38.548  21.174  25.701  1.00  0.00     0.338 C 
ATOM     32  O   UNL A   1      39.098  20.081  25.663  1.00  0.00    -0.246 OA
BRANCH  31  33
ATOM     33  C   UNL A   1      39.150  22.344  26.366  1.00  0.00     0.060 A 
ATOM     34  C   UNL A   1      38.614  23.602  26.062  1.00  0.00     0.016 A 
ATOM     35  C   UNL A   1      40.245  22.226  27.227  1.00  0.00     0.016 A 
ATOM     36  C   UNL A   1      39.204  24.753  26.575  1.00  0.00     0.010 A 
ATOM     37  C   UNL A   1      40.841  23.386  27.734  1.00  0.00     0.010 A 
ATOM     38  C   UNL A   1      40.344  24.655  27.381  1.00  0.00    -0.014 A 
BRANCH  38  39
ATOM     39  C   UNL A   1      41.102  25.882  27.723  1.00  0.00     0.031 A 
ATOM     40  C   UNL A   1      40.401  26.980  28.476  1.00  0.00     0.074 A 
ATOM     41  C   UNL A   1      42.403  26.000  27.403  1.00  0.00     0.049 A 
ATOM     42  N   UNL A   1      40.848  28.149  28.851  1.00  0.00    -0.248 NA
ATOM     43  C   UNL A   1      39.002  26.720  28.854  1.00  0.00     0.031 C 
ATOM     44  C   UNL A   1      43.197  24.981  26.719  1.00  0.00     0.029 A 
ATOM     45  N   UNL A   1      43.284  27.032  27.607  1.00  0.00    -0.354 N 
ATOM     46  C   UNL A   1      39.790  28.767  29.508  1.00  0.00     0.074 A 
ATOM     47  C   UNL A   1      38.667  27.857  29.444  1.00  0.00     0.031 C 
ATOM     48  C   UNL A   1      44.449  25.443  26.553  1.00  0.00     0.029 A 
ATOM     49  C   UNL A   1      44.533  26.803  27.081  1.00  0.00     0.049 A 
ATOM     50  H   UNL A   1      43.043  27.858  28.085  1.00  0.00     0.167 HD
ATOM     51  C   UNL A   1      39.762  29.979  30.116  1.00  0.00     0.034 A 
ATOM     52  C   UNL A   1      45.611  27.611  27.012  1.00  0.00     0.034 A 
ATOM     53  C   UNL A   1      40.889  30.880  30.159  1.00  0.00     0.049 A 
ATOM     54  C   UNL A   1      45.528  28.993  27.614  1.00  0.00     0.074 A 
ATOM     55  C   UNL A   1      40.974  32.126  30.753  1.00  0.00     0.029 A 
ATOM     56  N   UNL A   1      42.123  30.636  29.571  1.00  0.00    -0.354 N 
ATOM     57  N   UNL A   1      44.522  29.566  28.237  1.00  0.00    -0.248 NA
ATOM     58  C   UNL A   1      46.727  29.835  27.512  1.00  0.00     0.031 C 
ATOM     59  C   UNL A   1      42.233  32.665  30.466  1.00  0.00     0.029 A 
ATOM     60  C   UNL A   1      42.964  31.723  29.760  1.00  0.00     0.049 A 
ATOM     61  H   UNL A   1      42.367  29.812  29.091  1.00  0.00     0.167 HD
ATOM     62  C   UNL A   1      44.982  30.822  28.626  1.00  0.00     0.074 A 
ATOM     63  C   UNL A   1      46.356  30.917  28.180  1.00  0.00     0.031 C 
ATOM     64  C   UNL A   1      44.330  31.806  29.299  1.00  0.00     0.034 A 
BRANCH  51  65
ATOM     65  C   UNL A   1      38.455  30.414  30.733  1.00  0.00     0.023 A 
ATOM     66  C   UNL A   1      37.465  31.075  29.984  1.00  0.00     0.031 A 
ATOM     67  C   UNL A   1      38.207  30.191  32.098  1.00  0.00     0.131 A 
ATOM     68  C   UNL A   1      36.305  31.547  30.618  1.00  0.00     0.055 A 
ATOM     69  C   UNL A   1      37.018  30.596  32.708  1.00  0.00     0.041 A 
ATOM     70  F   UNL A   1      39.126  29.588  32.870  1.00  0.00    -0.206 F 
ATOM     71  C   UNL A   1      36.064  31.290  31.970  1.00  0.00     0.022 A 
BRANCH  68  72
ATOM     72  S   UNL A   1      35.181  32.621  29.684  1.00  0.00     0.124 S 
ATOM     73  O   UNL A   1      36.106  33.614  29.142  1.00  0.00    -0.237 OA
ATOM     74  O   UNL A   1      34.594  31.700  28.719  1.00  0.00    -0.237 OA
ATOM     75  O   UNL A   1      34.263  33.125  30.704  1.00  0.00    -0.744 OA
ENDBRANCH  68  72
ENDBRANCH  51  65
BRANCH  52  76
ATOM     76  C   UNL A   1      46.849  27.161  26.312  1.00  0.00     0.023 A 
ATOM     77  C   UNL A   1      47.918  26.591  27.020  1.00  0.00     0.031 A 
ATOM     78  C   UNL A   1      47.003  27.354  24.928  1.00  0.00     0.131 A 
ATOM     79  C   UNL A   1      49.112  26.276  26.349  1.00  0.00     0.055 A 
ATOM     80  C   UNL A   1      48.171  26.990  24.257  1.00  0.00     0.041 A 
ATOM     81  F   UNL A   1      46.011  27.896  24.203  1.00  0.00    -0.206 F 
ATOM     82  C   UNL A   1      49.240  26.460  24.970  1.00  0.00     0.022 A 
BRANCH  79  83
ATOM     83  S   UNL A   1      50.532  25.705  27.324  1.00  0.00     0.124 S 
ATOM     84  O   UNL A   1      50.468  26.586  28.485  1.00  0.00    -0.237 OA
ATOM     85  O   UNL A   1      50.191  24.306  27.560  1.00  0.00    -0.237 OA
ATOM     86  O   UNL A   1      51.667  25.927  26.432  1.00  0.00    -0.744 OA
ENDBRANCH  79  83
ENDBRANCH  52  76
BRANCH  64  87
ATOM     87  C   UNL A   1      45.120  33.049  29.631  1.00  0.00     0.023 A 
ATOM     88  C   UNL A   1      45.097  34.186  28.805  1.00  0.00     0.031 A 
ATOM     89  C   UNL A   1      45.913  33.092  30.793  1.00  0.00     0.131 A 
ATOM     90  C   UNL A   1      45.894  35.297  29.123  1.00  0.00     0.055 A 
ATOM     91  C   UNL A   1      46.655  34.221  31.135  1.00  0.00     0.041 A 
ATOM     92  F   UNL A   1      45.973  32.033  31.617  1.00  0.00    -0.206 F 
ATOM     93  C   UNL A   1      46.660  35.328  30.291  1.00  0.00     0.022 A 
BRANCH  90  94
ATOM     94  S   UNL A   1      45.984  36.671  27.942  1.00  0.00     0.124 S 
ATOM     95  O   UNL A   1      45.748  35.995  26.671  1.00  0.00    -0.237 OA
ATOM     96  O   UNL A   1      44.916  37.552  28.404  1.00  0.00    -0.237 OA
ATOM     97  O   UNL A   1      47.338  37.192  28.125  1.00  0.00    -0.744 OA
ENDBRANCH  90  94
ENDBRANCH  64  87
ENDBRANCH  38  39
ENDBRANCH  31  33
ENDBRANCH  30  31
ENDBRANCH  29  30
ENDBRANCH   1  29
TORSDOF 21
ENDMDL
MODEL 2
REMARK VINA RESULT:     -11.6      4.498      9.918
REMARK SMILES CCc1cc(OC(F)(F)F)cc2c1O[C@H](C(F)(F)F)C(C(=O)OCCOCCOC(=O)c1ccc(-c3c4nc(c(-c5cc(S(=O)(=O)[O-])ccc5F)c5ccc([nH]5)c(-c5cc(S(=O)(=O)[O-])ccc5F)c5nc(c(-c6cc(S(=O)(=O)[O-])ccc6F)c6ccc3[nH]6)C=C5)C=C4)cc1)=C2
REMARK SMILES IDX 27 1 26 2 25 3 24 4 23 5 21 6 22 7 20 8 3 9 4 10 13 11 5 12
REMARK SMILES IDX 12 13 14 14 11 15 95 16 15 17 2 18 1 19 6 20 7 21 8 22 9 23
REMARK SMILES IDX 10 24 16 25 17 26 18 27 19 28 28 29 29 30 30 31 31 32 32 33
REMARK SMILES IDX 33 34 94 35 34 36 93 37 35 38 36 39 37 40 87 41 38 42 92 43
REMARK SMILES IDX 86 44 88 45 39 46 91 47 85 48 84 49 40 51 72 52 52 53 71 54
REMARK SMILES IDX 53 55 56 56 70 57 89 58 54 59 55 60 69 62 90 63 57 64 41 65
REMARK SMILES IDX 42 66 50 67 43 68 49 69 51 70 48 71 44 72 45 73 46 74 47 75
REMARK SMILES IDX 73 76 74 77 82 78 75 79 81 80 83 81 80 82 76 83 77 84 78 85
REMARK SMILES IDX 79 86 58 87 59 88 67 89 60 90 66 91 68 92 65 93 61 94 62 95
REMARK SMILES IDX 63 96 64 97
REMARK H PARENT 88 50 56 61
REMARK Flexibility Score: inf
ROOT
ATOM      1  C   UNL A   1      31.236  30.039  25.015  1.00  0.00     0.202 C 
ENDROOT
BRANCH   1   2
ATOM      2  O   UNL A   1      30.893  28.848  24.311  1.00  0.00    -0.374 OA
BRANCH   2   3
ATOM      3  C   UNL A   1      31.310  28.750  22.950  1.00  0.00     0.202 C 
BRANCH   3   4
ATOM      4  C   UNL A   1      30.814  27.527  22.173  1.00  0.00     0.261 C 
BRANCH   4   5
ATOM      5  O   UNL A   1      31.516  26.327  22.557  1.00  0.00    -0.460 OA
BRANCH   5   6
ATOM      6  C   UNL A   1      30.879  25.558  23.468  1.00  0.00     0.338 C 
ATOM      7  O   UNL A   1      29.704  25.644  23.791  1.00  0.00    -0.246 OA
BRANCH   6   8
ATOM      8  C   UNL A   1      31.742  24.473  23.982  1.00  0.00     0.087 C 
ATOM      9  C   UNL A   1      34.744  21.625  24.492  1.00  0.00    -0.002 A 
ATOM     10  C   UNL A   1      34.409  20.365  25.010  1.00  0.00     0.054 A 
ATOM     11  C   UNL A   1      33.712  22.551  24.300  1.00  0.00     0.131 A 
ATOM     12  C   UNL A   1      33.077  20.024  25.274  1.00  0.00     0.130 A 
ATOM     13  C   UNL A   1      32.368  22.235  24.558  1.00  0.00     0.021 A 
ATOM     14  O   UNL A   1      34.072  23.776  23.799  1.00  0.00    -0.475 OA
ATOM     15  C   UNL A   1      32.061  20.966  25.051  1.00  0.00     0.058 A 
ATOM     16  C   UNL A   1      31.330  23.216  24.216  1.00  0.00     0.027 C 
ATOM     17  C   UNL A   1      33.190  24.858  24.166  1.00  0.00     0.316 C 
BRANCH   9  18
ATOM     18  C   UNL A   1      36.183  22.010  24.213  1.00  0.00     0.036 C 
ATOM     19  C   UNL A   1      37.221  21.028  24.739  1.00  0.00     0.009 C 
ENDBRANCH   9  18
BRANCH  12  20
ATOM     20  O   UNL A   1      32.644  18.818  25.750  1.00  0.00    -0.406 OA
BRANCH  20  21
ATOM     21  C   UNL A   1      32.620  17.726  24.843  1.00  0.00     0.573 C 
ATOM     22  F   UNL A   1      31.952  16.671  25.360  1.00  0.00    -0.132 F 
ATOM     23  F   UNL A   1      32.051  18.082  23.670  1.00  0.00    -0.132 F 
ATOM     24  F   UNL A   1      33.887  17.335  24.590  1.00  0.00    -0.132 F 
ENDBRANCH  20  21
ENDBRANCH  12  20
BRANCH  17  25
ATOM     25  C   UNL A   1      33.505  25.371  25.583  1.00  0.00     0.430 C 
ATOM     26  F   UNL A   1      33.236  26.688  25.742  1.00  0.00    -0.167 F 
ATOM     27  F   UNL A   1      32.792  24.704  26.525  1.00  0.00    -0.167 F 
ATOM     28  F   UNL A   1      34.810  25.196  25.895  1.00  0.00    -0.167 F 
ENDBRANCH  17  25
ENDBRANCH   6   8
ENDBRANCH   5   6
ENDBRANCH   4   5
ENDBRANCH   3   4
ENDBRANCH   2   3
ENDBRANCH   1   2
BRANCH   1  29
ATOM     29  C   UNL A   1      32.574  30.060  25.760  1.00  0.00     0.261 C 
BRANCH  29  30
ATOM     30  O   UNL A   1      32.440  30.545  27.105  1.00  0.00    -0.460 OA
BRANCH  30  31
ATOM     31  C   UNL A   1      33.144  31.675  27.357  1.00  0.00     0.338 C 
ATOM     32  O   UNL A   1      32.716  32.821  27.367  1.00  0.00    -0.246 OA
BRANCH  31  33
ATOM     33  C   UNL A   1      34.501  31.329  27.816  1.00  0.00     0.060 A 
ATOM     34  C   UNL A   1      34.740  29.994  28.167  1.00  0.00     0.016 A 
ATOM     35  C   UNL A   1      35.506  32.291  27.952  1.00  0.00     0.016 A 
ATOM     36  C   UNL A   1      35.969  29.625  28.707  1.00  0.00     0.010 A 
ATOM     37  C   UNL A   1      36.738  31.918  28.503  1.00  0.00     0.010 A 
ATOM     38  C   UNL A   1      36.960  30.591  28.915  1.00  0.00    -0.014 A 
BRANCH  38  39
ATOM     39  C   UNL A   1      38.165  30.239  29.704  1.00  0.00     0.031 A 
ATOM     40  C   UNL A   1      39.153  29.266  29.121  1.00  0.00     0.074 A 
ATOM     41  C   UNL A   1      38.393  30.807  30.902  1.00  0.00     0.049 A 
ATOM     42  N   UNL A   1      40.254  28.787  29.640  1.00  0.00    -0.248 NA
ATOM     43  C   UNL A   1      38.855  28.765  27.770  1.00  0.00     0.031 C 
ATOM     44  C   UNL A   1      37.531  31.800  31.541  1.00  0.00     0.029 A 
ATOM     45  N   UNL A   1      39.419  30.626  31.795  1.00  0.00    -0.354 N 
ATOM     46  C   UNL A   1      40.781  27.928  28.682  1.00  0.00     0.074 A 
ATOM     47  C   UNL A   1      39.857  27.923  27.568  1.00  0.00     0.031 C 
ATOM     48  C   UNL A   1      38.061  32.134  32.731  1.00  0.00     0.029 A 
ATOM     49  C   UNL A   1      39.275  31.353  32.953  1.00  0.00     0.049 A 
ATOM     50  H   UNL A   1      40.185  30.032  31.622  1.00  0.00     0.167 HD
ATOM     51  C   UNL A   1      41.935  27.216  28.725  1.00  0.00     0.034 A 
ATOM     52  C   UNL A   1      40.026  31.363  34.074  1.00  0.00     0.034 A 
ATOM     53  C   UNL A   1      42.838  27.223  29.850  1.00  0.00     0.049 A 
ATOM     54  C   UNL A   1      41.256  30.491  34.137  1.00  0.00     0.074 A 
ATOM     55  C   UNL A   1      44.036  26.548  29.998  1.00  0.00     0.029 A 
ATOM     56  N   UNL A   1      42.635  27.931  31.028  1.00  0.00    -0.354 N 
ATOM     57  N   UNL A   1      41.748  29.685  33.223  1.00  0.00    -0.248 NA
ATOM     58  C   UNL A   1      42.039  30.536  35.380  1.00  0.00     0.031 C 
ATOM     59  C   UNL A   1      44.521  26.791  31.288  1.00  0.00     0.029 A 
ATOM     60  C   UNL A   1      43.668  27.682  31.919  1.00  0.00     0.049 A 
ATOM     61  H   UNL A   1      41.870  28.525  31.204  1.00  0.00     0.167 HD
ATOM     62  C   UNL A   1      42.913  29.153  33.771  1.00  0.00     0.074 A 
ATOM     63  C   UNL A   1      43.056  29.739  35.088  1.00  0.00     0.031 C 
ATOM     64  C   UNL A   1      43.790  28.267  33.233  1.00  0.00     0.034 A 
BRANCH  51  65
ATOM     65  C   UNL A   1      42.249  26.334  27.541  1.00  0.00     0.023 A 
ATOM     66  C   UNL A   1      41.818  24.997  27.478  1.00  0.00     0.031 A 
ATOM     67  C   UNL A   1      43.016  26.829  26.472  1.00  0.00     0.131 A 
ATOM     68  C   UNL A   1      42.213  24.184  26.404  1.00  0.00     0.055 A 
ATOM     69  C   UNL A   1      43.341  26.038  25.370  1.00  0.00     0.041 A 
ATOM     70  F   UNL A   1      43.475  28.091  26.489  1.00  0.00    -0.206 F 
ATOM     71  C   UNL A   1      42.951  24.702  25.337  1.00  0.00     0.022 A 
BRANCH  68  72
ATOM     72  S   UNL A   1      41.867  22.406  26.489  1.00  0.00     0.124 S 
ATOM     73  O   UNL A   1      42.430  22.057  27.791  1.00  0.00    -0.237 OA
ATOM     74  O   UNL A   1      40.413  22.362  26.388  1.00  0.00    -0.237 OA
ATOM     75  O   UNL A   1      42.589  21.862  25.339  1.00  0.00    -0.744 OA
ENDBRANCH  68  72
ENDBRANCH  51  65
BRANCH  52  76
ATOM     76  C   UNL A   1      39.619  32.188  35.249  1.00  0.00     0.023 A 
ATOM     77  C   UNL A   1      40.087  33.501  35.412  1.00  0.00     0.031 A 
ATOM     78  C   UNL A   1      38.802  31.649  36.258  1.00  0.00     0.131 A 
ATOM     79  C   UNL A   1      39.774  34.214  36.581  1.00  0.00     0.055 A 
ATOM     80  C   UNL A   1      38.449  32.381  37.393  1.00  0.00     0.041 A 
ATOM     81  F   UNL A   1      38.326  30.398  36.152  1.00  0.00    -0.206 F 
ATOM     82  C   UNL A   1      38.947  33.668  37.566  1.00  0.00     0.022 A 
BRANCH  79  83
ATOM     83  S   UNL A   1      40.539  35.839  36.838  1.00  0.00     0.124 S 
ATOM     84  O   UNL A   1      40.351  36.031  38.272  1.00  0.00    -0.237 OA
ATOM     85  O   UNL A   1      41.909  35.600  36.396  1.00  0.00    -0.237 OA
ATOM     86  O   UNL A   1      39.754  36.723  35.980  1.00  0.00    -0.744 OA
ENDBRANCH  79  83
ENDBRANCH  52  76
BRANCH  64  87
ATOM     87  C   UNL A   1      45.007  27.919  34.057  1.00  0.00     0.023 A 
ATOM     88  C   UNL A   1      45.027  26.810  34.921  1.00  0.00     0.031 A 
ATOM     89  C   UNL A   1      46.164  28.716  33.978  1.00  0.00     0.131 A 
ATOM     90  C   UNL A   1      46.159  26.560  35.712  1.00  0.00     0.055 A 
ATOM     91  C   UNL A   1      47.307  28.428  34.722  1.00  0.00     0.041 A 
ATOM     92  F   UNL A   1      46.200  29.788  33.170  1.00  0.00    -0.206 F 
ATOM     93  C   UNL A   1      47.306  27.352  35.605  1.00  0.00     0.022 A 
BRANCH  90  94
ATOM     94  S   UNL A   1      46.083  25.235  36.948  1.00  0.00     0.124 S 
ATOM     95  O   UNL A   1      46.175  24.039  36.117  1.00  0.00    -0.237 OA
ATOM     96  O   UNL A   1      47.244  25.520  37.785  1.00  0.00    -0.237 OA
ATOM     97  O   UNL A   1      44.789  25.443  37.595  1.00  0.00    -0.744 OA
ENDBRANCH  90  94
ENDBRANCH  64  87
ENDBRANCH  38  39
ENDBRANCH  31  33
ENDBRANCH  30  31
ENDBRANCH  29  30
ENDBRANCH   1  29
TORSDOF 21
ENDMDL
MODEL 3
REMARK VINA RESULT:     -11.4      4.589      8.399
REMARK SMILES CCc1cc(OC(F)(F)F)cc2c1O[C@H](C(F)(F)F)C(C(=O)OCCOCCOC(=O)c1ccc(-c3c4nc(c(-c5cc(S(=O)(=O)[O-])ccc5F)c5ccc([nH]5)c(-c5cc(S(=O)(=O)[O-])ccc5F)c5nc(c(-c6cc(S(=O)(=O)[O-])ccc6F)c6ccc3[nH]6)C=C5)C=C4)cc1)=C2
REMARK SMILES IDX 27 1 26 2 25 3 24 4 23 5 21 6 22 7 20 8 3 9 4 10 13 11 5 12
REMARK SMILES IDX 12 13 14 14 11 15 95 16 15 17 2 18 1 19 6 20 7 21 8 22 9 23
REMARK SMILES IDX 10 24 16 25 17 26 18 27 19 28 28 29 29 30 30 31 31 32 32 33
REMARK SMILES IDX 33 34 94 35 34 36 93 37 35 38 36 39 37 40 87 41 38 42 92 43
REMARK SMILES IDX 86 44 88 45 39 46 91 47 85 48 84 49 40 51 72 52 52 53 71 54
REMARK SMILES IDX 53 55 56 56 70 57 89 58 54 59 55 60 69 62 90 63 57 64 41 65
REMARK SMILES IDX 42 66 50 67 43 68 49 69 51 70 48 71 44 72 45 73 46 74 47 75
REMARK SMILES IDX 73 76 74 77 82 78 75 79 81 80 83 81 80 82 76 83 77 84 78 85
REMARK SMILES IDX 79 86 58 87 59 88 67 89 60 90 66 91 68 92 65 93 61 94 62 95
REMARK SMILES IDX 63 96 64 97
REMARK H PARENT 88 50 56 61
REMARK Flexibility Score: inf
ROOT
ATOM      1  C   UNL A   1      31.608  31.543  26.196  1.00  0.00     0.202 C 
ENDROOT
BRANCH   1   2
ATOM      2  O   UNL A   1      31.350  30.468  27.095  1.00  0.00    -0.374 OA
BRANCH   2   3
ATOM      3  C   UNL A   1      32.277  29.383  27.100  1.00  0.00     0.202 C 
BRANCH   3   4
ATOM      4  C   UNL A   1      31.790  28.070  26.480  1.00  0.00     0.261 C 
BRANCH   4   5
ATOM      5  O   UNL A   1      31.685  28.161  25.045  1.00  0.00    -0.460 OA
BRANCH   5   6
ATOM      6  C   UNL A   1      32.835  27.937  24.372  1.00  0.00     0.338 C 
ATOM      7  O   UNL A   1      33.581  28.789  23.912  1.00  0.00    -0.246 OA
BRANCH   6   8
ATOM      8  C   UNL A   1      33.192  26.503  24.340  1.00  0.00     0.087 C 
ATOM      9  C   UNL A   1      33.170  22.346  24.676  1.00  0.00    -0.002 A 
ATOM     10  C   UNL A   1      34.335  21.690  25.097  1.00  0.00     0.054 A 
ATOM     11  C   UNL A   1      33.194  23.744  24.603  1.00  0.00     0.131 A 
ATOM     12  C   UNL A   1      35.470  22.411  25.488  1.00  0.00     0.130 A 
ATOM     13  C   UNL A   1      34.320  24.492  24.988  1.00  0.00     0.021 A 
ATOM     14  O   UNL A   1      32.042  24.357  24.181  1.00  0.00    -0.475 OA
ATOM     15  C   UNL A   1      35.458  23.813  25.425  1.00  0.00     0.058 A 
ATOM     16  C   UNL A   1      34.227  25.958  25.000  1.00  0.00     0.027 C 
ATOM     17  C   UNL A   1      32.241  25.639  23.547  1.00  0.00     0.316 C 
BRANCH   9  18
ATOM     18  C   UNL A   1      31.940  21.577  24.240  1.00  0.00     0.036 C 
ATOM     19  C   UNL A   1      32.223  20.208  23.634  1.00  0.00     0.009 C 
ENDBRANCH   9  18
BRANCH  12  20
ATOM     20  O   UNL A   1      36.641  21.869  25.940  1.00  0.00    -0.406 OA
BRANCH  20  21
ATOM     21  C   UNL A   1      37.390  21.076  25.031  1.00  0.00     0.573 C 
ATOM     22  F   UNL A   1      36.946  19.799  25.011  1.00  0.00    -0.132 F 
ATOM     23  F   UNL A   1      37.335  21.587  23.782  1.00  0.00    -0.132 F 
ATOM     24  F   UNL A   1      38.683  21.062  25.420  1.00  0.00    -0.132 F 
ENDBRANCH  20  21
ENDBRANCH  12  20
BRANCH  17  25
ATOM     25  C   UNL A   1      32.661  25.468  22.076  1.00  0.00     0.430 C 
ATOM     26  F   UNL A   1      33.850  26.051  21.792  1.00  0.00    -0.167 F 
ATOM     27  F   UNL A   1      32.771  24.158  21.738  1.00  0.00    -0.167 F 
ATOM     28  F   UNL A   1      31.749  26.005  21.234  1.00  0.00    -0.167 F 
ENDBRANCH  17  25
ENDBRANCH   6   8
ENDBRANCH   5   6
ENDBRANCH   4   5
ENDBRANCH   3   4
ENDBRANCH   2   3
ENDBRANCH   1   2
BRANCH   1  29
ATOM     29  C   UNL A   1      31.631  32.961  26.775  1.00  0.00     0.261 C 
BRANCH  29  30
ATOM     30  O   UNL A   1      32.401  33.043  27.984  1.00  0.00    -0.460 OA
BRANCH  30  31
ATOM     31  C   UNL A   1      33.481  33.857  27.896  1.00  0.00     0.338 C 
ATOM     32  O   UNL A   1      33.477  35.066  27.705  1.00  0.00    -0.246 OA
BRANCH  31  33
ATOM     33  C   UNL A   1      34.701  33.113  28.255  1.00  0.00     0.060 A 
ATOM     34  C   UNL A   1      34.544  31.789  28.685  1.00  0.00     0.016 A 
ATOM     35  C   UNL A   1      35.968  33.704  28.224  1.00  0.00     0.016 A 
ATOM     36  C   UNL A   1      35.644  31.067  29.137  1.00  0.00     0.010 A 
ATOM     37  C   UNL A   1      37.071  32.979  28.687  1.00  0.00     0.010 A 
ATOM     38  C   UNL A   1      36.907  31.670  29.178  1.00  0.00    -0.014 A 
BRANCH  38  39
ATOM     39  C   UNL A   1      38.019  30.984  29.879  1.00  0.00     0.031 A 
ATOM     40  C   UNL A   1      38.269  31.305  31.327  1.00  0.00     0.074 A 
ATOM     41  C   UNL A   1      38.768  30.063  29.247  1.00  0.00     0.049 A 
ATOM     42  N   UNL A   1      39.199  30.858  32.130  1.00  0.00    -0.248 NA
ATOM     43  C   UNL A   1      37.343  32.263  31.951  1.00  0.00     0.031 C 
ATOM     44  C   UNL A   1      38.584  29.636  27.860  1.00  0.00     0.029 A 
ATOM     45  N   UNL A   1      39.836  29.323  29.687  1.00  0.00    -0.354 N 
ATOM     46  C   UNL A   1      38.973  31.479  33.354  1.00  0.00     0.074 A 
ATOM     47  C   UNL A   1      37.842  32.364  33.174  1.00  0.00     0.031 C 
ATOM     48  C   UNL A   1      39.515  28.714  27.562  1.00  0.00     0.029 A 
ATOM     49  C   UNL A   1      40.383  28.515  28.720  1.00  0.00     0.049 A 
ATOM     50  H   UNL A   1      40.177  29.368  30.610  1.00  0.00     0.167 HD
ATOM     51  C   UNL A   1      39.643  31.318  34.522  1.00  0.00     0.034 A 
ATOM     52  C   UNL A   1      41.477  27.726  28.760  1.00  0.00     0.034 A 
ATOM     53  C   UNL A   1      40.778  30.440  34.680  1.00  0.00     0.049 A 
ATOM     54  C   UNL A   1      42.264  27.634  30.045  1.00  0.00     0.074 A 
ATOM     55  C   UNL A   1      41.526  30.193  35.817  1.00  0.00     0.029 A 
ATOM     56  N   UNL A   1      41.337  29.674  33.664  1.00  0.00    -0.354 N 
ATOM     57  N   UNL A   1      42.040  28.223  31.199  1.00  0.00    -0.248 NA
ATOM     58  C   UNL A   1      43.448  26.763  30.038  1.00  0.00     0.031 C 
ATOM     59  C   UNL A   1      42.577  29.336  35.474  1.00  0.00     0.029 A 
ATOM     60  C   UNL A   1      42.440  28.983  34.141  1.00  0.00     0.049 A 
ATOM     61  H   UNL A   1      40.999  29.628  32.741  1.00  0.00     0.167 HD
ATOM     62  C   UNL A   1      43.036  27.767  32.059  1.00  0.00     0.074 A 
ATOM     63  C   UNL A   1      43.853  26.847  31.296  1.00  0.00     0.031 C 
ATOM     64  C   UNL A   1      43.252  28.075  33.364  1.00  0.00     0.034 A 
BRANCH  51  65
ATOM     65  C   UNL A   1      39.194  32.150  35.698  1.00  0.00     0.023 A 
ATOM     66  C   UNL A   1      39.568  33.498  35.839  1.00  0.00     0.031 A 
ATOM     67  C   UNL A   1      38.404  31.578  36.710  1.00  0.00     0.131 A 
ATOM     68  C   UNL A   1      39.208  34.208  36.995  1.00  0.00     0.055 A 
ATOM     69  C   UNL A   1      37.985  32.311  37.822  1.00  0.00     0.041 A 
ATOM     70  F   UNL A   1      38.037  30.288  36.643  1.00  0.00    -0.206 F 
ATOM     71  C   UNL A   1      38.398  33.630  37.976  1.00  0.00     0.022 A 
BRANCH  68  72
ATOM     72  S   UNL A   1      39.929  35.850  37.264  1.00  0.00     0.124 S 
ATOM     73  O   UNL A   1      41.342  35.526  37.447  1.00  0.00    -0.237 OA
ATOM     74  O   UNL A   1      39.587  36.551  36.033  1.00  0.00    -0.237 OA
ATOM     75  O   UNL A   1      39.247  36.330  38.465  1.00  0.00    -0.744 OA
ENDBRANCH  68  72
ENDBRANCH  51  65
BRANCH  52  76
ATOM     76  C   UNL A   1      41.927  26.994  27.541  1.00  0.00     0.023 A 
ATOM     77  C   UNL A   1      41.768  25.605  27.427  1.00  0.00     0.031 A 
ATOM     78  C   UNL A   1      42.579  27.671  26.495  1.00  0.00     0.131 A 
ATOM     79  C   UNL A   1      42.297  24.929  26.315  1.00  0.00     0.055 A 
ATOM     80  C   UNL A   1      43.056  27.003  25.367  1.00  0.00     0.041 A 
ATOM     81  F   UNL A   1      42.758  29.001  26.553  1.00  0.00    -0.206 F 
ATOM     82  C   UNL A   1      42.929  25.621  25.278  1.00  0.00     0.022 A 
BRANCH  79  83
ATOM     83  S   UNL A   1      42.228  23.117  26.285  1.00  0.00     0.124 S 
ATOM     84  O   UNL A   1      43.085  22.806  25.147  1.00  0.00    -0.237 OA
ATOM     85  O   UNL A   1      42.758  22.774  27.601  1.00  0.00    -0.237 OA
ATOM     86  O   UNL A   1      40.807  22.834  26.094  1.00  0.00    -0.744 OA
ENDBRANCH  79  83
ENDBRANCH  52  76
BRANCH  64  87
ATOM     87  C   UNL A   1      44.393  27.370  34.056  1.00  0.00     0.023 A 
ATOM     88  C   UNL A   1      44.242  26.091  34.622  1.00  0.00     0.031 A 
ATOM     89  C   UNL A   1      45.651  27.991  34.155  1.00  0.00     0.131 A 
ATOM     90  C   UNL A   1      45.314  25.500  35.308  1.00  0.00     0.055 A 
ATOM     91  C   UNL A   1      46.730  27.373  34.785  1.00  0.00     0.041 A 
ATOM     92  F   UNL A   1      45.851  29.213  33.633  1.00  0.00    -0.206 F 
ATOM     93  C   UNL A   1      46.562  26.125  35.378  1.00  0.00     0.022 A 
BRANCH  90  94
ATOM     94  S   UNL A   1      45.032  23.937  36.184  1.00  0.00     0.124 S 
ATOM     95  O   UNL A   1      46.239  23.184  35.857  1.00  0.00    -0.237 OA
ATOM     96  O   UNL A   1      44.910  24.372  37.571  1.00  0.00    -0.237 OA
ATOM     97  O   UNL A   1      43.801  23.424  35.585  1.00  0.00    -0.744 OA
ENDBRANCH  90  94
ENDBRANCH  64  87
ENDBRANCH  38  39
ENDBRANCH  31  33
ENDBRANCH  30  31
ENDBRANCH  29  30
ENDBRANCH   1  29
TORSDOF 21
ENDMDL
