MODEL 1
REMARK VINA RESULT:     -10.8      0.000      0.000
REMARK SMILES CC(C)[C@H](NC(=O)OCc1ccccc1)C(=O)NCC(=O)OCCOCCOC(=O)c1ccc(-c2c3nc(c(-c4cc(S(=O)(=O)[O-])ccc4F)c4ccc([nH]4)c(-c4cc(S(=O)(=O)[O-])ccc4F)c4nc(c(-c5cc(S(=O)(=O)[O-])ccc5F)c5ccc2[nH]5)C=C4)C=C3)cc1
REMARK SMILES IDX 23 1 22 2 20 3 21 4 19 5 18 6 16 7 17 8 4 10 2 11 1 12 3 13
REMARK SMILES IDX 5 14 6 15 7 17 8 18 9 19 10 20 11 21 15 22 12 23 14 24 13 25
REMARK SMILES IDX 24 26 25 27 26 28 27 29 28 30 29 31 30 32 31 33 32 34 93 35
REMARK SMILES IDX 33 36 92 37 34 38 35 39 36 40 86 41 37 42 91 43 85 44 87 45
REMARK SMILES IDX 38 46 90 47 84 48 83 49 39 51 71 52 51 53 70 54 52 55 55 56
REMARK SMILES IDX 69 57 88 58 53 59 54 60 68 62 89 63 56 64 40 65 41 66 49 67
REMARK SMILES IDX 42 68 48 69 50 70 47 71 43 72 44 73 45 74 46 75 72 76 73 77
REMARK SMILES IDX 81 78 74 79 80 80 82 81 79 82 75 83 76 84 77 85 78 86 57 87
REMARK SMILES IDX 58 88 66 89 59 90 65 91 67 92 64 93 60 94 61 95 62 96 63 97
REMARK H PARENT 18 9 5 16 87 50 55 61
REMARK Flexibility Score: inf
ROOT
ATOM      1  C   UNL A   1      28.337  31.440  21.368  1.00  0.00     0.261 C 
ENDROOT
BRANCH   1   2
ATOM      2  O   UNL A   1      27.833  29.884  21.355  1.00  0.00    -0.462 OA
BRANCH   2   3
ATOM      3  C   UNL A   1      27.733  29.168  22.498  1.00  0.00     0.325 C 
ATOM      4  O   UNL A   1      26.688  28.984  23.113  1.00  0.00    -0.250 OA
BRANCH   3   5
ATOM      5  C   UNL A   1      29.047  28.441  22.886  1.00  0.00     0.238 C 
BRANCH   5   6
ATOM      6  N   UNL A   1      29.196  27.342  23.850  1.00  0.00    -0.343 N 
ATOM      7  C   UNL A   1      30.126  26.375  24.037  1.00  0.00     0.243 C 
ATOM      8  O   UNL A   1      30.067  25.743  25.099  1.00  0.00    -0.273 OA
ATOM      9  H   UNL A   1      28.459  27.299  24.501  1.00  0.00     0.164 HD
BRANCH   7  10
ATOM     10  C   UNL A   1      31.284  26.145  23.057  1.00  0.00     0.177 C 
BRANCH  10  11
ATOM     11  C   UNL A   1      31.776  24.660  23.125  1.00  0.00     0.015 C 
ATOM     12  C   UNL A   1      30.653  23.613  23.126  1.00  0.00     0.010 C 
ATOM     13  C   UNL A   1      32.864  24.303  22.089  1.00  0.00     0.010 C 
ENDBRANCH  10  11
BRANCH  10  14
ATOM     14  N   UNL A   1      32.347  27.144  23.182  1.00  0.00    -0.309 N 
ATOM     15  C   UNL A   1      33.123  27.355  24.296  1.00  0.00     0.408 C 
ATOM     16  H   UNL A   1      32.521  27.714  22.398  1.00  0.00     0.167 HD
ATOM     17  O   UNL A   1      33.814  28.358  24.411  1.00  0.00    -0.225 OA
BRANCH  15  18
ATOM     18  O   UNL A   1      33.103  26.312  25.155  1.00  0.00    -0.445 OA
BRANCH  18  19
ATOM     19  C   UNL A   1      34.360  25.897  25.699  1.00  0.00     0.270 C 
BRANCH  19  20
ATOM     20  C   UNL A   1      34.555  24.412  25.513  1.00  0.00    -0.011 A 
ATOM     21  C   UNL A   1      35.726  23.768  24.294  1.00  0.00     0.007 A 
ATOM     22  C   UNL A   1      33.660  23.257  26.541  1.00  0.00     0.007 A 
ATOM     23  C   UNL A   1      36.130  21.985  24.252  1.00  0.00     0.000 A 
ATOM     24  C   UNL A   1      34.020  21.504  26.479  1.00  0.00     0.000 A 
ATOM     25  C   UNL A   1      35.205  20.852  25.306  1.00  0.00     0.000 A 
ENDBRANCH  19  20
ENDBRANCH  18  19
ENDBRANCH  15  18
ENDBRANCH  10  14
ENDBRANCH   7  10
ENDBRANCH   5   6
ENDBRANCH   3   5
ENDBRANCH   2   3
ENDBRANCH   1   2
BRANCH   1  26
ATOM     26  C   UNL A   1      29.157  32.513  23.088  1.00  0.00     0.202 C 
BRANCH  26  27
ATOM     27  O   UNL A   1      29.402  32.058  24.620  1.00  0.00    -0.374 OA
BRANCH  27  28
ATOM     28  C   UNL A   1      30.649  31.559  25.146  1.00  0.00     0.202 C 
BRANCH  28  29
ATOM     29  C   UNL A   1      31.151  31.877  26.570  1.00  0.00     0.261 C 
BRANCH  29  30
ATOM     30  O   UNL A   1      32.536  31.680  26.814  1.00  0.00    -0.460 OA
BRANCH  30  31
ATOM     31  C   UNL A   1      33.146  32.720  27.437  1.00  0.00     0.338 C 
ATOM     32  O   UNL A   1      32.678  33.825  27.635  1.00  0.00    -0.246 OA
BRANCH  31  33
ATOM     33  C   UNL A   1      34.402  32.196  28.019  1.00  0.00     0.060 A 
ATOM     34  C   UNL A   1      34.473  30.830  28.317  1.00  0.00     0.016 A 
ATOM     35  C   UNL A   1      35.528  33.012  28.171  1.00  0.00     0.016 A 
ATOM     36  C   UNL A   1      35.664  30.281  28.793  1.00  0.00     0.010 A 
ATOM     37  C   UNL A   1      36.723  32.463  28.644  1.00  0.00     0.010 A 
ATOM     38  C   UNL A   1      36.783  31.102  28.997  1.00  0.00    -0.014 A 
BRANCH  38  39
ATOM     39  C   UNL A   1      37.858  30.637  29.913  1.00  0.00     0.031 A 
ATOM     40  C   UNL A   1      38.867  29.690  29.318  1.00  0.00     0.074 A 
ATOM     41  C   UNL A   1      37.976  31.044  31.190  1.00  0.00     0.049 A 
ATOM     42  N   UNL A   1      39.903  29.117  29.868  1.00  0.00    -0.248 NA
ATOM     43  C   UNL A   1      38.667  29.340  27.900  1.00  0.00     0.031 C 
ATOM     44  C   UNL A   1      37.090  31.986  31.870  1.00  0.00     0.029 A 
ATOM     45  N   UNL A   1      38.906  30.711  32.147  1.00  0.00    -0.354 N 
ATOM     46  C   UNL A   1      40.478  28.347  28.863  1.00  0.00     0.074 A 
ATOM     47  C   UNL A   1      39.642  28.475  27.693  1.00  0.00     0.031 C 
ATOM     48  C   UNL A   1      37.525  32.161  33.133  1.00  0.00     0.029 A 
ATOM     49  C   UNL A   1      38.697  31.315  33.367  1.00  0.00     0.049 A 
ATOM     50  H   UNL A   1      39.654  30.096  31.974  1.00  0.00     0.167 HD
ATOM     51  C   UNL A   1      41.611  27.608  28.903  1.00  0.00     0.034 A 
ATOM     52  C   UNL A   1      39.364  31.182  34.535  1.00  0.00     0.034 A 
ATOM     53  C   UNL A   1      42.415  27.453  30.086  1.00  0.00     0.049 A 
ATOM     54  C   UNL A   1      40.562  30.253  34.590  1.00  0.00     0.074 A 
ATOM     55  C   UNL A   1      43.570  26.712  30.248  1.00  0.00     0.029 A 
ATOM     56  N   UNL A   1      42.132  28.030  31.317  1.00  0.00    -0.354 N 
ATOM     57  N   UNL A   1      41.102  29.535  33.630  1.00  0.00    -0.248 NA
ATOM     58  C   UNL A   1      41.245  30.124  35.885  1.00  0.00     0.031 C 
ATOM     59  C   UNL A   1      43.933  26.763  31.596  1.00  0.00     0.029 A 
ATOM     60  C   UNL A   1      43.071  27.630  32.252  1.00  0.00     0.049 A 
ATOM     61  H   UNL A   1      41.376  28.633  31.498  1.00  0.00     0.167 HD
ATOM     62  C   UNL A   1      42.215  28.913  34.197  1.00  0.00     0.074 A 
ATOM     63  C   UNL A   1      42.269  29.343  35.579  1.00  0.00     0.031 C 
ATOM     64  C   UNL A   1      43.117  28.072  33.627  1.00  0.00     0.034 A 
BRANCH  51  65
ATOM     65  C   UNL A   1      41.988  26.868  27.644  1.00  0.00     0.023 A 
ATOM     66  C   UNL A   1      41.778  25.483  27.510  1.00  0.00     0.031 A 
ATOM     67  C   UNL A   1      42.636  27.541  26.595  1.00  0.00     0.131 A 
ATOM     68  C   UNL A   1      42.291  24.804  26.396  1.00  0.00     0.055 A 
ATOM     69  C   UNL A   1      43.056  26.876  25.444  1.00  0.00     0.041 A 
ATOM     70  F   UNL A   1      42.897  28.855  26.684  1.00  0.00    -0.206 F 
ATOM     71  C   UNL A   1      42.901  25.495  25.347  1.00  0.00     0.022 A 
BRANCH  68  72
ATOM     72  S   UNL A   1      42.317  22.991  26.425  1.00  0.00     0.124 S 
ATOM     73  O   UNL A   1      42.461  22.678  25.005  1.00  0.00    -0.237 OA
ATOM     74  O   UNL A   1      43.475  22.704  27.263  1.00  0.00    -0.237 OA
ATOM     75  O   UNL A   1      41.022  22.640  27.004  1.00  0.00    -0.744 OA
ENDBRANCH  68  72
ENDBRANCH  51  65
BRANCH  52  76
ATOM     76  C   UNL A   1      38.914  31.899  35.770  1.00  0.00     0.023 A 
ATOM     77  C   UNL A   1      38.276  31.220  36.825  1.00  0.00     0.031 A 
ATOM     78  C   UNL A   1      39.029  33.297  35.872  1.00  0.00     0.131 A 
ATOM     79  C   UNL A   1      37.732  31.943  37.901  1.00  0.00     0.055 A 
ATOM     80  C   UNL A   1      38.545  34.004  36.976  1.00  0.00     0.041 A 
ATOM     81  F   UNL A   1      39.608  34.005  34.889  1.00  0.00    -0.206 F 
ATOM     82  C   UNL A   1      37.879  33.328  37.993  1.00  0.00     0.022 A 
BRANCH  79  83
ATOM     83  S   UNL A   1      36.723  31.062  39.128  1.00  0.00     0.124 S 
ATOM     84  O   UNL A   1      35.546  31.919  39.214  1.00  0.00    -0.237 OA
ATOM     85  O   UNL A   1      36.528  29.766  38.487  1.00  0.00    -0.237 OA
ATOM     86  O   UNL A   1      37.571  31.045  40.318  1.00  0.00    -0.744 OA
ENDBRANCH  79  83
ENDBRANCH  52  76
BRANCH  64  87
ATOM     87  C   UNL A   1      44.291  27.622  34.467  1.00  0.00     0.023 A 
ATOM     88  C   UNL A   1      44.259  26.449  35.241  1.00  0.00     0.031 A 
ATOM     89  C   UNL A   1      45.473  28.387  34.481  1.00  0.00     0.131 A 
ATOM     90  C   UNL A   1      45.362  26.110  36.040  1.00  0.00     0.055 A 
ATOM     91  C   UNL A   1      46.595  28.001  35.214  1.00  0.00     0.041 A 
ATOM     92  F   UNL A   1      45.562  29.521  33.767  1.00  0.00    -0.206 F 
ATOM     93  C   UNL A   1      46.538  26.864  36.012  1.00  0.00     0.022 A 
BRANCH  90  94
ATOM     94  S   UNL A   1      45.199  24.736  37.213  1.00  0.00     0.124 S 
ATOM     95  O   UNL A   1      46.191  25.082  38.225  1.00  0.00    -0.237 OA
ATOM     96  O   UNL A   1      43.803  24.844  37.627  1.00  0.00    -0.237 OA
ATOM     97  O   UNL A   1      45.517  23.558  36.408  1.00  0.00    -0.744 OA
ENDBRANCH  90  94
ENDBRANCH  64  87
ENDBRANCH  38  39
ENDBRANCH  31  33
ENDBRANCH  30  31
ENDBRANCH  29  30
ENDBRANCH  28  29
ENDBRANCH  27  28
ENDBRANCH  26  27
ENDBRANCH   1  26
TORSDOF 24
ENDMDL
MODEL 2
REMARK VINA RESULT:     -10.8      1.806      2.883
REMARK SMILES CC(C)[C@H](NC(=O)OCc1ccccc1)C(=O)NCC(=O)OCCOCCOC(=O)c1ccc(-c2c3nc(c(-c4cc(S(=O)(=O)[O-])ccc4F)c4ccc([nH]4)c(-c4cc(S(=O)(=O)[O-])ccc4F)c4nc(c(-c5cc(S(=O)(=O)[O-])ccc5F)c5ccc2[nH]5)C=C4)C=C3)cc1
REMARK SMILES IDX 23 1 22 2 20 3 21 4 19 5 18 6 16 7 17 8 4 10 2 11 1 12 3 13
REMARK SMILES IDX 5 14 6 15 7 17 8 18 9 19 10 20 11 21 15 22 12 23 14 24 13 25
REMARK SMILES IDX 24 26 25 27 26 28 27 29 28 30 29 31 30 32 31 33 32 34 93 35
REMARK SMILES IDX 33 36 92 37 34 38 35 39 36 40 86 41 37 42 91 43 85 44 87 45
REMARK SMILES IDX 38 46 90 47 84 48 83 49 39 51 71 52 51 53 70 54 52 55 55 56
REMARK SMILES IDX 69 57 88 58 53 59 54 60 68 62 89 63 56 64 40 65 41 66 49 67
REMARK SMILES IDX 42 68 48 69 50 70 47 71 43 72 44 73 45 74 46 75 72 76 73 77
REMARK SMILES IDX 81 78 74 79 80 80 82 81 79 82 75 83 76 84 77 85 78 86 57 87
REMARK SMILES IDX 58 88 66 89 59 90 65 91 67 92 64 93 60 94 61 95 62 96 63 97
REMARK H PARENT 18 9 5 16 87 50 55 61
REMARK Flexibility Score: inf
ROOT
ATOM      1  C   UNL A   1      33.244  27.878  22.547  1.00  0.00     0.261 C 
ENDROOT
BRANCH   1   2
ATOM      2  O   UNL A   1      33.589  26.306  22.840  1.00  0.00    -0.462 OA
BRANCH   2   3
ATOM      3  C   UNL A   1      33.306  25.344  21.933  1.00  0.00     0.325 C 
ATOM      4  O   UNL A   1      33.203  25.536  20.726  1.00  0.00    -0.250 OA
BRANCH   3   5
ATOM      5  C   UNL A   1      33.289  23.916  22.536  1.00  0.00     0.238 C 
BRANCH   5   6
ATOM      6  N   UNL A   1      32.610  22.734  21.986  1.00  0.00    -0.343 N 
ATOM      7  C   UNL A   1      32.150  21.579  22.523  1.00  0.00     0.243 C 
ATOM      8  O   UNL A   1      31.410  20.889  21.810  1.00  0.00    -0.273 OA
ATOM      9  H   UNL A   1      32.458  22.795  21.015  1.00  0.00     0.164 HD
BRANCH   7  10
ATOM     10  C   UNL A   1      32.408  21.189  23.984  1.00  0.00     0.177 C 
BRANCH  10  11
ATOM     11  C   UNL A   1      32.939  19.719  24.076  1.00  0.00     0.015 C 
ATOM     12  C   UNL A   1      32.892  19.108  25.484  1.00  0.00     0.010 C 
ATOM     13  C   UNL A   1      32.327  18.756  23.035  1.00  0.00     0.010 C 
ENDBRANCH  10  11
BRANCH  10  14
ATOM     14  N   UNL A   1      31.276  21.482  24.865  1.00  0.00    -0.309 N 
ATOM     15  C   UNL A   1      31.193  22.537  25.740  1.00  0.00     0.408 C 
ATOM     16  H   UNL A   1      30.506  20.869  24.825  1.00  0.00     0.167 HD
ATOM     17  O   UNL A   1      30.333  22.577  26.610  1.00  0.00    -0.225 OA
BRANCH  15  18
ATOM     18  O   UNL A   1      32.074  23.522  25.461  1.00  0.00    -0.445 OA
BRANCH  18  19
ATOM     19  C   UNL A   1      33.044  23.829  26.468  1.00  0.00     0.270 C 
BRANCH  19  20
ATOM     20  C   UNL A   1      34.405  23.311  26.071  1.00  0.00    -0.011 A 
ATOM     21  C   UNL A   1      34.908  21.617  26.451  1.00  0.00     0.007 A 
ATOM     22  C   UNL A   1      35.530  24.361  25.163  1.00  0.00     0.007 A 
ATOM     23  C   UNL A   1      36.453  20.932  25.750  1.00  0.00     0.000 A 
ATOM     24  C   UNL A   1      37.064  23.711  24.506  1.00  0.00     0.000 A 
ATOM     25  C   UNL A   1      37.560  22.024  24.839  1.00  0.00     0.000 A 
ENDBRANCH  19  20
ENDBRANCH  18  19
ENDBRANCH  15  18
ENDBRANCH  10  14
ENDBRANCH   7  10
ENDBRANCH   5   6
ENDBRANCH   3   5
ENDBRANCH   2   3
ENDBRANCH   1   2
BRANCH   1  26
ATOM     26  C   UNL A   1      31.267  28.805  22.659  1.00  0.00     0.202 C 
BRANCH  26  27
ATOM     27  O   UNL A   1      30.566  29.704  23.806  1.00  0.00    -0.374 OA
BRANCH  27  28
ATOM     28  C   UNL A   1      31.020  29.804  25.171  1.00  0.00     0.202 C 
BRANCH  28  29
ATOM     29  C   UNL A   1      32.492  30.067  25.554  1.00  0.00     0.261 C 
BRANCH  29  30
ATOM     30  O   UNL A   1      32.769  30.227  26.937  1.00  0.00    -0.460 OA
BRANCH  30  31
ATOM     31  C   UNL A   1      33.380  31.397  27.251  1.00  0.00     0.338 C 
ATOM     32  O   UNL A   1      32.878  32.505  27.248  1.00  0.00    -0.246 OA
BRANCH  31  33
ATOM     33  C   UNL A   1      34.710  31.053  27.804  1.00  0.00     0.060 A 
ATOM     34  C   UNL A   1      35.011  29.701  28.007  1.00  0.00     0.016 A 
ATOM     35  C   UNL A   1      35.683  32.034  28.020  1.00  0.00     0.016 A 
ATOM     36  C   UNL A   1      36.281  29.329  28.452  1.00  0.00     0.010 A 
ATOM     37  C   UNL A   1      36.955  31.663  28.461  1.00  0.00     0.010 A 
ATOM     38  C   UNL A   1      37.247  30.311  28.720  1.00  0.00    -0.014 A 
BRANCH  38  39
ATOM     39  C   UNL A   1      38.389  29.971  29.607  1.00  0.00     0.031 A 
ATOM     40  C   UNL A   1      39.367  28.961  29.066  1.00  0.00     0.074 A 
ATOM     41  C   UNL A   1      38.590  30.537  30.811  1.00  0.00     0.049 A 
ATOM     42  N   UNL A   1      40.448  28.468  29.609  1.00  0.00    -0.248 NA
ATOM     43  C   UNL A   1      39.073  28.433  27.722  1.00  0.00     0.031 C 
ATOM     44  C   UNL A   1      37.741  31.553  31.429  1.00  0.00     0.029 A 
ATOM     45  N   UNL A   1      39.589  30.333  31.734  1.00  0.00    -0.354 N 
ATOM     46  C   UNL A   1      40.961  27.579  28.671  1.00  0.00     0.074 A 
ATOM     47  C   UNL A   1      40.043  27.554  27.557  1.00  0.00     0.031 C 
ATOM     48  C   UNL A   1      38.261  31.889  32.626  1.00  0.00     0.029 A 
ATOM     49  C   UNL A   1      39.458  31.086  32.880  1.00  0.00     0.049 A 
ATOM     50  H   UNL A   1      40.333  29.704  31.587  1.00  0.00     0.167 HD
ATOM     51  C   UNL A   1      42.105  26.858  28.723  1.00  0.00     0.034 A 
ATOM     52  C   UNL A   1      40.207  31.105  34.005  1.00  0.00     0.034 A 
ATOM     53  C   UNL A   1      42.991  26.858  29.856  1.00  0.00     0.049 A 
ATOM     54  C   UNL A   1      41.419  30.197  34.091  1.00  0.00     0.074 A 
ATOM     55  C   UNL A   1      44.165  26.149  30.027  1.00  0.00     0.029 A 
ATOM     56  N   UNL A   1      42.787  27.585  31.021  1.00  0.00    -0.354 N 
ATOM     57  N   UNL A   1      41.900  29.366  33.194  1.00  0.00    -0.248 NA
ATOM     58  C   UNL A   1      42.192  30.236  35.340  1.00  0.00     0.031 C 
ATOM     59  C   UNL A   1      44.621  26.372  31.329  1.00  0.00     0.029 A 
ATOM     60  C   UNL A   1      43.795  27.311  31.930  1.00  0.00     0.049 A 
ATOM     61  H   UNL A   1      42.037  28.202  31.178  1.00  0.00     0.167 HD
ATOM     62  C   UNL A   1      43.059  28.826  33.754  1.00  0.00     0.074 A 
ATOM     63  C   UNL A   1      43.204  29.428  35.063  1.00  0.00     0.031 C 
ATOM     64  C   UNL A   1      43.930  27.924  33.231  1.00  0.00     0.034 A 
BRANCH  51  65
ATOM     65  C   UNL A   1      42.403  25.966  27.544  1.00  0.00     0.023 A 
ATOM     66  C   UNL A   1      41.929  24.643  27.479  1.00  0.00     0.031 A 
ATOM     67  C   UNL A   1      43.235  26.419  26.507  1.00  0.00     0.131 A 
ATOM     68  C   UNL A   1      42.364  23.795  26.451  1.00  0.00     0.055 A 
ATOM     69  C   UNL A   1      43.584  25.600  25.433  1.00  0.00     0.041 A 
ATOM     70  F   UNL A   1      43.748  27.659  26.535  1.00  0.00    -0.206 F 
ATOM     71  C   UNL A   1      43.163  24.273  25.410  1.00  0.00     0.022 A 
BRANCH  68  72
ATOM     72  S   UNL A   1      42.025  22.019  26.593  1.00  0.00     0.124 S 
ATOM     73  O   UNL A   1      40.566  21.991  26.504  1.00  0.00    -0.237 OA
ATOM     74  O   UNL A   1      42.745  21.467  25.452  1.00  0.00    -0.237 OA
ATOM     75  O   UNL A   1      42.568  21.671  27.904  1.00  0.00    -0.744 OA
ENDBRANCH  68  72
ENDBRANCH  51  65
BRANCH  52  76
ATOM     76  C   UNL A   1      39.835  31.970  35.168  1.00  0.00     0.023 A 
ATOM     77  C   UNL A   1      39.043  31.483  36.225  1.00  0.00     0.031 A 
ATOM     78  C   UNL A   1      40.186  33.332  35.194  1.00  0.00     0.131 A 
ATOM     79  C   UNL A   1      38.585  32.360  37.225  1.00  0.00     0.055 A 
ATOM     80  C   UNL A   1      39.784  34.185  36.226  1.00  0.00     0.041 A 
ATOM     81  F   UNL A   1      40.922  33.862  34.204  1.00  0.00    -0.206 F 
ATOM     82  C   UNL A   1      38.967  33.702  37.243  1.00  0.00     0.022 A 
BRANCH  79  83
ATOM     83  S   UNL A   1      37.385  31.749  38.444  1.00  0.00     0.124 S 
ATOM     84  O   UNL A   1      37.107  30.410  37.939  1.00  0.00    -0.237 OA
ATOM     85  O   UNL A   1      38.148  31.823  39.686  1.00  0.00    -0.237 OA
ATOM     86  O   UNL A   1      36.279  32.698  38.338  1.00  0.00    -0.744 OA
ENDBRANCH  79  83
ENDBRANCH  52  76
BRANCH  64  87
ATOM     87  C   UNL A   1      45.167  27.590  34.036  1.00  0.00     0.023 A 
ATOM     88  C   UNL A   1      45.217  26.503  34.925  1.00  0.00     0.031 A 
ATOM     89  C   UNL A   1      46.324  28.380  33.896  1.00  0.00     0.131 A 
ATOM     90  C   UNL A   1      46.377  26.273  35.682  1.00  0.00     0.055 A 
ATOM     91  C   UNL A   1      47.500  28.097  34.591  1.00  0.00     0.041 A 
ATOM     92  F   UNL A   1      46.336  29.436  33.067  1.00  0.00    -0.206 F 
ATOM     93  C   UNL A   1      47.526  27.048  35.502  1.00  0.00     0.022 A 
BRANCH  90  94
ATOM     94  S   UNL A   1      46.326  25.023  36.996  1.00  0.00     0.124 S 
ATOM     95  O   UNL A   1      47.066  25.682  38.067  1.00  0.00    -0.237 OA
ATOM     96  O   UNL A   1      44.893  24.862  37.217  1.00  0.00    -0.237 OA
ATOM     97  O   UNL A   1      46.995  23.869  36.398  1.00  0.00    -0.744 OA
ENDBRANCH  90  94
ENDBRANCH  64  87
ENDBRANCH  38  39
ENDBRANCH  31  33
ENDBRANCH  30  31
ENDBRANCH  29  30
ENDBRANCH  28  29
ENDBRANCH  27  28
ENDBRANCH  26  27
ENDBRANCH   1  26
TORSDOF 24
ENDMDL
MODEL 3
REMARK VINA RESULT:     -10.4      6.100     10.446
REMARK SMILES CC(C)[C@H](NC(=O)OCc1ccccc1)C(=O)NCC(=O)OCCOCCOC(=O)c1ccc(-c2c3nc(c(-c4cc(S(=O)(=O)[O-])ccc4F)c4ccc([nH]4)c(-c4cc(S(=O)(=O)[O-])ccc4F)c4nc(c(-c5cc(S(=O)(=O)[O-])ccc5F)c5ccc2[nH]5)C=C4)C=C3)cc1
REMARK SMILES IDX 23 1 22 2 20 3 21 4 19 5 18 6 16 7 17 8 4 10 2 11 1 12 3 13
REMARK SMILES IDX 5 14 6 15 7 17 8 18 9 19 10 20 11 21 15 22 12 23 14 24 13 25
REMARK SMILES IDX 24 26 25 27 26 28 27 29 28 30 29 31 30 32 31 33 32 34 93 35
REMARK SMILES IDX 33 36 92 37 34 38 35 39 36 40 86 41 37 42 91 43 85 44 87 45
REMARK SMILES IDX 38 46 90 47 84 48 83 49 39 51 71 52 51 53 70 54 52 55 55 56
REMARK SMILES IDX 69 57 88 58 53 59 54 60 68 62 89 63 56 64 40 65 41 66 49 67
REMARK SMILES IDX 42 68 48 69 50 70 47 71 43 72 44 73 45 74 46 75 72 76 73 77
REMARK SMILES IDX 81 78 74 79 80 80 82 81 79 82 75 83 76 84 77 85 78 86 57 87
REMARK SMILES IDX 58 88 66 89 59 90 65 91 67 92 64 93 60 94 61 95 62 96 63 97
REMARK H PARENT 18 9 5 16 87 50 55 61
REMARK Flexibility Score: inf
ROOT
ATOM      1  C   UNL A   1      41.075  21.200  27.062  1.00  0.00     0.261 C 
ENDROOT
BRANCH   1   2
ATOM      2  O   UNL A   1      40.314  22.365  26.203  1.00  0.00    -0.462 OA
BRANCH   2   3
ATOM      3  C   UNL A   1      39.287  23.068  26.729  1.00  0.00     0.325 C 
ATOM      4  O   UNL A   1      39.410  23.962  27.561  1.00  0.00    -0.250 OA
BRANCH   3   5
ATOM      5  C   UNL A   1      37.923  22.763  26.057  1.00  0.00     0.238 C 
BRANCH   5   6
ATOM      6  N   UNL A   1      37.435  21.452  25.607  1.00  0.00    -0.343 N 
ATOM      7  C   UNL A   1      36.228  20.983  25.212  1.00  0.00     0.243 C 
ATOM      8  O   UNL A   1      36.212  19.871  24.669  1.00  0.00    -0.273 OA
ATOM      9  H   UNL A   1      38.140  20.764  25.590  1.00  0.00     0.164 HD
BRANCH   7  10
ATOM     10  C   UNL A   1      34.948  21.824  25.302  1.00  0.00     0.177 C 
BRANCH  10  11
ATOM     11  C   UNL A   1      35.118  23.171  24.522  1.00  0.00     0.015 C 
ATOM     12  C   UNL A   1      34.373  23.233  23.181  1.00  0.00     0.010 C 
ATOM     13  C   UNL A   1      34.840  24.434  25.367  1.00  0.00     0.010 C 
ENDBRANCH  10  11
BRANCH  10  14
ATOM     14  N   UNL A   1      34.455  21.974  26.673  1.00  0.00    -0.309 N 
ATOM     15  C   UNL A   1      33.147  22.180  27.037  1.00  0.00     0.408 C 
ATOM     16  H   UNL A   1      35.121  21.921  27.396  1.00  0.00     0.167 HD
ATOM     17  O   UNL A   1      32.849  22.539  28.168  1.00  0.00    -0.225 OA
BRANCH  15  18
ATOM     18  O   UNL A   1      32.273  21.851  26.061  1.00  0.00    -0.445 OA
BRANCH  18  19
ATOM     19  C   UNL A   1      30.993  22.493  26.094  1.00  0.00     0.270 C 
BRANCH  19  20
ATOM     20  C   UNL A   1      31.046  23.820  25.377  1.00  0.00    -0.011 A 
ATOM     21  C   UNL A   1      31.393  25.353  26.271  1.00  0.00     0.007 A 
ATOM     22  C   UNL A   1      30.815  23.888  23.606  1.00  0.00     0.007 A 
ATOM     23  C   UNL A   1      31.697  26.908  25.356  1.00  0.00     0.000 A 
ATOM     24  C   UNL A   1      31.072  25.414  22.706  1.00  0.00     0.000 A 
ATOM     25  C   UNL A   1      31.455  26.935  23.570  1.00  0.00     0.000 A 
ENDBRANCH  19  20
ENDBRANCH  18  19
ENDBRANCH  15  18
ENDBRANCH  10  14
ENDBRANCH   7  10
ENDBRANCH   5   6
ENDBRANCH   3   5
ENDBRANCH   2   3
ENDBRANCH   1   2
BRANCH   1  26
ATOM     26  C   UNL A   1      41.708  19.248  26.306  1.00  0.00     0.202 C 
BRANCH  26  27
ATOM     27  O   UNL A   1      43.067  18.400  26.530  1.00  0.00    -0.374 OA
BRANCH  27  28
ATOM     28  C   UNL A   1      44.253  18.508  25.717  1.00  0.00     0.202 C 
BRANCH  28  29
ATOM     29  C   UNL A   1      44.213  18.784  24.199  1.00  0.00     0.261 C 
BRANCH  29  30
ATOM     30  O   UNL A   1      44.695  20.049  23.771  1.00  0.00    -0.460 OA
BRANCH  30  31
ATOM     31  C   UNL A   1      45.824  20.458  24.403  1.00  0.00     0.338 C 
ATOM     32  O   UNL A   1      46.927  19.950  24.325  1.00  0.00    -0.246 OA
BRANCH  31  33
ATOM     33  C   UNL A   1      45.515  21.761  25.034  1.00  0.00     0.060 A 
ATOM     34  C   UNL A   1      45.068  22.803  24.214  1.00  0.00     0.016 A 
ATOM     35  C   UNL A   1      45.564  21.925  26.422  1.00  0.00     0.016 A 
ATOM     36  C   UNL A   1      44.692  24.023  24.779  1.00  0.00     0.010 A 
ATOM     37  C   UNL A   1      45.183  23.144  26.990  1.00  0.00     0.010 A 
ATOM     38  C   UNL A   1      44.786  24.213  26.165  1.00  0.00    -0.014 A 
BRANCH  38  39
ATOM     39  C   UNL A   1      44.839  25.599  26.698  1.00  0.00     0.031 A 
ATOM     40  C   UNL A   1      46.186  26.271  26.655  1.00  0.00     0.074 A 
ATOM     41  C   UNL A   1      43.762  26.260  27.163  1.00  0.00     0.049 A 
ATOM     42  N   UNL A   1      46.540  27.464  27.051  1.00  0.00    -0.248 NA
ATOM     43  C   UNL A   1      47.289  25.472  26.091  1.00  0.00     0.031 C 
ATOM     44  C   UNL A   1      42.399  25.737  27.221  1.00  0.00     0.029 A 
ATOM     45  N   UNL A   1      43.653  27.530  27.677  1.00  0.00    -0.354 N 
ATOM     46  C   UNL A   1      47.899  27.558  26.776  1.00  0.00     0.074 A 
ATOM     47  C   UNL A   1      48.318  26.283  26.243  1.00  0.00     0.031 C 
ATOM     48  C   UNL A   1      41.589  26.683  27.733  1.00  0.00     0.029 A 
ATOM     49  C   UNL A   1      42.379  27.866  28.079  1.00  0.00     0.049 A 
ATOM     50  H   UNL A   1      44.418  28.146  27.751  1.00  0.00     0.167 HD
ATOM     51  C   UNL A   1      48.727  28.616  26.938  1.00  0.00     0.034 A 
ATOM     52  C   UNL A   1      41.915  28.989  28.672  1.00  0.00     0.034 A 
ATOM     53  C   UNL A   1      48.309  29.868  27.510  1.00  0.00     0.049 A 
ATOM     54  C   UNL A   1      42.887  30.119  28.956  1.00  0.00     0.074 A 
ATOM     55  C   UNL A   1      49.067  31.001  27.742  1.00  0.00     0.029 A 
ATOM     56  N   UNL A   1      47.026  30.144  27.962  1.00  0.00    -0.354 N 
ATOM     57  N   UNL A   1      44.170  30.199  28.685  1.00  0.00    -0.248 NA
ATOM     58  C   UNL A   1      42.343  31.312  29.620  1.00  0.00     0.031 C 
ATOM     59  C   UNL A   1      48.268  31.925  28.421  1.00  0.00     0.029 A 
ATOM     60  C   UNL A   1      46.981  31.416  28.507  1.00  0.00     0.049 A 
ATOM     61  H   UNL A   1      46.262  29.526  27.905  1.00  0.00     0.167 HD
ATOM     62  C   UNL A   1      44.570  31.471  29.099  1.00  0.00     0.074 A 
ATOM     63  C   UNL A   1      43.392  32.120  29.634  1.00  0.00     0.031 C 
ATOM     64  C   UNL A   1      45.796  32.054  29.034  1.00  0.00     0.034 A 
BRANCH  51  65
ATOM     65  C   UNL A   1      50.171  28.419  26.553  1.00  0.00     0.023 A 
ATOM     66  C   UNL A   1      50.592  28.470  25.211  1.00  0.00     0.031 A 
ATOM     67  C   UNL A   1      51.128  28.100  27.531  1.00  0.00     0.131 A 
ATOM     68  C   UNL A   1      51.908  28.118  24.879  1.00  0.00     0.055 A 
ATOM     69  C   UNL A   1      52.459  27.848  27.204  1.00  0.00     0.041 A 
ATOM     70  F   UNL A   1      50.776  27.999  28.823  1.00  0.00    -0.206 F 
ATOM     71  C   UNL A   1      52.853  27.838  25.868  1.00  0.00     0.022 A 
BRANCH  68  72
ATOM     72  S   UNL A   1      52.316  27.850  23.132  1.00  0.00     0.124 S 
ATOM     73  O   UNL A   1      53.201  26.689  23.213  1.00  0.00    -0.237 OA
ATOM     74  O   UNL A   1      51.008  27.615  22.533  1.00  0.00    -0.237 OA
ATOM     75  O   UNL A   1      52.970  29.095  22.739  1.00  0.00    -0.744 OA
ENDBRANCH  68  72
ENDBRANCH  51  65
BRANCH  52  76
ATOM     76  C   UNL A   1      40.481  29.111  29.085  1.00  0.00     0.023 A 
ATOM     77  C   UNL A   1      40.087  28.970  30.428  1.00  0.00     0.031 A 
ATOM     78  C   UNL A   1      39.468  29.276  28.124  1.00  0.00     0.131 A 
ATOM     79  C   UNL A   1      38.721  28.940  30.762  1.00  0.00     0.055 A 
ATOM     80  C   UNL A   1      38.114  29.312  28.469  1.00  0.00     0.041 A 
ATOM     81  F   UNL A   1      39.778  29.395  26.823  1.00  0.00    -0.206 F 
ATOM     82  C   UNL A   1      37.734  29.130  29.794  1.00  0.00     0.022 A 
BRANCH  79  83
ATOM     83  S   UNL A   1      38.245  28.532  32.467  1.00  0.00     0.124 S 
ATOM     84  O   UNL A   1      36.889  29.066  32.531  1.00  0.00    -0.237 OA
ATOM     85  O   UNL A   1      38.363  27.077  32.476  1.00  0.00    -0.237 OA
ATOM     86  O   UNL A   1      39.234  29.240  33.276  1.00  0.00    -0.744 OA
ENDBRANCH  79  83
ENDBRANCH  52  76
BRANCH  64  87
ATOM     87  C   UNL A   1      45.915  33.496  29.475  1.00  0.00     0.023 A 
ATOM     88  C   UNL A   1      45.707  34.573  28.597  1.00  0.00     0.031 A 
ATOM     89  C   UNL A   1      46.236  33.791  30.814  1.00  0.00     0.131 A 
ATOM     90  C   UNL A   1      45.881  35.888  29.052  1.00  0.00     0.055 A 
ATOM     91  C   UNL A   1      46.328  35.102  31.280  1.00  0.00     0.041 A 
ATOM     92  F   UNL A   1      46.453  32.805  31.699  1.00  0.00    -0.206 F 
ATOM     93  C   UNL A   1      46.166  36.161  30.393  1.00  0.00     0.022 A 
BRANCH  90  94
ATOM     94  S   UNL A   1      45.853  37.241  27.843  1.00  0.00     0.124 S 
ATOM     95  O   UNL A   1      45.461  38.377  28.669  1.00  0.00    -0.237 OA
ATOM     96  O   UNL A   1      47.229  37.252  27.356  1.00  0.00    -0.237 OA
ATOM     97  O   UNL A   1      44.854  36.807  26.867  1.00  0.00    -0.744 OA
ENDBRANCH  90  94
ENDBRANCH  64  87
ENDBRANCH  38  39
ENDBRANCH  31  33
ENDBRANCH  30  31
ENDBRANCH  29  30
ENDBRANCH  28  29
ENDBRANCH  27  28
ENDBRANCH  26  27
ENDBRANCH   1  26
TORSDOF 24
ENDMDL
