MODEL 1
REMARK VINA RESULT:     -10.7      0.000      0.000
REMARK SMILES COc1ccccc1OC1CCN(c2cccc(C(=O)OCCOCCOC(=O)c3ccc(-c4c5nc(c(-c6cc(S(=O)(=O)[O-])ccc6F)c6ccc([nH]6)c(-c6cc(S(=O)(=O)[O-])ccc6F)c6nc(c(-c7cc(S(=O)(=O)[O-])ccc7F)c7ccc4[nH]7)C=C6)C=C5)cc3)n2)CC1
REMARK SMILES IDX 23 1 22 2 21 3 19 4 20 5 18 6 14 7 15 8 93 9 16 10 17 11
REMARK SMILES IDX 13 12 10 13 11 14 95 15 12 16 94 17 9 18 8 19 3 20 4 21 5 22
REMARK SMILES IDX 7 23 6 24 2 25 1 26 24 27 25 28 26 29 27 30 28 31 29 32
REMARK SMILES IDX 30 33 31 34 92 35 32 36 91 37 33 38 34 39 35 40 85 41 36 42
REMARK SMILES IDX 90 43 84 44 86 45 37 46 89 47 83 48 82 49 38 51 70 52 50 53
REMARK SMILES IDX 69 54 51 55 54 56 68 57 87 58 52 59 53 60 67 62 88 63 55 64
REMARK SMILES IDX 39 65 40 66 48 67 41 68 47 69 49 70 46 71 42 72 43 73 44 74
REMARK SMILES IDX 45 75 71 76 72 77 80 78 73 79 79 80 81 81 78 82 74 83 75 84
REMARK SMILES IDX 76 85 77 86 56 87 57 88 65 89 58 90 64 91 66 92 63 93 59 94
REMARK SMILES IDX 60 95 61 96 62 97
REMARK H PARENT 86 50 54 61
REMARK Flexibility Score: inf
ROOT
ATOM      1  C   UNL A   1      40.668  20.771  27.362  1.00  0.00     0.202 C 
ENDROOT
BRANCH   1   2
ATOM      2  C   UNL A   1      40.191  22.169  26.959  1.00  0.00     0.261 C 
BRANCH   2   3
ATOM      3  O   UNL A   1      39.197  22.111  25.925  1.00  0.00    -0.459 OA
BRANCH   3   4
ATOM      4  C   UNL A   1      38.180  23.001  26.074  1.00  0.00     0.357 C 
ATOM      5  O   UNL A   1      38.296  24.195  26.304  1.00  0.00    -0.244 OA
BRANCH   4   6
ATOM      6  C   UNL A   1      36.879  22.349  25.749  1.00  0.00     0.150 A 
ATOM      7  C   UNL A   1      34.587  22.687  25.637  1.00  0.00     0.129 A 
ATOM      8  C   UNL A   1      34.400  21.386  25.181  1.00  0.00     0.047 A 
ATOM      9  N   UNL A   1      35.807  23.160  25.928  1.00  0.00    -0.224 NA
ATOM     10  C   UNL A   1      35.511  20.562  24.985  1.00  0.00     0.006 A 
ATOM     11  C   UNL A   1      36.784  21.052  25.264  1.00  0.00     0.036 A 
BRANCH   7  12
ATOM     12  N   UNL A   1      33.511  23.552  25.788  1.00  0.00    -0.356 N 
ATOM     13  C   UNL A   1      30.704  24.187  25.228  1.00  0.00     0.177 C 
ATOM     14  C   UNL A   1      31.071  23.459  26.516  1.00  0.00     0.066 C 
ATOM     15  C   UNL A   1      31.759  24.098  24.133  1.00  0.00     0.066 C 
ATOM     16  C   UNL A   1      32.530  23.106  26.768  1.00  0.00     0.122 C 
ATOM     17  C   UNL A   1      33.176  24.337  24.611  1.00  0.00     0.122 C 
BRANCH  13  18
ATOM     18  O   UNL A   1      30.084  25.434  25.594  1.00  0.00    -0.486 OA
BRANCH  18  19
ATOM     19  C   UNL A   1      30.350  26.583  24.920  1.00  0.00     0.161 A 
ATOM     20  C   UNL A   1      31.283  27.493  25.428  1.00  0.00     0.160 A 
ATOM     21  C   UNL A   1      31.395  28.773  24.881  1.00  0.00     0.050 A 
ATOM     22  C   UNL A   1      30.551  29.158  23.838  1.00  0.00     0.004 A 
ATOM     23  C   UNL A   1      29.491  26.981  23.894  1.00  0.00     0.050 A 
ATOM     24  C   UNL A   1      29.593  28.266  23.353  1.00  0.00     0.004 A 
BRANCH  20  25
ATOM     25  O   UNL A   1      31.969  27.205  26.581  1.00  0.00    -0.493 OA
ATOM     26  C   UNL A   1      31.693  28.167  27.591  1.00  0.00     0.278 C 
ENDBRANCH  20  25
ENDBRANCH  18  19
ENDBRANCH  13  18
ENDBRANCH   7  12
ENDBRANCH   4   6
ENDBRANCH   3   4
ENDBRANCH   2   3
ENDBRANCH   1   2
BRANCH   1  27
ATOM     27  O   UNL A   1      41.895  20.310  26.800  1.00  0.00    -0.374 OA
BRANCH  27  28
ATOM     28  C   UNL A   1      41.913  18.995  26.242  1.00  0.00     0.202 C 
BRANCH  28  29
ATOM     29  C   UNL A   1      43.239  18.491  25.653  1.00  0.00     0.261 C 
BRANCH  29  30
ATOM     30  O   UNL A   1      43.602  19.166  24.435  1.00  0.00    -0.460 OA
BRANCH  30  31
ATOM     31  C   UNL A   1      44.881  19.616  24.382  1.00  0.00     0.338 C 
ATOM     32  O   UNL A   1      45.842  19.044  23.886  1.00  0.00    -0.246 OA
BRANCH  31  33
ATOM     33  C   UNL A   1      44.920  21.020  24.830  1.00  0.00     0.060 A 
ATOM     34  C   UNL A   1      44.611  22.022  23.899  1.00  0.00     0.016 A 
ATOM     35  C   UNL A   1      45.276  21.352  26.136  1.00  0.00     0.016 A 
ATOM     36  C   UNL A   1      44.659  23.364  24.273  1.00  0.00     0.010 A 
ATOM     37  C   UNL A   1      45.340  22.699  26.505  1.00  0.00     0.010 A 
ATOM     38  C   UNL A   1      45.044  23.712  25.574  1.00  0.00    -0.014 A 
BRANCH  38  39
ATOM     39  C   UNL A   1      45.234  25.135  25.948  1.00  0.00     0.031 A 
ATOM     40  C   UNL A   1      46.604  25.742  25.850  1.00  0.00     0.074 A 
ATOM     41  C   UNL A   1      44.198  25.871  26.387  1.00  0.00     0.049 A 
ATOM     42  N   UNL A   1      47.020  26.921  26.228  1.00  0.00    -0.248 NA
ATOM     43  C   UNL A   1      47.643  24.893  25.251  1.00  0.00     0.031 C 
ATOM     44  C   UNL A   1      42.812  25.413  26.464  1.00  0.00     0.029 A 
ATOM     45  N   UNL A   1      44.155  27.158  26.859  1.00  0.00    -0.354 N 
ATOM     46  C   UNL A   1      48.376  26.959  25.920  1.00  0.00     0.074 A 
ATOM     47  C   UNL A   1      48.714  25.663  25.367  1.00  0.00     0.031 C 
ATOM     48  C   UNL A   1      42.054  26.407  26.959  1.00  0.00     0.029 A 
ATOM     49  C   UNL A   1      42.907  27.547  27.284  1.00  0.00     0.049 A 
ATOM     50  H   UNL A   1      44.944  27.748  26.891  1.00  0.00     0.167 HD
ATOM     51  C   UNL A   1      49.253  27.984  26.077  1.00  0.00     0.034 A 
ATOM     52  C   UNL A   1      42.508  28.681  27.895  1.00  0.00     0.034 A 
ATOM     53  C   UNL A   1      48.900  29.259  26.655  1.00  0.00     0.049 A 
ATOM     54  C   UNL A   1      43.530  29.752  28.196  1.00  0.00     0.074 A 
ATOM     55  C   UNL A   1      49.702  30.370  26.852  1.00  0.00     0.029 A 
ATOM     56  N   UNL A   1      47.644  29.587  27.154  1.00  0.00    -0.354 N 
ATOM     57  N   UNL A   1      44.810  29.782  27.902  1.00  0.00    -0.248 NA
ATOM     58  C   UNL A   1      43.051  30.939  28.916  1.00  0.00     0.031 C 
ATOM     59  C   UNL A   1      48.960  31.331  27.548  1.00  0.00     0.029 A 
ATOM     60  C   UNL A   1      47.665  30.861  27.704  1.00  0.00     0.049 A 
ATOM     61  H   UNL A   1      46.855  29.001  27.121  1.00  0.00     0.167 HD
ATOM     62  C   UNL A   1      45.279  31.007  28.371  1.00  0.00     0.074 A 
ATOM     63  C   UNL A   1      44.144  31.687  28.961  1.00  0.00     0.031 C 
ATOM     64  C   UNL A   1      46.533  31.525  28.310  1.00  0.00     0.034 A 
BRANCH  51  65
ATOM     65  C   UNL A   1      50.687  27.729  25.673  1.00  0.00     0.023 A 
ATOM     66  C   UNL A   1      51.126  27.919  24.351  1.00  0.00     0.031 A 
ATOM     67  C   UNL A   1      51.613  27.226  26.604  1.00  0.00     0.131 A 
ATOM     68  C   UNL A   1      52.416  27.512  23.976  1.00  0.00     0.055 A 
ATOM     69  C   UNL A   1      52.927  26.918  26.246  1.00  0.00     0.041 A 
ATOM     70  F   UNL A   1      51.249  27.001  27.877  1.00  0.00    -0.206 F 
ATOM     71  C   UNL A   1      53.328  27.037  24.919  1.00  0.00     0.022 A 
BRANCH  68  72
ATOM     72  S   UNL A   1      52.808  27.422  22.206  1.00  0.00     0.124 S 
ATOM     73  O   UNL A   1      52.890  28.837  21.851  1.00  0.00    -0.237 OA
ATOM     74  O   UNL A   1      54.068  26.687  22.200  1.00  0.00    -0.237 OA
ATOM     75  O   UNL A   1      51.665  26.711  21.638  1.00  0.00    -0.744 OA
ENDBRANCH  68  72
ENDBRANCH  51  65
BRANCH  52  76
ATOM     76  C   UNL A   1      41.083  28.860  28.294  1.00  0.00     0.023 A 
ATOM     77  C   UNL A   1      40.695  28.729  29.635  1.00  0.00     0.031 A 
ATOM     78  C   UNL A   1      40.085  29.125  27.340  1.00  0.00     0.131 A 
ATOM     79  C   UNL A   1      39.338  28.827  29.983  1.00  0.00     0.055 A 
ATOM     80  C   UNL A   1      38.744  29.276  27.698  1.00  0.00     0.041 A 
ATOM     81  F   UNL A   1      40.402  29.255  26.041  1.00  0.00    -0.206 F 
ATOM     82  C   UNL A   1      38.363  29.117  29.026  1.00  0.00     0.022 A 
BRANCH  79  83
ATOM     83  S   UNL A   1      38.860  28.493  31.699  1.00  0.00     0.124 S 
ATOM     84  O   UNL A   1      40.094  28.793  32.415  1.00  0.00    -0.237 OA
ATOM     85  O   UNL A   1      37.759  29.431  31.895  1.00  0.00    -0.237 OA
ATOM     86  O   UNL A   1      38.478  27.083  31.676  1.00  0.00    -0.744 OA
ENDBRANCH  79  83
ENDBRANCH  52  76
BRANCH  64  87
ATOM     87  C   UNL A   1      46.735  32.917  28.861  1.00  0.00     0.023 A 
ATOM     88  C   UNL A   1      46.408  34.066  28.117  1.00  0.00     0.031 A 
ATOM     89  C   UNL A   1      47.255  33.097  30.156  1.00  0.00     0.131 A 
ATOM     90  C   UNL A   1      46.648  35.339  28.656  1.00  0.00     0.055 A 
ATOM     91  C   UNL A   1      47.432  34.365  30.710  1.00  0.00     0.041 A 
ATOM     92  F   UNL A   1      47.590  32.038  30.910  1.00  0.00    -0.206 F 
ATOM     93  C   UNL A   1      47.137  35.497  29.956  1.00  0.00     0.022 A 
BRANCH  90  94
ATOM     94  S   UNL A   1      46.388  36.795  27.605  1.00  0.00     0.124 S 
ATOM     95  O   UNL A   1      45.254  36.380  26.786  1.00  0.00    -0.237 OA
ATOM     96  O   UNL A   1      46.117  37.843  28.584  1.00  0.00    -0.237 OA
ATOM     97  O   UNL A   1      47.655  36.931  26.887  1.00  0.00    -0.744 OA
ENDBRANCH  90  94
ENDBRANCH  64  87
ENDBRANCH  38  39
ENDBRANCH  31  33
ENDBRANCH  30  31
ENDBRANCH  29  30
ENDBRANCH  28  29
ENDBRANCH  27  28
ENDBRANCH   1  27
TORSDOF 21
ENDMDL
MODEL 2
REMARK VINA RESULT:     -10.5      6.140     11.158
REMARK SMILES COc1ccccc1OC1CCN(c2cccc(C(=O)OCCOCCOC(=O)c3ccc(-c4c5nc(c(-c6cc(S(=O)(=O)[O-])ccc6F)c6ccc([nH]6)c(-c6cc(S(=O)(=O)[O-])ccc6F)c6nc(c(-c7cc(S(=O)(=O)[O-])ccc7F)c7ccc4[nH]7)C=C6)C=C5)cc3)n2)CC1
REMARK SMILES IDX 23 1 22 2 21 3 19 4 20 5 18 6 14 7 15 8 93 9 16 10 17 11
REMARK SMILES IDX 13 12 10 13 11 14 95 15 12 16 94 17 9 18 8 19 3 20 4 21 5 22
REMARK SMILES IDX 7 23 6 24 2 25 1 26 24 27 25 28 26 29 27 30 28 31 29 32
REMARK SMILES IDX 30 33 31 34 92 35 32 36 91 37 33 38 34 39 35 40 85 41 36 42
REMARK SMILES IDX 90 43 84 44 86 45 37 46 89 47 83 48 82 49 38 51 70 52 50 53
REMARK SMILES IDX 69 54 51 55 54 56 68 57 87 58 52 59 53 60 67 62 88 63 55 64
REMARK SMILES IDX 39 65 40 66 48 67 41 68 47 69 49 70 46 71 42 72 43 73 44 74
REMARK SMILES IDX 45 75 71 76 72 77 80 78 73 79 79 80 81 81 78 82 74 83 75 84
REMARK SMILES IDX 76 85 77 86 56 87 57 88 65 89 58 90 64 91 66 92 63 93 59 94
REMARK SMILES IDX 60 95 61 96 62 97
REMARK H PARENT 86 50 54 61
REMARK Flexibility Score: inf
ROOT
ATOM      1  C   UNL A   1      33.203  29.426  27.248  1.00  0.00     0.202 C 
ENDROOT
BRANCH   1   2
ATOM      2  C   UNL A   1      31.798  29.367  26.641  1.00  0.00     0.261 C 
BRANCH   2   3
ATOM      3  O   UNL A   1      31.780  29.882  25.302  1.00  0.00    -0.459 OA
BRANCH   3   4
ATOM      4  C   UNL A   1      32.288  29.036  24.367  1.00  0.00     0.357 C 
ATOM      5  O   UNL A   1      33.369  29.144  23.808  1.00  0.00    -0.244 OA
BRANCH   4   6
ATOM      6  C   UNL A   1      31.407  27.841  24.227  1.00  0.00     0.150 A 
ATOM      7  C   UNL A   1      31.316  25.537  24.482  1.00  0.00     0.129 A 
ATOM      8  C   UNL A   1      29.983  25.528  24.085  1.00  0.00     0.047 A 
ATOM      9  N   UNL A   1      32.023  26.674  24.543  1.00  0.00    -0.224 NA
ATOM     10  C   UNL A   1      29.352  26.736  23.776  1.00  0.00     0.006 A 
ATOM     11  C   UNL A   1      30.072  27.924  23.857  1.00  0.00     0.036 A 
BRANCH   7  12
ATOM     12  N   UNL A   1      31.959  24.362  24.852  1.00  0.00    -0.356 N 
ATOM     13  C   UNL A   1      31.944  21.434  25.002  1.00  0.00     0.177 C 
ATOM     14  C   UNL A   1      32.600  22.126  23.813  1.00  0.00     0.066 C 
ATOM     15  C   UNL A   1      30.945  22.299  25.759  1.00  0.00     0.066 C 
ATOM     16  C   UNL A   1      32.564  23.646  23.737  1.00  0.00     0.122 C 
ATOM     17  C   UNL A   1      31.424  23.709  26.036  1.00  0.00     0.122 C 
BRANCH  13  18
ATOM     18  O   UNL A   1      32.959  20.669  25.677  1.00  0.00    -0.486 OA
BRANCH  18  19
ATOM     19  C   UNL A   1      33.388  19.475  25.192  1.00  0.00     0.161 A 
ATOM     20  C   UNL A   1      34.743  19.287  24.894  1.00  0.00     0.160 A 
ATOM     21  C   UNL A   1      35.161  18.161  24.181  1.00  0.00     0.050 A 
ATOM     22  C   UNL A   1      34.219  17.231  23.736  1.00  0.00     0.004 A 
ATOM     23  C   UNL A   1      32.448  18.556  24.723  1.00  0.00     0.050 A 
ATOM     24  C   UNL A   1      32.864  17.435  23.999  1.00  0.00     0.004 A 
BRANCH  20  25
ATOM     25  O   UNL A   1      35.648  20.288  25.138  1.00  0.00    -0.493 OA
ATOM     26  C   UNL A   1      36.975  19.848  24.881  1.00  0.00     0.278 C 
ENDBRANCH  20  25
ENDBRANCH  18  19
ENDBRANCH  13  18
ENDBRANCH   7  12
ENDBRANCH   4   6
ENDBRANCH   3   4
ENDBRANCH   2   3
ENDBRANCH   1   2
BRANCH   1  27
ATOM     27  O   UNL A   1      34.032  30.525  26.875  1.00  0.00    -0.374 OA
BRANCH  27  28
ATOM     28  C   UNL A   1      34.101  31.634  27.773  1.00  0.00     0.202 C 
BRANCH  28  29
ATOM     29  C   UNL A   1      32.988  32.689  27.685  1.00  0.00     0.261 C 
BRANCH  29  30
ATOM     30  O   UNL A   1      33.480  34.033  27.843  1.00  0.00    -0.460 OA
BRANCH  30  31
ATOM     31  C   UNL A   1      33.434  34.520  29.109  1.00  0.00     0.338 C 
ATOM     32  O   UNL A   1      32.497  35.099  29.641  1.00  0.00    -0.246 OA
BRANCH  31  33
ATOM     33  C   UNL A   1      34.624  34.060  29.848  1.00  0.00     0.060 A 
ATOM     34  C   UNL A   1      35.888  34.401  29.348  1.00  0.00     0.016 A 
ATOM     35  C   UNL A   1      34.502  33.285  31.001  1.00  0.00     0.016 A 
ATOM     36  C   UNL A   1      37.039  33.966  30.002  1.00  0.00     0.010 A 
ATOM     37  C   UNL A   1      35.658  32.836  31.646  1.00  0.00     0.010 A 
ATOM     38  C   UNL A   1      36.932  33.163  31.145  1.00  0.00    -0.014 A 
BRANCH  38  39
ATOM     39  C   UNL A   1      38.142  32.578  31.771  1.00  0.00     0.031 A 
ATOM     40  C   UNL A   1      38.835  31.429  31.097  1.00  0.00     0.074 A 
ATOM     41  C   UNL A   1      38.607  33.056  32.939  1.00  0.00     0.049 A 
ATOM     42  N   UNL A   1      39.832  30.695  31.517  1.00  0.00    -0.248 NA
ATOM     43  C   UNL A   1      38.320  31.055  29.772  1.00  0.00     0.031 C 
ATOM     44  C   UNL A   1      38.061  34.207  33.655  1.00  0.00     0.029 A 
ATOM     45  N   UNL A   1      39.642  32.626  33.731  1.00  0.00    -0.354 N 
ATOM     46  C   UNL A   1      40.065  29.765  30.510  1.00  0.00     0.074 A 
ATOM     47  C   UNL A   1      39.071  30.004  29.484  1.00  0.00     0.031 C 
ATOM     48  C   UNL A   1      38.765  34.389  34.786  1.00  0.00     0.029 A 
ATOM     49  C   UNL A   1      39.773  33.337  34.899  1.00  0.00     0.049 A 
ATOM     50  H   UNL A   1      40.233  31.877  33.486  1.00  0.00     0.167 HD
ATOM     51  C   UNL A   1      41.025  28.807  30.447  1.00  0.00     0.034 A 
ATOM     52  C   UNL A   1      40.592  33.141  35.953  1.00  0.00     0.034 A 
ATOM     53  C   UNL A   1      41.991  28.570  31.494  1.00  0.00     0.049 A 
ATOM     54  C   UNL A   1      41.555  31.978  35.928  1.00  0.00     0.074 A 
ATOM     55  C   UNL A   1      43.012  27.637  31.532  1.00  0.00     0.029 A 
ATOM     56  N   UNL A   1      42.039  29.256  32.703  1.00  0.00    -0.354 N 
ATOM     57  N   UNL A   1      41.770  31.101  34.973  1.00  0.00    -0.248 NA
ATOM     58  C   UNL A   1      42.379  31.776  37.126  1.00  0.00     0.031 C 
ATOM     59  C   UNL A   1      43.617  27.698  32.793  1.00  0.00     0.029 A 
ATOM     60  C   UNL A   1      43.037  28.731  33.512  1.00  0.00     0.049 A 
ATOM     61  H   UNL A   1      41.450  30.005  32.949  1.00  0.00     0.167 HD
ATOM     62  C   UNL A   1      42.781  30.266  35.445  1.00  0.00     0.074 A 
ATOM     63  C   UNL A   1      43.134  30.749  36.764  1.00  0.00     0.031 C 
ATOM     64  C   UNL A   1      43.370  29.205  34.836  1.00  0.00     0.034 A 
BRANCH  51  65
ATOM     65  C   UNL A   1      41.024  27.912  29.229  1.00  0.00     0.023 A 
ATOM     66  C   UNL A   1      41.926  28.108  28.168  1.00  0.00     0.031 A 
ATOM     67  C   UNL A   1      40.067  26.890  29.094  1.00  0.00     0.131 A 
ATOM     68  C   UNL A   1      41.785  27.369  26.983  1.00  0.00     0.055 A 
ATOM     69  C   UNL A   1      39.997  26.090  27.952  1.00  0.00     0.041 A 
ATOM     70  F   UNL A   1      39.164  26.668  30.062  1.00  0.00    -0.206 F 
ATOM     71  C   UNL A   1      40.844  26.343  26.877  1.00  0.00     0.022 A 
BRANCH  68  72
ATOM     72  S   UNL A   1      42.712  27.907  25.519  1.00  0.00     0.124 S 
ATOM     73  O   UNL A   1      42.676  26.705  24.690  1.00  0.00    -0.237 OA
ATOM     74  O   UNL A   1      41.920  29.036  25.043  1.00  0.00    -0.237 OA
ATOM     75  O   UNL A   1      44.029  28.247  26.054  1.00  0.00    -0.744 OA
ENDBRANCH  68  72
ENDBRANCH  51  65
BRANCH  52  76
ATOM     76  C   UNL A   1      40.524  34.044  37.137  1.00  0.00     0.023 A 
ATOM     77  C   UNL A   1      41.463  35.073  37.304  1.00  0.00     0.031 A 
ATOM     78  C   UNL A   1      39.550  33.869  38.135  1.00  0.00     0.131 A 
ATOM     79  C   UNL A   1      41.429  35.867  38.461  1.00  0.00     0.055 A 
ATOM     80  C   UNL A   1      39.488  34.697  39.258  1.00  0.00     0.041 A 
ATOM     81  F   UNL A   1      38.631  32.895  38.026  1.00  0.00    -0.206 F 
ATOM     82  C   UNL A   1      40.438  35.697  39.430  1.00  0.00     0.022 A 
BRANCH  79  83
ATOM     83  S   UNL A   1      42.753  37.080  38.715  1.00  0.00     0.124 S 
ATOM     84  O   UNL A   1      43.283  37.226  37.365  1.00  0.00    -0.237 OA
ATOM     85  O   UNL A   1      42.019  38.224  39.246  1.00  0.00    -0.237 OA
ATOM     86  O   UNL A   1      43.641  36.417  39.668  1.00  0.00    -0.744 OA
ENDBRANCH  79  83
ENDBRANCH  52  76
BRANCH  64  87
ATOM     87  C   UNL A   1      44.491  28.515  35.579  1.00  0.00     0.023 A 
ATOM     88  C   UNL A   1      44.246  27.483  36.503  1.00  0.00     0.031 A 
ATOM     89  C   UNL A   1      45.827  28.892  35.351  1.00  0.00     0.131 A 
ATOM     90  C   UNL A   1      45.315  26.896  37.196  1.00  0.00     0.055 A 
ATOM     91  C   UNL A   1      46.891  28.261  35.998  1.00  0.00     0.041 A 
ATOM     92  F   UNL A   1      46.122  29.875  34.485  1.00  0.00    -0.206 F 
ATOM     93  C   UNL A   1      46.639  27.264  36.934  1.00  0.00     0.022 A 
BRANCH  90  94
ATOM     94  S   UNL A   1      44.953  25.699  38.510  1.00  0.00     0.124 S 
ATOM     95  O   UNL A   1      44.210  26.514  39.466  1.00  0.00    -0.237 OA
ATOM     96  O   UNL A   1      44.180  24.683  37.803  1.00  0.00    -0.237 OA
ATOM     97  O   UNL A   1      46.276  25.269  38.959  1.00  0.00    -0.744 OA
ENDBRANCH  90  94
ENDBRANCH  64  87
ENDBRANCH  38  39
ENDBRANCH  31  33
ENDBRANCH  30  31
ENDBRANCH  29  30
ENDBRANCH  28  29
ENDBRANCH  27  28
ENDBRANCH   1  27
TORSDOF 21
ENDMDL
MODEL 3
REMARK VINA RESULT:     -10.5      5.137      9.578
REMARK SMILES COc1ccccc1OC1CCN(c2cccc(C(=O)OCCOCCOC(=O)c3ccc(-c4c5nc(c(-c6cc(S(=O)(=O)[O-])ccc6F)c6ccc([nH]6)c(-c6cc(S(=O)(=O)[O-])ccc6F)c6nc(c(-c7cc(S(=O)(=O)[O-])ccc7F)c7ccc4[nH]7)C=C6)C=C5)cc3)n2)CC1
REMARK SMILES IDX 23 1 22 2 21 3 19 4 20 5 18 6 14 7 15 8 93 9 16 10 17 11
REMARK SMILES IDX 13 12 10 13 11 14 95 15 12 16 94 17 9 18 8 19 3 20 4 21 5 22
REMARK SMILES IDX 7 23 6 24 2 25 1 26 24 27 25 28 26 29 27 30 28 31 29 32
REMARK SMILES IDX 30 33 31 34 92 35 32 36 91 37 33 38 34 39 35 40 85 41 36 42
REMARK SMILES IDX 90 43 84 44 86 45 37 46 89 47 83 48 82 49 38 51 70 52 50 53
REMARK SMILES IDX 69 54 51 55 54 56 68 57 87 58 52 59 53 60 67 62 88 63 55 64
REMARK SMILES IDX 39 65 40 66 48 67 41 68 47 69 49 70 46 71 42 72 43 73 44 74
REMARK SMILES IDX 45 75 71 76 72 77 80 78 73 79 79 80 81 81 78 82 74 83 75 84
REMARK SMILES IDX 76 85 77 86 56 87 57 88 65 89 58 90 64 91 66 92 63 93 59 94
REMARK SMILES IDX 60 95 61 96 62 97
REMARK H PARENT 86 50 54 61
REMARK Flexibility Score: inf
ROOT
ATOM      1  C   UNL A   1      33.320  28.609  23.267  1.00  0.00     0.202 C 
ENDROOT
BRANCH   1   2
ATOM      2  C   UNL A   1      33.619  27.533  22.218  1.00  0.00     0.261 C 
BRANCH   2   3
ATOM      3  O   UNL A   1      32.441  26.789  21.875  1.00  0.00    -0.459 OA
BRANCH   3   4
ATOM      4  C   UNL A   1      32.687  25.597  21.267  1.00  0.00     0.357 C 
ATOM      5  O   UNL A   1      33.005  25.436  20.099  1.00  0.00    -0.244 OA
BRANCH   4   6
ATOM      6  C   UNL A   1      32.677  24.499  22.276  1.00  0.00     0.150 A 
ATOM      7  C   UNL A   1      34.024  23.033  23.466  1.00  0.00     0.129 A 
ATOM      8  C   UNL A   1      32.910  22.512  24.118  1.00  0.00     0.047 A 
ATOM      9  N   UNL A   1      33.910  24.004  22.550  1.00  0.00    -0.224 NA
ATOM     10  C   UNL A   1      31.646  23.036  23.840  1.00  0.00     0.006 A 
ATOM     11  C   UNL A   1      31.520  24.061  22.906  1.00  0.00     0.036 A 
BRANCH   7  12
ATOM     12  N   UNL A   1      35.302  22.575  23.760  1.00  0.00    -0.356 N 
ATOM     13  C   UNL A   1      37.473  22.270  25.707  1.00  0.00     0.177 C 
ATOM     14  C   UNL A   1      36.462  21.144  25.520  1.00  0.00     0.066 C 
ATOM     15  C   UNL A   1      36.994  23.631  25.218  1.00  0.00     0.066 C 
ATOM     16  C   UNL A   1      35.322  21.339  24.531  1.00  0.00     0.122 C 
ATOM     17  C   UNL A   1      36.322  23.606  23.861  1.00  0.00     0.122 C 
BRANCH  13  18
ATOM     18  O   UNL A   1      38.772  21.749  25.372  1.00  0.00    -0.486 OA
BRANCH  18  19
ATOM     19  C   UNL A   1      39.678  21.430  26.331  1.00  0.00     0.161 A 
ATOM     20  C   UNL A   1      40.190  22.427  27.171  1.00  0.00     0.160 A 
ATOM     21  C   UNL A   1      41.285  22.164  27.997  1.00  0.00     0.050 A 
ATOM     22  C   UNL A   1      41.892  20.907  27.965  1.00  0.00     0.004 A 
ATOM     23  C   UNL A   1      40.305  20.184  26.285  1.00  0.00     0.050 A 
ATOM     24  C   UNL A   1      41.409  19.922  27.102  1.00  0.00     0.004 A 
BRANCH  20  25
ATOM     25  O   UNL A   1      39.740  23.718  27.060  1.00  0.00    -0.493 OA
ATOM     26  C   UNL A   1      40.783  24.585  26.632  1.00  0.00     0.278 C 
ENDBRANCH  20  25
ENDBRANCH  18  19
ENDBRANCH  13  18
ENDBRANCH   7  12
ENDBRANCH   4   6
ENDBRANCH   3   4
ENDBRANCH   2   3
ENDBRANCH   1   2
BRANCH   1  27
ATOM     27  O   UNL A   1      32.712  28.185  24.485  1.00  0.00    -0.374 OA
BRANCH  27  28
ATOM     28  C   UNL A   1      31.754  29.060  25.084  1.00  0.00     0.202 C 
BRANCH  28  29
ATOM     29  C   UNL A   1      32.017  29.521  26.525  1.00  0.00     0.261 C 
BRANCH  29  30
ATOM     30  O   UNL A   1      33.417  29.698  26.808  1.00  0.00    -0.460 OA
BRANCH  30  31
ATOM     31  C   UNL A   1      33.762  30.925  27.273  1.00  0.00     0.338 C 
ATOM     32  O   UNL A   1      33.047  31.915  27.339  1.00  0.00    -0.246 OA
BRANCH  31  33
ATOM     33  C   UNL A   1      35.094  30.848  27.900  1.00  0.00     0.060 A 
ATOM     34  C   UNL A   1      35.496  29.625  28.455  1.00  0.00     0.016 A 
ATOM     35  C   UNL A   1      35.927  31.965  27.965  1.00  0.00     0.016 A 
ATOM     36  C   UNL A   1      36.737  29.515  29.080  1.00  0.00     0.010 A 
ATOM     37  C   UNL A   1      37.165  31.856  28.607  1.00  0.00     0.010 A 
ATOM     38  C   UNL A   1      37.572  30.635  29.178  1.00  0.00    -0.014 A 
BRANCH  38  39
ATOM     39  C   UNL A   1      38.832  30.571  29.958  1.00  0.00     0.031 A 
ATOM     40  C   UNL A   1      40.011  29.838  29.387  1.00  0.00     0.074 A 
ATOM     41  C   UNL A   1      38.915  31.147  31.171  1.00  0.00     0.049 A 
ATOM     42  N   UNL A   1      41.164  29.560  29.937  1.00  0.00    -0.248 NA
ATOM     43  C   UNL A   1      39.858  29.345  28.012  1.00  0.00     0.031 C 
ATOM     44  C   UNL A   1      37.862  31.940  31.801  1.00  0.00     0.029 A 
ATOM     45  N   UNL A   1      39.933  31.144  32.091  1.00  0.00    -0.354 N 
ATOM     46  C   UNL A   1      41.878  28.852  28.976  1.00  0.00     0.074 A 
ATOM     47  C   UNL A   1      41.004  28.707  27.830  1.00  0.00     0.031 C 
ATOM     48  C   UNL A   1      38.288  32.345  33.010  1.00  0.00     0.029 A 
ATOM     49  C   UNL A   1      39.619  31.795  33.260  1.00  0.00     0.049 A 
ATOM     50  H   UNL A   1      40.805  30.716  31.930  1.00  0.00     0.167 HD
ATOM     51  C   UNL A   1      43.148  28.376  29.044  1.00  0.00     0.034 A 
ATOM     52  C   UNL A   1      40.314  31.906  34.410  1.00  0.00     0.034 A 
ATOM     53  C   UNL A   1      43.993  28.510  30.207  1.00  0.00     0.049 A 
ATOM     54  C   UNL A   1      41.666  31.242  34.518  1.00  0.00     0.074 A 
ATOM     55  C   UNL A   1      45.296  28.077  30.383  1.00  0.00     0.029 A 
ATOM     56  N   UNL A   1      43.609  29.102  31.406  1.00  0.00    -0.354 N 
ATOM     57  N   UNL A   1      42.336  30.574  33.607  1.00  0.00    -0.248 NA
ATOM     58  C   UNL A   1      42.352  31.344  35.813  1.00  0.00     0.031 C 
ATOM     59  C   UNL A   1      45.667  28.325  31.709  1.00  0.00     0.029 A 
ATOM     60  C   UNL A   1      44.631  28.998  32.339  1.00  0.00     0.049 A 
ATOM     61  H   UNL A   1      42.740  29.532  31.569  1.00  0.00     0.167 HD
ATOM     62  C   UNL A   1      43.537  30.207  34.210  1.00  0.00     0.074 A 
ATOM     63  C   UNL A   1      43.500  30.734  35.559  1.00  0.00     0.031 C 
ATOM     64  C   UNL A   1      44.579  29.508  33.691  1.00  0.00     0.034 A 
BRANCH  51  65
ATOM     65  C   UNL A   1      43.661  27.614  27.844  1.00  0.00     0.023 A 
ATOM     66  C   UNL A   1      43.749  26.211  27.843  1.00  0.00     0.031 A 
ATOM     67  C   UNL A   1      44.130  28.300  26.709  1.00  0.00     0.131 A 
ATOM     68  C   UNL A   1      44.387  25.550  26.782  1.00  0.00     0.055 A 
ATOM     69  C   UNL A   1      44.672  27.628  25.612  1.00  0.00     0.041 A 
ATOM     70  F   UNL A   1      44.095  29.641  26.658  1.00  0.00    -0.206 F 
ATOM     71  C   UNL A   1      44.825  26.246  25.654  1.00  0.00     0.022 A 
BRANCH  68  72
ATOM     72  S   UNL A   1      44.814  23.798  26.993  1.00  0.00     0.124 S 
ATOM     73  O   UNL A   1      46.235  23.799  26.654  1.00  0.00    -0.237 OA
ATOM     74  O   UNL A   1      44.491  23.562  28.395  1.00  0.00    -0.237 OA
ATOM     75  O   UNL A   1      43.952  23.118  26.028  1.00  0.00    -0.744 OA
ENDBRANCH  68  72
ENDBRANCH  51  65
BRANCH  52  76
ATOM     76  C   UNL A   1      39.740  32.649  35.568  1.00  0.00     0.023 A 
ATOM     77  C   UNL A   1      38.975  31.982  36.536  1.00  0.00     0.031 A 
ATOM     78  C   UNL A   1      39.914  34.038  35.704  1.00  0.00     0.131 A 
ATOM     79  C   UNL A   1      38.381  32.709  37.579  1.00  0.00     0.055 A 
ATOM     80  C   UNL A   1      39.366  34.748  36.774  1.00  0.00     0.041 A 
ATOM     81  F   UNL A   1      40.634  34.725  34.803  1.00  0.00    -0.206 F 
ATOM     82  C   UNL A   1      38.585  34.084  37.714  1.00  0.00     0.022 A 
BRANCH  79  83
ATOM     83  S   UNL A   1      37.270  31.838  38.717  1.00  0.00     0.124 S 
ATOM     84  O   UNL A   1      38.042  31.851  39.953  1.00  0.00    -0.237 OA
ATOM     85  O   UNL A   1      36.083  32.686  38.690  1.00  0.00    -0.237 OA
ATOM     86  O   UNL A   1      37.109  30.525  38.094  1.00  0.00    -0.744 OA
ENDBRANCH  79  83
ENDBRANCH  52  76
BRANCH  64  87
ATOM     87  C   UNL A   1      45.788  29.307  34.576  1.00  0.00     0.023 A 
ATOM     88  C   UNL A   1      45.926  28.174  35.398  1.00  0.00     0.031 A 
ATOM     89  C   UNL A   1      46.821  30.260  34.588  1.00  0.00     0.131 A 
ATOM     90  C   UNL A   1      47.048  28.047  36.231  1.00  0.00     0.055 A 
ATOM     91  C   UNL A   1      47.965  30.098  35.372  1.00  0.00     0.041 A 
ATOM     92  F   UNL A   1      46.742  31.365  33.829  1.00  0.00    -0.206 F 
ATOM     93  C   UNL A   1      48.079  28.991  36.208  1.00  0.00     0.022 A 
BRANCH  90  94
ATOM     94  S   UNL A   1      47.109  26.671  37.411  1.00  0.00     0.124 S 
ATOM     95  O   UNL A   1      48.260  27.029  38.235  1.00  0.00    -0.237 OA
ATOM     96  O   UNL A   1      45.807  26.761  38.064  1.00  0.00    -0.237 OA
ATOM     97  O   UNL A   1      47.296  25.496  36.561  1.00  0.00    -0.744 OA
ENDBRANCH  90  94
ENDBRANCH  64  87
ENDBRANCH  38  39
ENDBRANCH  31  33
ENDBRANCH  30  31
ENDBRANCH  29  30
ENDBRANCH  28  29
ENDBRANCH  27  28
ENDBRANCH   1  27
TORSDOF 21
ENDMDL
