MODEL 1
REMARK VINA RESULT:     -11.2      0.000      0.000
REMARK SMILES CN1C(=O)CC[C@H]([NH2+]Cc2ccc(C(=O)OCCOCCOC(=O)c3ccc(-c4c5nc(c(-c6cc(S(=O)(=O)[O-])ccc6F)c6ccc([nH]6)c(-c6cc(S(=O)(=O)[O-])ccc6F)c6nc(c(-c7cc(S(=O)(=O)[O-])ccc7F)c7ccc4[nH]7)C=C6)C=C5)cc3)cn2)C1=O
REMARK SMILES IDX 19 1 18 2 17 3 16 4 14 5 15 6 13 7 10 8 11 9 89 10 12 11
REMARK SMILES IDX 88 12 9 13 8 14 7 17 1 18 2 19 3 20 90 21 4 22 5 23 91 24
REMARK SMILES IDX 6 25 20 26 21 27 22 28 23 29 24 30 25 31 26 32 87 33 27 34
REMARK SMILES IDX 86 35 28 36 29 37 30 38 80 39 31 40 85 41 79 42 81 43 32 44
REMARK SMILES IDX 84 45 78 46 77 47 33 49 65 50 45 51 64 52 46 53 49 54 63 55
REMARK SMILES IDX 82 56 47 57 48 58 62 60 83 61 50 62 34 63 35 64 43 65 36 66
REMARK SMILES IDX 42 67 44 68 41 69 37 70 38 71 39 72 40 73 66 74 67 75 75 76
REMARK SMILES IDX 68 77 74 78 76 79 73 80 69 81 70 82 71 83 72 84 51 85 52 86
REMARK SMILES IDX 60 87 53 88 59 89 61 90 58 91 54 92 55 93 56 94 57 95
REMARK H PARENT 8 15 8 16 81 48 49 59
REMARK Flexibility Score: inf
ROOT
ATOM      1  O   UNL A   1      46.827  41.027  28.834  1.00  0.00    -0.374 OA
ENDROOT
BRANCH   1   2
ATOM      2  C   UNL A   1      46.191  41.578  27.681  1.00  0.00     0.202 C 
BRANCH   2   3
ATOM      3  C   UNL A   1      45.675  43.016  27.793  1.00  0.00     0.261 C 
BRANCH   3   4
ATOM      4  O   UNL A   1      44.643  43.277  26.830  1.00  0.00    -0.460 OA
BRANCH   4   5
ATOM      5  C   UNL A   1      44.992  44.150  25.859  1.00  0.00     0.339 C 
ATOM      6  O   UNL A   1      45.867  45.001  25.912  1.00  0.00    -0.246 OA
BRANCH   5   7
ATOM      7  C   UNL A   1      44.289  43.828  24.609  1.00  0.00     0.078 A 
ATOM      8  C   UNL A   1      42.904  42.967  22.398  1.00  0.00     0.094 A 
ATOM      9  C   UNL A   1      43.618  44.164  22.326  1.00  0.00     0.031 A 
ATOM     10  N   UNL A   1      42.807  42.248  23.546  1.00  0.00    -0.254 NA
ATOM     11  C   UNL A   1      44.322  44.602  23.450  1.00  0.00     0.019 A 
ATOM     12  C   UNL A   1      43.506  42.685  24.616  1.00  0.00     0.127 A 
BRANCH   8  13
ATOM     13  C   UNL A   1      42.170  42.385  21.207  1.00  0.00     0.318 C 
BRANCH  13  14
ATOM     14  N   UNL A   1      43.001  42.255  19.997  1.00  0.00    -0.331 N 
ATOM     15  H   UNL A   1      43.961  42.501  20.238  1.00  0.00     0.347 HD
ATOM     16  H   UNL A   1      42.914  41.290  19.678  1.00  0.00     0.347 HD
BRANCH  14  17
ATOM     17  C   UNL A   1      42.564  43.121  18.877  1.00  0.00     0.274 C 
ATOM     18  C   UNL A   1      44.194  46.364  17.624  1.00  0.00     0.156 C 
ATOM     19  N   UNL A   1      43.197  45.382  18.013  1.00  0.00    -0.281 N 
ATOM     20  C   UNL A   1      41.866  45.767  17.874  1.00  0.00     0.229 C 
ATOM     21  C   UNL A   1      43.637  44.179  18.558  1.00  0.00     0.287 C 
ATOM     22  O   UNL A   1      41.517  46.925  17.649  1.00  0.00    -0.274 OA
ATOM     23  C   UNL A   1      40.845  44.660  17.946  1.00  0.00     0.107 C 
ATOM     24  O   UNL A   1      44.830  43.925  18.755  1.00  0.00    -0.267 OA
ATOM     25  C   UNL A   1      41.169  43.704  19.068  1.00  0.00     0.085 C 
ENDBRANCH  14  17
ENDBRANCH  13  14
ENDBRANCH   8  13
ENDBRANCH   5   7
ENDBRANCH   4   5
ENDBRANCH   3   4
ENDBRANCH   2   3
ENDBRANCH   1   2
BRANCH   1  26
ATOM     26  C   UNL A   1      47.417  39.732  28.709  1.00  0.00     0.202 C 
BRANCH  26  27
ATOM     27  C   UNL A   1      46.480  38.519  28.634  1.00  0.00     0.261 C 
BRANCH  27  28
ATOM     28  O   UNL A   1      46.861  37.473  29.546  1.00  0.00    -0.460 OA
BRANCH  28  29
ATOM     29  C   UNL A   1      45.830  36.936  30.248  1.00  0.00     0.338 C 
ATOM     30  O   UNL A   1      45.086  37.520  31.017  1.00  0.00    -0.246 OA
BRANCH  29  31
ATOM     31  C   UNL A   1      45.583  35.556  29.791  1.00  0.00     0.060 A 
ATOM     32  C   UNL A   1      44.914  35.388  28.571  1.00  0.00     0.016 A 
ATOM     33  C   UNL A   1      45.936  34.449  30.565  1.00  0.00     0.016 A 
ATOM     34  C   UNL A   1      44.553  34.114  28.142  1.00  0.00     0.010 A 
ATOM     35  C   UNL A   1      45.563  33.170  30.136  1.00  0.00     0.010 A 
ATOM     36  C   UNL A   1      44.840  33.000  28.941  1.00  0.00    -0.014 A 
BRANCH  36  37
ATOM     37  C   UNL A   1      44.247  31.683  28.598  1.00  0.00     0.031 A 
ATOM     38  C   UNL A   1      42.899  31.324  29.162  1.00  0.00     0.074 A 
ATOM     39  C   UNL A   1      44.881  30.838  27.766  1.00  0.00     0.049 A 
ATOM     40  N   UNL A   1      42.210  30.221  29.033  1.00  0.00    -0.248 NA
ATOM     41  C   UNL A   1      42.244  32.350  29.990  1.00  0.00     0.031 C 
ATOM     42  C   UNL A   1      46.166  31.101  27.119  1.00  0.00     0.029 A 
ATOM     43  N   UNL A   1      44.532  29.587  27.326  1.00  0.00    -0.354 N 
ATOM     44  C   UNL A   1      41.043  30.413  29.767  1.00  0.00     0.074 A 
ATOM     45  C   UNL A   1      41.141  31.725  30.372  1.00  0.00     0.031 C 
ATOM     46  C   UNL A   1      46.500  30.038  26.367  1.00  0.00     0.029 A 
ATOM     47  C   UNL A   1      45.477  29.003  26.513  1.00  0.00     0.049 A 
ATOM     48  H   UNL A   1      43.685  29.147  27.568  1.00  0.00     0.167 HD
ATOM     49  C   UNL A   1      39.985  29.577  29.912  1.00  0.00     0.034 A 
ATOM     50  C   UNL A   1      45.523  27.769  25.975  1.00  0.00     0.034 A 
ATOM     51  C   UNL A   1      39.911  28.269  29.306  1.00  0.00     0.049 A 
ATOM     52  C   UNL A   1      44.376  26.819  26.226  1.00  0.00     0.074 A 
ATOM     53  C   UNL A   1      38.882  27.346  29.375  1.00  0.00     0.029 A 
ATOM     54  N   UNL A   1      40.909  27.691  28.532  1.00  0.00    -0.354 N 
ATOM     55  N   UNL A   1      43.275  27.013  26.917  1.00  0.00    -0.248 NA
ATOM     56  C   UNL A   1      44.472  25.486  25.617  1.00  0.00     0.031 C 
ATOM     57  C   UNL A   1      39.291  26.182  28.714  1.00  0.00     0.029 A 
ATOM     58  C   UNL A   1      40.537  26.411  28.151  1.00  0.00     0.049 A 
ATOM     59  H   UNL A   1      41.758  28.128  28.289  1.00  0.00     0.167 HD
ATOM     60  C   UNL A   1      42.534  25.840  26.793  1.00  0.00     0.074 A 
ATOM     61  C   UNL A   1      43.308  24.950  25.952  1.00  0.00     0.031 C 
ATOM     62  C   UNL A   1      41.321  25.528  27.319  1.00  0.00     0.034 A 
BRANCH  49  63
ATOM     63  C   UNL A   1      38.855  30.034  30.803  1.00  0.00     0.023 A 
ATOM     64  C   UNL A   1      37.760  30.760  30.304  1.00  0.00     0.031 A 
ATOM     65  C   UNL A   1      38.885  29.758  32.182  1.00  0.00     0.131 A 
ATOM     66  C   UNL A   1      36.781  31.247  31.184  1.00  0.00     0.055 A 
ATOM     67  C   UNL A   1      37.865  30.172  33.040  1.00  0.00     0.041 A 
ATOM     68  F   UNL A   1      39.917  29.091  32.724  1.00  0.00    -0.206 F 
ATOM     69  C   UNL A   1      36.811  30.934  32.546  1.00  0.00     0.022 A 
BRANCH  66  70
ATOM     70  S   UNL A   1      35.550  32.418  30.550  1.00  0.00     0.124 S 
ATOM     71  O   UNL A   1      34.547  32.394  31.613  1.00  0.00    -0.237 OA
ATOM     72  O   UNL A   1      36.319  33.649  30.425  1.00  0.00    -0.237 OA
ATOM     73  O   UNL A   1      35.123  31.816  29.288  1.00  0.00    -0.744 OA
ENDBRANCH  66  70
ENDBRANCH  49  63
BRANCH  50  74
ATOM     74  C   UNL A   1      46.707  27.336  25.177  1.00  0.00     0.023 A 
ATOM     75  C   UNL A   1      46.942  27.840  23.888  1.00  0.00     0.031 A 
ATOM     76  C   UNL A   1      47.593  26.361  25.673  1.00  0.00     0.131 A 
ATOM     77  C   UNL A   1      48.003  27.334  23.122  1.00  0.00     0.055 A 
ATOM     78  C   UNL A   1      48.682  25.904  24.931  1.00  0.00     0.041 A 
ATOM     79  F   UNL A   1      47.414  25.840  26.899  1.00  0.00    -0.206 F 
ATOM     80  C   UNL A   1      48.884  26.381  23.640  1.00  0.00     0.022 A 
BRANCH  77  81
ATOM     81  S   UNL A   1      48.159  27.868  21.395  1.00  0.00     0.124 S 
ATOM     82  O   UNL A   1      46.801  28.308  21.098  1.00  0.00    -0.237 OA
ATOM     83  O   UNL A   1      49.167  28.917  21.494  1.00  0.00    -0.237 OA
ATOM     84  O   UNL A   1      48.589  26.656  20.701  1.00  0.00    -0.744 OA
ENDBRANCH  77  81
ENDBRANCH  50  74
BRANCH  62  85
ATOM     85  C   UNL A   1      40.734  24.184  26.952  1.00  0.00     0.023 A 
ATOM     86  C   UNL A   1      41.498  23.005  26.975  1.00  0.00     0.031 A 
ATOM     87  C   UNL A   1      39.383  24.087  26.569  1.00  0.00     0.131 A 
ATOM     88  C   UNL A   1      40.925  21.791  26.564  1.00  0.00     0.055 A 
ATOM     89  C   UNL A   1      38.801  22.867  26.227  1.00  0.00     0.041 A 
ATOM     90  F   UNL A   1      38.605  25.180  26.525  1.00  0.00    -0.206 F 
ATOM     91  C   UNL A   1      39.576  21.712  26.209  1.00  0.00     0.022 A 
BRANCH  88  92
ATOM     92  S   UNL A   1      41.993  20.334  26.401  1.00  0.00     0.124 S 
ATOM     93  O   UNL A   1      41.069  19.340  25.864  1.00  0.00    -0.237 OA
ATOM     94  O   UNL A   1      43.026  20.804  25.485  1.00  0.00    -0.237 OA
ATOM     95  O   UNL A   1      42.444  20.084  27.768  1.00  0.00    -0.744 OA
ENDBRANCH  88  92
ENDBRANCH  62  85
ENDBRANCH  36  37
ENDBRANCH  29  31
ENDBRANCH  28  29
ENDBRANCH  27  28
ENDBRANCH  26  27
ENDBRANCH   1  26
TORSDOF 20
ENDMDL
MODEL 2
REMARK VINA RESULT:     -11.0      9.179     19.625
REMARK SMILES CN1C(=O)CC[C@H]([NH2+]Cc2ccc(C(=O)OCCOCCOC(=O)c3ccc(-c4c5nc(c(-c6cc(S(=O)(=O)[O-])ccc6F)c6ccc([nH]6)c(-c6cc(S(=O)(=O)[O-])ccc6F)c6nc(c(-c7cc(S(=O)(=O)[O-])ccc7F)c7ccc4[nH]7)C=C6)C=C5)cc3)cn2)C1=O
REMARK SMILES IDX 19 1 18 2 17 3 16 4 14 5 15 6 13 7 10 8 11 9 89 10 12 11
REMARK SMILES IDX 88 12 9 13 8 14 7 17 1 18 2 19 3 20 90 21 4 22 5 23 91 24
REMARK SMILES IDX 6 25 20 26 21 27 22 28 23 29 24 30 25 31 26 32 87 33 27 34
REMARK SMILES IDX 86 35 28 36 29 37 30 38 80 39 31 40 85 41 79 42 81 43 32 44
REMARK SMILES IDX 84 45 78 46 77 47 33 49 65 50 45 51 64 52 46 53 49 54 63 55
REMARK SMILES IDX 82 56 47 57 48 58 62 60 83 61 50 62 34 63 35 64 43 65 36 66
REMARK SMILES IDX 42 67 44 68 41 69 37 70 38 71 39 72 40 73 66 74 67 75 75 76
REMARK SMILES IDX 68 77 74 78 76 79 73 80 69 81 70 82 71 83 72 84 51 85 52 86
REMARK SMILES IDX 60 87 53 88 59 89 61 90 58 91 54 92 55 93 56 94 57 95
REMARK H PARENT 8 15 8 16 81 48 49 59
REMARK Flexibility Score: inf
ROOT
ATOM      1  O   UNL A   1      49.672  22.377  37.500  1.00  0.00    -0.374 OA
ENDROOT
BRANCH   1   2
ATOM      2  C   UNL A   1      49.312  21.116  38.066  1.00  0.00     0.202 C 
BRANCH   2   3
ATOM      3  C   UNL A   1      48.454  21.144  39.334  1.00  0.00     0.261 C 
BRANCH   3   4
ATOM      4  O   UNL A   1      47.317  20.275  39.215  1.00  0.00    -0.460 OA
BRANCH   4   5
ATOM      5  C   UNL A   1      47.578  18.974  39.472  1.00  0.00     0.339 C 
ATOM      6  O   UNL A   1      48.638  18.494  39.845  1.00  0.00    -0.246 OA
BRANCH   5   7
ATOM      7  C   UNL A   1      46.336  18.188  39.426  1.00  0.00     0.078 A 
ATOM      8  C   UNL A   1      44.068  16.650  39.621  1.00  0.00     0.094 A 
ATOM      9  C   UNL A   1      44.430  17.167  38.377  1.00  0.00     0.031 A 
ATOM     10  N   UNL A   1      44.756  16.941  40.756  1.00  0.00    -0.254 NA
ATOM     11  C   UNL A   1      45.583  17.950  38.277  1.00  0.00     0.019 A 
ATOM     12  C   UNL A   1      45.874  17.689  40.632  1.00  0.00     0.127 A 
BRANCH   8  13
ATOM     13  C   UNL A   1      42.873  15.737  39.806  1.00  0.00     0.318 C 
BRANCH  13  14
ATOM     14  N   UNL A   1      42.131  15.967  41.057  1.00  0.00    -0.331 N 
ATOM     15  H   UNL A   1      42.738  16.472  41.703  1.00  0.00     0.347 HD
ATOM     16  H   UNL A   1      41.294  16.498  40.814  1.00  0.00     0.347 HD
BRANCH  14  17
ATOM     17  C   UNL A   1      41.676  14.722  41.719  1.00  0.00     0.274 C 
ATOM     18  C   UNL A   1      43.673  12.430  44.066  1.00  0.00     0.156 C 
ATOM     19  N   UNL A   1      42.770  12.889  43.025  1.00  0.00    -0.281 N 
ATOM     20  C   UNL A   1      42.093  11.900  42.316  1.00  0.00     0.229 C 
ATOM     21  C   UNL A   1      42.707  14.255  42.764  1.00  0.00     0.287 C 
ATOM     22  O   UNL A   1      42.375  10.704  42.386  1.00  0.00    -0.274 OA
ATOM     23  C   UNL A   1      40.923  12.363  41.485  1.00  0.00     0.107 C 
ATOM     24  O   UNL A   1      43.405  15.086  43.354  1.00  0.00    -0.267 OA
ATOM     25  C   UNL A   1      41.262  13.630  40.740  1.00  0.00     0.085 C 
ENDBRANCH  14  17
ENDBRANCH  13  14
ENDBRANCH   8  13
ENDBRANCH   5   7
ENDBRANCH   4   5
ENDBRANCH   3   4
ENDBRANCH   2   3
ENDBRANCH   1   2
BRANCH   1  26
ATOM     26  C   UNL A   1      48.860  23.505  37.829  1.00  0.00     0.202 C 
BRANCH  26  27
ATOM     27  C   UNL A   1      49.275  24.875  37.274  1.00  0.00     0.261 C 
BRANCH  27  28
ATOM     28  O   UNL A   1      48.331  25.390  36.319  1.00  0.00    -0.460 OA
BRANCH  28  29
ATOM     29  C   UNL A   1      47.532  26.379  36.795  1.00  0.00     0.338 C 
ATOM     30  O   UNL A   1      47.716  27.051  37.797  1.00  0.00    -0.246 OA
BRANCH  29  31
ATOM     31  C   UNL A   1      46.484  26.692  35.806  1.00  0.00     0.060 A 
ATOM     32  C   UNL A   1      46.618  27.881  35.077  1.00  0.00     0.016 A 
ATOM     33  C   UNL A   1      45.363  25.879  35.638  1.00  0.00     0.016 A 
ATOM     34  C   UNL A   1      45.607  28.286  34.210  1.00  0.00     0.010 A 
ATOM     35  C   UNL A   1      44.343  26.293  34.773  1.00  0.00     0.010 A 
ATOM     36  C   UNL A   1      44.445  27.515  34.083  1.00  0.00    -0.014 A 
BRANCH  36  37
ATOM     37  C   UNL A   1      43.279  28.067  33.349  1.00  0.00     0.031 A 
ATOM     38  C   UNL A   1      43.069  27.668  31.913  1.00  0.00     0.074 A 
ATOM     39  C   UNL A   1      42.400  28.879  33.963  1.00  0.00     0.049 A 
ATOM     40  N   UNL A   1      42.150  28.055  31.068  1.00  0.00    -0.248 NA
ATOM     41  C   UNL A   1      44.033  26.706  31.356  1.00  0.00     0.031 C 
ATOM     42  C   UNL A   1      42.473  29.292  35.364  1.00  0.00     0.029 A 
ATOM     43  N   UNL A   1      41.276  29.505  33.486  1.00  0.00    -0.354 N 
ATOM     44  C   UNL A   1      42.425  27.391  29.876  1.00  0.00     0.074 A 
ATOM     45  C   UNL A   1      43.623  26.610  30.100  1.00  0.00     0.031 C 
ATOM     46  C   UNL A   1      41.440  30.108  35.631  1.00  0.00     0.029 A 
ATOM     47  C   UNL A   1      40.657  30.311  34.413  1.00  0.00     0.049 A 
ATOM     48  H   UNL A   1      40.944  29.388  32.567  1.00  0.00     0.167 HD
ATOM     49  C   UNL A   1      41.735  27.423  28.709  1.00  0.00     0.034 A 
ATOM     50  C   UNL A   1      39.600  31.137  34.285  1.00  0.00     0.034 A 
ATOM     51  C   UNL A   1      40.545  28.215  28.504  1.00  0.00     0.049 A 
ATOM     52  C   UNL A   1      38.902  31.228  32.948  1.00  0.00     0.074 A 
ATOM     53  C   UNL A   1      39.760  28.310  27.369  1.00  0.00     0.029 A 
ATOM     54  N   UNL A   1      39.977  29.059  29.450  1.00  0.00    -0.354 N 
ATOM     55  N   UNL A   1      39.167  30.591  31.830  1.00  0.00    -0.248 NA
ATOM     56  C   UNL A   1      37.755  32.141  32.859  1.00  0.00     0.031 C 
ATOM     57  C   UNL A   1      38.769  29.271  27.600  1.00  0.00     0.029 A 
ATOM     58  C   UNL A   1      38.876  29.707  28.912  1.00  0.00     0.049 A 
ATOM     59  H   UNL A   1      40.308  29.179  30.370  1.00  0.00     0.167 HD
ATOM     60  C   UNL A   1      38.197  31.001  30.918  1.00  0.00     0.074 A 
ATOM     61  C   UNL A   1      37.335  31.929  31.620  1.00  0.00     0.031 C 
ATOM     62  C   UNL A   1      38.029  30.639  29.619  1.00  0.00     0.034 A 
BRANCH  49  63
ATOM     63  C   UNL A   1      42.285  26.620  27.554  1.00  0.00     0.023 A 
ATOM     64  C   UNL A   1      42.179  25.220  27.504  1.00  0.00     0.031 A 
ATOM     65  C   UNL A   1      42.948  27.267  26.496  1.00  0.00     0.131 A 
ATOM     66  C   UNL A   1      42.789  24.508  26.459  1.00  0.00     0.055 A 
ATOM     67  C   UNL A   1      43.479  26.560  25.415  1.00  0.00     0.041 A 
ATOM     68  F   UNL A   1      43.103  28.601  26.499  1.00  0.00    -0.206 F 
ATOM     69  C   UNL A   1      43.415  25.170  25.399  1.00  0.00     0.022 A 
BRANCH  66  70
ATOM     70  S   UNL A   1      42.884  22.701  26.580  1.00  0.00     0.124 S 
ATOM     71  O   UNL A   1      44.328  22.481  26.582  1.00  0.00    -0.237 OA
ATOM     72  O   UNL A   1      42.194  22.431  27.836  1.00  0.00    -0.237 OA
ATOM     73  O   UNL A   1      42.194  22.240  25.377  1.00  0.00    -0.744 OA
ENDBRANCH  66  70
ENDBRANCH  49  63
BRANCH  50  74
ATOM     74  C   UNL A   1      39.154  31.978  35.433  1.00  0.00     0.023 A 
ATOM     75  C   UNL A   1      39.599  33.301  35.585  1.00  0.00     0.031 A 
ATOM     76  C   UNL A   1      38.317  31.448  36.433  1.00  0.00     0.131 A 
ATOM     77  C   UNL A   1      39.248  34.031  36.730  1.00  0.00     0.055 A 
ATOM     78  C   UNL A   1      37.921  32.198  37.541  1.00  0.00     0.041 A 
ATOM     79  F   UNL A   1      37.865  30.186  36.342  1.00  0.00    -0.206 F 
ATOM     80  C   UNL A   1      38.399  33.494  37.702  1.00  0.00     0.022 A 
BRANCH  77  81
ATOM     81  S   UNL A   1      39.997  35.664  36.983  1.00  0.00     0.124 S 
ATOM     82  O   UNL A   1      39.379  36.081  38.236  1.00  0.00    -0.237 OA
ATOM     83  O   UNL A   1      41.417  35.337  37.045  1.00  0.00    -0.237 OA
ATOM     84  O   UNL A   1      39.583  36.415  35.801  1.00  0.00    -0.744 OA
ENDBRANCH  77  81
ENDBRANCH  50  74
BRANCH  62  85
ATOM     85  C   UNL A   1      36.832  31.209  28.893  1.00  0.00     0.023 A 
ATOM     86  C   UNL A   1      35.753  30.405  28.488  1.00  0.00     0.031 A 
ATOM     87  C   UNL A   1      36.776  32.584  28.598  1.00  0.00     0.131 A 
ATOM     88  C   UNL A   1      34.694  30.970  27.760  1.00  0.00     0.055 A 
ATOM     89  C   UNL A   1      35.689  33.152  27.934  1.00  0.00     0.041 A 
ATOM     90  F   UNL A   1      37.779  33.401  28.958  1.00  0.00    -0.206 F 
ATOM     91  C   UNL A   1      34.646  32.342  27.498  1.00  0.00     0.022 A 
BRANCH  88  92
ATOM     92  S   UNL A   1      33.427  29.870  27.069  1.00  0.00     0.124 S 
ATOM     93  O   UNL A   1      32.196  30.481  27.560  1.00  0.00    -0.237 OA
ATOM     94  O   UNL A   1      33.666  29.981  25.634  1.00  0.00    -0.237 OA
ATOM     95  O   UNL A   1      33.747  28.569  27.651  1.00  0.00    -0.744 OA
ENDBRANCH  88  92
ENDBRANCH  62  85
ENDBRANCH  36  37
ENDBRANCH  29  31
ENDBRANCH  28  29
ENDBRANCH  27  28
ENDBRANCH  26  27
ENDBRANCH   1  26
TORSDOF 20
ENDMDL
MODEL 3
REMARK VINA RESULT:     -11.0      6.866     15.535
REMARK SMILES CN1C(=O)CC[C@H]([NH2+]Cc2ccc(C(=O)OCCOCCOC(=O)c3ccc(-c4c5nc(c(-c6cc(S(=O)(=O)[O-])ccc6F)c6ccc([nH]6)c(-c6cc(S(=O)(=O)[O-])ccc6F)c6nc(c(-c7cc(S(=O)(=O)[O-])ccc7F)c7ccc4[nH]7)C=C6)C=C5)cc3)cn2)C1=O
REMARK SMILES IDX 19 1 18 2 17 3 16 4 14 5 15 6 13 7 10 8 11 9 89 10 12 11
REMARK SMILES IDX 88 12 9 13 8 14 7 17 1 18 2 19 3 20 90 21 4 22 5 23 91 24
REMARK SMILES IDX 6 25 20 26 21 27 22 28 23 29 24 30 25 31 26 32 87 33 27 34
REMARK SMILES IDX 86 35 28 36 29 37 30 38 80 39 31 40 85 41 79 42 81 43 32 44
REMARK SMILES IDX 84 45 78 46 77 47 33 49 65 50 45 51 64 52 46 53 49 54 63 55
REMARK SMILES IDX 82 56 47 57 48 58 62 60 83 61 50 62 34 63 35 64 43 65 36 66
REMARK SMILES IDX 42 67 44 68 41 69 37 70 38 71 39 72 40 73 66 74 67 75 75 76
REMARK SMILES IDX 68 77 74 78 76 79 73 80 69 81 70 82 71 83 72 84 51 85 52 86
REMARK SMILES IDX 60 87 53 88 59 89 61 90 58 91 54 92 55 93 56 94 57 95
REMARK H PARENT 8 15 8 16 81 48 49 59
REMARK Flexibility Score: inf
ROOT
ATOM      1  O   UNL A   1      41.104  22.465  27.668  1.00  0.00    -0.374 OA
ENDROOT
BRANCH   1   2
ATOM      2  C   UNL A   1      40.223  22.756  26.583  1.00  0.00     0.202 C 
BRANCH   2   3
ATOM      3  C   UNL A   1      39.283  21.635  26.132  1.00  0.00     0.261 C 
BRANCH   3   4
ATOM      4  O   UNL A   1      38.153  22.157  25.416  1.00  0.00    -0.460 OA
BRANCH   4   5
ATOM      5  C   UNL A   1      37.352  21.213  24.871  1.00  0.00     0.339 C 
ATOM      6  O   UNL A   1      37.522  20.003  24.886  1.00  0.00    -0.246 OA
BRANCH   5   7
ATOM      7  C   UNL A   1      36.103  21.823  24.390  1.00  0.00     0.078 A 
ATOM      8  C   UNL A   1      33.629  22.742  23.629  1.00  0.00     0.094 A 
ATOM      9  C   UNL A   1      34.769  23.365  23.119  1.00  0.00     0.031 A 
ATOM     10  N   UNL A   1      33.698  21.744  24.548  1.00  0.00    -0.254 NA
ATOM     11  C   UNL A   1      36.027  22.898  23.506  1.00  0.00     0.019 A 
ATOM     12  C   UNL A   1      34.925  21.302  24.897  1.00  0.00     0.127 A 
BRANCH   8  13
ATOM     13  C   UNL A   1      32.229  23.140  23.210  1.00  0.00     0.318 C 
BRANCH  13  14
ATOM     14  N   UNL A   1      32.186  24.046  22.050  1.00  0.00    -0.331 N 
ATOM     15  H   UNL A   1      33.135  24.158  21.693  1.00  0.00     0.347 HD
ATOM     16  H   UNL A   1      31.559  23.624  21.364  1.00  0.00     0.347 HD
BRANCH  14  17
ATOM     17  C   UNL A   1      31.642  25.389  22.361  1.00  0.00     0.274 C 
ATOM     18  C   UNL A   1      33.582  28.668  22.843  1.00  0.00     0.156 C 
ATOM     19  N   UNL A   1      32.611  27.602  23.014  1.00  0.00    -0.281 N 
ATOM     20  C   UNL A   1      31.668  27.784  24.023  1.00  0.00     0.229 C 
ATOM     21  C   UNL A   1      32.738  26.464  22.224  1.00  0.00     0.287 C 
ATOM     22  O   UNL A   1      31.750  28.667  24.875  1.00  0.00    -0.274 OA
ATOM     23  C   UNL A   1      30.472  26.866  23.985  1.00  0.00     0.107 C 
ATOM     24  O   UNL A   1      33.655  26.307  21.411  1.00  0.00    -0.267 OA
ATOM     25  C   UNL A   1      30.892  25.448  23.686  1.00  0.00     0.085 C 
ENDBRANCH  14  17
ENDBRANCH  13  14
ENDBRANCH   8  13
ENDBRANCH   5   7
ENDBRANCH   4   5
ENDBRANCH   3   4
ENDBRANCH   2   3
ENDBRANCH   1   2
BRANCH   1  26
ATOM     26  C   UNL A   1      41.856  21.252  27.602  1.00  0.00     0.202 C 
BRANCH  26  27
ATOM     27  C   UNL A   1      42.691  20.991  26.341  1.00  0.00     0.261 C 
BRANCH  27  28
ATOM     28  O   UNL A   1      43.813  21.885  26.230  1.00  0.00    -0.460 OA
BRANCH  28  29
ATOM     29  C   UNL A   1      43.713  22.791  25.224  1.00  0.00     0.338 C 
ATOM     30  O   UNL A   1      43.313  22.585  24.090  1.00  0.00    -0.246 OA
BRANCH  29  31
ATOM     31  C   UNL A   1      43.960  24.147  25.749  1.00  0.00     0.060 A 
ATOM     32  C   UNL A   1      44.299  24.265  27.103  1.00  0.00     0.016 A 
ATOM     33  C   UNL A   1      43.801  25.284  24.955  1.00  0.00     0.016 A 
ATOM     34  C   UNL A   1      44.434  25.524  27.682  1.00  0.00     0.010 A 
ATOM     35  C   UNL A   1      43.928  26.548  25.542  1.00  0.00     0.010 A 
ATOM     36  C   UNL A   1      44.210  26.674  26.915  1.00  0.00    -0.014 A 
BRANCH  36  37
ATOM     37  C   UNL A   1      44.120  27.994  27.587  1.00  0.00     0.031 A 
ATOM     38  C   UNL A   1      45.367  28.823  27.731  1.00  0.00     0.074 A 
ATOM     39  C   UNL A   1      42.938  28.463  28.027  1.00  0.00     0.049 A 
ATOM     40  N   UNL A   1      45.535  29.980  28.315  1.00  0.00    -0.248 NA
ATOM     41  C   UNL A   1      46.593  28.264  27.139  1.00  0.00     0.031 C 
ATOM     42  C   UNL A   1      41.656  27.772  27.896  1.00  0.00     0.029 A 
ATOM     43  N   UNL A   1      42.626  29.631  28.675  1.00  0.00    -0.354 N 
ATOM     44  C   UNL A   1      46.884  30.288  28.169  1.00  0.00     0.074 A 
ATOM     45  C   UNL A   1      47.495  29.172  27.478  1.00  0.00     0.031 C 
ATOM     46  C   UNL A   1      40.696  28.528  28.452  1.00  0.00     0.029 A 
ATOM     47  C   UNL A   1      41.298  29.734  29.018  1.00  0.00     0.049 A 
ATOM     48  H   UNL A   1      43.290  30.330  28.877  1.00  0.00     0.167 HD
ATOM     49  C   UNL A   1      47.547  31.403  28.566  1.00  0.00     0.034 A 
ATOM     50  C   UNL A   1      40.650  30.678  29.729  1.00  0.00     0.034 A 
ATOM     51  C   UNL A   1      46.919  32.501  29.261  1.00  0.00     0.049 A 
ATOM     52  C   UNL A   1      41.428  31.868  30.243  1.00  0.00     0.074 A 
ATOM     53  C   UNL A   1      47.492  33.684  29.697  1.00  0.00     0.029 A 
ATOM     54  N   UNL A   1      45.583  32.548  29.637  1.00  0.00    -0.354 N 
ATOM     55  N   UNL A   1      42.702  32.151  30.094  1.00  0.00    -0.248 NA
ATOM     56  C   UNL A   1      40.677  32.869  31.011  1.00  0.00     0.031 C 
ATOM     57  C   UNL A   1      46.525  34.405  30.405  1.00  0.00     0.029 A 
ATOM     58  C   UNL A   1      45.322  33.719  30.332  1.00  0.00     0.049 A 
ATOM     59  H   UNL A   1      44.917  31.850  29.438  1.00  0.00     0.167 HD
ATOM     60  C   UNL A   1      42.895  33.381  30.719  1.00  0.00     0.074 A 
ATOM     61  C   UNL A   1      41.604  33.789  31.235  1.00  0.00     0.031 C 
ATOM     62  C   UNL A   1      44.032  34.112  30.850  1.00  0.00     0.034 A 
BRANCH  49  63
ATOM     63  C   UNL A   1      49.033  31.458  28.305  1.00  0.00     0.023 A 
ATOM     64  C   UNL A   1      49.569  32.132  27.194  1.00  0.00     0.031 A 
ATOM     65  C   UNL A   1      49.928  30.804  29.170  1.00  0.00     0.131 A 
ATOM     66  C   UNL A   1      50.948  32.076  26.938  1.00  0.00     0.055 A 
ATOM     67  C   UNL A   1      51.308  30.823  28.956  1.00  0.00     0.041 A 
ATOM     68  F   UNL A   1      49.476  30.121  30.234  1.00  0.00    -0.206 F 
ATOM     69  C   UNL A   1      51.825  31.449  27.827  1.00  0.00     0.022 A 
BRANCH  66  70
ATOM     70  S   UNL A   1      51.562  32.705  25.352  1.00  0.00     0.124 S 
ATOM     71  O   UNL A   1      51.792  31.465  24.613  1.00  0.00    -0.237 OA
ATOM     72  O   UNL A   1      50.453  33.529  24.887  1.00  0.00    -0.237 OA
ATOM     73  O   UNL A   1      52.773  33.436  25.718  1.00  0.00    -0.744 OA
ENDBRANCH  66  70
ENDBRANCH  49  63
BRANCH  50  74
ATOM     74  C   UNL A   1      39.198  30.529  30.038  1.00  0.00     0.023 A 
ATOM     75  C   UNL A   1      38.225  31.253  29.331  1.00  0.00     0.031 A 
ATOM     76  C   UNL A   1      38.766  29.701  31.090  1.00  0.00     0.131 A 
ATOM     77  C   UNL A   1      36.878  31.173  29.715  1.00  0.00     0.055 A 
ATOM     78  C   UNL A   1      37.418  29.578  31.430  1.00  0.00     0.041 A 
ATOM     79  F   UNL A   1      39.654  28.989  31.804  1.00  0.00    -0.206 F 
ATOM     80  C   UNL A   1      36.466  30.329  30.750  1.00  0.00     0.022 A 
BRANCH  77  81
ATOM     81  S   UNL A   1      35.677  32.267  28.906  1.00  0.00     0.124 S 
ATOM     82  O   UNL A   1      35.382  31.528  27.684  1.00  0.00    -0.237 OA
ATOM     83  O   UNL A   1      34.607  32.325  29.896  1.00  0.00    -0.237 OA
ATOM     84  O   UNL A   1      36.421  33.510  28.720  1.00  0.00    -0.744 OA
ENDBRANCH  77  81
ENDBRANCH  50  74
BRANCH  62  85
ATOM     85  C   UNL A   1      43.916  35.455  31.534  1.00  0.00     0.023 A 
ATOM     86  C   UNL A   1      43.842  35.577  32.932  1.00  0.00     0.031 A 
ATOM     87  C   UNL A   1      43.875  36.635  30.766  1.00  0.00     0.131 A 
ATOM     88  C   UNL A   1      43.670  36.842  33.516  1.00  0.00     0.055 A 
ATOM     89  C   UNL A   1      43.773  37.894  31.356  1.00  0.00     0.041 A 
ATOM     90  F   UNL A   1      43.939  36.580  29.426  1.00  0.00    -0.206 F 
ATOM     91  C   UNL A   1      43.655  38.002  32.738  1.00  0.00     0.022 A 
BRANCH  88  92
ATOM     92  S   UNL A   1      43.364  36.943  35.301  1.00  0.00     0.124 S 
ATOM     93  O   UNL A   1      43.990  38.216  35.644  1.00  0.00    -0.237 OA
ATOM     94  O   UNL A   1      41.907  36.908  35.371  1.00  0.00    -0.237 OA
ATOM     95  O   UNL A   1      44.038  35.760  35.833  1.00  0.00    -0.744 OA
ENDBRANCH  88  92
ENDBRANCH  62  85
ENDBRANCH  36  37
ENDBRANCH  29  31
ENDBRANCH  28  29
ENDBRANCH  27  28
ENDBRANCH  26  27
ENDBRANCH   1  26
TORSDOF 20
ENDMDL
