MODEL 1
REMARK VINA RESULT:      -9.8      0.000      0.000
REMARK SMILES C[C@@H](CSc1nc(C(F)(F)F)ccc1C#N)C(=O)OCCOCCOC(=O)c1ccc(-c2c3nc(c(-c4cc(S(=O)(=O)[O-])ccc4F)c4ccc([nH]4)c(-c4cc(S(=O)(=O)[O-])ccc4F)c4nc(c(-c5cc(S(=O)(=O)[O-])ccc5F)c5ccc2[nH]5)C=C4)C=C3)cc1
REMARK SMILES IDX 21 1 20 2 19 3 17 4 18 5 2 6 1 7 3 8 4 9 5 10 6 11 14 12
REMARK SMILES IDX 7 13 13 14 12 15 15 16 16 17 8 18 9 19 10 20 11 21 22 22
REMARK SMILES IDX 23 23 24 24 25 25 26 26 27 27 28 28 29 29 90 30 30 31 89 32
REMARK SMILES IDX 31 33 32 34 33 35 83 36 34 37 88 38 82 39 84 40 35 41 87 42
REMARK SMILES IDX 81 43 80 44 36 46 68 47 48 48 67 49 49 50 52 51 66 52 85 53
REMARK SMILES IDX 50 54 51 55 65 57 86 58 53 59 37 60 38 61 46 62 39 63 45 64
REMARK SMILES IDX 47 65 44 66 40 67 41 68 42 69 43 70 69 71 70 72 78 73 71 74
REMARK SMILES IDX 77 75 79 76 76 77 72 78 73 79 74 80 75 81 54 82 55 83 63 84
REMARK SMILES IDX 56 85 62 86 64 87 61 88 57 89 58 90 59 91 60 92
REMARK H PARENT 84 45 52 56
REMARK Flexibility Score: inf
ROOT
ATOM      1  C   UNL A   1      43.695  18.638  25.593  1.00  0.00     0.202 C 
ENDROOT
BRANCH   1   2
ATOM      2  C   UNL A   1      44.749  19.228  24.656  1.00  0.00     0.261 C 
BRANCH   2   3
ATOM      3  O   UNL A   1      44.464  20.594  24.319  1.00  0.00    -0.463 OA
BRANCH   3   4
ATOM      4  C   UNL A   1      45.307  21.523  24.834  1.00  0.00     0.309 C 
ATOM      5  O   UNL A   1      46.240  21.295  25.593  1.00  0.00    -0.252 OA
BRANCH   4   6
ATOM      6  C   UNL A   1      44.966  22.928  24.371  1.00  0.00     0.106 C 
ATOM      7  C   UNL A   1      43.846  23.616  25.147  1.00  0.00     0.021 C 
BRANCH   6   8
ATOM      8  C   UNL A   1      46.248  23.747  24.219  1.00  0.00     0.091 C 
BRANCH   8   9
ATOM      9  S   UNL A   1      46.568  25.057  25.458  1.00  0.00    -0.104 SA
BRANCH   9  10
ATOM     10  C   UNL A   1      47.962  25.910  24.749  1.00  0.00     0.115 A 
ATOM     11  N   UNL A   1      47.685  26.538  23.579  1.00  0.00    -0.236 NA
ATOM     12  C   UNL A   1      49.223  25.969  25.333  1.00  0.00     0.084 A 
ATOM     13  C   UNL A   1      48.664  27.258  22.957  1.00  0.00     0.145 A 
ATOM     14  C   UNL A   1      50.219  26.714  24.694  1.00  0.00     0.024 A 
ATOM     15  C   UNL A   1      49.939  27.367  23.498  1.00  0.00     0.035 A 
BRANCH  12  16
ATOM     16  C   UNL A   1      49.548  25.276  26.542  1.00  0.00     0.102 C 
ATOM     17  N   UNL A   1      49.831  24.662  27.482  1.00  0.00    -0.192 NA
ENDBRANCH  12  16
BRANCH  13  18
ATOM     18  C   UNL A   1      48.364  27.917  21.620  1.00  0.00     0.433 C 
ATOM     19  F   UNL A   1      48.436  27.033  20.584  1.00  0.00    -0.165 F 
ATOM     20  F   UNL A   1      47.138  28.497  21.569  1.00  0.00    -0.165 F 
ATOM     21  F   UNL A   1      49.250  28.908  21.299  1.00  0.00    -0.165 F 
ENDBRANCH  13  18
ENDBRANCH   9  10
ENDBRANCH   8   9
ENDBRANCH   6   8
ENDBRANCH   4   6
ENDBRANCH   3   4
ENDBRANCH   2   3
ENDBRANCH   1   2
BRANCH   1  22
ATOM     22  O   UNL A   1      42.321  18.746  25.225  1.00  0.00    -0.374 OA
BRANCH  22  23
ATOM     23  C   UNL A   1      41.427  19.359  26.148  1.00  0.00     0.202 C 
BRANCH  23  24
ATOM     24  C   UNL A   1      41.269  20.888  26.148  1.00  0.00     0.261 C 
BRANCH  24  25
ATOM     25  O   UNL A   1      40.265  21.388  27.043  1.00  0.00    -0.460 OA
BRANCH  25  26
ATOM     26  C   UNL A   1      39.554  22.433  26.546  1.00  0.00     0.338 C 
ATOM     27  O   UNL A   1      38.465  22.383  26.000  1.00  0.00    -0.246 OA
BRANCH  26  28
ATOM     28  C   UNL A   1      40.199  23.704  26.918  1.00  0.00     0.060 A 
ATOM     29  C   UNL A   1      40.731  23.827  28.205  1.00  0.00     0.016 A 
ATOM     30  C   UNL A   1      40.201  24.792  26.049  1.00  0.00     0.016 A 
ATOM     31  C   UNL A   1      41.221  25.057  28.639  1.00  0.00     0.010 A 
ATOM     32  C   UNL A   1      40.739  26.012  26.472  1.00  0.00     0.010 A 
ATOM     33  C   UNL A   1      41.202  26.171  27.788  1.00  0.00    -0.014 A 
BRANCH  33  34
ATOM     34  C   UNL A   1      41.520  27.521  28.333  1.00  0.00     0.031 A 
ATOM     35  C   UNL A   1      42.955  27.992  28.353  1.00  0.00     0.074 A 
ATOM     36  C   UNL A   1      40.535  28.345  28.742  1.00  0.00     0.049 A 
ATOM     37  N   UNL A   1      43.447  29.139  28.749  1.00  0.00    -0.248 NA
ATOM     38  C   UNL A   1      43.973  27.041  27.879  1.00  0.00     0.031 C 
ATOM     39  C   UNL A   1      39.113  28.001  28.782  1.00  0.00     0.029 A 
ATOM     40  N   UNL A   1      40.576  29.642  29.189  1.00  0.00    -0.354 N 
ATOM     41  C   UNL A   1      44.825  29.044  28.570  1.00  0.00     0.074 A 
ATOM     42  C   UNL A   1      45.096  27.700  28.111  1.00  0.00     0.031 C 
ATOM     43  C   UNL A   1      38.414  29.072  29.195  1.00  0.00     0.029 A 
ATOM     44  C   UNL A   1      39.339  30.160  29.500  1.00  0.00     0.049 A 
ATOM     45  H   UNL A   1      41.411  30.154  29.280  1.00  0.00     0.167 HD
ATOM     46  C   UNL A   1      45.774  29.997  28.735  1.00  0.00     0.034 A 
ATOM     47  C   UNL A   1      38.991  31.368  29.990  1.00  0.00     0.034 A 
ATOM     48  C   UNL A   1      45.492  31.334  29.192  1.00  0.00     0.049 A 
ATOM     49  C   UNL A   1      40.076  32.393  30.226  1.00  0.00     0.074 A 
ATOM     50  C   UNL A   1      46.375  32.383  29.387  1.00  0.00     0.029 A 
ATOM     51  N   UNL A   1      44.232  31.810  29.531  1.00  0.00    -0.354 N 
ATOM     52  N   UNL A   1      41.370  32.293  30.024  1.00  0.00    -0.248 NA
ATOM     53  C   UNL A   1      39.648  33.701  30.738  1.00  0.00     0.031 C 
ATOM     54  C   UNL A   1      45.663  33.461  29.919  1.00  0.00     0.029 A 
ATOM     55  C   UNL A   1      44.320  33.126  29.963  1.00  0.00     0.049 A 
ATOM     56  H   UNL A   1      43.398  31.290  29.474  1.00  0.00     0.167 HD
ATOM     57  C   UNL A   1      41.904  33.535  30.358  1.00  0.00     0.074 A 
ATOM     58  C   UNL A   1      40.787  34.374  30.739  1.00  0.00     0.031 C 
ATOM     59  C   UNL A   1      43.199  33.948  30.353  1.00  0.00     0.034 A 
BRANCH  46  60
ATOM     60  C   UNL A   1      47.206  29.614  28.438  1.00  0.00     0.023 A 
ATOM     61  C   UNL A   1      48.042  29.060  29.423  1.00  0.00     0.031 A 
ATOM     62  C   UNL A   1      47.751  29.821  27.157  1.00  0.00     0.131 A 
ATOM     63  C   UNL A   1      49.390  28.798  29.135  1.00  0.00     0.055 A 
ATOM     64  C   UNL A   1      49.069  29.472  26.852  1.00  0.00     0.041 A 
ATOM     65  F   UNL A   1      47.014  30.372  26.181  1.00  0.00    -0.206 F 
ATOM     66  C   UNL A   1      49.902  28.972  27.848  1.00  0.00     0.022 A 
BRANCH  63  67
ATOM     67  S   UNL A   1      50.501  28.375  30.505  1.00  0.00     0.124 S 
ATOM     68  O   UNL A   1      49.731  27.347  31.202  1.00  0.00    -0.237 OA
ATOM     69  O   UNL A   1      51.699  27.918  29.811  1.00  0.00    -0.237 OA
ATOM     70  O   UNL A   1      50.643  29.635  31.233  1.00  0.00    -0.744 OA
ENDBRANCH  63  67
ENDBRANCH  46  60
BRANCH  47  71
ATOM     71  C   UNL A   1      37.568  31.672  30.329  1.00  0.00     0.023 A 
ATOM     72  C   UNL A   1      36.649  32.087  29.350  1.00  0.00     0.031 A 
ATOM     73  C   UNL A   1      37.124  31.622  31.663  1.00  0.00     0.131 A 
ATOM     74  C   UNL A   1      35.360  32.495  29.727  1.00  0.00     0.055 A 
ATOM     75  C   UNL A   1      35.817  31.955  32.022  1.00  0.00     0.041 A 
ATOM     76  F   UNL A   1      37.958  31.242  32.644  1.00  0.00    -0.206 F 
ATOM     77  C   UNL A   1      34.931  32.412  31.053  1.00  0.00     0.022 A 
BRANCH  74  78
ATOM     78  S   UNL A   1      34.289  33.260  28.478  1.00  0.00     0.124 S 
ATOM     79  O   UNL A   1      33.635  32.096  27.894  1.00  0.00    -0.237 OA
ATOM     80  O   UNL A   1      33.446  34.130  29.292  1.00  0.00    -0.237 OA
ATOM     81  O   UNL A   1      35.231  33.953  27.601  1.00  0.00    -0.744 OA
ENDBRANCH  74  78
ENDBRANCH  47  71
BRANCH  59  82
ATOM     82  C   UNL A   1      43.462  35.388  30.730  1.00  0.00     0.023 A 
ATOM     83  C   UNL A   1      43.500  35.806  32.073  1.00  0.00     0.031 A 
ATOM     84  C   UNL A   1      43.635  36.365  29.733  1.00  0.00     0.131 A 
ATOM     85  C   UNL A   1      43.606  37.170  32.378  1.00  0.00     0.055 A 
ATOM     86  C   UNL A   1      43.833  37.710  30.046  1.00  0.00     0.041 A 
ATOM     87  F   UNL A   1      43.607  36.029  28.434  1.00  0.00    -0.206 F 
ATOM     88  C   UNL A   1      43.796  38.123  31.375  1.00  0.00     0.022 A 
BRANCH  85  89
ATOM     89  S   UNL A   1      43.331  37.696  34.091  1.00  0.00     0.124 S 
ATOM     90  O   UNL A   1      44.641  37.465  34.692  1.00  0.00    -0.237 OA
ATOM     91  O   UNL A   1      42.940  39.093  33.930  1.00  0.00    -0.237 OA
ATOM     92  O   UNL A   1      42.269  36.804  34.557  1.00  0.00    -0.744 OA
ENDBRANCH  85  89
ENDBRANCH  59  82
ENDBRANCH  33  34
ENDBRANCH  26  28
ENDBRANCH  25  26
ENDBRANCH  24  25
ENDBRANCH  23  24
ENDBRANCH  22  23
ENDBRANCH   1  22
TORSDOF 22
ENDMDL
MODEL 2
REMARK VINA RESULT:      -8.9      0.686      7.760
REMARK SMILES C[C@@H](CSc1nc(C(F)(F)F)ccc1C#N)C(=O)OCCOCCOC(=O)c1ccc(-c2c3nc(c(-c4cc(S(=O)(=O)[O-])ccc4F)c4ccc([nH]4)c(-c4cc(S(=O)(=O)[O-])ccc4F)c4nc(c(-c5cc(S(=O)(=O)[O-])ccc5F)c5ccc2[nH]5)C=C4)C=C3)cc1
REMARK SMILES IDX 21 1 20 2 19 3 17 4 18 5 2 6 1 7 3 8 4 9 5 10 6 11 14 12
REMARK SMILES IDX 7 13 13 14 12 15 15 16 16 17 8 18 9 19 10 20 11 21 22 22
REMARK SMILES IDX 23 23 24 24 25 25 26 26 27 27 28 28 29 29 90 30 30 31 89 32
REMARK SMILES IDX 31 33 32 34 33 35 83 36 34 37 88 38 82 39 84 40 35 41 87 42
REMARK SMILES IDX 81 43 80 44 36 46 68 47 48 48 67 49 49 50 52 51 66 52 85 53
REMARK SMILES IDX 50 54 51 55 65 57 86 58 53 59 37 60 38 61 46 62 39 63 45 64
REMARK SMILES IDX 47 65 44 66 40 67 41 68 42 69 43 70 69 71 70 72 78 73 71 74
REMARK SMILES IDX 77 75 79 76 76 77 72 78 73 79 74 80 75 81 54 82 55 83 63 84
REMARK SMILES IDX 56 85 62 86 64 87 61 88 57 89 58 90 59 91 60 92
REMARK H PARENT 84 45 52 56
REMARK Flexibility Score: inf
ROOT
ATOM      1  C   UNL A   1      43.552  18.862  25.620  1.00  0.00     0.202 C 
ENDROOT
BRANCH   1   2
ATOM      2  C   UNL A   1      44.499  19.452  24.573  1.00  0.00     0.261 C 
BRANCH   2   3
ATOM      3  O   UNL A   1      44.273  20.855  24.375  1.00  0.00    -0.463 OA
BRANCH   3   4
ATOM      4  C   UNL A   1      45.279  21.681  24.758  1.00  0.00     0.309 C 
ATOM      5  O   UNL A   1      46.397  21.326  25.109  1.00  0.00    -0.252 OA
BRANCH   4   6
ATOM      6  C   UNL A   1      44.869  23.141  24.720  1.00  0.00     0.106 C 
ATOM      7  C   UNL A   1      43.984  23.601  25.875  1.00  0.00     0.021 C 
BRANCH   6   8
ATOM      8  C   UNL A   1      46.096  24.014  24.456  1.00  0.00     0.091 C 
BRANCH   8   9
ATOM      9  S   UNL A   1      46.807  24.927  25.875  1.00  0.00    -0.104 SA
BRANCH   9  10
ATOM     10  C   UNL A   1      48.196  25.755  25.129  1.00  0.00     0.115 A 
ATOM     11  N   UNL A   1      47.909  26.352  23.945  1.00  0.00    -0.236 NA
ATOM     12  C   UNL A   1      49.464  25.826  25.699  1.00  0.00     0.084 A 
ATOM     13  C   UNL A   1      48.884  27.052  23.294  1.00  0.00     0.145 A 
ATOM     14  C   UNL A   1      50.455  26.550  25.030  1.00  0.00     0.024 A 
ATOM     15  C   UNL A   1      50.165  27.171  23.819  1.00  0.00     0.035 A 
BRANCH  12  16
ATOM     16  C   UNL A   1      49.799  25.165  26.923  1.00  0.00     0.102 C 
ATOM     17  N   UNL A   1      50.117  24.595  27.878  1.00  0.00    -0.192 NA
ENDBRANCH  12  16
BRANCH  13  18
ATOM     18  C   UNL A   1      48.573  27.675  21.942  1.00  0.00     0.433 C 
ATOM     19  F   UNL A   1      47.374  28.322  21.938  1.00  0.00    -0.165 F 
ATOM     20  F   UNL A   1      49.512  28.565  21.533  1.00  0.00    -0.165 F 
ATOM     21  F   UNL A   1      48.480  26.754  20.936  1.00  0.00    -0.165 F 
ENDBRANCH  13  18
ENDBRANCH   9  10
ENDBRANCH   8   9
ENDBRANCH   6   8
ENDBRANCH   4   6
ENDBRANCH   3   4
ENDBRANCH   2   3
ENDBRANCH   1   2
BRANCH   1  22
ATOM     22  O   UNL A   1      42.148  18.924  25.377  1.00  0.00    -0.374 OA
BRANCH  22  23
ATOM     23  C   UNL A   1      41.333  19.599  26.330  1.00  0.00     0.202 C 
BRANCH  23  24
ATOM     24  C   UNL A   1      41.203  21.129  26.269  1.00  0.00     0.261 C 
BRANCH  24  25
ATOM     25  O   UNL A   1      40.213  21.683  27.147  1.00  0.00    -0.460 OA
BRANCH  25  26
ATOM     26  C   UNL A   1      39.541  22.740  26.621  1.00  0.00     0.338 C 
ATOM     27  O   UNL A   1      38.434  22.721  26.110  1.00  0.00    -0.246 OA
BRANCH  26  28
ATOM     28  C   UNL A   1      40.259  23.992  26.915  1.00  0.00     0.060 A 
ATOM     29  C   UNL A   1      40.835  24.145  28.180  1.00  0.00     0.016 A 
ATOM     30  C   UNL A   1      40.291  25.037  25.997  1.00  0.00     0.016 A 
ATOM     31  C   UNL A   1      41.398  25.367  28.542  1.00  0.00     0.010 A 
ATOM     32  C   UNL A   1      40.901  26.245  26.346  1.00  0.00     0.010 A 
ATOM     33  C   UNL A   1      41.410  26.441  27.641  1.00  0.00    -0.014 A 
BRANCH  33  34
ATOM     34  C   UNL A   1      41.812  27.796  28.112  1.00  0.00     0.031 A 
ATOM     35  C   UNL A   1      40.754  28.745  28.627  1.00  0.00     0.074 A 
ATOM     36  C   UNL A   1      43.110  28.154  28.145  1.00  0.00     0.049 A 
ATOM     37  N   UNL A   1      40.888  29.952  29.115  1.00  0.00    -0.248 NA
ATOM     38  C   UNL A   1      39.360  28.279  28.570  1.00  0.00     0.031 C 
ATOM     39  C   UNL A   1      44.222  27.331  27.665  1.00  0.00     0.029 A 
ATOM     40  N   UNL A   1      43.717  29.293  28.612  1.00  0.00    -0.354 N 
ATOM     41  C   UNL A   1      39.600  30.383  29.422  1.00  0.00     0.074 A 
ATOM     42  C   UNL A   1      38.695  29.344  28.987  1.00  0.00     0.031 C 
ATOM     43  C   UNL A   1      45.377  27.977  27.896  1.00  0.00     0.029 A 
ATOM     44  C   UNL A   1      45.088  29.280  28.490  1.00  0.00     0.049 A 
ATOM     45  H   UNL A   1      43.220  30.048  28.999  1.00  0.00     0.167 HD
ATOM     46  C   UNL A   1      39.208  31.522  30.043  1.00  0.00     0.034 A 
ATOM     47  C   UNL A   1      46.007  30.217  28.804  1.00  0.00     0.034 A 
ATOM     48  C   UNL A   1      40.120  32.552  30.474  1.00  0.00     0.049 A 
ATOM     49  C   UNL A   1      45.538  31.506  29.439  1.00  0.00     0.074 A 
ATOM     50  C   UNL A   1      39.833  33.742  31.121  1.00  0.00     0.029 A 
ATOM     51  N   UNL A   1      41.497  32.519  30.300  1.00  0.00    -0.354 N 
ATOM     52  N   UNL A   1      44.318  31.883  29.746  1.00  0.00    -0.248 NA
ATOM     53  C   UNL A   1      46.575  32.486  29.785  1.00  0.00     0.031 C 
ATOM     54  C   UNL A   1      41.022  34.461  31.263  1.00  0.00     0.029 A 
ATOM     55  C   UNL A   1      42.068  33.681  30.798  1.00  0.00     0.049 A 
ATOM     56  H   UNL A   1      41.996  31.779  29.883  1.00  0.00     0.167 HD
ATOM     57  C   UNL A   1      44.446  33.132  30.348  1.00  0.00     0.074 A 
ATOM     58  C   UNL A   1      45.864  33.424  30.390  1.00  0.00     0.031 C 
ATOM     59  C   UNL A   1      43.484  33.966  30.822  1.00  0.00     0.034 A 
BRANCH  46  60
ATOM     60  C   UNL A   1      37.726  31.717  30.272  1.00  0.00     0.023 A 
ATOM     61  C   UNL A   1      36.898  32.295  29.294  1.00  0.00     0.031 A 
ATOM     62  C   UNL A   1      37.134  31.335  31.490  1.00  0.00     0.131 A 
ATOM     63  C   UNL A   1      35.546  32.541  29.574  1.00  0.00     0.055 A 
ATOM     64  C   UNL A   1      35.767  31.499  31.727  1.00  0.00     0.041 A 
ATOM     65  F   UNL A   1      37.875  30.803  32.474  1.00  0.00    -0.206 F 
ATOM     66  C   UNL A   1      34.967  32.118  30.773  1.00  0.00     0.022 A 
BRANCH  63  67
ATOM     67  S   UNL A   1      34.592  33.557  28.413  1.00  0.00     0.124 S 
ATOM     68  O   UNL A   1      35.603  33.888  27.412  1.00  0.00    -0.237 OA
ATOM     69  O   UNL A   1      33.540  32.643  27.983  1.00  0.00    -0.237 OA
ATOM     70  O   UNL A   1      34.144  34.683  29.231  1.00  0.00    -0.744 OA
ENDBRANCH  63  67
ENDBRANCH  46  60
BRANCH  47  71
ATOM     71  C   UNL A   1      47.453  30.000  28.496  1.00  0.00     0.023 A 
ATOM     72  C   UNL A   1      48.295  29.292  29.370  1.00  0.00     0.031 A 
ATOM     73  C   UNL A   1      48.033  30.570  27.348  1.00  0.00     0.131 A 
ATOM     74  C   UNL A   1      49.674  29.227  29.115  1.00  0.00     0.055 A 
ATOM     75  C   UNL A   1      49.392  30.436  27.059  1.00  0.00     0.041 A 
ATOM     76  F   UNL A   1      47.281  31.266  26.480  1.00  0.00    -0.206 F 
ATOM     77  C   UNL A   1      50.225  29.776  27.956  1.00  0.00     0.022 A 
BRANCH  74  78
ATOM     78  S   UNL A   1      50.762  28.525  30.387  1.00  0.00     0.124 S 
ATOM     79  O   UNL A   1      52.056  29.078  30.007  1.00  0.00    -0.237 OA
ATOM     80  O   UNL A   1      50.173  29.053  31.615  1.00  0.00    -0.237 OA
ATOM     81  O   UNL A   1      50.619  27.083  30.199  1.00  0.00    -0.744 OA
ENDBRANCH  74  78
ENDBRANCH  47  71
BRANCH  59  82
ATOM     82  C   UNL A   1      43.946  35.252  31.469  1.00  0.00     0.023 A 
ATOM     83  C   UNL A   1      44.206  35.334  32.848  1.00  0.00     0.031 A 
ATOM     84  C   UNL A   1      44.087  36.423  30.702  1.00  0.00     0.131 A 
ATOM     85  C   UNL A   1      44.496  36.575  33.432  1.00  0.00     0.055 A 
ATOM     86  C   UNL A   1      44.466  37.637  31.276  1.00  0.00     0.041 A 
ATOM     87  F   UNL A   1      43.849  36.410  29.381  1.00  0.00    -0.206 F 
ATOM     88  C   UNL A   1      44.651  37.723  32.653  1.00  0.00     0.022 A 
BRANCH  85  89
ATOM     89  S   UNL A   1      44.509  36.696  35.242  1.00  0.00     0.124 S 
ATOM     90  O   UNL A   1      45.420  37.815  35.462  1.00  0.00    -0.237 OA
ATOM     91  O   UNL A   1      43.105  36.947  35.548  1.00  0.00    -0.237 OA
ATOM     92  O   UNL A   1      45.014  35.392  35.668  1.00  0.00    -0.744 OA
ENDBRANCH  85  89
ENDBRANCH  59  82
ENDBRANCH  33  34
ENDBRANCH  26  28
ENDBRANCH  25  26
ENDBRANCH  24  25
ENDBRANCH  23  24
ENDBRANCH  22  23
ENDBRANCH   1  22
TORSDOF 22
ENDMDL
MODEL 3
REMARK VINA RESULT:      -8.8      1.906      2.404
REMARK SMILES C[C@@H](CSc1nc(C(F)(F)F)ccc1C#N)C(=O)OCCOCCOC(=O)c1ccc(-c2c3nc(c(-c4cc(S(=O)(=O)[O-])ccc4F)c4ccc([nH]4)c(-c4cc(S(=O)(=O)[O-])ccc4F)c4nc(c(-c5cc(S(=O)(=O)[O-])ccc5F)c5ccc2[nH]5)C=C4)C=C3)cc1
REMARK SMILES IDX 21 1 20 2 19 3 17 4 18 5 2 6 1 7 3 8 4 9 5 10 6 11 14 12
REMARK SMILES IDX 7 13 13 14 12 15 15 16 16 17 8 18 9 19 10 20 11 21 22 22
REMARK SMILES IDX 23 23 24 24 25 25 26 26 27 27 28 28 29 29 90 30 30 31 89 32
REMARK SMILES IDX 31 33 32 34 33 35 83 36 34 37 88 38 82 39 84 40 35 41 87 42
REMARK SMILES IDX 81 43 80 44 36 46 68 47 48 48 67 49 49 50 52 51 66 52 85 53
REMARK SMILES IDX 50 54 51 55 65 57 86 58 53 59 37 60 38 61 46 62 39 63 45 64
REMARK SMILES IDX 47 65 44 66 40 67 41 68 42 69 43 70 69 71 70 72 78 73 71 74
REMARK SMILES IDX 77 75 79 76 76 77 72 78 73 79 74 80 75 81 54 82 55 83 63 84
REMARK SMILES IDX 56 85 62 86 64 87 61 88 57 89 58 90 59 91 60 92
REMARK H PARENT 84 45 52 56
REMARK Flexibility Score: inf
ROOT
ATOM      1  C   UNL A   1      42.907  18.893  25.813  1.00  0.00     0.202 C 
ENDROOT
BRANCH   1   2
ATOM      2  C   UNL A   1      44.001  19.317  24.832  1.00  0.00     0.261 C 
BRANCH   2   3
ATOM      3  O   UNL A   1      44.124  20.745  24.751  1.00  0.00    -0.463 OA
BRANCH   3   4
ATOM      4  C   UNL A   1      45.275  21.272  25.240  1.00  0.00     0.309 C 
ATOM      5  O   UNL A   1      46.349  20.689  25.317  1.00  0.00    -0.252 OA
BRANCH   4   6
ATOM      6  C   UNL A   1      45.097  22.704  25.708  1.00  0.00     0.106 C 
ATOM      7  C   UNL A   1      43.996  22.920  26.743  1.00  0.00     0.021 C 
BRANCH   6   8
ATOM      8  C   UNL A   1      46.456  23.300  26.075  1.00  0.00     0.091 C 
BRANCH   8   9
ATOM      9  S   UNL A   1      46.467  24.876  27.006  1.00  0.00    -0.104 SA
BRANCH   9  10
ATOM     10  C   UNL A   1      47.570  25.879  26.031  1.00  0.00     0.115 A 
ATOM     11  N   UNL A   1      48.883  25.588  26.212  1.00  0.00    -0.236 NA
ATOM     12  C   UNL A   1      47.151  26.857  25.134  1.00  0.00     0.084 A 
ATOM     13  C   UNL A   1      49.824  26.264  25.490  1.00  0.00     0.145 A 
ATOM     14  C   UNL A   1      48.121  27.541  24.394  1.00  0.00     0.024 A 
ATOM     15  C   UNL A   1      49.468  27.242  24.569  1.00  0.00     0.035 A 
BRANCH  12  16
ATOM     16  C   UNL A   1      45.776  27.211  24.963  1.00  0.00     0.102 C 
ATOM     17  N   UNL A   1      44.646  27.432  24.837  1.00  0.00    -0.192 NA
ENDBRANCH  12  16
BRANCH  13  18
ATOM     18  C   UNL A   1      51.296  25.973  25.735  1.00  0.00     0.433 C 
ATOM     19  F   UNL A   1      52.069  26.290  24.658  1.00  0.00    -0.165 F 
ATOM     20  F   UNL A   1      51.805  26.637  26.804  1.00  0.00    -0.165 F 
ATOM     21  F   UNL A   1      51.550  24.650  25.973  1.00  0.00    -0.165 F 
ENDBRANCH  13  18
ENDBRANCH   9  10
ENDBRANCH   8   9
ENDBRANCH   6   8
ENDBRANCH   4   6
ENDBRANCH   3   4
ENDBRANCH   2   3
ENDBRANCH   1   2
BRANCH   1  22
ATOM     22  O   UNL A   1      41.560  19.265  25.532  1.00  0.00    -0.374 OA
BRANCH  22  23
ATOM     23  C   UNL A   1      40.858  20.028  26.508  1.00  0.00     0.202 C 
BRANCH  23  24
ATOM     24  C   UNL A   1      40.487  21.488  26.206  1.00  0.00     0.261 C 
BRANCH  24  25
ATOM     25  O   UNL A   1      39.179  21.879  26.649  1.00  0.00    -0.460 OA
BRANCH  25  26
ATOM     26  C   UNL A   1      38.729  23.032  26.088  1.00  0.00     0.338 C 
ATOM     27  O   UNL A   1      37.777  23.156  25.336  1.00  0.00    -0.246 OA
BRANCH  26  28
ATOM     28  C   UNL A   1      39.447  24.185  26.660  1.00  0.00     0.060 A 
ATOM     29  C   UNL A   1      39.469  24.329  28.049  1.00  0.00     0.016 A 
ATOM     30  C   UNL A   1      40.013  25.158  25.841  1.00  0.00     0.016 A 
ATOM     31  C   UNL A   1      40.015  25.478  28.619  1.00  0.00     0.010 A 
ATOM     32  C   UNL A   1      40.604  26.286  26.419  1.00  0.00     0.010 A 
ATOM     33  C   UNL A   1      40.561  26.484  27.809  1.00  0.00    -0.014 A 
BRANCH  33  34
ATOM     34  C   UNL A   1      40.937  27.794  28.411  1.00  0.00     0.031 A 
ATOM     35  C   UNL A   1      42.397  28.158  28.540  1.00  0.00     0.074 A 
ATOM     36  C   UNL A   1      39.988  28.678  28.776  1.00  0.00     0.049 A 
ATOM     37  N   UNL A   1      42.942  29.256  29.000  1.00  0.00    -0.248 NA
ATOM     38  C   UNL A   1      43.375  27.146  28.109  1.00  0.00     0.031 C 
ATOM     39  C   UNL A   1      38.545  28.439  28.711  1.00  0.00     0.029 A 
ATOM     40  N   UNL A   1      40.091  29.958  29.261  1.00  0.00    -0.354 N 
ATOM     41  C   UNL A   1      44.318  29.064  28.911  1.00  0.00     0.074 A 
ATOM     42  C   UNL A   1      44.523  27.715  28.434  1.00  0.00     0.031 C 
ATOM     43  C   UNL A   1      37.898  29.549  29.106  1.00  0.00     0.029 A 
ATOM     44  C   UNL A   1      38.876  30.559  29.502  1.00  0.00     0.049 A 
ATOM     45  H   UNL A   1      40.953  30.406  29.421  1.00  0.00     0.167 HD
ATOM     46  C   UNL A   1      45.320  29.940  29.166  1.00  0.00     0.034 A 
ATOM     47  C   UNL A   1      38.583  31.777  30.001  1.00  0.00     0.034 A 
ATOM     48  C   UNL A   1      45.104  31.284  29.640  1.00  0.00     0.049 A 
ATOM     49  C   UNL A   1      39.719  32.715  30.338  1.00  0.00     0.074 A 
ATOM     50  C   UNL A   1      46.044  32.260  29.923  1.00  0.00     0.029 A 
ATOM     51  N   UNL A   1      43.861  31.843  29.907  1.00  0.00    -0.354 N 
ATOM     52  N   UNL A   1      41.014  32.524  30.221  1.00  0.00    -0.248 NA
ATOM     53  C   UNL A   1      39.352  34.038  30.856  1.00  0.00     0.031 C 
ATOM     54  C   UNL A   1      45.377  33.376  30.436  1.00  0.00     0.029 A 
ATOM     55  C   UNL A   1      44.013  33.139  30.380  1.00  0.00     0.049 A 
ATOM     56  H   UNL A   1      42.997  31.388  29.780  1.00  0.00     0.167 HD
ATOM     57  C   UNL A   1      41.612  33.716  30.624  1.00  0.00     0.074 A 
ATOM     58  C   UNL A   1      40.534  34.626  30.952  1.00  0.00     0.031 C 
ATOM     59  C   UNL A   1      42.930  34.032  30.718  1.00  0.00     0.034 A 
BRANCH  46  60
ATOM     60  C   UNL A   1      46.738  29.461  28.955  1.00  0.00     0.023 A 
ATOM     61  C   UNL A   1      47.444  28.778  29.961  1.00  0.00     0.031 A 
ATOM     62  C   UNL A   1      47.401  29.701  27.737  1.00  0.00     0.131 A 
ATOM     63  C   UNL A   1      48.787  28.425  29.761  1.00  0.00     0.055 A 
ATOM     64  C   UNL A   1      48.709  29.265  27.512  1.00  0.00     0.041 A 
ATOM     65  F   UNL A   1      46.792  30.371  26.747  1.00  0.00    -0.206 F 
ATOM     66  C   UNL A   1      49.415  28.636  28.532  1.00  0.00     0.022 A 
BRANCH  63  67
ATOM     67  S   UNL A   1      49.745  27.827  31.181  1.00  0.00     0.124 S 
ATOM     68  O   UNL A   1      51.056  28.418  30.922  1.00  0.00    -0.237 OA
ATOM     69  O   UNL A   1      49.008  28.375  32.313  1.00  0.00    -0.237 OA
ATOM     70  O   UNL A   1      49.688  26.372  31.043  1.00  0.00    -0.744 OA
ENDBRANCH  63  67
ENDBRANCH  46  60
BRANCH  47  71
ATOM     71  C   UNL A   1      37.165  32.177  30.252  1.00  0.00     0.023 A 
ATOM     72  C   UNL A   1      36.366  32.735  29.240  1.00  0.00     0.031 A 
ATOM     73  C   UNL A   1      36.610  32.073  31.541  1.00  0.00     0.131 A 
ATOM     74  C   UNL A   1      35.086  33.224  29.548  1.00  0.00     0.055 A 
ATOM     75  C   UNL A   1      35.308  32.491  31.824  1.00  0.00     0.041 A 
ATOM     76  F   UNL A   1      37.328  31.557  32.551  1.00  0.00    -0.206 F 
ATOM     77  C   UNL A   1      34.545  33.088  30.827  1.00  0.00     0.022 A 
BRANCH  74  78
ATOM     78  S   UNL A   1      34.186  34.163  28.282  1.00  0.00     0.124 S 
ATOM     79  O   UNL A   1      35.232  34.411  27.297  1.00  0.00    -0.237 OA
ATOM     80  O   UNL A   1      33.143  33.220  27.889  1.00  0.00    -0.237 OA
ATOM     81  O   UNL A   1      33.716  35.343  29.004  1.00  0.00    -0.744 OA
ENDBRANCH  74  78
ENDBRANCH  47  71
BRANCH  59  82
ATOM     82  C   UNL A   1      43.269  35.440  31.152  1.00  0.00     0.023 A 
ATOM     83  C   UNL A   1      43.479  36.471  30.218  1.00  0.00     0.031 A 
ATOM     84  C   UNL A   1      43.427  35.745  32.515  1.00  0.00     0.131 A 
ATOM     85  C   UNL A   1      43.928  37.726  30.653  1.00  0.00     0.055 A 
ATOM     86  C   UNL A   1      43.786  37.023  32.947  1.00  0.00     0.041 A 
ATOM     87  F   UNL A   1      43.244  34.804  33.454  1.00  0.00    -0.206 F 
ATOM     88  C   UNL A   1      44.061  38.016  32.012  1.00  0.00     0.022 A 
BRANCH  85  89
ATOM     89  S   UNL A   1      44.491  38.919  29.408  1.00  0.00     0.124 S 
ATOM     90  O   UNL A   1      45.285  38.077  28.520  1.00  0.00    -0.237 OA
ATOM     91  O   UNL A   1      43.232  39.415  28.860  1.00  0.00    -0.237 OA
ATOM     92  O   UNL A   1      45.254  39.892  30.188  1.00  0.00    -0.744 OA
ENDBRANCH  85  89
ENDBRANCH  59  82
ENDBRANCH  33  34
ENDBRANCH  26  28
ENDBRANCH  25  26
ENDBRANCH  24  25
ENDBRANCH  23  24
ENDBRANCH  22  23
ENDBRANCH   1  22
TORSDOF 22
ENDMDL
