MODEL 1
REMARK VINA RESULT:     -11.0      0.000      0.000
REMARK SMILES O=C(Cc1cn2ccsc2n1)N[C@@H]1C=C[C@H](C(=O)OCCOCCOC(=O)c2ccc(-c3c4nc(c(-c5cc(S(=O)(=O)[O-])ccc5F)c5ccc([nH]5)c(-c5cc(S(=O)(=O)[O-])ccc5F)c5nc(c(-c6cc(S(=O)(=O)[O-])ccc6F)c6ccc3[nH]6)C=C5)C=C4)cc2)C1
REMARK SMILES IDX 22 1 21 2 20 3 19 4 17 5 18 6 16 7 13 8 14 9 91 10 15 11
REMARK SMILES IDX 12 12 1 13 2 14 3 16 4 17 5 18 11 19 6 20 10 21 7 22 9 23
REMARK SMILES IDX 8 24 23 25 24 26 25 27 26 28 27 29 28 30 29 31 90 32 30 33
REMARK SMILES IDX 89 34 31 35 32 36 33 37 83 38 34 39 88 40 82 41 84 42 35 43
REMARK SMILES IDX 87 44 81 45 80 46 36 48 68 49 48 50 67 51 49 52 52 53 66 54
REMARK SMILES IDX 85 55 50 56 51 57 65 59 86 60 53 61 37 62 38 63 46 64 39 65
REMARK SMILES IDX 45 66 47 67 44 68 40 69 41 70 42 71 43 72 69 73 70 74 78 75
REMARK SMILES IDX 71 76 77 77 79 78 76 79 72 80 73 81 74 82 75 83 54 84 55 85
REMARK SMILES IDX 63 86 56 87 62 88 64 89 61 90 57 91 58 92 59 93 60 94
REMARK H PARENT 12 15 84 47 52 58
REMARK Flexibility Score: inf
ROOT
ATOM      1  O   UNL A   1      32.178  27.492  26.766  1.00  0.00    -0.374 OA
ENDROOT
BRANCH   1   2
ATOM      2  C   UNL A   1      31.209  26.580  26.253  1.00  0.00     0.202 C 
BRANCH   2   3
ATOM      3  C   UNL A   1      31.745  25.252  25.716  1.00  0.00     0.261 C 
BRANCH   3   4
ATOM      4  O   UNL A   1      32.849  24.759  26.486  1.00  0.00    -0.463 OA
BRANCH   4   5
ATOM      5  C   UNL A   1      32.630  23.619  27.190  1.00  0.00     0.312 C 
ATOM      6  O   UNL A   1      31.548  23.284  27.661  1.00  0.00    -0.252 OA
BRANCH   5   7
ATOM      7  C   UNL A   1      33.886  22.760  27.349  1.00  0.00     0.124 C 
ATOM      8  C   UNL A   1      34.908  22.229  25.194  1.00  0.00     0.106 C 
ATOM      9  C   UNL A   1      34.337  21.014  25.849  1.00  0.00    -0.006 C 
ATOM     10  C   UNL A   1      34.968  23.224  26.360  1.00  0.00     0.048 C 
ATOM     11  C   UNL A   1      33.766  21.301  27.023  1.00  0.00    -0.014 C 
BRANCH   8  12
ATOM     12  N   UNL A   1      33.992  22.653  24.164  1.00  0.00    -0.350 N 
ATOM     13  O   UNL A   1      35.621  23.043  22.619  1.00  0.00    -0.275 OA
ATOM     14  C   UNL A   1      34.423  23.006  22.904  1.00  0.00     0.226 C 
ATOM     15  H   UNL A   1      33.030  22.693  24.368  1.00  0.00     0.164 HD
BRANCH  14  16
ATOM     16  C   UNL A   1      33.363  23.478  21.923  1.00  0.00     0.157 C 
BRANCH  16  17
ATOM     17  C   UNL A   1      32.918  24.897  22.063  1.00  0.00     0.070 A 
ATOM     18  C   UNL A   1      31.632  25.434  21.998  1.00  0.00     0.118 A 
ATOM     19  N   UNL A   1      33.837  25.885  22.374  1.00  0.00    -0.223 NA
ATOM     20  N   UNL A   1      31.784  26.745  22.341  1.00  0.00    -0.297 N 
ATOM     21  C   UNL A   1      33.107  26.945  22.580  1.00  0.00     0.193 A 
ATOM     22  C   UNL A   1      30.983  27.854  22.485  1.00  0.00     0.104 A 
ATOM     23  S   UNL A   1      33.418  28.590  23.041  1.00  0.00    -0.105 S 
ATOM     24  C   UNL A   1      31.692  28.931  22.865  1.00  0.00     0.087 A 
ENDBRANCH  16  17
ENDBRANCH  14  16
ENDBRANCH   8  12
ENDBRANCH   5   7
ENDBRANCH   4   5
ENDBRANCH   3   4
ENDBRANCH   2   3
ENDBRANCH   1   2
BRANCH   1  25
ATOM     25  C   UNL A   1      31.697  28.701  27.351  1.00  0.00     0.202 C 
BRANCH  25  26
ATOM     26  C   UNL A   1      31.696  29.970  26.485  1.00  0.00     0.261 C 
BRANCH  26  27
ATOM     27  O   UNL A   1      33.008  30.507  26.230  1.00  0.00    -0.460 OA
BRANCH  27  28
ATOM     28  C   UNL A   1      33.411  31.456  27.112  1.00  0.00     0.338 C 
ATOM     29  O   UNL A   1      32.736  32.402  27.515  1.00  0.00    -0.246 OA
BRANCH  28  30
ATOM     30  C   UNL A   1      34.733  31.143  27.687  1.00  0.00     0.060 A 
ATOM     31  C   UNL A   1      34.990  29.808  28.021  1.00  0.00     0.016 A 
ATOM     32  C   UNL A   1      35.670  32.136  27.994  1.00  0.00     0.016 A 
ATOM     33  C   UNL A   1      36.161  29.466  28.696  1.00  0.00     0.010 A 
ATOM     34  C   UNL A   1      36.843  31.789  28.684  1.00  0.00     0.010 A 
ATOM     35  C   UNL A   1      37.083  30.457  29.060  1.00  0.00    -0.014 A 
BRANCH  35  36
ATOM     36  C   UNL A   1      38.224  30.085  29.940  1.00  0.00     0.031 A 
ATOM     37  C   UNL A   1      39.266  29.145  29.421  1.00  0.00     0.074 A 
ATOM     38  C   UNL A   1      38.363  30.630  31.162  1.00  0.00     0.049 A 
ATOM     39  N   UNL A   1      40.354  28.713  30.002  1.00  0.00    -0.248 NA
ATOM     40  C   UNL A   1      39.038  28.603  28.075  1.00  0.00     0.031 C 
ATOM     41  C   UNL A   1      37.401  31.540  31.758  1.00  0.00     0.029 A 
ATOM     42  N   UNL A   1      39.348  30.522  32.112  1.00  0.00    -0.354 N 
ATOM     43  C   UNL A   1      40.935  27.830  29.102  1.00  0.00     0.074 A 
ATOM     44  C   UNL A   1      40.068  27.782  27.942  1.00  0.00     0.031 C 
ATOM     45  C   UNL A   1      37.858  31.964  32.946  1.00  0.00     0.029 A 
ATOM     46  C   UNL A   1      39.120  31.290  33.234  1.00  0.00     0.049 A 
ATOM     47  H   UNL A   1      40.141  29.950  32.002  1.00  0.00     0.167 HD
ATOM     48  C   UNL A   1      42.078  27.114  29.246  1.00  0.00     0.034 A 
ATOM     49  C   UNL A   1      39.832  31.410  34.375  1.00  0.00     0.034 A 
ATOM     50  C   UNL A   1      42.901  27.149  30.432  1.00  0.00     0.049 A 
ATOM     51  C   UNL A   1      41.085  30.581  34.520  1.00  0.00     0.074 A 
ATOM     52  C   UNL A   1      44.070  26.456  30.692  1.00  0.00     0.029 A 
ATOM     53  N   UNL A   1      42.630  27.906  31.568  1.00  0.00    -0.354 N 
ATOM     54  N   UNL A   1      41.628  29.749  33.660  1.00  0.00    -0.248 NA
ATOM     55  C   UNL A   1      41.811  30.690  35.790  1.00  0.00     0.031 C 
ATOM     56  C   UNL A   1      44.463  26.734  32.007  1.00  0.00     0.029 A 
ATOM     57  C   UNL A   1      43.591  27.670  32.542  1.00  0.00     0.049 A 
ATOM     58  H   UNL A   1      41.867  28.521  31.667  1.00  0.00     0.167 HD
ATOM     59  C   UNL A   1      42.758  29.234  34.288  1.00  0.00     0.074 A 
ATOM     60  C   UNL A   1      42.839  29.880  35.583  1.00  0.00     0.031 C 
ATOM     61  C   UNL A   1      43.642  28.306  33.840  1.00  0.00     0.034 A 
BRANCH  48  62
ATOM     62  C   UNL A   1      42.433  26.171  28.121  1.00  0.00     0.023 A 
ATOM     63  C   UNL A   1      41.799  24.926  27.969  1.00  0.00     0.031 A 
ATOM     64  C   UNL A   1      43.480  26.490  27.238  1.00  0.00     0.131 A 
ATOM     65  C   UNL A   1      42.278  24.010  27.020  1.00  0.00     0.055 A 
ATOM     66  C   UNL A   1      43.894  25.608  26.238  1.00  0.00     0.041 A 
ATOM     67  F   UNL A   1      44.141  27.653  27.351  1.00  0.00    -0.206 F 
ATOM     68  C   UNL A   1      43.304  24.352  26.137  1.00  0.00     0.022 A 
BRANCH  65  69
ATOM     69  S   UNL A   1      41.658  22.305  27.071  1.00  0.00     0.124 S 
ATOM     70  O   UNL A   1      40.327  22.492  27.646  1.00  0.00    -0.237 OA
ATOM     71  O   UNL A   1      41.698  21.911  25.669  1.00  0.00    -0.237 OA
ATOM     72  O   UNL A   1      42.612  21.619  27.941  1.00  0.00    -0.744 OA
ENDBRANCH  65  69
ENDBRANCH  48  62
BRANCH  49  73
ATOM     73  C   UNL A   1      39.354  32.283  35.491  1.00  0.00     0.023 A 
ATOM     74  C   UNL A   1      39.784  33.616  35.620  1.00  0.00     0.031 A 
ATOM     75  C   UNL A   1      38.493  31.778  36.483  1.00  0.00     0.131 A 
ATOM     76  C   UNL A   1      39.381  34.380  36.728  1.00  0.00     0.055 A 
ATOM     77  C   UNL A   1      38.047  32.559  37.550  1.00  0.00     0.041 A 
ATOM     78  F   UNL A   1      38.061  30.507  36.425  1.00  0.00    -0.206 F 
ATOM     79  C   UNL A   1      38.501  33.866  37.684  1.00  0.00     0.022 A 
BRANCH  76  80
ATOM     80  S   UNL A   1      40.091  36.035  36.960  1.00  0.00     0.124 S 
ATOM     81  O   UNL A   1      39.775  36.676  35.690  1.00  0.00    -0.237 OA
ATOM     82  O   UNL A   1      39.360  36.520  38.126  1.00  0.00    -0.237 OA
ATOM     83  O   UNL A   1      41.511  35.767  37.188  1.00  0.00    -0.744 OA
ENDBRANCH  76  80
ENDBRANCH  49  73
BRANCH  61  84
ATOM     84  C   UNL A   1      44.789  27.958  34.760  1.00  0.00     0.023 A 
ATOM     85  C   UNL A   1      44.696  26.918  35.701  1.00  0.00     0.031 A 
ATOM     86  C   UNL A   1      45.988  28.690  34.699  1.00  0.00     0.131 A 
ATOM     87  C   UNL A   1      45.763  26.673  36.580  1.00  0.00     0.055 A 
ATOM     88  C   UNL A   1      47.069  28.401  35.533  1.00  0.00     0.041 A 
ATOM     89  F   UNL A   1      46.131  29.697  33.823  1.00  0.00    -0.206 F 
ATOM     90  C   UNL A   1      46.955  27.397  36.489  1.00  0.00     0.022 A 
BRANCH  87  91
ATOM     91  S   UNL A   1      45.540  25.459  37.910  1.00  0.00     0.124 S 
ATOM     92  O   UNL A   1      45.487  24.203  37.169  1.00  0.00    -0.237 OA
ATOM     93  O   UNL A   1      46.728  25.668  38.729  1.00  0.00    -0.237 OA
ATOM     94  O   UNL A   1      44.280  25.862  38.533  1.00  0.00    -0.744 OA
ENDBRANCH  87  91
ENDBRANCH  61  84
ENDBRANCH  35  36
ENDBRANCH  28  30
ENDBRANCH  27  28
ENDBRANCH  26  27
ENDBRANCH  25  26
ENDBRANCH   1  25
TORSDOF 20
ENDMDL
MODEL 2
REMARK VINA RESULT:     -11.0      0.615      7.698
REMARK SMILES O=C(Cc1cn2ccsc2n1)N[C@@H]1C=C[C@H](C(=O)OCCOCCOC(=O)c2ccc(-c3c4nc(c(-c5cc(S(=O)(=O)[O-])ccc5F)c5ccc([nH]5)c(-c5cc(S(=O)(=O)[O-])ccc5F)c5nc(c(-c6cc(S(=O)(=O)[O-])ccc6F)c6ccc3[nH]6)C=C5)C=C4)cc2)C1
REMARK SMILES IDX 22 1 21 2 20 3 19 4 17 5 18 6 16 7 13 8 14 9 91 10 15 11
REMARK SMILES IDX 12 12 1 13 2 14 3 16 4 17 5 18 11 19 6 20 10 21 7 22 9 23
REMARK SMILES IDX 8 24 23 25 24 26 25 27 26 28 27 29 28 30 29 31 90 32 30 33
REMARK SMILES IDX 89 34 31 35 32 36 33 37 83 38 34 39 88 40 82 41 84 42 35 43
REMARK SMILES IDX 87 44 81 45 80 46 36 48 68 49 48 50 67 51 49 52 52 53 66 54
REMARK SMILES IDX 85 55 50 56 51 57 65 59 86 60 53 61 37 62 38 63 46 64 39 65
REMARK SMILES IDX 45 66 47 67 44 68 40 69 41 70 42 71 43 72 69 73 70 74 78 75
REMARK SMILES IDX 71 76 77 77 79 78 76 79 72 80 73 81 74 82 75 83 54 84 55 85
REMARK SMILES IDX 63 86 56 87 62 88 64 89 61 90 57 91 58 92 59 93 60 94
REMARK H PARENT 12 15 84 47 52 58
REMARK Flexibility Score: inf
ROOT
ATOM      1  O   UNL A   1      32.175  27.413  26.379  1.00  0.00    -0.374 OA
ENDROOT
BRANCH   1   2
ATOM      2  C   UNL A   1      31.070  26.612  25.969  1.00  0.00     0.202 C 
BRANCH   2   3
ATOM      3  C   UNL A   1      31.373  25.146  25.657  1.00  0.00     0.261 C 
BRANCH   3   4
ATOM      4  O   UNL A   1      32.509  24.658  26.384  1.00  0.00    -0.463 OA
BRANCH   4   5
ATOM      5  C   UNL A   1      32.311  23.545  27.134  1.00  0.00     0.312 C 
ATOM      6  O   UNL A   1      31.230  23.195  27.596  1.00  0.00    -0.252 OA
BRANCH   5   7
ATOM      7  C   UNL A   1      33.590  22.736  27.359  1.00  0.00     0.124 C 
ATOM      8  C   UNL A   1      34.761  22.275  25.264  1.00  0.00     0.106 C 
ATOM      9  C   UNL A   1      34.203  21.030  25.871  1.00  0.00    -0.006 C 
ATOM     10  C   UNL A   1      34.709  23.257  26.442  1.00  0.00     0.048 C 
ATOM     11  C   UNL A   1      33.551  21.278  27.011  1.00  0.00    -0.014 C 
BRANCH   8  12
ATOM     12  N   UNL A   1      33.891  22.675  24.185  1.00  0.00    -0.350 N 
ATOM     13  O   UNL A   1      35.590  23.284  22.795  1.00  0.00    -0.275 OA
ATOM     14  C   UNL A   1      34.382  23.131  22.982  1.00  0.00     0.226 C 
ATOM     15  H   UNL A   1      32.916  22.621  24.313  1.00  0.00     0.164 HD
BRANCH  14  16
ATOM     16  C   UNL A   1      33.362  23.563  21.942  1.00  0.00     0.157 C 
BRANCH  16  17
ATOM     17  C   UNL A   1      32.869  24.969  22.044  1.00  0.00     0.070 A 
ATOM     18  C   UNL A   1      31.561  25.451  22.061  1.00  0.00     0.118 A 
ATOM     19  N   UNL A   1      33.767  26.007  22.223  1.00  0.00    -0.223 NA
ATOM     20  N   UNL A   1      31.684  26.784  22.320  1.00  0.00    -0.297 N 
ATOM     21  C   UNL A   1      33.012  27.048  22.435  1.00  0.00     0.193 A 
ATOM     22  C   UNL A   1      30.850  27.868  22.472  1.00  0.00     0.104 A 
ATOM     23  S   UNL A   1      33.288  28.727  22.780  1.00  0.00    -0.105 S 
ATOM     24  C   UNL A   1      31.541  28.991  22.733  1.00  0.00     0.087 A 
ENDBRANCH  16  17
ENDBRANCH  14  16
ENDBRANCH   8  12
ENDBRANCH   5   7
ENDBRANCH   4   5
ENDBRANCH   3   4
ENDBRANCH   2   3
ENDBRANCH   1   2
BRANCH   1  25
ATOM     25  C   UNL A   1      31.921  28.446  27.331  1.00  0.00     0.202 C 
BRANCH  25  26
ATOM     26  C   UNL A   1      31.776  29.884  26.812  1.00  0.00     0.261 C 
BRANCH  26  27
ATOM     27  O   UNL A   1      33.012  30.478  26.374  1.00  0.00    -0.460 OA
BRANCH  27  28
ATOM     28  C   UNL A   1      33.508  31.428  27.207  1.00  0.00     0.338 C 
ATOM     29  O   UNL A   1      32.888  32.391  27.656  1.00  0.00    -0.246 OA
BRANCH  28  30
ATOM     30  C   UNL A   1      34.869  31.095  27.670  1.00  0.00     0.060 A 
ATOM     31  C   UNL A   1      35.171  29.741  27.860  1.00  0.00     0.016 A 
ATOM     32  C   UNL A   1      35.804  32.077  28.012  1.00  0.00     0.016 A 
ATOM     33  C   UNL A   1      36.388  29.367  28.427  1.00  0.00     0.010 A 
ATOM     34  C   UNL A   1      37.024  31.697  28.594  1.00  0.00     0.010 A 
ATOM     35  C   UNL A   1      37.312  30.341  28.827  1.00  0.00    -0.014 A 
BRANCH  35  36
ATOM     36  C   UNL A   1      38.512  29.917  29.598  1.00  0.00     0.031 A 
ATOM     37  C   UNL A   1      38.688  30.412  30.999  1.00  0.00     0.074 A 
ATOM     38  C   UNL A   1      39.400  29.050  29.078  1.00  0.00     0.049 A 
ATOM     39  N   UNL A   1      39.637  30.147  31.858  1.00  0.00    -0.248 NA
ATOM     40  C   UNL A   1      37.669  31.350  31.488  1.00  0.00     0.031 C 
ATOM     41  C   UNL A   1      39.323  28.524  27.726  1.00  0.00     0.029 A 
ATOM     42  N   UNL A   1      40.516  28.449  29.604  1.00  0.00    -0.354 N 
ATOM     43  C   UNL A   1      39.344  30.900  32.986  1.00  0.00     0.074 A 
ATOM     44  C   UNL A   1      38.133  31.641  32.694  1.00  0.00     0.031 C 
ATOM     45  C   UNL A   1      40.306  27.632  27.534  1.00  0.00     0.029 A 
ATOM     46  C   UNL A   1      41.137  27.578  28.733  1.00  0.00     0.049 A 
ATOM     47  H   UNL A   1      40.842  28.623  30.516  1.00  0.00     0.167 HD
ATOM     48  C   UNL A   1      40.036  30.975  34.151  1.00  0.00     0.034 A 
ATOM     49  C   UNL A   1      42.263  26.848  28.876  1.00  0.00     0.034 A 
ATOM     50  C   UNL A   1      41.263  30.256  34.399  1.00  0.00     0.049 A 
ATOM     51  C   UNL A   1      43.029  26.971  30.171  1.00  0.00     0.074 A 
ATOM     52  C   UNL A   1      42.055  30.268  35.534  1.00  0.00     0.029 A 
ATOM     53  N   UNL A   1      41.890  29.409  33.490  1.00  0.00    -0.354 N 
ATOM     54  N   UNL A   1      42.741  27.686  31.236  1.00  0.00    -0.248 NA
ATOM     55  C   UNL A   1      44.277  26.207  30.280  1.00  0.00     0.031 C 
ATOM     56  C   UNL A   1      43.193  29.492  35.284  1.00  0.00     0.029 A 
ATOM     57  C   UNL A   1      43.074  28.921  34.026  1.00  0.00     0.049 A 
ATOM     58  H   UNL A   1      41.544  29.188  32.595  1.00  0.00     0.167 HD
ATOM     59  C   UNL A   1      43.774  27.460  32.139  1.00  0.00     0.074 A 
ATOM     60  C   UNL A   1      44.671  26.511  31.509  1.00  0.00     0.031 C 
ATOM     61  C   UNL A   1      43.971  27.994  33.372  1.00  0.00     0.034 A 
BRANCH  48  62
ATOM     62  C   UNL A   1      39.515  31.940  35.188  1.00  0.00     0.023 A 
ATOM     63  C   UNL A   1      39.974  33.267  35.264  1.00  0.00     0.031 A 
ATOM     64  C   UNL A   1      38.606  31.501  36.167  1.00  0.00     0.131 A 
ATOM     65  C   UNL A   1      39.595  34.076  36.346  1.00  0.00     0.055 A 
ATOM     66  C   UNL A   1      38.165  32.339  37.193  1.00  0.00     0.041 A 
ATOM     67  F   UNL A   1      38.154  30.236  36.163  1.00  0.00    -0.206 F 
ATOM     68  C   UNL A   1      38.675  33.629  37.297  1.00  0.00     0.022 A 
BRANCH  65  69
ATOM     69  S   UNL A   1      40.455  35.655  36.589  1.00  0.00     0.124 S 
ATOM     70  O   UNL A   1      39.670  36.552  35.744  1.00  0.00    -0.237 OA
ATOM     71  O   UNL A   1      40.334  35.864  38.027  1.00  0.00    -0.237 OA
ATOM     72  O   UNL A   1      41.809  35.386  36.108  1.00  0.00    -0.744 OA
ENDBRANCH  65  69
ENDBRANCH  48  62
BRANCH  49  73
ATOM     73  C   UNL A   1      42.775  25.998  27.758  1.00  0.00     0.023 A 
ATOM     74  C   UNL A   1      42.285  24.699  27.535  1.00  0.00     0.031 A 
ATOM     75  C   UNL A   1      43.808  26.457  26.919  1.00  0.00     0.131 A 
ATOM     76  C   UNL A   1      42.850  23.897  26.528  1.00  0.00     0.055 A 
ATOM     77  C   UNL A   1      44.325  25.680  25.881  1.00  0.00     0.041 A 
ATOM     78  F   UNL A   1      44.329  27.683  27.092  1.00  0.00    -0.206 F 
ATOM     79  C   UNL A   1      43.853  24.387  25.688  1.00  0.00     0.022 A 
BRANCH  76  80
ATOM     80  S   UNL A   1      42.320  22.168  26.381  1.00  0.00     0.124 S 
ATOM     81  O   UNL A   1      42.703  21.626  27.679  1.00  0.00    -0.237 OA
ATOM     82  O   UNL A   1      40.888  22.307  26.139  1.00  0.00    -0.237 OA
ATOM     83  O   UNL A   1      43.094  21.669  25.244  1.00  0.00    -0.744 OA
ENDBRANCH  76  80
ENDBRANCH  49  73
BRANCH  61  84
ATOM     84  C   UNL A   1      45.197  27.535  34.125  1.00  0.00     0.023 A 
ATOM     85  C   UNL A   1      45.175  26.406  34.963  1.00  0.00     0.031 A 
ATOM     86  C   UNL A   1      46.403  28.250  34.010  1.00  0.00     0.131 A 
ATOM     87  C   UNL A   1      46.321  26.056  35.695  1.00  0.00     0.055 A 
ATOM     88  C   UNL A   1      47.557  27.859  34.692  1.00  0.00     0.041 A 
ATOM     89  F   UNL A   1      46.480  29.338  33.229  1.00  0.00    -0.206 F 
ATOM     90  C   UNL A   1      47.515  26.765  35.549  1.00  0.00     0.022 A 
BRANCH  87  91
ATOM     91  S   UNL A   1      46.204  24.716  36.913  1.00  0.00     0.124 S 
ATOM     92  O   UNL A   1      46.537  23.544  36.109  1.00  0.00    -0.237 OA
ATOM     93  O   UNL A   1      47.195  25.110  37.908  1.00  0.00    -0.237 OA
ATOM     94  O   UNL A   1      44.814  24.782  37.362  1.00  0.00    -0.744 OA
ENDBRANCH  87  91
ENDBRANCH  61  84
ENDBRANCH  35  36
ENDBRANCH  28  30
ENDBRANCH  27  28
ENDBRANCH  26  27
ENDBRANCH  25  26
ENDBRANCH   1  25
TORSDOF 20
ENDMDL
MODEL 3
REMARK VINA RESULT:     -10.5      1.934      2.489
REMARK SMILES O=C(Cc1cn2ccsc2n1)N[C@@H]1C=C[C@H](C(=O)OCCOCCOC(=O)c2ccc(-c3c4nc(c(-c5cc(S(=O)(=O)[O-])ccc5F)c5ccc([nH]5)c(-c5cc(S(=O)(=O)[O-])ccc5F)c5nc(c(-c6cc(S(=O)(=O)[O-])ccc6F)c6ccc3[nH]6)C=C5)C=C4)cc2)C1
REMARK SMILES IDX 22 1 21 2 20 3 19 4 17 5 18 6 16 7 13 8 14 9 91 10 15 11
REMARK SMILES IDX 12 12 1 13 2 14 3 16 4 17 5 18 11 19 6 20 10 21 7 22 9 23
REMARK SMILES IDX 8 24 23 25 24 26 25 27 26 28 27 29 28 30 29 31 90 32 30 33
REMARK SMILES IDX 89 34 31 35 32 36 33 37 83 38 34 39 88 40 82 41 84 42 35 43
REMARK SMILES IDX 87 44 81 45 80 46 36 48 68 49 48 50 67 51 49 52 52 53 66 54
REMARK SMILES IDX 85 55 50 56 51 57 65 59 86 60 53 61 37 62 38 63 46 64 39 65
REMARK SMILES IDX 45 66 47 67 44 68 40 69 41 70 42 71 43 72 69 73 70 74 78 75
REMARK SMILES IDX 71 76 77 77 79 78 76 79 72 80 73 81 74 82 75 83 54 84 55 85
REMARK SMILES IDX 63 86 56 87 62 88 64 89 61 90 57 91 58 92 59 93 60 94
REMARK H PARENT 12 15 84 47 52 58
REMARK Flexibility Score: inf
ROOT
ATOM      1  O   UNL A   1      32.325  29.554  27.048  1.00  0.00    -0.374 OA
ENDROOT
BRANCH   1   2
ATOM      2  C   UNL A   1      32.594  28.341  26.350  1.00  0.00     0.202 C 
BRANCH   2   3
ATOM      3  C   UNL A   1      31.839  27.100  26.829  1.00  0.00     0.261 C 
BRANCH   3   4
ATOM      4  O   UNL A   1      31.884  26.032  25.873  1.00  0.00    -0.463 OA
BRANCH   4   5
ATOM      5  C   UNL A   1      31.900  24.773  26.378  1.00  0.00     0.312 C 
ATOM      6  O   UNL A   1      31.238  24.395  27.340  1.00  0.00    -0.252 OA
BRANCH   5   7
ATOM      7  C   UNL A   1      32.842  23.834  25.622  1.00  0.00     0.124 C 
ATOM      8  C   UNL A   1      34.107  25.008  23.892  1.00  0.00     0.106 C 
ATOM      9  C   UNL A   1      33.130  24.043  23.303  1.00  0.00    -0.006 C 
ATOM     10  C   UNL A   1      34.181  24.539  25.351  1.00  0.00     0.048 C 
ATOM     11  C   UNL A   1      32.427  23.407  24.245  1.00  0.00    -0.014 C 
BRANCH   8  12
ATOM     12  N   UNL A   1      33.552  26.334  23.774  1.00  0.00    -0.350 N 
ATOM     13  O   UNL A   1      33.855  26.462  21.520  1.00  0.00    -0.275 OA
ATOM     14  C   UNL A   1      33.431  26.970  22.559  1.00  0.00     0.226 C 
ATOM     15  H   UNL A   1      33.252  26.799  24.589  1.00  0.00     0.164 HD
BRANCH  14  16
ATOM     16  C   UNL A   1      32.871  28.383  22.575  1.00  0.00     0.157 C 
BRANCH  16  17
ATOM     17  C   UNL A   1      31.382  28.503  22.569  1.00  0.00     0.070 A 
ATOM     18  C   UNL A   1      30.429  27.752  23.256  1.00  0.00     0.118 A 
ATOM     19  N   UNL A   1      30.772  29.526  21.863  1.00  0.00    -0.223 NA
ATOM     20  N   UNL A   1      29.245  28.380  23.006  1.00  0.00    -0.297 N 
ATOM     21  C   UNL A   1      29.516  29.439  22.200  1.00  0.00     0.193 A 
ATOM     22  C   UNL A   1      27.919  28.211  23.337  1.00  0.00     0.104 A 
ATOM     23  S   UNL A   1      28.071  30.326  21.825  1.00  0.00    -0.105 S 
ATOM     24  C   UNL A   1      27.149  29.171  22.795  1.00  0.00     0.087 A 
ENDBRANCH  16  17
ENDBRANCH  14  16
ENDBRANCH   8  12
ENDBRANCH   5   7
ENDBRANCH   4   5
ENDBRANCH   3   4
ENDBRANCH   2   3
ENDBRANCH   1   2
BRANCH   1  25
ATOM     25  C   UNL A   1      31.498  30.518  26.397  1.00  0.00     0.202 C 
BRANCH  25  26
ATOM     26  C   UNL A   1      31.596  31.980  26.857  1.00  0.00     0.261 C 
BRANCH  26  27
ATOM     27  O   UNL A   1      32.893  32.573  26.654  1.00  0.00    -0.460 OA
BRANCH  27  28
ATOM     28  C   UNL A   1      33.406  33.196  27.745  1.00  0.00     0.338 C 
ATOM     29  O   UNL A   1      32.846  34.065  28.411  1.00  0.00    -0.246 OA
BRANCH  28  30
ATOM     30  C   UNL A   1      34.685  32.594  28.169  1.00  0.00     0.060 A 
ATOM     31  C   UNL A   1      34.645  31.289  28.674  1.00  0.00     0.016 A 
ATOM     32  C   UNL A   1      35.884  33.313  28.176  1.00  0.00     0.016 A 
ATOM     33  C   UNL A   1      35.791  30.714  29.221  1.00  0.00     0.010 A 
ATOM     34  C   UNL A   1      37.033  32.735  28.738  1.00  0.00     0.010 A 
ATOM     35  C   UNL A   1      36.987  31.441  29.286  1.00  0.00    -0.014 A 
BRANCH  35  36
ATOM     36  C   UNL A   1      38.133  30.870  30.043  1.00  0.00     0.031 A 
ATOM     37  C   UNL A   1      39.059  29.919  29.351  1.00  0.00     0.074 A 
ATOM     38  C   UNL A   1      38.383  31.244  31.311  1.00  0.00     0.049 A 
ATOM     39  N   UNL A   1      40.133  29.329  29.808  1.00  0.00    -0.248 NA
ATOM     40  C   UNL A   1      38.715  29.570  27.967  1.00  0.00     0.031 C 
ATOM     41  C   UNL A   1      37.538  32.150  32.070  1.00  0.00     0.029 A 
ATOM     42  N   UNL A   1      39.402  30.938  32.177  1.00  0.00    -0.354 N 
ATOM     43  C   UNL A   1      40.585  28.521  28.775  1.00  0.00     0.074 A 
ATOM     44  C   UNL A   1      39.660  28.690  27.673  1.00  0.00     0.031 C 
ATOM     45  C   UNL A   1      38.091  32.382  33.269  1.00  0.00     0.029 A 
ATOM     46  C   UNL A   1      39.301  31.576  33.396  1.00  0.00     0.049 A 
ATOM     47  H   UNL A   1      40.134  30.321  31.951  1.00  0.00     0.167 HD
ATOM     48  C   UNL A   1      41.666  27.700  28.760  1.00  0.00     0.034 A 
ATOM     49  C   UNL A   1      40.078  31.494  34.497  1.00  0.00     0.034 A 
ATOM     50  C   UNL A   1      42.548  27.520  29.889  1.00  0.00     0.049 A 
ATOM     51  C   UNL A   1      41.258  30.553  34.464  1.00  0.00     0.074 A 
ATOM     52  C   UNL A   1      43.662  26.705  29.992  1.00  0.00     0.029 A 
ATOM     53  N   UNL A   1      42.404  28.149  31.122  1.00  0.00    -0.354 N 
ATOM     54  N   UNL A   1      41.680  29.792  33.478  1.00  0.00    -0.248 NA
ATOM     55  C   UNL A   1      42.055  30.442  35.691  1.00  0.00     0.031 C 
ATOM     56  C   UNL A   1      44.145  26.784  31.303  1.00  0.00     0.029 A 
ATOM     57  C   UNL A   1      43.389  27.714  31.999  1.00  0.00     0.049 A 
ATOM     58  H   UNL A   1      41.706  28.807  31.341  1.00  0.00     0.167 HD
ATOM     59  C   UNL A   1      42.789  29.111  33.969  1.00  0.00     0.074 A 
ATOM     60  C   UNL A   1      42.995  29.582  35.324  1.00  0.00     0.031 C 
ATOM     61  C   UNL A   1      43.563  28.177  33.359  1.00  0.00     0.034 A 
BRANCH  48  62
ATOM     62  C   UNL A   1      41.877  26.880  27.511  1.00  0.00     0.023 A 
ATOM     63  C   UNL A   1      41.540  25.516  27.453  1.00  0.00     0.031 A 
ATOM     64  C   UNL A   1      42.501  27.451  26.389  1.00  0.00     0.131 A 
ATOM     65  C   UNL A   1      41.912  24.751  26.338  1.00  0.00     0.055 A 
ATOM     66  C   UNL A   1      42.790  26.704  25.246  1.00  0.00     0.041 A 
ATOM     67  F   UNL A   1      42.871  28.742  26.395  1.00  0.00    -0.206 F 
ATOM     68  C   UNL A   1      42.512  25.341  25.223  1.00  0.00     0.022 A 
BRANCH  65  69
ATOM     69  S   UNL A   1      41.757  22.946  26.434  1.00  0.00     0.124 S 
ATOM     70  O   UNL A   1      40.307  22.775  26.476  1.00  0.00    -0.237 OA
ATOM     71  O   UNL A   1      42.418  22.506  25.211  1.00  0.00    -0.237 OA
ATOM     72  O   UNL A   1      42.452  22.608  27.675  1.00  0.00    -0.744 OA
ENDBRANCH  65  69
ENDBRANCH  48  62
BRANCH  49  73
ATOM     73  C   UNL A   1      39.738  32.257  35.736  1.00  0.00     0.023 A 
ATOM     74  C   UNL A   1      38.793  31.779  36.661  1.00  0.00     0.031 A 
ATOM     75  C   UNL A   1      40.321  33.513  35.991  1.00  0.00     0.131 A 
ATOM     76  C   UNL A   1      38.436  32.564  37.771  1.00  0.00     0.055 A 
ATOM     77  C   UNL A   1      40.009  34.262  37.127  1.00  0.00     0.041 A 
ATOM     78  F   UNL A   1      41.219  34.032  35.137  1.00  0.00    -0.206 F 
ATOM     79  C   UNL A   1      39.052  33.793  38.020  1.00  0.00     0.022 A 
BRANCH  76  80
ATOM     80  S   UNL A   1      37.088  32.001  38.848  1.00  0.00     0.124 S 
ATOM     81  O   UNL A   1      36.986  30.592  38.488  1.00  0.00    -0.237 OA
ATOM     82  O   UNL A   1      37.619  32.287  40.177  1.00  0.00    -0.237 OA
ATOM     83  O   UNL A   1      35.957  32.833  38.442  1.00  0.00    -0.744 OA
ENDBRANCH  76  80
ENDBRANCH  49  73
BRANCH  61  84
ATOM     84  C   UNL A   1      44.720  27.624  34.158  1.00  0.00     0.023 A 
ATOM     85  C   UNL A   1      44.571  26.515  35.010  1.00  0.00     0.031 A 
ATOM     86  C   UNL A   1      45.988  28.225  34.071  1.00  0.00     0.131 A 
ATOM     87  C   UNL A   1      45.657  26.077  35.784  1.00  0.00     0.055 A 
ATOM     88  C   UNL A   1      47.081  27.745  34.795  1.00  0.00     0.041 A 
ATOM     89  F   UNL A   1      46.187  29.289  33.277  1.00  0.00    -0.206 F 
ATOM     90  C   UNL A   1      46.915  26.674  35.667  1.00  0.00     0.022 A 
BRANCH  87  91
ATOM     91  S   UNL A   1      45.383  24.774  37.017  1.00  0.00     0.124 S 
ATOM     92  O   UNL A   1      43.952  24.897  37.276  1.00  0.00    -0.237 OA
ATOM     93  O   UNL A   1      45.802  23.573  36.303  1.00  0.00    -0.237 OA
ATOM     94  O   UNL A   1      46.248  25.168  38.128  1.00  0.00    -0.744 OA
ENDBRANCH  87  91
ENDBRANCH  61  84
ENDBRANCH  35  36
ENDBRANCH  28  30
ENDBRANCH  27  28
ENDBRANCH  26  27
ENDBRANCH  25  26
ENDBRANCH   1  25
TORSDOF 20
ENDMDL
