MODEL 1
REMARK VINA RESULT:     -11.4      0.000      0.000
REMARK SMILES C[C@@H](NC(=O)[C@@H]1CC[C@@H]2CCCC[C@@H]2[NH2+]1)C(=O)OCCOCCOC(=O)c1ccc(-c2c3nc(c(-c4cc(S(=O)(=O)[O-])ccc4F)c4ccc([nH]4)c(-c4cc(S(=O)(=O)[O-])ccc4F)c4nc(c(-c5cc(S(=O)(=O)[O-])ccc5F)c5ccc2[nH]5)C=C4)C=C3)cc1
REMARK SMILES IDX 22 1 21 2 20 3 19 4 18 5 16 6 17 7 2 8 1 9 3 10 4 11 5 13
REMARK SMILES IDX 6 14 7 15 15 16 8 17 14 18 9 21 13 22 10 23 12 24 11 25
REMARK SMILES IDX 23 26 24 27 25 28 26 29 27 30 28 31 89 32 29 33 88 34 30 35
REMARK SMILES IDX 31 36 32 37 82 38 33 39 87 40 81 41 83 42 34 43 86 44 80 45
REMARK SMILES IDX 79 46 35 48 67 49 47 50 66 51 48 52 51 53 65 54 84 55 49 56
REMARK SMILES IDX 50 57 64 59 85 60 52 61 36 62 37 63 45 64 38 65 44 66 46 67
REMARK SMILES IDX 43 68 39 69 40 70 41 71 42 72 68 73 69 74 77 75 70 76 76 77
REMARK SMILES IDX 78 78 75 79 71 80 72 81 73 82 74 83 53 84 54 85 62 86 55 87
REMARK SMILES IDX 61 88 63 89 60 90 56 91 57 92 58 93 59 94
REMARK H PARENT 3 12 15 19 15 20 83 47 51 58
REMARK Flexibility Score: inf
ROOT
ATOM      1  C   UNL A   1      35.743  20.944  25.201  1.00  0.00     0.202 C 
ENDROOT
BRANCH   1   2
ATOM      2  O   UNL A   1      34.540  20.276  24.818  1.00  0.00    -0.374 OA
BRANCH   2   3
ATOM      3  C   UNL A   1      33.363  20.513  25.564  1.00  0.00     0.202 C 
BRANCH   3   4
ATOM      4  C   UNL A   1      32.156  21.209  24.904  1.00  0.00     0.261 C 
BRANCH   4   5
ATOM      5  O   UNL A   1      31.542  22.403  25.424  1.00  0.00    -0.462 OA
BRANCH   5   6
ATOM      6  C   UNL A   1      31.889  23.147  26.486  1.00  0.00     0.328 C 
ATOM      7  O   UNL A   1      31.523  22.973  27.639  1.00  0.00    -0.250 OA
BRANCH   6   8
ATOM      8  C   UNL A   1      32.670  24.400  26.036  1.00  0.00     0.189 C 
ATOM      9  C   UNL A   1      34.166  24.092  26.174  1.00  0.00     0.043 C 
BRANCH   8  10
ATOM     10  N   UNL A   1      32.406  24.986  24.709  1.00  0.00    -0.338 N 
ATOM     11  C   UNL A   1      32.117  26.272  24.331  1.00  0.00     0.278 C 
ATOM     12  H   UNL A   1      32.443  24.342  23.965  1.00  0.00     0.164 HD
ATOM     13  O   UNL A   1      32.598  26.625  23.247  1.00  0.00    -0.268 OA
BRANCH  11  14
ATOM     14  C   UNL A   1      31.102  27.167  25.088  1.00  0.00     0.272 C 
ATOM     15  C   UNL A   1      30.898  28.568  24.477  1.00  0.00     0.076 C 
ATOM     16  N   UNL A   1      31.291  27.261  26.531  1.00  0.00    -0.333 N 
ATOM     17  C   UNL A   1      31.779  29.667  25.088  1.00  0.00     0.016 C 
ATOM     18  C   UNL A   1      32.228  28.204  27.077  1.00  0.00     0.186 C 
ATOM     19  H   UNL A   1      31.585  26.337  26.849  1.00  0.00     0.347 HD
ATOM     20  H   UNL A   1      30.391  27.607  26.862  1.00  0.00     0.347 HD
ATOM     21  C   UNL A   1      31.783  29.589  26.624  1.00  0.00     0.048 C 
ATOM     22  C   UNL A   1      33.694  27.901  26.751  1.00  0.00     0.065 C 
ATOM     23  C   UNL A   1      32.675  30.619  27.312  1.00  0.00     0.010 C 
ATOM     24  C   UNL A   1      34.667  29.021  27.111  1.00  0.00     0.006 C 
ATOM     25  C   UNL A   1      34.144  30.448  26.952  1.00  0.00     0.001 C 
ENDBRANCH  11  14
ENDBRANCH   8  10
ENDBRANCH   6   8
ENDBRANCH   5   6
ENDBRANCH   4   5
ENDBRANCH   3   4
ENDBRANCH   2   3
ENDBRANCH   1   2
BRANCH   1  26
ATOM     26  C   UNL A   1      37.123  20.297  24.948  1.00  0.00     0.261 C 
BRANCH  26  27
ATOM     27  O   UNL A   1      38.205  21.234  25.096  1.00  0.00    -0.460 OA
BRANCH  27  28
ATOM     28  C   UNL A   1      39.209  20.894  25.933  1.00  0.00     0.338 C 
ATOM     29  O   UNL A   1      39.831  19.849  25.930  1.00  0.00    -0.246 OA
BRANCH  28  30
ATOM     30  C   UNL A   1      39.640  22.101  26.680  1.00  0.00     0.060 A 
ATOM     31  C   UNL A   1      39.086  23.332  26.296  1.00  0.00     0.016 A 
ATOM     32  C   UNL A   1      40.595  22.046  27.696  1.00  0.00     0.016 A 
ATOM     33  C   UNL A   1      39.536  24.519  26.874  1.00  0.00     0.010 A 
ATOM     34  C   UNL A   1      41.073  23.240  28.251  1.00  0.00     0.010 A 
ATOM     35  C   UNL A   1      40.583  24.482  27.802  1.00  0.00    -0.014 A 
BRANCH  35  36
ATOM     36  C   UNL A   1      41.368  25.719  28.052  1.00  0.00     0.031 A 
ATOM     37  C   UNL A   1      40.671  26.847  28.767  1.00  0.00     0.074 A 
ATOM     38  C   UNL A   1      42.657  25.841  27.691  1.00  0.00     0.049 A 
ATOM     39  N   UNL A   1      41.082  28.062  29.019  1.00  0.00    -0.248 NA
ATOM     40  C   UNL A   1      39.314  26.556  29.256  1.00  0.00     0.031 C 
ATOM     41  C   UNL A   1      43.462  24.795  27.066  1.00  0.00     0.029 A 
ATOM     42  N   UNL A   1      43.510  26.913  27.788  1.00  0.00    -0.354 N 
ATOM     43  C   UNL A   1      40.029  28.684  29.685  1.00  0.00     0.074 A 
ATOM     44  C   UNL A   1      38.954  27.721  29.767  1.00  0.00     0.031 C 
ATOM     45  C   UNL A   1      44.689  25.287  26.810  1.00  0.00     0.029 A 
ATOM     46  C   UNL A   1      44.737  26.693  27.211  1.00  0.00     0.049 A 
ATOM     47  H   UNL A   1      43.264  27.758  28.230  1.00  0.00     0.167 HD
ATOM     48  C   UNL A   1      39.965  29.944  30.181  1.00  0.00     0.034 A 
ATOM     49  C   UNL A   1      45.764  27.543  26.995  1.00  0.00     0.034 A 
ATOM     50  C   UNL A   1      41.039  30.898  30.065  1.00  0.00     0.049 A 
ATOM     51  C   UNL A   1      45.641  28.976  27.459  1.00  0.00     0.074 A 
ATOM     52  C   UNL A   1      41.087  32.205  30.518  1.00  0.00     0.029 A 
ATOM     53  N   UNL A   1      42.253  30.651  29.435  1.00  0.00    -0.354 N 
ATOM     54  N   UNL A   1      44.635  29.565  28.066  1.00  0.00    -0.248 NA
ATOM     55  C   UNL A   1      46.790  29.858  27.211  1.00  0.00     0.031 C 
ATOM     56  C   UNL A   1      42.298  32.768  30.098  1.00  0.00     0.029 A 
ATOM     57  C   UNL A   1      43.043  31.789  29.458  1.00  0.00     0.049 A 
ATOM     58  H   UNL A   1      42.515  29.791  29.032  1.00  0.00     0.167 HD
ATOM     59  C   UNL A   1      45.046  30.875  28.303  1.00  0.00     0.074 A 
ATOM     60  C   UNL A   1      46.388  30.991  27.771  1.00  0.00     0.031 C 
ATOM     61  C   UNL A   1      44.379  31.887  28.918  1.00  0.00     0.034 A 
BRANCH  48  62
ATOM     62  C   UNL A   1      38.659  30.367  30.811  1.00  0.00     0.023 A 
ATOM     63  C   UNL A   1      37.717  31.147  30.118  1.00  0.00     0.031 A 
ATOM     64  C   UNL A   1      38.389  30.052  32.155  1.00  0.00     0.131 A 
ATOM     65  C   UNL A   1      36.600  31.663  30.794  1.00  0.00     0.055 A 
ATOM     66  C   UNL A   1      37.230  30.492  32.797  1.00  0.00     0.041 A 
ATOM     67  F   UNL A   1      39.262  29.333  32.878  1.00  0.00    -0.206 F 
ATOM     68  C   UNL A   1      36.337  31.320  32.122  1.00  0.00     0.022 A 
BRANCH  65  69
ATOM     69  S   UNL A   1      35.597  32.932  29.971  1.00  0.00     0.124 S 
ATOM     70  O   UNL A   1      35.902  34.115  30.773  1.00  0.00    -0.237 OA
ATOM     71  O   UNL A   1      36.131  32.924  28.614  1.00  0.00    -0.237 OA
ATOM     72  O   UNL A   1      34.231  32.432  30.109  1.00  0.00    -0.744 OA
ENDBRANCH  65  69
ENDBRANCH  48  62
BRANCH  49  73
ATOM     73  C   UNL A   1      46.971  27.082  26.250  1.00  0.00     0.023 A 
ATOM     74  C   UNL A   1      48.054  26.477  26.909  1.00  0.00     0.031 A 
ATOM     75  C   UNL A   1      47.065  27.264  24.858  1.00  0.00     0.131 A 
ATOM     76  C   UNL A   1      49.193  26.100  26.179  1.00  0.00     0.055 A 
ATOM     77  C   UNL A   1      48.181  26.847  24.131  1.00  0.00     0.041 A 
ATOM     78  F   UNL A   1      46.059  27.840  24.180  1.00  0.00    -0.206 F 
ATOM     79  C   UNL A   1      49.257  26.267  24.793  1.00  0.00     0.022 A 
BRANCH  76  80
ATOM     80  S   UNL A   1      50.620  25.429  27.075  1.00  0.00     0.124 S 
ATOM     81  O   UNL A   1      51.594  25.263  26.002  1.00  0.00    -0.237 OA
ATOM     82  O   UNL A   1      50.899  26.488  28.039  1.00  0.00    -0.237 OA
ATOM     83  O   UNL A   1      50.108  24.187  27.651  1.00  0.00    -0.744 OA
ENDBRANCH  76  80
ENDBRANCH  49  73
BRANCH  61  84
ATOM     84  C   UNL A   1      45.117  33.191  29.109  1.00  0.00     0.023 A 
ATOM     85  C   UNL A   1      44.979  34.266  28.215  1.00  0.00     0.031 A 
ATOM     86  C   UNL A   1      45.952  33.363  30.228  1.00  0.00     0.131 A 
ATOM     87  C   UNL A   1      45.695  35.454  28.436  1.00  0.00     0.055 A 
ATOM     88  C   UNL A   1      46.619  34.563  30.472  1.00  0.00     0.041 A 
ATOM     89  F   UNL A   1      46.119  32.366  31.113  1.00  0.00    -0.206 F 
ATOM     90  C   UNL A   1      46.500  35.614  29.568  1.00  0.00     0.022 A 
BRANCH  87  91
ATOM     91  S   UNL A   1      45.616  36.770  27.190  1.00  0.00     0.124 S 
ATOM     92  O   UNL A   1      46.134  37.917  27.928  1.00  0.00    -0.237 OA
ATOM     93  O   UNL A   1      46.476  36.251  26.132  1.00  0.00    -0.237 OA
ATOM     94  O   UNL A   1      44.195  36.839  26.854  1.00  0.00    -0.744 OA
ENDBRANCH  87  91
ENDBRANCH  61  84
ENDBRANCH  35  36
ENDBRANCH  28  30
ENDBRANCH  27  28
ENDBRANCH  26  27
ENDBRANCH   1  26
TORSDOF 19
ENDMDL
MODEL 2
REMARK VINA RESULT:     -11.1      4.602      8.092
REMARK SMILES C[C@@H](NC(=O)[C@@H]1CC[C@@H]2CCCC[C@@H]2[NH2+]1)C(=O)OCCOCCOC(=O)c1ccc(-c2c3nc(c(-c4cc(S(=O)(=O)[O-])ccc4F)c4ccc([nH]4)c(-c4cc(S(=O)(=O)[O-])ccc4F)c4nc(c(-c5cc(S(=O)(=O)[O-])ccc5F)c5ccc2[nH]5)C=C4)C=C3)cc1
REMARK SMILES IDX 22 1 21 2 20 3 19 4 18 5 16 6 17 7 2 8 1 9 3 10 4 11 5 13
REMARK SMILES IDX 6 14 7 15 15 16 8 17 14 18 9 21 13 22 10 23 12 24 11 25
REMARK SMILES IDX 23 26 24 27 25 28 26 29 27 30 28 31 89 32 29 33 88 34 30 35
REMARK SMILES IDX 31 36 32 37 82 38 33 39 87 40 81 41 83 42 34 43 86 44 80 45
REMARK SMILES IDX 79 46 35 48 67 49 47 50 66 51 48 52 51 53 65 54 84 55 49 56
REMARK SMILES IDX 50 57 64 59 85 60 52 61 36 62 37 63 45 64 38 65 44 66 46 67
REMARK SMILES IDX 43 68 39 69 40 70 41 71 42 72 68 73 69 74 77 75 70 76 76 77
REMARK SMILES IDX 78 78 75 79 71 80 72 81 73 82 74 83 53 84 54 85 62 86 55 87
REMARK SMILES IDX 61 88 63 89 60 90 56 91 57 92 58 93 59 94
REMARK H PARENT 3 12 15 19 15 20 83 47 51 58
REMARK Flexibility Score: inf
ROOT
ATOM      1  C   UNL A   1      31.066  31.810  26.220  1.00  0.00     0.202 C 
ENDROOT
BRANCH   1   2
ATOM      2  O   UNL A   1      31.754  30.569  26.059  1.00  0.00    -0.374 OA
BRANCH   2   3
ATOM      3  C   UNL A   1      31.448  29.761  24.941  1.00  0.00     0.202 C 
BRANCH   3   4
ATOM      4  C   UNL A   1      32.582  29.158  24.088  1.00  0.00     0.261 C 
BRANCH   4   5
ATOM      5  O   UNL A   1      32.360  28.237  23.004  1.00  0.00    -0.462 OA
BRANCH   5   6
ATOM      6  C   UNL A   1      31.252  27.553  22.679  1.00  0.00     0.328 C 
ATOM      7  O   UNL A   1      30.248  28.013  22.155  1.00  0.00    -0.250 OA
BRANCH   6   8
ATOM      8  C   UNL A   1      31.321  26.115  23.236  1.00  0.00     0.189 C 
ATOM      9  C   UNL A   1      29.923  25.744  23.746  1.00  0.00     0.043 C 
BRANCH   8  10
ATOM     10  N   UNL A   1      31.843  25.029  22.386  1.00  0.00    -0.338 N 
ATOM     11  C   UNL A   1      32.787  24.065  22.630  1.00  0.00     0.278 C 
ATOM     12  H   UNL A   1      31.444  24.989  21.486  1.00  0.00     0.164 HD
ATOM     13  O   UNL A   1      32.563  22.963  22.115  1.00  0.00    -0.268 OA
BRANCH  11  14
ATOM     14  C   UNL A   1      34.139  24.366  23.326  1.00  0.00     0.272 C 
ATOM     15  C   UNL A   1      35.066  23.143  23.487  1.00  0.00     0.076 C 
ATOM     16  N   UNL A   1      34.059  25.115  24.574  1.00  0.00    -0.333 N 
ATOM     17  C   UNL A   1      34.942  22.420  24.836  1.00  0.00     0.016 C 
ATOM     18  C   UNL A   1      33.801  24.432  25.812  1.00  0.00     0.186 C 
ATOM     19  H   UNL A   1      33.314  25.802  24.456  1.00  0.00     0.347 HD
ATOM     20  H   UNL A   1      35.008  25.468  24.696  1.00  0.00     0.347 HD
ATOM     21  C   UNL A   1      34.923  23.418  26.005  1.00  0.00     0.048 C 
ATOM     22  C   UNL A   1      32.403  23.815  25.914  1.00  0.00     0.065 C 
ATOM     23  C   UNL A   1      34.753  22.784  27.382  1.00  0.00     0.010 C 
ATOM     24  C   UNL A   1      32.208  22.883  27.108  1.00  0.00     0.006 C 
ATOM     25  C   UNL A   1      33.424  22.057  27.527  1.00  0.00     0.001 C 
ENDBRANCH  11  14
ENDBRANCH   8  10
ENDBRANCH   6   8
ENDBRANCH   5   6
ENDBRANCH   4   5
ENDBRANCH   3   4
ENDBRANCH   2   3
ENDBRANCH   1   2
BRANCH   1  26
ATOM     26  C   UNL A   1      31.791  33.051  26.786  1.00  0.00     0.261 C 
BRANCH  26  27
ATOM     27  O   UNL A   1      32.802  32.704  27.750  1.00  0.00    -0.460 OA
BRANCH  27  28
ATOM     28  C   UNL A   1      33.799  33.593  27.951  1.00  0.00     0.338 C 
ATOM     29  O   UNL A   1      33.674  34.784  28.166  1.00  0.00    -0.246 OA
BRANCH  28  30
ATOM     30  C   UNL A   1      35.067  32.853  28.158  1.00  0.00     0.060 A 
ATOM     31  C   UNL A   1      34.996  31.452  28.220  1.00  0.00     0.016 A 
ATOM     32  C   UNL A   1      36.289  33.503  28.335  1.00  0.00     0.016 A 
ATOM     33  C   UNL A   1      36.130  30.702  28.532  1.00  0.00     0.010 A 
ATOM     34  C   UNL A   1      37.419  32.753  28.683  1.00  0.00     0.010 A 
ATOM     35  C   UNL A   1      37.329  31.356  28.836  1.00  0.00    -0.014 A 
BRANCH  35  36
ATOM     36  C   UNL A   1      38.371  30.629  29.609  1.00  0.00     0.031 A 
ATOM     37  C   UNL A   1      38.529  30.990  31.063  1.00  0.00     0.074 A 
ATOM     38  C   UNL A   1      39.133  29.667  29.063  1.00  0.00     0.049 A 
ATOM     39  N   UNL A   1      39.419  30.592  31.933  1.00  0.00    -0.248 NA
ATOM     40  C   UNL A   1      37.545  31.942  31.599  1.00  0.00     0.031 C 
ATOM     41  C   UNL A   1      39.021  29.174  27.692  1.00  0.00     0.029 A 
ATOM     42  N   UNL A   1      40.168  28.941  29.600  1.00  0.00    -0.354 N 
ATOM     43  C   UNL A   1      39.109  31.256  33.117  1.00  0.00     0.074 A 
ATOM     44  C   UNL A   1      37.970  32.102  32.841  1.00  0.00     0.031 C 
ATOM     45  C   UNL A   1      39.970  28.242  27.487  1.00  0.00     0.029 A 
ATOM     46  C   UNL A   1      40.784  28.109  28.697  1.00  0.00     0.049 A 
ATOM     47  H   UNL A   1      40.440  29.009  30.544  1.00  0.00     0.167 HD
ATOM     48  C   UNL A   1      39.720  31.167  34.325  1.00  0.00     0.034 A 
ATOM     49  C   UNL A   1      41.899  27.359  28.821  1.00  0.00     0.034 A 
ATOM     50  C   UNL A   1      40.870  30.336  34.573  1.00  0.00     0.049 A 
ATOM     51  C   UNL A   1      42.633  27.349  30.142  1.00  0.00     0.074 A 
ATOM     52  C   UNL A   1      41.580  30.171  35.750  1.00  0.00     0.029 A 
ATOM     53  N   UNL A   1      41.492  29.538  33.619  1.00  0.00    -0.354 N 
ATOM     54  N   UNL A   1      42.350  27.996  31.251  1.00  0.00    -0.248 NA
ATOM     55  C   UNL A   1      43.835  26.509  30.231  1.00  0.00     0.031 C 
ATOM     56  C   UNL A   1      42.671  29.335  35.488  1.00  0.00     0.029 A 
ATOM     57  C   UNL A   1      42.595  28.907  34.171  1.00  0.00     0.049 A 
ATOM     58  H   UNL A   1      41.191  29.437  32.687  1.00  0.00     0.167 HD
ATOM     59  C   UNL A   1      43.318  27.611  32.176  1.00  0.00     0.074 A 
ATOM     60  C   UNL A   1      44.194  26.680  31.496  1.00  0.00     0.031 C 
ATOM     61  C   UNL A   1      43.461  27.984  33.475  1.00  0.00     0.034 A 
BRANCH  48  62
ATOM     62  C   UNL A   1      39.193  32.057  35.426  1.00  0.00     0.023 A 
ATOM     63  C   UNL A   1      39.584  33.403  35.546  1.00  0.00     0.031 A 
ATOM     64  C   UNL A   1      38.348  31.529  36.418  1.00  0.00     0.131 A 
ATOM     65  C   UNL A   1      39.210  34.143  36.679  1.00  0.00     0.055 A 
ATOM     66  C   UNL A   1      37.904  32.298  37.495  1.00  0.00     0.041 A 
ATOM     67  F   UNL A   1      37.960  30.244  36.373  1.00  0.00    -0.206 F 
ATOM     68  C   UNL A   1      38.352  33.608  37.641  1.00  0.00     0.022 A 
BRANCH  65  69
ATOM     69  S   UNL A   1      40.006  35.748  36.967  1.00  0.00     0.124 S 
ATOM     70  O   UNL A   1      41.411  35.364  37.084  1.00  0.00    -0.237 OA
ATOM     71  O   UNL A   1      39.646  36.498  35.769  1.00  0.00    -0.237 OA
ATOM     72  O   UNL A   1      39.392  36.218  38.207  1.00  0.00    -0.744 OA
ENDBRANCH  65  69
ENDBRANCH  48  62
BRANCH  49  73
ATOM     73  C   UNL A   1      42.428  26.606  27.647  1.00  0.00     0.023 A 
ATOM     74  C   UNL A   1      42.121  25.252  27.444  1.00  0.00     0.031 A 
ATOM     75  C   UNL A   1      43.276  27.237  26.717  1.00  0.00     0.131 A 
ATOM     76  C   UNL A   1      42.678  24.565  26.352  1.00  0.00     0.055 A 
ATOM     77  C   UNL A   1      43.791  26.562  25.610  1.00  0.00     0.041 A 
ATOM     78  F   UNL A   1      43.605  28.530  26.867  1.00  0.00    -0.206 F 
ATOM     79  C   UNL A   1      43.498  25.215  25.426  1.00  0.00     0.022 A 
BRANCH  76  80
ATOM     80  S   UNL A   1      42.355  22.788  26.183  1.00  0.00     0.124 S 
ATOM     81  O   UNL A   1      43.106  22.242  27.308  1.00  0.00    -0.237 OA
ATOM     82  O   UNL A   1      40.902  22.731  26.291  1.00  0.00    -0.237 OA
ATOM     83  O   UNL A   1      42.892  22.469  24.861  1.00  0.00    -0.744 OA
ENDBRANCH  76  80
ENDBRANCH  49  73
BRANCH  61  84
ATOM     84  C   UNL A   1      44.569  27.331  34.268  1.00  0.00     0.023 A 
ATOM     85  C   UNL A   1      44.391  26.109  34.936  1.00  0.00     0.031 A 
ATOM     86  C   UNL A   1      45.836  27.941  34.325  1.00  0.00     0.131 A 
ATOM     87  C   UNL A   1      45.454  25.552  35.667  1.00  0.00     0.055 A 
ATOM     88  C   UNL A   1      46.903  27.357  35.008  1.00  0.00     0.041 A 
ATOM     89  F   UNL A   1      46.060  29.110  33.704  1.00  0.00    -0.206 F 
ATOM     90  C   UNL A   1      46.713  26.160  35.691  1.00  0.00     0.022 A 
BRANCH  87  91
ATOM     91  S   UNL A   1      45.155  24.053  36.643  1.00  0.00     0.124 S 
ATOM     92  O   UNL A   1      44.175  23.348  35.822  1.00  0.00    -0.237 OA
ATOM     93  O   UNL A   1      46.483  23.453  36.708  1.00  0.00    -0.237 OA
ATOM     94  O   UNL A   1      44.645  24.566  37.913  1.00  0.00    -0.744 OA
ENDBRANCH  87  91
ENDBRANCH  61  84
ENDBRANCH  35  36
ENDBRANCH  28  30
ENDBRANCH  27  28
ENDBRANCH  26  27
ENDBRANCH   1  26
TORSDOF 19
ENDMDL
MODEL 3
REMARK VINA RESULT:     -11.1      4.859     10.182
REMARK SMILES C[C@@H](NC(=O)[C@@H]1CC[C@@H]2CCCC[C@@H]2[NH2+]1)C(=O)OCCOCCOC(=O)c1ccc(-c2c3nc(c(-c4cc(S(=O)(=O)[O-])ccc4F)c4ccc([nH]4)c(-c4cc(S(=O)(=O)[O-])ccc4F)c4nc(c(-c5cc(S(=O)(=O)[O-])ccc5F)c5ccc2[nH]5)C=C4)C=C3)cc1
REMARK SMILES IDX 22 1 21 2 20 3 19 4 18 5 16 6 17 7 2 8 1 9 3 10 4 11 5 13
REMARK SMILES IDX 6 14 7 15 15 16 8 17 14 18 9 21 13 22 10 23 12 24 11 25
REMARK SMILES IDX 23 26 24 27 25 28 26 29 27 30 28 31 89 32 29 33 88 34 30 35
REMARK SMILES IDX 31 36 32 37 82 38 33 39 87 40 81 41 83 42 34 43 86 44 80 45
REMARK SMILES IDX 79 46 35 48 67 49 47 50 66 51 48 52 51 53 65 54 84 55 49 56
REMARK SMILES IDX 50 57 64 59 85 60 52 61 36 62 37 63 45 64 38 65 44 66 46 67
REMARK SMILES IDX 43 68 39 69 40 70 41 71 42 72 68 73 69 74 77 75 70 76 76 77
REMARK SMILES IDX 78 78 75 79 71 80 72 81 73 82 74 83 53 84 54 85 62 86 55 87
REMARK SMILES IDX 61 88 63 89 60 90 56 91 57 92 58 93 59 94
REMARK H PARENT 3 12 15 19 15 20 83 47 51 58
REMARK Flexibility Score: inf
ROOT
ATOM      1  C   UNL A   1      31.790  29.732  25.560  1.00  0.00     0.202 C 
ENDROOT
BRANCH   1   2
ATOM      2  O   UNL A   1      31.016  29.599  24.367  1.00  0.00    -0.374 OA
BRANCH   2   3
ATOM      3  C   UNL A   1      31.503  28.777  23.326  1.00  0.00     0.202 C 
BRANCH   3   4
ATOM      4  C   UNL A   1      30.768  27.472  22.961  1.00  0.00     0.261 C 
BRANCH   4   5
ATOM      5  O   UNL A   1      30.957  26.229  23.662  1.00  0.00    -0.462 OA
BRANCH   5   6
ATOM      6  C   UNL A   1      30.568  25.879  24.899  1.00  0.00     0.328 C 
ATOM      7  O   UNL A   1      29.454  26.035  25.376  1.00  0.00    -0.250 OA
BRANCH   6   8
ATOM      8  C   UNL A   1      31.780  25.420  25.737  1.00  0.00     0.189 C 
ATOM      9  C   UNL A   1      32.311  26.640  26.499  1.00  0.00     0.043 C 
BRANCH   8  10
ATOM     10  N   UNL A   1      31.636  24.281  26.663  1.00  0.00    -0.338 N 
ATOM     11  C   UNL A   1      32.314  23.092  26.745  1.00  0.00     0.278 C 
ATOM     12  H   UNL A   1      30.930  24.395  27.341  1.00  0.00     0.164 HD
ATOM     13  O   UNL A   1      32.501  22.668  27.892  1.00  0.00    -0.268 OA
BRANCH  11  14
ATOM     14  C   UNL A   1      32.651  22.225  25.505  1.00  0.00     0.272 C 
ATOM     15  C   UNL A   1      33.380  20.904  25.821  1.00  0.00     0.076 C 
ATOM     16  N   UNL A   1      33.307  22.921  24.403  1.00  0.00    -0.333 N 
ATOM     17  C   UNL A   1      34.911  20.982  25.738  1.00  0.00     0.016 C 
ATOM     18  C   UNL A   1      34.732  23.107  24.413  1.00  0.00     0.186 C 
ATOM     19  H   UNL A   1      32.889  23.850  24.353  1.00  0.00     0.347 HD
ATOM     20  H   UNL A   1      33.159  22.296  23.612  1.00  0.00     0.347 HD
ATOM     21  C   UNL A   1      35.364  21.721  24.467  1.00  0.00     0.048 C 
ATOM     22  C   UNL A   1      35.239  24.047  25.512  1.00  0.00     0.065 C 
ATOM     23  C   UNL A   1      36.875  21.886  24.330  1.00  0.00     0.010 C 
ATOM     24  C   UNL A   1      36.756  24.056  25.687  1.00  0.00     0.006 C 
ATOM     25  C   UNL A   1      37.471  22.727  25.450  1.00  0.00     0.001 C 
ENDBRANCH  11  14
ENDBRANCH   8  10
ENDBRANCH   6   8
ENDBRANCH   5   6
ENDBRANCH   4   5
ENDBRANCH   3   4
ENDBRANCH   2   3
ENDBRANCH   1   2
BRANCH   1  26
ATOM     26  C   UNL A   1      31.773  31.044  26.373  1.00  0.00     0.261 C 
BRANCH  26  27
ATOM     27  O   UNL A   1      32.728  31.036  27.450  1.00  0.00    -0.460 OA
BRANCH  27  28
ATOM     28  C   UNL A   1      33.497  32.135  27.606  1.00  0.00     0.338 C 
ATOM     29  O   UNL A   1      33.106  33.281  27.728  1.00  0.00    -0.246 OA
BRANCH  28  30
ATOM     30  C   UNL A   1      34.888  31.710  27.896  1.00  0.00     0.060 A 
ATOM     31  C   UNL A   1      35.119  30.338  28.086  1.00  0.00     0.016 A 
ATOM     32  C   UNL A   1      35.934  32.623  28.027  1.00  0.00     0.016 A 
ATOM     33  C   UNL A   1      36.377  29.883  28.479  1.00  0.00     0.010 A 
ATOM     34  C   UNL A   1      37.188  32.171  28.456  1.00  0.00     0.010 A 
ATOM     35  C   UNL A   1      37.397  30.806  28.736  1.00  0.00    -0.014 A 
BRANCH  35  36
ATOM     36  C   UNL A   1      38.545  30.394  29.586  1.00  0.00     0.031 A 
ATOM     37  C   UNL A   1      39.471  29.343  29.032  1.00  0.00     0.074 A 
ATOM     38  C   UNL A   1      38.785  30.942  30.789  1.00  0.00     0.049 A 
ATOM     39  N   UNL A   1      40.479  28.731  29.597  1.00  0.00    -0.248 NA
ATOM     40  C   UNL A   1      39.210  28.921  27.647  1.00  0.00     0.031 C 
ATOM     41  C   UNL A   1      38.010  32.021  31.396  1.00  0.00     0.029 A 
ATOM     42  N   UNL A   1      39.749  30.650  31.723  1.00  0.00    -0.354 N 
ATOM     43  C   UNL A   1      40.964  27.844  28.641  1.00  0.00     0.074 A 
ATOM     44  C   UNL A   1      40.119  27.977  27.475  1.00  0.00     0.031 C 
ATOM     45  C   UNL A   1      38.513  32.283  32.617  1.00  0.00     0.029 A 
ATOM     46  C   UNL A   1      39.615  31.359  32.892  1.00  0.00     0.049 A 
ATOM     47  H   UNL A   1      40.467  29.996  31.567  1.00  0.00     0.167 HD
ATOM     48  C   UNL A   1      42.017  26.994  28.728  1.00  0.00     0.034 A 
ATOM     49  C   UNL A   1      40.279  31.245  34.062  1.00  0.00     0.034 A 
ATOM     50  C   UNL A   1      42.831  26.858  29.909  1.00  0.00     0.049 A 
ATOM     51  C   UNL A   1      41.383  30.220  34.182  1.00  0.00     0.074 A 
ATOM     52  C   UNL A   1      43.916  26.025  30.120  1.00  0.00     0.029 A 
ATOM     53  N   UNL A   1      42.637  27.564  31.091  1.00  0.00    -0.354 N 
ATOM     54  N   UNL A   1      41.822  29.368  33.284  1.00  0.00    -0.248 NA
ATOM     55  C   UNL A   1      42.083  30.143  35.472  1.00  0.00     0.031 C 
ATOM     56  C   UNL A   1      44.330  26.175  31.449  1.00  0.00     0.029 A 
ATOM     57  C   UNL A   1      43.560  27.163  32.043  1.00  0.00     0.049 A 
ATOM     58  H   UNL A   1      41.945  28.251  31.229  1.00  0.00     0.167 HD
ATOM     59  C   UNL A   1      42.872  28.680  33.889  1.00  0.00     0.074 A 
ATOM     60  C   UNL A   1      42.997  29.213  35.230  1.00  0.00     0.031 C 
ATOM     61  C   UNL A   1      43.667  27.705  33.378  1.00  0.00     0.034 A 
BRANCH  48  62
ATOM     62  C   UNL A   1      42.277  26.101  27.538  1.00  0.00     0.023 A 
ATOM     63  C   UNL A   1      41.897  24.747  27.527  1.00  0.00     0.031 A 
ATOM     64  C   UNL A   1      42.989  26.592  26.428  1.00  0.00     0.131 A 
ATOM     65  C   UNL A   1      42.311  23.911  26.477  1.00  0.00     0.055 A 
ATOM     66  C   UNL A   1      43.318  25.776  25.344  1.00  0.00     0.041 A 
ATOM     67  F   UNL A   1      43.403  27.868  26.391  1.00  0.00    -0.206 F 
ATOM     68  C   UNL A   1      42.997  24.422  25.374  1.00  0.00     0.022 A 
BRANCH  65  69
ATOM     69  S   UNL A   1      42.099  22.118  26.661  1.00  0.00     0.124 S 
ATOM     70  O   UNL A   1      40.989  21.857  25.748  1.00  0.00    -0.237 OA
ATOM     71  O   UNL A   1      43.401  21.604  26.251  1.00  0.00    -0.237 OA
ATOM     72  O   UNL A   1      41.780  21.955  28.078  1.00  0.00    -0.744 OA
ENDBRANCH  65  69
ENDBRANCH  48  62
BRANCH  49  73
ATOM     73  C   UNL A   1      39.877  32.076  35.233  1.00  0.00     0.023 A 
ATOM     74  C   UNL A   1      39.005  31.586  36.218  1.00  0.00     0.031 A 
ATOM     75  C   UNL A   1      40.349  33.395  35.369  1.00  0.00     0.131 A 
ATOM     76  C   UNL A   1      38.613  32.417  37.281  1.00  0.00     0.055 A 
ATOM     77  C   UNL A   1      39.992  34.202  36.449  1.00  0.00     0.041 A 
ATOM     78  F   UNL A   1      41.183  33.914  34.452  1.00  0.00    -0.206 F 
ATOM     79  C   UNL A   1      39.112  33.716  37.410  1.00  0.00     0.022 A 
BRANCH  76  80
ATOM     80  S   UNL A   1      37.395  31.793  38.471  1.00  0.00     0.124 S 
ATOM     81  O   UNL A   1      38.113  31.936  39.733  1.00  0.00    -0.237 OA
ATOM     82  O   UNL A   1      36.273  32.703  38.263  1.00  0.00    -0.237 OA
ATOM     83  O   UNL A   1      37.166  30.417  38.035  1.00  0.00    -0.744 OA
ENDBRANCH  76  80
ENDBRANCH  49  73
BRANCH  61  84
ATOM     84  C   UNL A   1      44.792  27.196  34.250  1.00  0.00     0.023 A 
ATOM     85  C   UNL A   1      44.634  26.095  35.108  1.00  0.00     0.031 A 
ATOM     86  C   UNL A   1      46.053  27.817  34.193  1.00  0.00     0.131 A 
ATOM     87  C   UNL A   1      45.710  25.670  35.903  1.00  0.00     0.055 A 
ATOM     88  C   UNL A   1      47.134  27.357  34.945  1.00  0.00     0.041 A 
ATOM     89  F   UNL A   1      46.258  28.874  33.389  1.00  0.00    -0.206 F 
ATOM     90  C   UNL A   1      46.964  26.284  35.813  1.00  0.00     0.022 A 
BRANCH  87  91
ATOM     91  S   UNL A   1      45.438  24.343  37.110  1.00  0.00     0.124 S 
ATOM     92  O   UNL A   1      45.149  23.203  36.246  1.00  0.00    -0.237 OA
ATOM     93  O   UNL A   1      46.713  24.300  37.819  1.00  0.00    -0.237 OA
ATOM     94  O   UNL A   1      44.307  24.825  37.901  1.00  0.00    -0.744 OA
ENDBRANCH  87  91
ENDBRANCH  61  84
ENDBRANCH  35  36
ENDBRANCH  28  30
ENDBRANCH  27  28
ENDBRANCH  26  27
ENDBRANCH   1  26
TORSDOF 19
ENDMDL
