MODEL 1
REMARK VINA RESULT:     -10.5      0.000      0.000
REMARK SMILES O=C(CCCC(=O)N1CCN(c2ncccn2)CC1)OCCOCCOC(=O)c1ccc(-c2c3nc(c(-c4cc(S(=O)(=O)[O-])ccc4F)c4ccc([nH]4)c(-c4cc(S(=O)(=O)[O-])ccc4F)c4nc(c(-c5cc(S(=O)(=O)[O-])ccc5F)c5ccc2[nH]5)C=C4)C=C3)cc1
REMARK SMILES IDX 22 1 21 2 20 3 2 4 1 5 3 6 4 7 5 8 6 9 7 10 8 11 9 12 19 13
REMARK SMILES IDX 10 14 18 15 11 16 12 17 13 18 17 19 14 20 16 21 15 22 23 23
REMARK SMILES IDX 24 24 25 25 26 26 27 27 28 28 29 29 30 30 91 31 31 32 90 33
REMARK SMILES IDX 32 34 33 35 34 36 84 37 35 38 89 39 83 40 85 41 36 42 88 43
REMARK SMILES IDX 82 44 81 45 37 47 69 48 49 49 68 50 50 51 53 52 67 53 86 54
REMARK SMILES IDX 51 55 52 56 66 58 87 59 54 60 38 61 39 62 47 63 40 64 46 65
REMARK SMILES IDX 48 66 45 67 41 68 42 69 43 70 44 71 70 72 71 73 79 74 72 75
REMARK SMILES IDX 78 76 80 77 77 78 73 79 74 80 75 81 76 82 55 83 56 84 64 85
REMARK SMILES IDX 57 86 63 87 65 88 62 89 58 90 59 91 60 92 61 93
REMARK H PARENT 85 46 53 57
REMARK Flexibility Score: inf
ROOT
ATOM      1  C   UNL A   1      32.015  26.131  26.460  1.00  0.00     0.202 C 
ENDROOT
BRANCH   1   2
ATOM      2  C   UNL A   1      33.356  25.530  26.027  1.00  0.00     0.261 C 
BRANCH   2   3
ATOM      3  O   UNL A   1      33.546  24.256  26.659  1.00  0.00    -0.463 OA
BRANCH   3   4
ATOM      4  C   UNL A   1      34.449  23.473  26.028  1.00  0.00     0.305 C 
ATOM      5  O   UNL A   1      34.752  22.342  26.395  1.00  0.00    -0.252 OA
BRANCH   4   6
ATOM      6  C   UNL A   1      35.194  24.205  24.931  1.00  0.00     0.123 C 
BRANCH   6   7
ATOM      7  C   UNL A   1      35.140  23.686  23.486  1.00  0.00     0.022 C 
BRANCH   7   8
ATOM      8  C   UNL A   1      33.862  23.774  22.648  1.00  0.00     0.101 C 
BRANCH   8   9
ATOM      9  C   UNL A   1      32.378  23.852  23.048  1.00  0.00     0.222 C 
ATOM     10  O   UNL A   1      31.945  22.845  23.635  1.00  0.00    -0.275 OA
ATOM     11  N   UNL A   1      31.554  24.945  22.913  1.00  0.00    -0.339 N 
ATOM     12  C   UNL A   1      30.235  24.872  23.575  1.00  0.00     0.141 C 
ATOM     13  C   UNL A   1      31.627  25.940  21.860  1.00  0.00     0.141 C 
ATOM     14  C   UNL A   1      29.456  26.192  23.800  1.00  0.00     0.141 C 
ATOM     15  C   UNL A   1      31.121  27.316  22.298  1.00  0.00     0.141 C 
ATOM     16  N   UNL A   1      29.760  27.251  22.830  1.00  0.00    -0.337 N 
BRANCH  16  17
ATOM     17  C   UNL A   1      29.296  28.528  23.149  1.00  0.00     0.225 A 
ATOM     18  N   UNL A   1      30.146  29.469  23.595  1.00  0.00    -0.221 NA
ATOM     19  N   UNL A   1      27.998  28.790  22.906  1.00  0.00    -0.221 NA
ATOM     20  C   UNL A   1      29.677  30.722  23.754  1.00  0.00     0.117 A 
ATOM     21  C   UNL A   1      27.561  30.042  23.134  1.00  0.00     0.117 A 
ATOM     22  C   UNL A   1      28.369  31.070  23.541  1.00  0.00     0.040 A 
ENDBRANCH  16  17
ENDBRANCH   8   9
ENDBRANCH   7   8
ENDBRANCH   6   7
ENDBRANCH   4   6
ENDBRANCH   3   4
ENDBRANCH   2   3
ENDBRANCH   1   2
BRANCH   1  23
ATOM     23  O   UNL A   1      31.877  27.512  26.108  1.00  0.00    -0.374 OA
BRANCH  23  24
ATOM     24  C   UNL A   1      33.005  28.096  25.457  1.00  0.00     0.202 C 
BRANCH  24  25
ATOM     25  C   UNL A   1      33.106  29.617  25.642  1.00  0.00     0.261 C 
BRANCH  25  26
ATOM     26  O   UNL A   1      32.844  30.027  26.991  1.00  0.00    -0.460 OA
BRANCH  26  27
ATOM     27  C   UNL A   1      33.489  31.176  27.323  1.00  0.00     0.338 C 
ATOM     28  O   UNL A   1      33.014  32.286  27.336  1.00  0.00    -0.246 OA
BRANCH  27  29
ATOM     29  C   UNL A   1      34.803  30.900  27.912  1.00  0.00     0.060 A 
ATOM     30  C   UNL A   1      35.730  31.954  27.927  1.00  0.00     0.016 A 
ATOM     31  C   UNL A   1      35.109  29.655  28.452  1.00  0.00     0.016 A 
ATOM     32  C   UNL A   1      36.974  31.769  28.507  1.00  0.00     0.010 A 
ATOM     33  C   UNL A   1      36.353  29.474  29.040  1.00  0.00     0.010 A 
ATOM     34  C   UNL A   1      37.282  30.531  29.075  1.00  0.00    -0.014 A 
BRANCH  34  35
ATOM     35  C   UNL A   1      38.583  30.299  29.725  1.00  0.00     0.031 A 
ATOM     36  C   UNL A   1      39.517  29.302  29.121  1.00  0.00     0.074 A 
ATOM     37  C   UNL A   1      38.834  30.909  30.896  1.00  0.00     0.049 A 
ATOM     38  N   UNL A   1      40.572  28.738  29.641  1.00  0.00    -0.248 NA
ATOM     39  C   UNL A   1      39.196  28.857  27.757  1.00  0.00     0.031 C 
ATOM     40  C   UNL A   1      37.974  31.916  31.523  1.00  0.00     0.029 A 
ATOM     41  N   UNL A   1      39.861  30.744  31.784  1.00  0.00    -0.354 N 
ATOM     42  C   UNL A   1      41.025  27.841  28.681  1.00  0.00     0.074 A 
ATOM     43  C   UNL A   1      40.114  27.923  27.559  1.00  0.00     0.031 C 
ATOM     44  C   UNL A   1      38.498  32.260  32.709  1.00  0.00     0.029 A 
ATOM     45  C   UNL A   1      39.686  31.452  32.951  1.00  0.00     0.049 A 
ATOM     46  H   UNL A   1      40.646  30.177  31.607  1.00  0.00     0.167 HD
ATOM     47  C   UNL A   1      42.103  27.024  28.754  1.00  0.00     0.034 A 
ATOM     48  C   UNL A   1      40.382  31.403  34.102  1.00  0.00     0.034 A 
ATOM     49  C   UNL A   1      42.970  26.980  29.908  1.00  0.00     0.049 A 
ATOM     50  C   UNL A   1      41.551  30.456  34.175  1.00  0.00     0.074 A 
ATOM     51  C   UNL A   1      44.106  26.218  30.109  1.00  0.00     0.029 A 
ATOM     52  N   UNL A   1      42.783  27.729  31.066  1.00  0.00    -0.354 N 
ATOM     53  N   UNL A   1      41.980  29.604  33.269  1.00  0.00    -0.248 NA
ATOM     54  C   UNL A   1      42.330  30.464  35.415  1.00  0.00     0.031 C 
ATOM     55  C   UNL A   1      44.562  26.452  31.412  1.00  0.00     0.029 A 
ATOM     56  C   UNL A   1      43.765  27.427  31.995  1.00  0.00     0.049 A 
ATOM     57  H   UNL A   1      42.058  28.381  31.206  1.00  0.00     0.167 HD
ATOM     58  C   UNL A   1      43.102  28.997  33.821  1.00  0.00     0.074 A 
ATOM     59  C   UNL A   1      43.287  29.593  35.131  1.00  0.00     0.031 C 
ATOM     60  C   UNL A   1      43.911  28.038  33.298  1.00  0.00     0.034 A 
BRANCH  47  61
ATOM     61  C   UNL A   1      42.349  26.086  27.596  1.00  0.00     0.023 A 
ATOM     62  C   UNL A   1      41.882  24.759  27.599  1.00  0.00     0.031 A 
ATOM     63  C   UNL A   1      43.103  26.511  26.487  1.00  0.00     0.131 A 
ATOM     64  C   UNL A   1      42.236  23.887  26.557  1.00  0.00     0.055 A 
ATOM     65  C   UNL A   1      43.379  25.663  25.412  1.00  0.00     0.041 A 
ATOM     66  F   UNL A   1      43.603  27.756  26.438  1.00  0.00    -0.206 F 
ATOM     67  C   UNL A   1      42.958  24.338  25.450  1.00  0.00     0.022 A 
BRANCH  64  68
ATOM     68  S   UNL A   1      41.869  22.120  26.740  1.00  0.00     0.124 S 
ATOM     69  O   UNL A   1      40.789  21.943  25.772  1.00  0.00    -0.237 OA
ATOM     70  O   UNL A   1      43.142  21.496  26.400  1.00  0.00    -0.237 OA
ATOM     71  O   UNL A   1      41.468  21.996  28.140  1.00  0.00    -0.744 OA
ENDBRANCH  64  68
ENDBRANCH  47  61
BRANCH  48  72
ATOM     72  C   UNL A   1      39.975  32.240  35.266  1.00  0.00     0.023 A 
ATOM     73  C   UNL A   1      39.102  31.739  36.243  1.00  0.00     0.031 A 
ATOM     74  C   UNL A   1      40.448  33.557  35.420  1.00  0.00     0.131 A 
ATOM     75  C   UNL A   1      38.696  32.558  37.306  1.00  0.00     0.055 A 
ATOM     76  C   UNL A   1      40.085  34.350  36.511  1.00  0.00     0.041 A 
ATOM     77  F   UNL A   1      41.291  34.086  34.519  1.00  0.00    -0.206 F 
ATOM     78  C   UNL A   1      39.193  33.855  37.456  1.00  0.00     0.022 A 
BRANCH  75  79
ATOM     79  S   UNL A   1      37.439  31.930  38.452  1.00  0.00     0.124 S 
ATOM     80  O   UNL A   1      36.329  32.841  38.202  1.00  0.00    -0.237 OA
ATOM     81  O   UNL A   1      37.263  30.559  37.984  1.00  0.00    -0.237 OA
ATOM     82  O   UNL A   1      38.075  32.063  39.761  1.00  0.00    -0.744 OA
ENDBRANCH  75  79
ENDBRANCH  48  72
BRANCH  60  83
ATOM     83  C   UNL A   1      45.094  27.626  34.137  1.00  0.00     0.023 A 
ATOM     84  C   UNL A   1      45.020  26.557  35.045  1.00  0.00     0.031 A 
ATOM     85  C   UNL A   1      46.309  28.327  34.031  1.00  0.00     0.131 A 
ATOM     86  C   UNL A   1      46.121  26.261  35.860  1.00  0.00     0.055 A 
ATOM     87  C   UNL A   1      47.423  27.980  34.792  1.00  0.00     0.041 A 
ATOM     88  F   UNL A   1      46.430  29.359  33.181  1.00  0.00    -0.206 F 
ATOM     89  C   UNL A   1      47.329  26.951  35.725  1.00  0.00     0.022 A 
BRANCH  86  90
ATOM     90  S   UNL A   1      45.918  25.033  37.179  1.00  0.00     0.124 S 
ATOM     91  O   UNL A   1      44.788  25.578  37.926  1.00  0.00    -0.237 OA
ATOM     92  O   UNL A   1      45.656  23.809  36.429  1.00  0.00    -0.237 OA
ATOM     93  O   UNL A   1      47.200  25.069  37.880  1.00  0.00    -0.744 OA
ENDBRANCH  86  90
ENDBRANCH  60  83
ENDBRANCH  34  35
ENDBRANCH  27  29
ENDBRANCH  26  27
ENDBRANCH  25  26
ENDBRANCH  24  25
ENDBRANCH  23  24
ENDBRANCH   1  23
TORSDOF 21
ENDMDL
MODEL 2
REMARK VINA RESULT:     -10.4      1.317      1.687
REMARK SMILES O=C(CCCC(=O)N1CCN(c2ncccn2)CC1)OCCOCCOC(=O)c1ccc(-c2c3nc(c(-c4cc(S(=O)(=O)[O-])ccc4F)c4ccc([nH]4)c(-c4cc(S(=O)(=O)[O-])ccc4F)c4nc(c(-c5cc(S(=O)(=O)[O-])ccc5F)c5ccc2[nH]5)C=C4)C=C3)cc1
REMARK SMILES IDX 22 1 21 2 20 3 2 4 1 5 3 6 4 7 5 8 6 9 7 10 8 11 9 12 19 13
REMARK SMILES IDX 10 14 18 15 11 16 12 17 13 18 17 19 14 20 16 21 15 22 23 23
REMARK SMILES IDX 24 24 25 25 26 26 27 27 28 28 29 29 30 30 91 31 31 32 90 33
REMARK SMILES IDX 32 34 33 35 34 36 84 37 35 38 89 39 83 40 85 41 36 42 88 43
REMARK SMILES IDX 82 44 81 45 37 47 69 48 49 49 68 50 50 51 53 52 67 53 86 54
REMARK SMILES IDX 51 55 52 56 66 58 87 59 54 60 38 61 39 62 47 63 40 64 46 65
REMARK SMILES IDX 48 66 45 67 41 68 42 69 43 70 44 71 70 72 71 73 79 74 72 75
REMARK SMILES IDX 78 76 80 77 77 78 73 79 74 80 75 81 76 82 55 83 56 84 64 85
REMARK SMILES IDX 57 86 63 87 65 88 62 89 58 90 59 91 60 92 61 93
REMARK H PARENT 85 46 53 57
REMARK Flexibility Score: inf
ROOT
ATOM      1  C   UNL A   1      31.704  26.412  26.481  1.00  0.00     0.202 C 
ENDROOT
BRANCH   1   2
ATOM      2  C   UNL A   1      33.072  25.814  26.139  1.00  0.00     0.261 C 
BRANCH   2   3
ATOM      3  O   UNL A   1      33.214  24.531  26.767  1.00  0.00    -0.463 OA
BRANCH   3   4
ATOM      4  C   UNL A   1      34.119  23.734  26.157  1.00  0.00     0.305 C 
ATOM      5  O   UNL A   1      34.403  22.601  26.538  1.00  0.00    -0.252 OA
BRANCH   4   6
ATOM      6  C   UNL A   1      34.892  24.448  25.068  1.00  0.00     0.123 C 
BRANCH   6   7
ATOM      7  C   UNL A   1      34.860  23.917  23.627  1.00  0.00     0.022 C 
BRANCH   7   8
ATOM      8  C   UNL A   1      33.602  24.022  22.760  1.00  0.00     0.101 C 
BRANCH   8   9
ATOM      9  C   UNL A   1      32.116  24.175  23.126  1.00  0.00     0.222 C 
ATOM     10  O   UNL A   1      31.633  23.213  23.752  1.00  0.00    -0.275 OA
ATOM     11  N   UNL A   1      31.336  25.289  22.922  1.00  0.00    -0.339 N 
ATOM     12  C   UNL A   1      30.003  25.297  23.561  1.00  0.00     0.141 C 
ATOM     13  C   UNL A   1      31.465  26.228  21.824  1.00  0.00     0.141 C 
ATOM     14  C   UNL A   1      29.271  26.655  23.706  1.00  0.00     0.141 C 
ATOM     15  C   UNL A   1      31.004  27.641  22.185  1.00  0.00     0.141 C 
ATOM     16  N   UNL A   1      29.632  27.653  22.693  1.00  0.00    -0.337 N 
BRANCH  16  17
ATOM     17  C   UNL A   1      29.211  28.960  22.940  1.00  0.00     0.225 A 
ATOM     18  N   UNL A   1      28.006  29.379  22.515  1.00  0.00    -0.221 NA
ATOM     19  N   UNL A   1      30.019  29.736  23.687  1.00  0.00    -0.221 NA
ATOM     20  C   UNL A   1      27.589  30.601  22.899  1.00  0.00     0.117 A 
ATOM     21  C   UNL A   1      29.584  30.971  23.999  1.00  0.00     0.117 A 
ATOM     22  C   UNL A   1      28.352  31.457  23.648  1.00  0.00     0.040 A 
ENDBRANCH  16  17
ENDBRANCH   8   9
ENDBRANCH   7   8
ENDBRANCH   6   7
ENDBRANCH   4   6
ENDBRANCH   3   4
ENDBRANCH   2   3
ENDBRANCH   1   2
BRANCH   1  23
ATOM     23  O   UNL A   1      31.594  27.798  26.141  1.00  0.00    -0.374 OA
BRANCH  23  24
ATOM     24  C   UNL A   1      32.710  28.350  25.444  1.00  0.00     0.202 C 
BRANCH  24  25
ATOM     25  C   UNL A   1      32.845  29.872  25.599  1.00  0.00     0.261 C 
BRANCH  25  26
ATOM     26  O   UNL A   1      32.665  30.306  26.954  1.00  0.00    -0.460 OA
BRANCH  26  27
ATOM     27  C   UNL A   1      33.350  31.446  27.233  1.00  0.00     0.338 C 
ATOM     28  O   UNL A   1      32.920  32.573  27.170  1.00  0.00    -0.246 OA
BRANCH  27  29
ATOM     29  C   UNL A   1      34.639  31.155  27.867  1.00  0.00     0.060 A 
ATOM     30  C   UNL A   1      35.542  32.222  27.998  1.00  0.00     0.016 A 
ATOM     31  C   UNL A   1      34.946  29.881  28.336  1.00  0.00     0.016 A 
ATOM     32  C   UNL A   1      36.760  32.020  28.626  1.00  0.00     0.010 A 
ATOM     33  C   UNL A   1      36.164  29.683  28.970  1.00  0.00     0.010 A 
ATOM     34  C   UNL A   1      37.066  30.751  29.123  1.00  0.00    -0.014 A 
BRANCH  34  35
ATOM     35  C   UNL A   1      38.339  30.500  29.820  1.00  0.00     0.031 A 
ATOM     36  C   UNL A   1      39.298  29.521  29.225  1.00  0.00     0.074 A 
ATOM     37  C   UNL A   1      38.541  31.074  31.018  1.00  0.00     0.049 A 
ATOM     38  N   UNL A   1      40.330  28.941  29.772  1.00  0.00    -0.248 NA
ATOM     39  C   UNL A   1      39.035  29.117  27.836  1.00  0.00     0.031 C 
ATOM     40  C   UNL A   1      37.654  32.061  31.639  1.00  0.00     0.029 A 
ATOM     41  N   UNL A   1      39.529  30.881  31.943  1.00  0.00    -0.354 N 
ATOM     42  C   UNL A   1      40.824  28.072  28.805  1.00  0.00     0.074 A 
ATOM     43  C   UNL A   1      39.961  28.189  27.648  1.00  0.00     0.031 C 
ATOM     44  C   UNL A   1      38.128  32.370  32.856  1.00  0.00     0.029 A 
ATOM     45  C   UNL A   1      39.306  31.553  33.123  1.00  0.00     0.049 A 
ATOM     46  H   UNL A   1      40.322  30.320  31.782  1.00  0.00     0.167 HD
ATOM     47  C   UNL A   1      41.899  27.253  28.898  1.00  0.00     0.034 A 
ATOM     48  C   UNL A   1      39.952  31.470  34.299  1.00  0.00     0.034 A 
ATOM     49  C   UNL A   1      42.717  27.173  30.085  1.00  0.00     0.049 A 
ATOM     50  C   UNL A   1      41.118  30.520  34.393  1.00  0.00     0.074 A 
ATOM     51  C   UNL A   1      43.844  26.405  30.311  1.00  0.00     0.029 A 
ATOM     52  N   UNL A   1      42.481  27.888  31.257  1.00  0.00    -0.354 N 
ATOM     53  N   UNL A   1      41.585  29.695  33.480  1.00  0.00    -0.248 NA
ATOM     54  C   UNL A   1      41.845  30.490  35.664  1.00  0.00     0.031 C 
ATOM     55  C   UNL A   1      44.245  26.600  31.638  1.00  0.00     0.029 A 
ATOM     56  C   UNL A   1      43.424  27.557  32.216  1.00  0.00     0.049 A 
ATOM     57  H   UNL A   1      41.750  28.535  31.386  1.00  0.00     0.167 HD
ATOM     58  C   UNL A   1      42.683  29.071  34.059  1.00  0.00     0.074 A 
ATOM     59  C   UNL A   1      42.814  29.627  35.394  1.00  0.00     0.031 C 
ATOM     60  C   UNL A   1      43.514  28.128  33.542  1.00  0.00     0.034 A 
BRANCH  47  61
ATOM     61  C   UNL A   1      42.194  26.350  27.724  1.00  0.00     0.023 A 
ATOM     62  C   UNL A   1      41.811  24.996  27.708  1.00  0.00     0.031 A 
ATOM     63  C   UNL A   1      42.910  26.839  26.616  1.00  0.00     0.131 A 
ATOM     64  C   UNL A   1      42.210  24.165  26.650  1.00  0.00     0.055 A 
ATOM     65  C   UNL A   1      43.230  26.027  25.526  1.00  0.00     0.041 A 
ATOM     66  F   UNL A   1      43.331  28.113  26.583  1.00  0.00    -0.206 F 
ATOM     67  C   UNL A   1      42.893  24.678  25.546  1.00  0.00     0.022 A 
BRANCH  64  68
ATOM     68  S   UNL A   1      41.957  22.375  26.808  1.00  0.00     0.124 S 
ATOM     69  O   UNL A   1      41.881  22.217  28.259  1.00  0.00    -0.237 OA
ATOM     70  O   UNL A   1      40.714  22.166  26.075  1.00  0.00    -0.237 OA
ATOM     71  O   UNL A   1      43.151  21.804  26.189  1.00  0.00    -0.744 OA
ENDBRANCH  64  68
ENDBRANCH  47  61
BRANCH  48  72
ATOM     72  C   UNL A   1      39.497  32.271  35.470  1.00  0.00     0.023 A 
ATOM     73  C   UNL A   1      39.922  33.596  35.646  1.00  0.00     0.031 A 
ATOM     74  C   UNL A   1      38.634  31.723  36.439  1.00  0.00     0.131 A 
ATOM     75  C   UNL A   1      39.518  34.317  36.779  1.00  0.00     0.055 A 
ATOM     76  C   UNL A   1      38.190  32.464  37.536  1.00  0.00     0.041 A 
ATOM     77  F   UNL A   1      38.190  30.462  36.319  1.00  0.00    -0.206 F 
ATOM     78  C   UNL A   1      38.643  33.766  37.718  1.00  0.00     0.022 A 
BRANCH  75  79
ATOM     79  S   UNL A   1      40.223  35.965  37.052  1.00  0.00     0.124 S 
ATOM     80  O   UNL A   1      39.757  36.686  35.873  1.00  0.00    -0.237 OA
ATOM     81  O   UNL A   1      39.614  36.348  38.321  1.00  0.00    -0.237 OA
ATOM     82  O   UNL A   1      41.662  35.716  37.103  1.00  0.00    -0.744 OA
ENDBRANCH  75  79
ENDBRANCH  48  72
BRANCH  60  83
ATOM     83  C   UNL A   1      44.662  27.690  34.417  1.00  0.00     0.023 A 
ATOM     84  C   UNL A   1      44.595  26.522  35.195  1.00  0.00     0.031 A 
ATOM     85  C   UNL A   1      45.833  28.465  34.479  1.00  0.00     0.131 A 
ATOM     86  C   UNL A   1      45.654  26.197  36.053  1.00  0.00     0.055 A 
ATOM     87  C   UNL A   1      46.914  28.096  35.279  1.00  0.00     0.041 A 
ATOM     88  F   UNL A   1      45.946  29.592  33.759  1.00  0.00    -0.206 F 
ATOM     89  C   UNL A   1      46.822  26.965  36.084  1.00  0.00     0.022 A 
BRANCH  86  90
ATOM     90  S   UNL A   1      45.440  24.819  37.211  1.00  0.00     0.124 S 
ATOM     91  O   UNL A   1      46.819  24.535  37.599  1.00  0.00    -0.237 OA
ATOM     92  O   UNL A   1      44.595  25.408  38.244  1.00  0.00    -0.237 OA
ATOM     93  O   UNL A   1      44.799  23.786  36.399  1.00  0.00    -0.744 OA
ENDBRANCH  86  90
ENDBRANCH  60  83
ENDBRANCH  34  35
ENDBRANCH  27  29
ENDBRANCH  26  27
ENDBRANCH  25  26
ENDBRANCH  24  25
ENDBRANCH  23  24
ENDBRANCH   1  23
TORSDOF 21
ENDMDL
MODEL 3
REMARK VINA RESULT:     -10.4      2.181      4.192
REMARK SMILES O=C(CCCC(=O)N1CCN(c2ncccn2)CC1)OCCOCCOC(=O)c1ccc(-c2c3nc(c(-c4cc(S(=O)(=O)[O-])ccc4F)c4ccc([nH]4)c(-c4cc(S(=O)(=O)[O-])ccc4F)c4nc(c(-c5cc(S(=O)(=O)[O-])ccc5F)c5ccc2[nH]5)C=C4)C=C3)cc1
REMARK SMILES IDX 22 1 21 2 20 3 2 4 1 5 3 6 4 7 5 8 6 9 7 10 8 11 9 12 19 13
REMARK SMILES IDX 10 14 18 15 11 16 12 17 13 18 17 19 14 20 16 21 15 22 23 23
REMARK SMILES IDX 24 24 25 25 26 26 27 27 28 28 29 29 30 30 91 31 31 32 90 33
REMARK SMILES IDX 32 34 33 35 34 36 84 37 35 38 89 39 83 40 85 41 36 42 88 43
REMARK SMILES IDX 82 44 81 45 37 47 69 48 49 49 68 50 50 51 53 52 67 53 86 54
REMARK SMILES IDX 51 55 52 56 66 58 87 59 54 60 38 61 39 62 47 63 40 64 46 65
REMARK SMILES IDX 48 66 45 67 41 68 42 69 43 70 44 71 70 72 71 73 79 74 72 75
REMARK SMILES IDX 78 76 80 77 77 78 73 79 74 80 75 81 76 82 55 83 56 84 64 85
REMARK SMILES IDX 57 86 63 87 65 88 62 89 58 90 59 91 60 92 61 93
REMARK H PARENT 85 46 53 57
REMARK Flexibility Score: inf
ROOT
ATOM      1  C   UNL A   1      31.069  29.214  23.704  1.00  0.00     0.202 C 
ENDROOT
BRANCH   1   2
ATOM      2  C   UNL A   1      30.367  27.854  23.711  1.00  0.00     0.261 C 
BRANCH   2   3
ATOM      3  O   UNL A   1      30.673  27.140  22.505  1.00  0.00    -0.463 OA
BRANCH   3   4
ATOM      4  C   UNL A   1      31.248  25.937  22.724  1.00  0.00     0.305 C 
ATOM      5  O   UNL A   1      32.279  25.559  22.176  1.00  0.00    -0.252 OA
BRANCH   4   6
ATOM      6  C   UNL A   1      30.387  25.021  23.571  1.00  0.00     0.123 C 
BRANCH   6   7
ATOM      7  C   UNL A   1      30.699  24.837  25.063  1.00  0.00     0.022 C 
BRANCH   7   8
ATOM      8  C   UNL A   1      32.119  24.996  25.614  1.00  0.00     0.101 C 
BRANCH   8   9
ATOM      9  C   UNL A   1      33.370  24.109  25.491  1.00  0.00     0.222 C 
ATOM     10  O   UNL A   1      34.419  24.629  25.912  1.00  0.00    -0.275 OA
ATOM     11  N   UNL A   1      33.403  22.800  25.070  1.00  0.00    -0.339 N 
ATOM     12  C   UNL A   1      34.677  22.074  25.252  1.00  0.00     0.141 C 
ATOM     13  C   UNL A   1      32.520  22.200  24.089  1.00  0.00     0.141 C 
ATOM     14  C   UNL A   1      34.652  20.526  25.182  1.00  0.00     0.141 C 
ATOM     15  C   UNL A   1      32.306  20.702  24.311  1.00  0.00     0.141 C 
ATOM     16  N   UNL A   1      33.573  19.971  24.356  1.00  0.00    -0.337 N 
BRANCH  16  17
ATOM     17  C   UNL A   1      33.346  18.600  24.481  1.00  0.00     0.225 A 
ATOM     18  N   UNL A   1      33.944  17.732  23.646  1.00  0.00    -0.221 NA
ATOM     19  N   UNL A   1      32.584  18.194  25.514  1.00  0.00    -0.221 NA
ATOM     20  C   UNL A   1      33.804  16.416  23.895  1.00  0.00     0.117 A 
ATOM     21  C   UNL A   1      32.426  16.869  25.690  1.00  0.00     0.117 A 
ATOM     22  C   UNL A   1      33.039  15.919  24.916  1.00  0.00     0.040 A 
ENDBRANCH  16  17
ENDBRANCH   8   9
ENDBRANCH   7   8
ENDBRANCH   6   7
ENDBRANCH   4   6
ENDBRANCH   3   4
ENDBRANCH   2   3
ENDBRANCH   1   2
BRANCH   1  23
ATOM     23  O   UNL A   1      32.493  29.115  23.823  1.00  0.00    -0.374 OA
BRANCH  23  24
ATOM     24  C   UNL A   1      33.003  29.169  25.154  1.00  0.00     0.202 C 
BRANCH  24  25
ATOM     25  C   UNL A   1      32.245  30.144  26.067  1.00  0.00     0.261 C 
BRANCH  25  26
ATOM     26  O   UNL A   1      32.838  30.255  27.368  1.00  0.00    -0.460 OA
BRANCH  26  27
ATOM     27  C   UNL A   1      33.621  31.358  27.494  1.00  0.00     0.338 C 
ATOM     28  O   UNL A   1      33.265  32.506  27.372  1.00  0.00    -0.246 OA
BRANCH  27  29
ATOM     29  C   UNL A   1      34.937  31.021  28.044  1.00  0.00     0.060 A 
ATOM     30  C   UNL A   1      35.924  32.018  27.995  1.00  0.00     0.016 A 
ATOM     31  C   UNL A   1      35.190  29.775  28.608  1.00  0.00     0.016 A 
ATOM     32  C   UNL A   1      37.176  31.775  28.536  1.00  0.00     0.010 A 
ATOM     33  C   UNL A   1      36.443  29.536  29.156  1.00  0.00     0.010 A 
ATOM     34  C   UNL A   1      37.432  30.536  29.128  1.00  0.00    -0.014 A 
BRANCH  34  35
ATOM     35  C   UNL A   1      38.740  30.246  29.737  1.00  0.00     0.031 A 
ATOM     36  C   UNL A   1      39.619  29.224  29.093  1.00  0.00     0.074 A 
ATOM     37  C   UNL A   1      39.047  30.826  30.910  1.00  0.00     0.049 A 
ATOM     38  N   UNL A   1      40.665  28.612  29.574  1.00  0.00    -0.248 NA
ATOM     39  C   UNL A   1      39.244  28.813  27.731  1.00  0.00     0.031 C 
ATOM     40  C   UNL A   1      38.243  31.855  31.576  1.00  0.00     0.029 A 
ATOM     41  N   UNL A   1      40.091  30.609  31.766  1.00  0.00    -0.354 N 
ATOM     42  C   UNL A   1      41.057  27.714  28.588  1.00  0.00     0.074 A 
ATOM     43  C   UNL A   1      40.120  27.848  27.494  1.00  0.00     0.031 C 
ATOM     44  C   UNL A   1      38.813  32.160  32.752  1.00  0.00     0.029 A 
ATOM     45  C   UNL A   1      39.975  31.303  32.948  1.00  0.00     0.049 A 
ATOM     46  H   UNL A   1      40.848  30.016  31.559  1.00  0.00     0.167 HD
ATOM     47  C   UNL A   1      42.105  26.855  28.619  1.00  0.00     0.034 A 
ATOM     48  C   UNL A   1      40.700  31.210  34.078  1.00  0.00     0.034 A 
ATOM     49  C   UNL A   1      43.001  26.760  29.747  1.00  0.00     0.049 A 
ATOM     50  C   UNL A   1      41.833  30.218  34.105  1.00  0.00     0.074 A 
ATOM     51  C   UNL A   1      44.113  25.953  29.905  1.00  0.00     0.029 A 
ATOM     52  N   UNL A   1      42.875  27.498  30.921  1.00  0.00    -0.354 N 
ATOM     53  N   UNL A   1      42.204  29.366  33.174  1.00  0.00    -0.248 NA
ATOM     54  C   UNL A   1      42.647  30.178  35.322  1.00  0.00     0.031 C 
ATOM     55  C   UNL A   1      44.612  26.149  31.198  1.00  0.00     0.029 A 
ATOM     56  C   UNL A   1      43.870  27.144  31.817  1.00  0.00     0.049 A 
ATOM     57  H   UNL A   1      42.179  28.174  31.092  1.00  0.00     0.167 HD
ATOM     58  C   UNL A   1      43.317  28.708  33.685  1.00  0.00     0.074 A 
ATOM     59  C   UNL A   1      43.561  29.276  34.998  1.00  0.00     0.031 C 
ATOM     60  C   UNL A   1      44.075  27.727  33.125  1.00  0.00     0.034 A 
BRANCH  47  61
ATOM     61  C   UNL A   1      42.284  25.927  27.441  1.00  0.00     0.023 A 
ATOM     62  C   UNL A   1      41.678  24.658  27.392  1.00  0.00     0.031 A 
ATOM     63  C   UNL A   1      43.109  26.299  26.364  1.00  0.00     0.131 A 
ATOM     64  C   UNL A   1      41.968  23.782  26.335  1.00  0.00     0.055 A 
ATOM     65  C   UNL A   1      43.324  25.456  25.272  1.00  0.00     0.041 A 
ATOM     66  F   UNL A   1      43.740  27.484  26.364  1.00  0.00    -0.206 F 
ATOM     67  C   UNL A   1      42.764  24.183  25.260  1.00  0.00     0.022 A 
BRANCH  64  68
ATOM     68  S   UNL A   1      41.411  22.059  26.457  1.00  0.00     0.124 S 
ATOM     69  O   UNL A   1      42.374  21.379  25.595  1.00  0.00    -0.237 OA
ATOM     70  O   UNL A   1      41.527  21.790  27.884  1.00  0.00    -0.237 OA
ATOM     71  O   UNL A   1      40.045  22.103  25.939  1.00  0.00    -0.744 OA
ENDBRANCH  64  68
ENDBRANCH  47  61
BRANCH  48  72
ATOM     72  C   UNL A   1      40.358  32.043  35.266  1.00  0.00     0.023 A 
ATOM     73  C   UNL A   1      39.344  31.651  36.152  1.00  0.00     0.031 A 
ATOM     74  C   UNL A   1      41.035  33.248  35.532  1.00  0.00     0.131 A 
ATOM     75  C   UNL A   1      39.007  32.472  37.238  1.00  0.00     0.055 A 
ATOM     76  C   UNL A   1      40.734  34.034  36.647  1.00  0.00     0.041 A 
ATOM     77  F   UNL A   1      42.018  33.669  34.722  1.00  0.00    -0.206 F 
ATOM     78  C   UNL A   1      39.704  33.653  37.501  1.00  0.00     0.022 A 
BRANCH  75  79
ATOM     79  S   UNL A   1      37.582  32.012  38.261  1.00  0.00     0.124 S 
ATOM     80  O   UNL A   1      36.595  33.006  37.858  1.00  0.00    -0.237 OA
ATOM     81  O   UNL A   1      37.328  30.642  37.826  1.00  0.00    -0.237 OA
ATOM     82  O   UNL A   1      38.084  32.148  39.626  1.00  0.00    -0.744 OA
ENDBRANCH  75  79
ENDBRANCH  48  72
BRANCH  60  83
ATOM     83  C   UNL A   1      45.264  27.257  33.924  1.00  0.00     0.023 A 
ATOM     84  C   UNL A   1      45.172  26.184  34.825  1.00  0.00     0.031 A 
ATOM     85  C   UNL A   1      46.503  27.908  33.787  1.00  0.00     0.131 A 
ATOM     86  C   UNL A   1      46.283  25.833  35.603  1.00  0.00     0.055 A 
ATOM     87  C   UNL A   1      47.625  27.507  34.512  1.00  0.00     0.041 A 
ATOM     88  F   UNL A   1      46.642  28.943  32.944  1.00  0.00    -0.206 F 
ATOM     89  C   UNL A   1      47.515  26.474  35.438  1.00  0.00     0.022 A 
BRANCH  86  90
ATOM     90  S   UNL A   1      46.068  24.603  36.917  1.00  0.00     0.124 S 
ATOM     91  O   UNL A   1      47.279  24.792  37.709  1.00  0.00    -0.237 OA
ATOM     92  O   UNL A   1      44.822  25.030  37.545  1.00  0.00    -0.237 OA
ATOM     93  O   UNL A   1      45.993  23.336  36.191  1.00  0.00    -0.744 OA
ENDBRANCH  86  90
ENDBRANCH  60  83
ENDBRANCH  34  35
ENDBRANCH  27  29
ENDBRANCH  26  27
ENDBRANCH  25  26
ENDBRANCH  24  25
ENDBRANCH  23  24
ENDBRANCH   1  23
TORSDOF 21
ENDMDL
