MODEL 1
REMARK VINA RESULT:     -11.7      0.000      0.000
REMARK SMILES O=C(OCCOCCOC(=O)c1ccc(-c2c3nc(c(-c4cc(S(=O)(=O)[O-])ccc4F)c4ccc([nH]4)c(-c4cc(S(=O)(=O)[O-])ccc4F)c4nc(c(-c5cc(S(=O)(=O)[O-])ccc5F)c5ccc2[nH]5)C=C4)C=C3)cc1)c1ccc(NC(=O)[C@@H]2CC=CC[C@H]2C(=O)Nc2cccc([N+](=O)[O-])c2)cc1
REMARK SMILES IDX 5 1 4 2 3 3 2 4 1 5 75 6 76 7 101 8 77 9 100 10 78 11 79 12
REMARK SMILES IDX 80 13 81 15 82 16 83 17 87 18 84 19 86 20 85 21 88 22 89 23
REMARK SMILES IDX 90 24 91 26 92 27 99 28 93 29 95 30 94 31 96 32 97 33 98 34
REMARK SMILES IDX 6 35 7 36 8 37 9 38 10 39 11 40 12 41 13 42 74 43 14 44
REMARK SMILES IDX 73 45 15 46 16 47 17 48 67 49 18 50 72 51 66 52 68 53 19 54
REMARK SMILES IDX 71 55 65 56 64 57 20 59 52 60 32 61 51 62 33 63 36 64 50 65
REMARK SMILES IDX 69 66 34 67 35 68 49 70 70 71 37 72 21 73 22 74 30 75 23 76
REMARK SMILES IDX 29 77 31 78 28 79 24 80 25 81 26 82 27 83 53 84 54 85 62 86
REMARK SMILES IDX 55 87 61 88 63 89 60 90 56 91 57 92 58 93 59 94 38 95 39 96
REMARK SMILES IDX 47 97 40 98 46 99 48 100 45 101 41 102 42 103 43 104 44 105
REMARK H PARENT 79 14 90 25 68 58 36 69
REMARK Flexibility Score: inf
ROOT
ATOM      1  C   UNL A   1      37.143  20.659  25.173  1.00  0.00     0.202 C 
ENDROOT
BRANCH   1   2
ATOM      2  C   UNL A   1      36.025  21.573  24.640  1.00  0.00     0.261 C 
BRANCH   2   3
ATOM      3  O   UNL A   1      34.745  21.269  25.232  1.00  0.00    -0.460 OA
BRANCH   3   4
ATOM      4  C   UNL A   1      34.154  21.835  26.316  1.00  0.00     0.338 C 
ATOM      5  O   UNL A   1      34.549  21.514  27.437  1.00  0.00    -0.246 OA
BRANCH   4   6
ATOM      6  C   UNL A   1      32.986  22.768  26.241  1.00  0.00     0.060 A 
ATOM      7  C   UNL A   1      33.076  24.138  26.405  1.00  0.00     0.018 A 
ATOM      8  C   UNL A   1      31.727  22.261  25.872  1.00  0.00     0.018 A 
ATOM      9  C   UNL A   1      32.002  24.978  26.168  1.00  0.00     0.027 A 
ATOM     10  C   UNL A   1      30.647  23.122  25.586  1.00  0.00     0.027 A 
ATOM     11  C   UNL A   1      30.816  24.506  25.658  1.00  0.00     0.041 A 
BRANCH  11  12
ATOM     12  N   UNL A   1      29.816  25.349  25.163  1.00  0.00    -0.326 N 
ATOM     13  C   UNL A   1      29.761  26.221  24.116  1.00  0.00     0.228 C 
ATOM     14  H   UNL A   1      28.977  25.304  25.676  1.00  0.00     0.169 HD
ATOM     15  O   UNL A   1      28.699  26.852  23.993  1.00  0.00    -0.274 OA
BRANCH  13  16
ATOM     16  C   UNL A   1      30.869  26.478  23.085  1.00  0.00     0.095 C 
ATOM     17  C   UNL A   1      31.533  25.242  22.449  1.00  0.00     0.041 C 
ATOM     18  C   UNL A   1      31.762  27.676  23.474  1.00  0.00     0.095 C 
ATOM     19  C   UNL A   1      32.873  25.501  21.837  1.00  0.00    -0.030 C 
ATOM     20  C   UNL A   1      33.008  27.888  22.592  1.00  0.00     0.041 C 
ATOM     21  C   UNL A   1      33.521  26.668  21.897  1.00  0.00    -0.030 C 
BRANCH  18  22
ATOM     22  C   UNL A   1      31.016  29.004  23.731  1.00  0.00     0.228 C 
ATOM     23  O   UNL A   1      30.128  29.350  22.939  1.00  0.00    -0.274 OA
ATOM     24  N   UNL A   1      31.171  29.767  24.858  1.00  0.00    -0.326 N 
ATOM     25  H   UNL A   1      30.504  30.481  24.973  1.00  0.00     0.169 HD
BRANCH  24  26
ATOM     26  C   UNL A   1      32.133  29.686  25.869  1.00  0.00     0.048 A 
ATOM     27  C   UNL A   1      32.836  28.495  26.039  1.00  0.00     0.026 A 
ATOM     28  C   UNL A   1      32.408  30.769  26.694  1.00  0.00     0.111 A 
ATOM     29  C   UNL A   1      33.934  28.452  26.904  1.00  0.00     0.009 A 
ATOM     30  C   UNL A   1      33.550  30.755  27.498  1.00  0.00     0.271 A 
ATOM     31  C   UNL A   1      34.324  29.597  27.603  1.00  0.00     0.086 A 
BRANCH  30  32
ATOM     32  N   UNL A   1      33.968  31.990  28.174  1.00  0.00     0.062 N 
ATOM     33  O   UNL A   1      34.617  31.883  29.223  1.00  0.00    -0.258 OA
ATOM     34  O   UNL A   1      33.660  33.070  27.648  1.00  0.00    -0.258 OA
ENDBRANCH  30  32
ENDBRANCH  24  26
ENDBRANCH  18  22
ENDBRANCH  13  16
ENDBRANCH  11  12
ENDBRANCH   4   6
ENDBRANCH   3   4
ENDBRANCH   2   3
ENDBRANCH   1   2
BRANCH   1  35
ATOM     35  O   UNL A   1      38.466  21.173  24.977  1.00  0.00    -0.374 OA
BRANCH  35  36
ATOM     36  C   UNL A   1      39.360  20.949  26.075  1.00  0.00     0.202 C 
BRANCH  36  37
ATOM     37  C   UNL A   1      39.919  19.524  26.037  1.00  0.00     0.261 C 
BRANCH  37  38
ATOM     38  O   UNL A   1      41.155  19.543  25.311  1.00  0.00    -0.460 OA
BRANCH  38  39
ATOM     39  C   UNL A   1      42.260  19.612  26.093  1.00  0.00     0.338 C 
ATOM     40  O   UNL A   1      43.026  18.702  26.366  1.00  0.00    -0.246 OA
BRANCH  39  41
ATOM     41  C   UNL A   1      42.521  21.033  26.407  1.00  0.00     0.060 A 
ATOM     42  C   UNL A   1      42.584  21.935  25.338  1.00  0.00     0.016 A 
ATOM     43  C   UNL A   1      42.662  21.485  27.725  1.00  0.00     0.016 A 
ATOM     44  C   UNL A   1      42.839  23.283  25.579  1.00  0.00     0.010 A 
ATOM     45  C   UNL A   1      42.909  22.836  27.967  1.00  0.00     0.010 A 
ATOM     46  C   UNL A   1      43.041  23.729  26.891  1.00  0.00    -0.014 A 
BRANCH  46  47
ATOM     47  C   UNL A   1      43.600  25.079  27.124  1.00  0.00     0.031 A 
ATOM     48  C   UNL A   1      42.675  26.140  27.654  1.00  0.00     0.074 A 
ATOM     49  C   UNL A   1      44.898  25.341  26.890  1.00  0.00     0.049 A 
ATOM     50  N   UNL A   1      42.912  27.397  27.915  1.00  0.00    -0.248 NA
ATOM     51  C   UNL A   1      41.287  25.721  27.917  1.00  0.00     0.031 C 
ATOM     52  C   UNL A   1      45.878  24.375  26.395  1.00  0.00     0.029 A 
ATOM     53  N   UNL A   1      45.612  26.502  27.033  1.00  0.00    -0.354 N 
ATOM     54  C   UNL A   1      41.710  27.917  28.383  1.00  0.00     0.074 A 
ATOM     55  C   UNL A   1      40.732  26.854  28.311  1.00  0.00     0.031 C 
ATOM     56  C   UNL A   1      47.066  24.989  26.264  1.00  0.00     0.029 A 
ATOM     57  C   UNL A   1      46.924  26.394  26.640  1.00  0.00     0.049 A 
ATOM     58  H   UNL A   1      45.220  27.335  27.386  1.00  0.00     0.167 HD
ATOM     59  C   UNL A   1      41.452  29.161  28.852  1.00  0.00     0.034 A 
ATOM     60  C   UNL A   1      47.889  27.334  26.576  1.00  0.00     0.034 A 
ATOM     61  C   UNL A   1      42.437  30.213  28.888  1.00  0.00     0.049 A 
ATOM     62  C   UNL A   1      47.560  28.735  27.037  1.00  0.00     0.074 A 
ATOM     63  C   UNL A   1      42.293  31.521  29.314  1.00  0.00     0.029 A 
ATOM     64  N   UNL A   1      43.755  30.075  28.468  1.00  0.00    -0.354 N 
ATOM     65  N   UNL A   1      46.422  29.213  27.490  1.00  0.00    -0.248 NA
ATOM     66  C   UNL A   1      48.650  29.718  26.997  1.00  0.00     0.031 C 
ATOM     67  C   UNL A   1      43.504  32.187  29.098  1.00  0.00     0.029 A 
ATOM     68  C   UNL A   1      44.429  31.277  28.609  1.00  0.00     0.049 A 
ATOM     69  H   UNL A   1      44.152  29.243  28.121  1.00  0.00     0.167 HD
ATOM     70  C   UNL A   1      46.671  30.544  27.817  1.00  0.00     0.074 A 
ATOM     71  C   UNL A   1      48.072  30.781  27.532  1.00  0.00     0.031 C 
ATOM     72  C   UNL A   1      45.826  31.488  28.307  1.00  0.00     0.034 A 
BRANCH  59  73
ATOM     73  C   UNL A   1      40.045  29.442  29.322  1.00  0.00     0.023 A 
ATOM     74  C   UNL A   1      39.709  29.417  30.688  1.00  0.00     0.031 A 
ATOM     75  C   UNL A   1      39.017  29.689  28.397  1.00  0.00     0.131 A 
ATOM     76  C   UNL A   1      38.371  29.562  31.084  1.00  0.00     0.055 A 
ATOM     77  C   UNL A   1      37.699  29.913  28.803  1.00  0.00     0.041 A 
ATOM     78  F   UNL A   1      39.271  29.698  27.079  1.00  0.00    -0.206 F 
ATOM     79  C   UNL A   1      37.366  29.835  30.153  1.00  0.00     0.022 A 
BRANCH  76  80
ATOM     80  S   UNL A   1      37.941  29.247  32.818  1.00  0.00     0.124 S 
ATOM     81  O   UNL A   1      36.628  29.883  32.917  1.00  0.00    -0.237 OA
ATOM     82  O   UNL A   1      37.952  27.792  32.889  1.00  0.00    -0.237 OA
ATOM     83  O   UNL A   1      39.006  29.917  33.563  1.00  0.00    -0.744 OA
ENDBRANCH  76  80
ENDBRANCH  59  73
BRANCH  60  84
ATOM     84  C   UNL A   1      49.239  27.004  26.032  1.00  0.00     0.023 A 
ATOM     85  C   UNL A   1      50.322  26.730  26.882  1.00  0.00     0.031 A 
ATOM     86  C   UNL A   1      49.480  27.020  24.646  1.00  0.00     0.131 A 
ATOM     87  C   UNL A   1      51.605  26.540  26.344  1.00  0.00     0.055 A 
ATOM     88  C   UNL A   1      50.746  26.774  24.113  1.00  0.00     0.041 A 
ATOM     89  F   UNL A   1      48.480  27.274  23.786  1.00  0.00    -0.206 F 
ATOM     90  C   UNL A   1      51.822  26.549  24.965  1.00  0.00     0.022 A 
BRANCH  87  91
ATOM     91  S   UNL A   1      53.010  26.383  27.481  1.00  0.00     0.124 S 
ATOM     92  O   UNL A   1      53.719  25.238  26.921  1.00  0.00    -0.237 OA
ATOM     93  O   UNL A   1      53.664  27.679  27.333  1.00  0.00    -0.237 OA
ATOM     94  O   UNL A   1      52.374  26.152  28.777  1.00  0.00    -0.744 OA
ENDBRANCH  87  91
ENDBRANCH  60  84
BRANCH  72  95
ATOM     95  C   UNL A   1      46.419  32.844  28.602  1.00  0.00     0.023 A 
ATOM     96  C   UNL A   1      46.563  33.821  27.601  1.00  0.00     0.031 A 
ATOM     97  C   UNL A   1      46.870  33.153  29.897  1.00  0.00     0.131 A 
ATOM     98  C   UNL A   1      47.211  35.029  27.894  1.00  0.00     0.055 A 
ATOM     99  C   UNL A   1      47.451  34.385  30.198  1.00  0.00     0.041 A 
ATOM    100  F   UNL A   1      46.756  32.259  30.893  1.00  0.00    -0.206 F 
ATOM    101  C   UNL A   1      47.641  35.325  29.190  1.00  0.00     0.022 A 
BRANCH  98 102
ATOM    102  S   UNL A   1      47.591  36.161  26.528  1.00  0.00     0.124 S 
ATOM    103  O   UNL A   1      46.315  36.840  26.333  1.00  0.00    -0.237 OA
ATOM    104  O   UNL A   1      48.666  36.974  27.089  1.00  0.00    -0.237 OA
ATOM    105  O   UNL A   1      47.991  35.267  25.444  1.00  0.00    -0.744 OA
ENDBRANCH  98 102
ENDBRANCH  72  95
ENDBRANCH  46  47
ENDBRANCH  39  41
ENDBRANCH  38  39
ENDBRANCH  37  38
ENDBRANCH  36  37
ENDBRANCH  35  36
ENDBRANCH   1  35
TORSDOF 22
ENDMDL
MODEL 2
REMARK VINA RESULT:     -11.6      6.286     11.981
REMARK SMILES O=C(OCCOCCOC(=O)c1ccc(-c2c3nc(c(-c4cc(S(=O)(=O)[O-])ccc4F)c4ccc([nH]4)c(-c4cc(S(=O)(=O)[O-])ccc4F)c4nc(c(-c5cc(S(=O)(=O)[O-])ccc5F)c5ccc2[nH]5)C=C4)C=C3)cc1)c1ccc(NC(=O)[C@@H]2CC=CC[C@H]2C(=O)Nc2cccc([N+](=O)[O-])c2)cc1
REMARK SMILES IDX 5 1 4 2 3 3 2 4 1 5 75 6 76 7 101 8 77 9 100 10 78 11 79 12
REMARK SMILES IDX 80 13 81 15 82 16 83 17 87 18 84 19 86 20 85 21 88 22 89 23
REMARK SMILES IDX 90 24 91 26 92 27 99 28 93 29 95 30 94 31 96 32 97 33 98 34
REMARK SMILES IDX 6 35 7 36 8 37 9 38 10 39 11 40 12 41 13 42 74 43 14 44
REMARK SMILES IDX 73 45 15 46 16 47 17 48 67 49 18 50 72 51 66 52 68 53 19 54
REMARK SMILES IDX 71 55 65 56 64 57 20 59 52 60 32 61 51 62 33 63 36 64 50 65
REMARK SMILES IDX 69 66 34 67 35 68 49 70 70 71 37 72 21 73 22 74 30 75 23 76
REMARK SMILES IDX 29 77 31 78 28 79 24 80 25 81 26 82 27 83 53 84 54 85 62 86
REMARK SMILES IDX 55 87 61 88 63 89 60 90 56 91 57 92 58 93 59 94 38 95 39 96
REMARK SMILES IDX 47 97 40 98 46 99 48 100 45 101 41 102 42 103 43 104 44 105
REMARK H PARENT 79 14 90 25 68 58 36 69
REMARK Flexibility Score: inf
ROOT
ATOM      1  C   UNL A   1      34.408  34.483  33.644  1.00  0.00     0.202 C 
ENDROOT
BRANCH   1   2
ATOM      2  C   UNL A   1      35.786  34.164  33.037  1.00  0.00     0.261 C 
BRANCH   2   3
ATOM      3  O   UNL A   1      36.177  32.794  33.264  1.00  0.00    -0.460 OA
BRANCH   3   4
ATOM      4  C   UNL A   1      36.988  32.289  34.230  1.00  0.00     0.338 C 
ATOM      5  O   UNL A   1      37.010  32.843  35.329  1.00  0.00    -0.246 OA
BRANCH   4   6
ATOM      6  C   UNL A   1      37.928  31.143  34.018  1.00  0.00     0.060 A 
ATOM      7  C   UNL A   1      37.724  30.134  33.095  1.00  0.00     0.018 A 
ATOM      8  C   UNL A   1      39.153  31.127  34.709  1.00  0.00     0.018 A 
ATOM      9  C   UNL A   1      38.693  29.184  32.821  1.00  0.00     0.027 A 
ATOM     10  C   UNL A   1      40.156  30.187  34.393  1.00  0.00     0.027 A 
ATOM     11  C   UNL A   1      39.949  29.254  33.375  1.00  0.00     0.041 A 
BRANCH  11  12
ATOM     12  N   UNL A   1      41.021  28.477  32.923  1.00  0.00    -0.326 N 
ATOM     13  C   UNL A   1      42.143  27.991  33.526  1.00  0.00     0.228 C 
ATOM     14  H   UNL A   1      40.952  28.231  31.973  1.00  0.00     0.169 HD
ATOM     15  O   UNL A   1      42.920  27.360  32.794  1.00  0.00    -0.274 OA
BRANCH  13  16
ATOM     16  C   UNL A   1      42.517  28.137  35.008  1.00  0.00     0.095 C 
ATOM     17  C   UNL A   1      43.247  29.429  35.421  1.00  0.00     0.041 C 
ATOM     18  C   UNL A   1      42.977  26.800  35.628  1.00  0.00     0.095 C 
ATOM     19  C   UNL A   1      43.993  29.337  36.714  1.00  0.00    -0.030 C 
ATOM     20  C   UNL A   1      43.547  26.893  37.057  1.00  0.00     0.041 C 
ATOM     21  C   UNL A   1      44.121  28.220  37.437  1.00  0.00    -0.030 C 
BRANCH  18  22
ATOM     22  C   UNL A   1      41.983  25.627  35.489  1.00  0.00     0.228 C 
ATOM     23  O   UNL A   1      40.786  25.830  35.732  1.00  0.00    -0.274 OA
ATOM     24  N   UNL A   1      42.310  24.399  34.977  1.00  0.00    -0.326 N 
ATOM     25  H   UNL A   1      41.545  23.814  34.775  1.00  0.00     0.169 HD
BRANCH  24  26
ATOM     26  C   UNL A   1      43.564  23.850  34.698  1.00  0.00     0.048 A 
ATOM     27  C   UNL A   1      44.318  24.383  33.655  1.00  0.00     0.026 A 
ATOM     28  C   UNL A   1      44.075  22.796  35.445  1.00  0.00     0.111 A 
ATOM     29  C   UNL A   1      45.649  23.988  33.485  1.00  0.00     0.009 A 
ATOM     30  C   UNL A   1      45.425  22.456  35.331  1.00  0.00     0.271 A 
ATOM     31  C   UNL A   1      46.222  23.055  34.353  1.00  0.00     0.086 A 
BRANCH  30  32
ATOM     32  N   UNL A   1      46.013  21.516  36.294  1.00  0.00     0.062 N 
ATOM     33  O   UNL A   1      46.894  21.943  37.053  1.00  0.00    -0.258 OA
ATOM     34  O   UNL A   1      45.585  20.352  36.302  1.00  0.00    -0.258 OA
ENDBRANCH  30  32
ENDBRANCH  24  26
ENDBRANCH  18  22
ENDBRANCH  13  16
ENDBRANCH  11  12
ENDBRANCH   4   6
ENDBRANCH   3   4
ENDBRANCH   2   3
ENDBRANCH   1   2
BRANCH   1  35
ATOM     35  O   UNL A   1      33.358  34.619  32.679  1.00  0.00    -0.374 OA
BRANCH  35  36
ATOM     36  C   UNL A   1      33.355  35.867  31.975  1.00  0.00     0.202 C 
BRANCH  36  37
ATOM     37  C   UNL A   1      33.352  35.637  30.461  1.00  0.00     0.261 C 
BRANCH  37  38
ATOM     38  O   UNL A   1      33.359  34.223  30.221  1.00  0.00    -0.460 OA
BRANCH  38  39
ATOM     39  C   UNL A   1      33.765  33.871  28.976  1.00  0.00     0.338 C 
ATOM     40  O   UNL A   1      33.232  34.165  27.918  1.00  0.00    -0.246 OA
BRANCH  39  41
ATOM     41  C   UNL A   1      35.096  33.237  29.081  1.00  0.00     0.060 A 
ATOM     42  C   UNL A   1      35.222  32.122  29.919  1.00  0.00     0.016 A 
ATOM     43  C   UNL A   1      36.195  33.697  28.345  1.00  0.00     0.016 A 
ATOM     44  C   UNL A   1      36.456  31.495  30.062  1.00  0.00     0.010 A 
ATOM     45  C   UNL A   1      37.429  33.064  28.482  1.00  0.00     0.010 A 
ATOM     46  C   UNL A   1      37.572  31.989  29.374  1.00  0.00    -0.014 A 
BRANCH  46  47
ATOM     47  C   UNL A   1      38.925  31.521  29.748  1.00  0.00     0.031 A 
ATOM     48  C   UNL A   1      39.666  32.290  30.806  1.00  0.00     0.074 A 
ATOM     49  C   UNL A   1      39.462  30.429  29.175  1.00  0.00     0.049 A 
ATOM     50  N   UNL A   1      40.865  32.101  31.287  1.00  0.00    -0.248 NA
ATOM     51  C   UNL A   1      38.955  33.438  31.395  1.00  0.00     0.031 C 
ATOM     52  C   UNL A   1      38.815  29.606  28.155  1.00  0.00     0.029 A 
ATOM     53  N   UNL A   1      40.680  29.832  29.368  1.00  0.00    -0.354 N 
ATOM     54  C   UNL A   1      41.049  33.096  32.242  1.00  0.00     0.074 A 
ATOM     55  C   UNL A   1      39.862  33.922  32.225  1.00  0.00     0.031 C 
ATOM     56  C   UNL A   1      39.650  28.613  27.803  1.00  0.00     0.029 A 
ATOM     57  C   UNL A   1      40.899  28.748  28.551  1.00  0.00     0.049 A 
ATOM     58  H   UNL A   1      41.337  30.149  30.030  1.00  0.00     0.167 HD
ATOM     59  C   UNL A   1      42.102  33.288  33.072  1.00  0.00     0.034 A 
ATOM     60  C   UNL A   1      41.993  27.971  28.416  1.00  0.00     0.034 A 
ATOM     61  C   UNL A   1      43.286  32.467  33.049  1.00  0.00     0.049 A 
ATOM     62  C   UNL A   1      43.185  28.247  29.302  1.00  0.00     0.074 A 
ATOM     63  C   UNL A   1      44.430  32.576  33.820  1.00  0.00     0.029 A 
ATOM     64  N   UNL A   1      43.481  31.385  32.199  1.00  0.00    -0.354 N 
ATOM     65  N   UNL A   1      43.342  29.184  30.211  1.00  0.00    -0.248 NA
ATOM     66  C   UNL A   1      44.337  27.350  29.159  1.00  0.00     0.031 C 
ATOM     67  C   UNL A   1      45.337  31.598  33.395  1.00  0.00     0.029 A 
ATOM     68  C   UNL A   1      44.732  30.829  32.413  1.00  0.00     0.049 A 
ATOM     69  H   UNL A   1      42.825  31.061  31.540  1.00  0.00     0.167 HD
ATOM     70  C   UNL A   1      44.601  28.967  30.767  1.00  0.00     0.074 A 
ATOM     71  C   UNL A   1      45.145  27.797  30.108  1.00  0.00     0.031 C 
ATOM     72  C   UNL A   1      45.253  29.666  31.733  1.00  0.00     0.034 A 
BRANCH  59  73
ATOM     73  C   UNL A   1      42.017  34.448  34.034  1.00  0.00     0.023 A 
ATOM     74  C   UNL A   1      41.414  34.311  35.297  1.00  0.00     0.031 A 
ATOM     75  C   UNL A   1      42.498  35.717  33.670  1.00  0.00     0.131 A 
ATOM     76  C   UNL A   1      41.242  35.435  36.119  1.00  0.00     0.055 A 
ATOM     77  C   UNL A   1      42.397  36.816  34.526  1.00  0.00     0.041 A 
ATOM     78  F   UNL A   1      43.058  35.916  32.466  1.00  0.00    -0.206 F 
ATOM     79  C   UNL A   1      41.752  36.683  35.753  1.00  0.00     0.022 A 
BRANCH  76  80
ATOM     80  S   UNL A   1      40.219  35.273  37.609  1.00  0.00     0.124 S 
ATOM     81  O   UNL A   1      41.235  35.186  38.656  1.00  0.00    -0.237 OA
ATOM     82  O   UNL A   1      39.430  36.499  37.585  1.00  0.00    -0.237 OA
ATOM     83  O   UNL A   1      39.467  34.042  37.376  1.00  0.00    -0.744 OA
ENDBRANCH  76  80
ENDBRANCH  59  73
BRANCH  60  84
ATOM     84  C   UNL A   1      42.034  26.886  27.393  1.00  0.00     0.023 A 
ATOM     85  C   UNL A   1      41.799  25.546  27.739  1.00  0.00     0.031 A 
ATOM     86  C   UNL A   1      42.374  27.169  26.057  1.00  0.00     0.131 A 
ATOM     87  C   UNL A   1      41.963  24.534  26.779  1.00  0.00     0.055 A 
ATOM     88  C   UNL A   1      42.478  26.165  25.092  1.00  0.00     0.041 A 
ATOM     89  F   UNL A   1      42.606  28.433  25.669  1.00  0.00    -0.206 F 
ATOM     90  C   UNL A   1      42.289  24.836  25.455  1.00  0.00     0.022 A 
BRANCH  87  91
ATOM     91  S   UNL A   1      41.842  22.804  27.310  1.00  0.00     0.124 S 
ATOM     92  O   UNL A   1      40.469  22.739  27.798  1.00  0.00    -0.237 OA
ATOM     93  O   UNL A   1      42.117  22.088  26.069  1.00  0.00    -0.237 OA
ATOM     94  O   UNL A   1      42.876  22.690  28.337  1.00  0.00    -0.744 OA
ENDBRANCH  87  91
ENDBRANCH  60  84
BRANCH  72  95
ATOM     95  C   UNL A   1      46.606  29.145  32.153  1.00  0.00     0.023 A 
ATOM     96  C   UNL A   1      46.744  28.199  33.184  1.00  0.00     0.031 A 
ATOM     97  C   UNL A   1      47.773  29.622  31.532  1.00  0.00     0.131 A 
ATOM     98  C   UNL A   1      48.024  27.818  33.613  1.00  0.00     0.055 A 
ATOM     99  C   UNL A   1      49.041  29.186  31.917  1.00  0.00     0.041 A 
ATOM    100  F   UNL A   1      47.700  30.526  30.541  1.00  0.00    -0.206 F 
ATOM    101  C   UNL A   1      49.173  28.292  32.975  1.00  0.00     0.022 A 
BRANCH  98 102
ATOM    102  S   UNL A   1      48.168  26.784  35.097  1.00  0.00     0.124 S 
ATOM    103  O   UNL A   1      48.734  25.553  34.554  1.00  0.00    -0.237 OA
ATOM    104  O   UNL A   1      49.055  27.575  35.942  1.00  0.00    -0.237 OA
ATOM    105  O   UNL A   1      46.790  26.676  35.573  1.00  0.00    -0.744 OA
ENDBRANCH  98 102
ENDBRANCH  72  95
ENDBRANCH  46  47
ENDBRANCH  39  41
ENDBRANCH  38  39
ENDBRANCH  37  38
ENDBRANCH  36  37
ENDBRANCH  35  36
ENDBRANCH   1  35
TORSDOF 22
ENDMDL
MODEL 3
REMARK VINA RESULT:     -11.3      5.861     12.027
REMARK SMILES O=C(OCCOCCOC(=O)c1ccc(-c2c3nc(c(-c4cc(S(=O)(=O)[O-])ccc4F)c4ccc([nH]4)c(-c4cc(S(=O)(=O)[O-])ccc4F)c4nc(c(-c5cc(S(=O)(=O)[O-])ccc5F)c5ccc2[nH]5)C=C4)C=C3)cc1)c1ccc(NC(=O)[C@@H]2CC=CC[C@H]2C(=O)Nc2cccc([N+](=O)[O-])c2)cc1
REMARK SMILES IDX 5 1 4 2 3 3 2 4 1 5 75 6 76 7 101 8 77 9 100 10 78 11 79 12
REMARK SMILES IDX 80 13 81 15 82 16 83 17 87 18 84 19 86 20 85 21 88 22 89 23
REMARK SMILES IDX 90 24 91 26 92 27 99 28 93 29 95 30 94 31 96 32 97 33 98 34
REMARK SMILES IDX 6 35 7 36 8 37 9 38 10 39 11 40 12 41 13 42 74 43 14 44
REMARK SMILES IDX 73 45 15 46 16 47 17 48 67 49 18 50 72 51 66 52 68 53 19 54
REMARK SMILES IDX 71 55 65 56 64 57 20 59 52 60 32 61 51 62 33 63 36 64 50 65
REMARK SMILES IDX 69 66 34 67 35 68 49 70 70 71 37 72 21 73 22 74 30 75 23 76
REMARK SMILES IDX 29 77 31 78 28 79 24 80 25 81 26 82 27 83 53 84 54 85 62 86
REMARK SMILES IDX 55 87 61 88 63 89 60 90 56 91 57 92 58 93 59 94 38 95 39 96
REMARK SMILES IDX 47 97 40 98 46 99 48 100 45 101 41 102 42 103 43 104 44 105
REMARK H PARENT 79 14 90 25 68 58 36 69
REMARK Flexibility Score: inf
ROOT
ATOM      1  C   UNL A   1      34.873  35.239  33.466  1.00  0.00     0.202 C 
ENDROOT
BRANCH   1   2
ATOM      2  C   UNL A   1      35.834  34.060  33.229  1.00  0.00     0.261 C 
BRANCH   2   3
ATOM      3  O   UNL A   1      36.026  33.266  34.418  1.00  0.00    -0.460 OA
BRANCH   3   4
ATOM      4  C   UNL A   1      37.188  32.879  35.004  1.00  0.00     0.338 C 
ATOM      5  O   UNL A   1      37.687  33.609  35.860  1.00  0.00    -0.246 OA
BRANCH   4   6
ATOM      6  C   UNL A   1      37.952  31.651  34.617  1.00  0.00     0.060 A 
ATOM      7  C   UNL A   1      37.637  30.851  33.534  1.00  0.00     0.018 A 
ATOM      8  C   UNL A   1      39.132  31.331  35.313  1.00  0.00     0.018 A 
ATOM      9  C   UNL A   1      38.462  29.821  33.118  1.00  0.00     0.027 A 
ATOM     10  C   UNL A   1      39.994  30.312  34.859  1.00  0.00     0.027 A 
ATOM     11  C   UNL A   1      39.691  29.603  33.695  1.00  0.00     0.041 A 
BRANCH  11  12
ATOM     12  N   UNL A   1      40.651  28.754  33.135  1.00  0.00    -0.326 N 
ATOM     13  C   UNL A   1      41.812  28.216  33.606  1.00  0.00     0.228 C 
ATOM     14  H   UNL A   1      40.448  28.492  32.208  1.00  0.00     0.169 HD
ATOM     15  O   UNL A   1      42.453  27.524  32.800  1.00  0.00    -0.274 OA
BRANCH  13  16
ATOM     16  C   UNL A   1      42.379  28.372  35.024  1.00  0.00     0.095 C 
ATOM     17  C   UNL A   1      43.156  29.668  35.327  1.00  0.00     0.041 C 
ATOM     18  C   UNL A   1      42.920  27.040  35.586  1.00  0.00     0.095 C 
ATOM     19  C   UNL A   1      44.067  29.585  36.511  1.00  0.00    -0.030 C 
ATOM     20  C   UNL A   1      43.674  27.143  36.927  1.00  0.00     0.041 C 
ATOM     21  C   UNL A   1      44.292  28.473  37.218  1.00  0.00    -0.030 C 
BRANCH  18  22
ATOM     22  C   UNL A   1      41.918  25.865  35.588  1.00  0.00     0.228 C 
ATOM     23  O   UNL A   1      40.754  26.078  35.954  1.00  0.00    -0.274 OA
ATOM     24  N   UNL A   1      42.189  24.623  35.079  1.00  0.00    -0.326 N 
ATOM     25  H   UNL A   1      41.407  24.034  34.978  1.00  0.00     0.169 HD
BRANCH  24  26
ATOM     26  C   UNL A   1      43.406  24.063  34.682  1.00  0.00     0.048 A 
ATOM     27  C   UNL A   1      44.248  24.799  33.849  1.00  0.00     0.026 A 
ATOM     28  C   UNL A   1      43.796  22.801  35.109  1.00  0.00     0.111 A 
ATOM     29  C   UNL A   1      45.549  24.349  33.602  1.00  0.00     0.009 A 
ATOM     30  C   UNL A   1      45.118  22.386  34.931  1.00  0.00     0.271 A 
ATOM     31  C   UNL A   1      46.005  23.162  34.180  1.00  0.00     0.086 A 
BRANCH  30  32
ATOM     32  N   UNL A   1      45.584  21.164  35.599  1.00  0.00     0.062 N 
ATOM     33  O   UNL A   1      46.048  21.272  36.742  1.00  0.00    -0.258 OA
ATOM     34  O   UNL A   1      45.473  20.092  34.985  1.00  0.00    -0.258 OA
ENDBRANCH  30  32
ENDBRANCH  24  26
ENDBRANCH  18  22
ENDBRANCH  13  16
ENDBRANCH  11  12
ENDBRANCH   4   6
ENDBRANCH   3   4
ENDBRANCH   2   3
ENDBRANCH   1   2
BRANCH   1  35
ATOM     35  O   UNL A   1      33.619  35.122  32.782  1.00  0.00    -0.374 OA
BRANCH  35  36
ATOM     36  C   UNL A   1      33.259  36.268  32.000  1.00  0.00     0.202 C 
BRANCH  36  37
ATOM     37  C   UNL A   1      33.146  35.899  30.518  1.00  0.00     0.261 C 
BRANCH  37  38
ATOM     38  O   UNL A   1      33.295  34.478  30.395  1.00  0.00    -0.460 OA
BRANCH  38  39
ATOM     39  C   UNL A   1      33.657  34.061  29.157  1.00  0.00     0.338 C 
ATOM     40  O   UNL A   1      33.096  34.311  28.102  1.00  0.00    -0.246 OA
BRANCH  39  41
ATOM     41  C   UNL A   1      34.983  33.412  29.253  1.00  0.00     0.060 A 
ATOM     42  C   UNL A   1      35.130  32.365  30.171  1.00  0.00     0.016 A 
ATOM     43  C   UNL A   1      36.053  33.792  28.434  1.00  0.00     0.016 A 
ATOM     44  C   UNL A   1      36.360  31.729  30.309  1.00  0.00     0.010 A 
ATOM     45  C   UNL A   1      37.283  33.149  28.566  1.00  0.00     0.010 A 
ATOM     46  C   UNL A   1      37.450  32.146  29.534  1.00  0.00    -0.014 A 
BRANCH  46  47
ATOM     47  C   UNL A   1      38.812  31.684  29.883  1.00  0.00     0.031 A 
ATOM     48  C   UNL A   1      39.586  32.482  30.896  1.00  0.00     0.074 A 
ATOM     49  C   UNL A   1      39.330  30.574  29.329  1.00  0.00     0.049 A 
ATOM     50  N   UNL A   1      40.797  32.303  31.349  1.00  0.00    -0.248 NA
ATOM     51  C   UNL A   1      38.895  33.650  31.470  1.00  0.00     0.031 C 
ATOM     52  C   UNL A   1      38.651  29.722  28.353  1.00  0.00     0.029 A 
ATOM     53  N   UNL A   1      40.551  29.978  29.505  1.00  0.00    -0.354 N 
ATOM     54  C   UNL A   1      41.011  33.325  32.267  1.00  0.00     0.074 A 
ATOM     55  C   UNL A   1      39.827  34.156  32.259  1.00  0.00     0.031 C 
ATOM     56  C   UNL A   1      39.473  28.716  28.007  1.00  0.00     0.029 A 
ATOM     57  C   UNL A   1      40.743  28.869  28.715  1.00  0.00     0.049 A 
ATOM     58  H   UNL A   1      41.227  30.312  30.138  1.00  0.00     0.167 HD
ATOM     59  C   UNL A   1      42.088  33.538  33.061  1.00  0.00     0.034 A 
ATOM     60  C   UNL A   1      41.830  28.084  28.572  1.00  0.00     0.034 A 
ATOM     61  C   UNL A   1      43.269  32.713  33.029  1.00  0.00     0.049 A 
ATOM     62  C   UNL A   1      43.048  28.382  29.416  1.00  0.00     0.074 A 
ATOM     63  C   UNL A   1      44.434  32.840  33.763  1.00  0.00     0.029 A 
ATOM     64  N   UNL A   1      43.436  31.605  32.207  1.00  0.00    -0.354 N 
ATOM     65  N   UNL A   1      43.234  29.346  30.291  1.00  0.00    -0.248 NA
ATOM     66  C   UNL A   1      44.193  27.477  29.267  1.00  0.00     0.031 C 
ATOM     67  C   UNL A   1      45.326  31.847  33.343  1.00  0.00     0.029 A 
ATOM     68  C   UNL A   1      44.691  31.051  32.402  1.00  0.00     0.049 A 
ATOM     69  H   UNL A   1      42.761  31.263  31.577  1.00  0.00     0.167 HD
ATOM     70  C   UNL A   1      44.507  29.141  30.818  1.00  0.00     0.074 A 
ATOM     71  C   UNL A   1      45.029  27.949  30.179  1.00  0.00     0.031 C 
ATOM     72  C   UNL A   1      45.189  29.866  31.742  1.00  0.00     0.034 A 
BRANCH  59  73
ATOM     73  C   UNL A   1      42.034  34.727  33.989  1.00  0.00     0.023 A 
ATOM     74  C   UNL A   1      42.612  35.960  33.637  1.00  0.00     0.031 A 
ATOM     75  C   UNL A   1      41.442  34.618  35.259  1.00  0.00     0.131 A 
ATOM     76  C   UNL A   1      42.652  37.009  34.568  1.00  0.00     0.055 A 
ATOM     77  C   UNL A   1      41.413  35.692  36.152  1.00  0.00     0.041 A 
ATOM     78  F   UNL A   1      40.899  33.459  35.663  1.00  0.00    -0.206 F 
ATOM     79  C   UNL A   1      42.034  36.892  35.815  1.00  0.00     0.022 A 
BRANCH  76  80
ATOM     80  S   UNL A   1      43.645  38.477  34.180  1.00  0.00     0.124 S 
ATOM     81  O   UNL A   1      44.615  37.934  33.231  1.00  0.00    -0.237 OA
ATOM     82  O   UNL A   1      42.654  39.392  33.628  1.00  0.00    -0.237 OA
ATOM     83  O   UNL A   1      44.201  38.866  35.474  1.00  0.00    -0.744 OA
ENDBRANCH  76  80
ENDBRANCH  59  73
BRANCH  60  84
ATOM     84  C   UNL A   1      41.839  26.969  27.582  1.00  0.00     0.023 A 
ATOM     85  C   UNL A   1      41.577  25.645  27.970  1.00  0.00     0.031 A 
ATOM     86  C   UNL A   1      42.175  27.204  26.236  1.00  0.00     0.131 A 
ATOM     87  C   UNL A   1      41.710  24.602  27.039  1.00  0.00     0.055 A 
ATOM     88  C   UNL A   1      42.249  26.170  25.301  1.00  0.00     0.041 A 
ATOM     89  F   UNL A   1      42.432  28.450  25.808  1.00  0.00    -0.206 F 
ATOM     90  C   UNL A   1      42.033  24.857  25.704  1.00  0.00     0.022 A 
BRANCH  87  91
ATOM     91  S   UNL A   1      41.554  22.891  27.623  1.00  0.00     0.124 S 
ATOM     92  O   UNL A   1      40.106  22.716  27.645  1.00  0.00    -0.237 OA
ATOM     93  O   UNL A   1      42.274  22.154  26.589  1.00  0.00    -0.237 OA
ATOM     94  O   UNL A   1      42.201  22.918  28.933  1.00  0.00    -0.744 OA
ENDBRANCH  87  91
ENDBRANCH  60  84
BRANCH  72  95
ATOM     95  C   UNL A   1      46.551  29.352  32.140  1.00  0.00     0.023 A 
ATOM     96  C   UNL A   1      47.718  29.761  31.473  1.00  0.00     0.031 A 
ATOM     97  C   UNL A   1      46.679  28.419  33.185  1.00  0.00     0.131 A 
ATOM     98  C   UNL A   1      48.952  29.184  31.806  1.00  0.00     0.055 A 
ATOM     99  C   UNL A   1      47.919  27.900  33.558  1.00  0.00     0.041 A 
ATOM    100  F   UNL A   1      45.598  27.993  33.858  1.00  0.00    -0.206 F 
ATOM    101  C   UNL A   1      49.063  28.268  32.856  1.00  0.00     0.022 A 
BRANCH  98 102
ATOM    102  S   UNL A   1      50.392  29.556  30.768  1.00  0.00     0.124 S 
ATOM    103  O   UNL A   1      49.777  30.220  29.624  1.00  0.00    -0.237 OA
ATOM    104  O   UNL A   1      51.194  30.405  31.643  1.00  0.00    -0.237 OA
ATOM    105  O   UNL A   1      50.963  28.240  30.489  1.00  0.00    -0.744 OA
ENDBRANCH  98 102
ENDBRANCH  72  95
ENDBRANCH  46  47
ENDBRANCH  39  41
ENDBRANCH  38  39
ENDBRANCH  37  38
ENDBRANCH  36  37
ENDBRANCH  35  36
ENDBRANCH   1  35
TORSDOF 22
ENDMDL
