MODEL 1
REMARK VINA RESULT:      -9.7      0.000      0.000
REMARK SMILES Cc1ccc(OCCn2ccnc2)c(/C=C/C(=O)OCCOCCOC(=O)c2ccc(-c3c4nc(c(-c5cc(S(=O)(=O)[O-])ccc5F)c5ccc([nH]5)c(-c5cc(S(=O)(=O)[O-])ccc5F)c5nc(c(-c6cc(S(=O)(=O)[O-])ccc6F)c6ccc3[nH]6)C=C5)C=C4)cc2)n1
REMARK SMILES IDX 21 1 20 2 19 3 17 4 18 5 16 6 15 7 14 8 1 9 2 10 3 11 91 12
REMARK SMILES IDX 4 13 5 14 6 15 7 16 8 17 9 18 10 19 13 20 11 21 12 22 22 23
REMARK SMILES IDX 23 24 24 25 25 26 26 27 27 28 28 29 29 30 90 31 30 32 89 33
REMARK SMILES IDX 31 34 32 35 33 36 83 37 34 38 88 39 82 40 84 41 35 42 87 43
REMARK SMILES IDX 81 44 80 45 36 47 68 48 48 49 67 50 49 51 52 52 66 53 85 54
REMARK SMILES IDX 50 55 51 56 65 58 86 59 53 60 37 61 38 62 46 63 39 64 45 65
REMARK SMILES IDX 47 66 44 67 40 68 41 69 42 70 43 71 69 72 70 73 78 74 71 75
REMARK SMILES IDX 77 76 79 77 76 78 72 79 73 80 74 81 75 82 54 83 55 84 63 85
REMARK SMILES IDX 56 86 62 87 64 88 61 89 57 90 58 91 59 92 60 93
REMARK H PARENT 84 46 52 57
REMARK Flexibility Score: inf
ROOT
ATOM      1  C   UNL A   1      33.078  35.751  29.532  1.00  0.00     0.202 C 
ENDROOT
BRANCH   1   2
ATOM      2  C   UNL A   1      33.607  35.427  30.931  1.00  0.00     0.261 C 
BRANCH   2   3
ATOM      3  O   UNL A   1      33.357  36.482  31.875  1.00  0.00    -0.460 OA
BRANCH   3   4
ATOM      4  C   UNL A   1      34.123  36.446  32.992  1.00  0.00     0.330 C 
ATOM      5  O   UNL A   1      33.931  37.070  34.026  1.00  0.00    -0.247 OA
BRANCH   4   6
ATOM      6  C   UNL A   1      35.184  35.429  32.901  1.00  0.00     0.096 C 
ATOM      7  C   UNL A   1      35.656  34.684  33.914  1.00  0.00     0.040 C 
BRANCH   7   8
ATOM      8  C   UNL A   1      36.753  33.711  33.728  1.00  0.00     0.105 A 
ATOM      9  C   UNL A   1      36.860  30.160  32.747  1.00  0.00     0.067 C 
ATOM     10  C   UNL A   1      37.324  31.542  33.094  1.00  0.00     0.038 A 
ATOM     11  C   UNL A   1      38.676  31.828  33.198  1.00  0.00     0.027 A 
ATOM     12  N   UNL A   1      36.370  32.478  33.300  1.00  0.00    -0.250 NA
ATOM     13  C   UNL A   1      39.061  33.090  33.642  1.00  0.00     0.050 A 
ATOM     14  C   UNL A   1      38.092  34.031  33.994  1.00  0.00     0.145 A 
BRANCH  14  15
ATOM     15  O   UNL A   1      38.369  35.214  34.627  1.00  0.00    -0.489 OA
BRANCH  15  16
ATOM     16  C   UNL A   1      39.649  35.350  35.265  1.00  0.00     0.251 C 
BRANCH  16  17
ATOM     17  C   UNL A   1      39.587  35.414  36.800  1.00  0.00     0.164 C 
BRANCH  17  18
ATOM     18  N   UNL A   1      40.328  34.374  37.486  1.00  0.00    -0.334 N 
ATOM     19  C   UNL A   1      41.674  34.367  37.732  1.00  0.00     0.107 A 
ATOM     20  C   UNL A   1      39.814  33.215  37.996  1.00  0.00     0.199 A 
ATOM     21  C   UNL A   1      41.892  33.238  38.483  1.00  0.00     0.130 A 
ATOM     22  N   UNL A   1      40.734  32.519  38.629  1.00  0.00    -0.245 NA
ENDBRANCH  17  18
ENDBRANCH  16  17
ENDBRANCH  15  16
ENDBRANCH  14  15
ENDBRANCH   7   8
ENDBRANCH   4   6
ENDBRANCH   3   4
ENDBRANCH   2   3
ENDBRANCH   1   2
BRANCH   1  23
ATOM     23  O   UNL A   1      32.889  34.656  28.638  1.00  0.00    -0.374 OA
BRANCH  23  24
ATOM     24  C   UNL A   1      34.028  34.087  28.001  1.00  0.00     0.202 C 
BRANCH  24  25
ATOM     25  C   UNL A   1      34.127  32.571  27.928  1.00  0.00     0.261 C 
BRANCH  25  26
ATOM     26  O   UNL A   1      35.462  32.088  27.991  1.00  0.00    -0.460 OA
BRANCH  26  27
ATOM     27  C   UNL A   1      35.824  31.698  29.240  1.00  0.00     0.338 C 
ATOM     28  O   UNL A   1      35.272  31.985  30.285  1.00  0.00    -0.246 OA
BRANCH  27  29
ATOM     29  C   UNL A   1      37.123  31.023  29.161  1.00  0.00     0.060 A 
ATOM     30  C   UNL A   1      37.111  29.632  29.031  1.00  0.00     0.016 A 
ATOM     31  C   UNL A   1      38.293  31.730  29.469  1.00  0.00     0.016 A 
ATOM     32  C   UNL A   1      38.254  28.932  29.359  1.00  0.00     0.010 A 
ATOM     33  C   UNL A   1      39.419  31.029  29.830  1.00  0.00     0.010 A 
ATOM     34  C   UNL A   1      39.375  29.635  29.820  1.00  0.00    -0.014 A 
BRANCH  34  35
ATOM     35  C   UNL A   1      40.615  28.907  30.031  1.00  0.00     0.031 A 
ATOM     36  C   UNL A   1      40.870  28.729  31.485  1.00  0.00     0.074 A 
ATOM     37  C   UNL A   1      41.314  28.345  29.022  1.00  0.00     0.049 A 
ATOM     38  N   UNL A   1      41.825  29.243  32.184  1.00  0.00    -0.248 NA
ATOM     39  C   UNL A   1      39.802  28.122  32.310  1.00  0.00     0.031 C 
ATOM     40  C   UNL A   1      40.946  28.312  27.604  1.00  0.00     0.029 A 
ATOM     41  N   UNL A   1      42.450  27.590  29.048  1.00  0.00    -0.354 N 
ATOM     42  C   UNL A   1      41.637  28.749  33.471  1.00  0.00     0.074 A 
ATOM     43  C   UNL A   1      40.269  28.331  33.539  1.00  0.00     0.031 C 
ATOM     44  C   UNL A   1      41.704  27.393  26.961  1.00  0.00     0.029 A 
ATOM     45  C   UNL A   1      42.682  26.843  27.887  1.00  0.00     0.049 A 
ATOM     46  H   UNL A   1      43.058  27.572  29.821  1.00  0.00     0.167 HD
ATOM     47  C   UNL A   1      42.712  28.384  34.219  1.00  0.00     0.034 A 
ATOM     48  C   UNL A   1      43.563  25.811  27.721  1.00  0.00     0.034 A 
ATOM     49  C   UNL A   1      43.901  29.062  33.745  1.00  0.00     0.049 A 
ATOM     50  C   UNL A   1      44.561  25.932  28.813  1.00  0.00     0.074 A 
ATOM     51  C   UNL A   1      44.243  30.388  33.556  1.00  0.00     0.029 A 
ATOM     52  N   UNL A   1      44.801  28.333  32.999  1.00  0.00    -0.354 N 
ATOM     53  N   UNL A   1      45.401  26.925  28.911  1.00  0.00    -0.248 NA
ATOM     54  C   UNL A   1      44.284  25.228  30.055  1.00  0.00     0.031 C 
ATOM     55  C   UNL A   1      45.011  30.407  32.356  1.00  0.00     0.029 A 
ATOM     56  C   UNL A   1      45.200  29.090  31.929  1.00  0.00     0.049 A 
ATOM     57  H   UNL A   1      45.105  27.419  33.201  1.00  0.00     0.167 HD
ATOM     58  C   UNL A   1      45.407  27.254  30.259  1.00  0.00     0.074 A 
ATOM     59  C   UNL A   1      44.765  26.120  30.925  1.00  0.00     0.031 C 
ATOM     60  C   UNL A   1      45.658  28.533  30.668  1.00  0.00     0.034 A 
BRANCH  47  61
ATOM     61  C   UNL A   1      42.769  27.086  35.009  1.00  0.00     0.023 A 
ATOM     62  C   UNL A   1      43.616  26.086  34.499  1.00  0.00     0.031 A 
ATOM     63  C   UNL A   1      41.855  26.654  36.002  1.00  0.00     0.131 A 
ATOM     64  C   UNL A   1      43.435  24.737  34.845  1.00  0.00     0.055 A 
ATOM     65  C   UNL A   1      41.721  25.318  36.389  1.00  0.00     0.041 A 
ATOM     66  F   UNL A   1      40.986  27.467  36.611  1.00  0.00    -0.206 F 
ATOM     67  C   UNL A   1      42.486  24.343  35.781  1.00  0.00     0.022 A 
BRANCH  64  68
ATOM     68  S   UNL A   1      44.338  23.492  33.897  1.00  0.00     0.124 S 
ATOM     69  O   UNL A   1      45.530  24.239  33.514  1.00  0.00    -0.237 OA
ATOM     70  O   UNL A   1      44.525  22.440  34.891  1.00  0.00    -0.237 OA
ATOM     71  O   UNL A   1      43.419  23.166  32.809  1.00  0.00    -0.744 OA
ENDBRANCH  64  68
ENDBRANCH  47  61
BRANCH  48  72
ATOM     72  C   UNL A   1      43.402  24.558  26.908  1.00  0.00     0.023 A 
ATOM     73  C   UNL A   1      42.451  23.547  27.207  1.00  0.00     0.031 A 
ATOM     74  C   UNL A   1      44.029  24.460  25.645  1.00  0.00     0.131 A 
ATOM     75  C   UNL A   1      42.170  22.517  26.269  1.00  0.00     0.055 A 
ATOM     76  C   UNL A   1      43.747  23.444  24.726  1.00  0.00     0.041 A 
ATOM     77  F   UNL A   1      44.880  25.403  25.213  1.00  0.00    -0.206 F 
ATOM     78  C   UNL A   1      42.808  22.474  25.029  1.00  0.00     0.022 A 
BRANCH  75  79
ATOM     79  S   UNL A   1      40.898  21.245  26.600  1.00  0.00     0.124 S 
ATOM     80  O   UNL A   1      40.788  21.284  28.054  1.00  0.00    -0.237 OA
ATOM     81  O   UNL A   1      39.751  21.739  25.846  1.00  0.00    -0.237 OA
ATOM     82  O   UNL A   1      41.493  20.018  26.066  1.00  0.00    -0.744 OA
ENDBRANCH  75  79
ENDBRANCH  48  72
BRANCH  60  83
ATOM     83  C   UNL A   1      46.326  29.492  29.701  1.00  0.00     0.023 A 
ATOM     84  C   UNL A   1      45.678  30.278  28.721  1.00  0.00     0.031 A 
ATOM     85  C   UNL A   1      47.709  29.685  29.882  1.00  0.00     0.131 A 
ATOM     86  C   UNL A   1      46.423  31.212  27.968  1.00  0.00     0.055 A 
ATOM     87  C   UNL A   1      48.434  30.627  29.156  1.00  0.00     0.041 A 
ATOM     88  F   UNL A   1      48.380  28.978  30.807  1.00  0.00    -0.206 F 
ATOM     89  C   UNL A   1      47.792  31.391  28.191  1.00  0.00     0.022 A 
BRANCH  86  90
ATOM     90  S   UNL A   1      45.636  32.204  26.655  1.00  0.00     0.124 S 
ATOM     91  O   UNL A   1      44.469  32.778  27.312  1.00  0.00    -0.237 OA
ATOM     92  O   UNL A   1      46.694  33.143  26.291  1.00  0.00    -0.237 OA
ATOM     93  O   UNL A   1      45.325  31.213  25.622  1.00  0.00    -0.744 OA
ENDBRANCH  86  90
ENDBRANCH  60  83
ENDBRANCH  34  35
ENDBRANCH  27  29
ENDBRANCH  26  27
ENDBRANCH  25  26
ENDBRANCH  24  25
ENDBRANCH  23  24
ENDBRANCH   1  23
TORSDOF 22
ENDMDL
MODEL 2
REMARK VINA RESULT:      -9.4      5.016     12.049
REMARK SMILES Cc1ccc(OCCn2ccnc2)c(/C=C/C(=O)OCCOCCOC(=O)c2ccc(-c3c4nc(c(-c5cc(S(=O)(=O)[O-])ccc5F)c5ccc([nH]5)c(-c5cc(S(=O)(=O)[O-])ccc5F)c5nc(c(-c6cc(S(=O)(=O)[O-])ccc6F)c6ccc3[nH]6)C=C5)C=C4)cc2)n1
REMARK SMILES IDX 21 1 20 2 19 3 17 4 18 5 16 6 15 7 14 8 1 9 2 10 3 11 91 12
REMARK SMILES IDX 4 13 5 14 6 15 7 16 8 17 9 18 10 19 13 20 11 21 12 22 22 23
REMARK SMILES IDX 23 24 24 25 25 26 26 27 27 28 28 29 29 30 90 31 30 32 89 33
REMARK SMILES IDX 31 34 32 35 33 36 83 37 34 38 88 39 82 40 84 41 35 42 87 43
REMARK SMILES IDX 81 44 80 45 36 47 68 48 48 49 67 50 49 51 52 52 66 53 85 54
REMARK SMILES IDX 50 55 51 56 65 58 86 59 53 60 37 61 38 62 46 63 39 64 45 65
REMARK SMILES IDX 47 66 44 67 40 68 41 69 42 70 43 71 69 72 70 73 78 74 71 75
REMARK SMILES IDX 77 76 79 77 76 78 72 79 73 80 74 81 75 82 54 83 55 84 63 85
REMARK SMILES IDX 56 86 62 87 64 88 61 89 57 90 58 91 59 92 60 93
REMARK H PARENT 84 46 52 57
REMARK Flexibility Score: inf
ROOT
ATOM      1  C   UNL A   1      40.651  21.893  27.246  1.00  0.00     0.202 C 
ENDROOT
BRANCH   1   2
ATOM      2  C   UNL A   1      39.770  21.612  26.026  1.00  0.00     0.261 C 
BRANCH   2   3
ATOM      3  O   UNL A   1      38.411  22.040  26.216  1.00  0.00    -0.460 OA
BRANCH   3   4
ATOM      4  C   UNL A   1      38.189  23.360  26.003  1.00  0.00     0.330 C 
ATOM      5  O   UNL A   1      38.886  24.286  26.394  1.00  0.00    -0.247 OA
BRANCH   4   6
ATOM      6  C   UNL A   1      37.054  23.589  25.093  1.00  0.00     0.096 C 
ATOM      7  C   UNL A   1      35.791  23.177  25.283  1.00  0.00     0.040 C 
BRANCH   7   8
ATOM      8  C   UNL A   1      34.725  23.425  24.290  1.00  0.00     0.105 A 
ATOM      9  C   UNL A   1      33.207  26.486  22.907  1.00  0.00     0.067 C 
ATOM     10  C   UNL A   1      33.535  25.036  23.097  1.00  0.00     0.038 A 
ATOM     11  C   UNL A   1      32.878  24.061  22.365  1.00  0.00     0.027 A 
ATOM     12  N   UNL A   1      34.486  24.735  24.010  1.00  0.00    -0.250 NA
ATOM     13  C   UNL A   1      33.124  22.722  22.659  1.00  0.00     0.050 A 
ATOM     14  C   UNL A   1      33.999  22.386  23.692  1.00  0.00     0.145 A 
BRANCH  14  15
ATOM     15  O   UNL A   1      34.147  21.116  24.186  1.00  0.00    -0.489 OA
BRANCH  15  16
ATOM     16  C   UNL A   1      32.979  20.451  24.692  1.00  0.00     0.251 C 
BRANCH  16  17
ATOM     17  C   UNL A   1      32.491  19.282  23.822  1.00  0.00     0.164 C 
BRANCH  17  18
ATOM     18  N   UNL A   1      32.950  17.973  24.243  1.00  0.00    -0.334 N 
ATOM     19  C   UNL A   1      32.679  17.367  25.440  1.00  0.00     0.107 A 
ATOM     20  C   UNL A   1      33.742  17.122  23.525  1.00  0.00     0.199 A 
ATOM     21  C   UNL A   1      33.241  16.117  25.340  1.00  0.00     0.130 A 
ATOM     22  N   UNL A   1      33.914  15.979  24.153  1.00  0.00    -0.245 NA
ENDBRANCH  17  18
ENDBRANCH  16  17
ENDBRANCH  15  16
ENDBRANCH  14  15
ENDBRANCH   7   8
ENDBRANCH   4   6
ENDBRANCH   3   4
ENDBRANCH   2   3
ENDBRANCH   1   2
BRANCH   1  23
ATOM     23  O   UNL A   1      41.678  20.948  27.539  1.00  0.00    -0.374 OA
BRANCH  23  24
ATOM     24  C   UNL A   1      41.692  19.710  26.836  1.00  0.00     0.202 C 
BRANCH  24  25
ATOM     25  C   UNL A   1      42.920  19.371  26.003  1.00  0.00     0.261 C 
BRANCH  25  26
ATOM     26  O   UNL A   1      43.130  20.264  24.918  1.00  0.00    -0.460 OA
BRANCH  26  27
ATOM     27  C   UNL A   1      44.418  20.681  24.818  1.00  0.00     0.338 C 
ATOM     28  O   UNL A   1      45.384  20.006  24.518  1.00  0.00    -0.246 OA
BRANCH  27  29
ATOM     29  C   UNL A   1      44.507  22.053  25.325  1.00  0.00     0.060 A 
ATOM     30  C   UNL A   1      45.412  22.293  26.361  1.00  0.00     0.016 A 
ATOM     31  C   UNL A   1      43.536  22.994  24.955  1.00  0.00     0.016 A 
ATOM     32  C   UNL A   1      45.247  23.427  27.130  1.00  0.00     0.010 A 
ATOM     33  C   UNL A   1      43.350  24.104  25.744  1.00  0.00     0.010 A 
ATOM     34  C   UNL A   1      44.174  24.286  26.854  1.00  0.00    -0.014 A 
BRANCH  34  35
ATOM     35  C   UNL A   1      44.088  25.544  27.576  1.00  0.00     0.031 A 
ATOM     36  C   UNL A   1      45.273  26.393  27.281  1.00  0.00     0.074 A 
ATOM     37  C   UNL A   1      42.991  25.917  28.269  1.00  0.00     0.049 A 
ATOM     38  N   UNL A   1      46.206  26.750  28.097  1.00  0.00    -0.248 NA
ATOM     39  C   UNL A   1      45.598  26.665  25.864  1.00  0.00     0.031 C 
ATOM     40  C   UNL A   1      41.722  25.189  28.372  1.00  0.00     0.029 A 
ATOM     41  N   UNL A   1      42.723  27.069  28.947  1.00  0.00    -0.354 N 
ATOM     42  C   UNL A   1      47.055  27.555  27.344  1.00  0.00     0.074 A 
ATOM     43  C   UNL A   1      46.799  27.230  25.974  1.00  0.00     0.031 C 
ATOM     44  C   UNL A   1      40.768  26.013  28.863  1.00  0.00     0.029 A 
ATOM     45  C   UNL A   1      41.367  27.293  29.209  1.00  0.00     0.049 A 
ATOM     46  H   UNL A   1      43.428  27.695  29.230  1.00  0.00     0.167 HD
ATOM     47  C   UNL A   1      47.601  28.669  27.901  1.00  0.00     0.034 A 
ATOM     48  C   UNL A   1      40.775  28.456  29.616  1.00  0.00     0.034 A 
ATOM     49  C   UNL A   1      47.623  28.543  29.345  1.00  0.00     0.049 A 
ATOM     50  C   UNL A   1      41.854  29.296  30.193  1.00  0.00     0.074 A 
ATOM     51  C   UNL A   1      48.150  27.613  30.223  1.00  0.00     0.029 A 
ATOM     52  N   UNL A   1      46.685  29.248  30.065  1.00  0.00    -0.354 N 
ATOM     53  N   UNL A   1      42.501  28.985  31.283  1.00  0.00    -0.248 NA
ATOM     54  C   UNL A   1      42.552  30.202  29.294  1.00  0.00     0.031 C 
ATOM     55  C   UNL A   1      47.183  27.495  31.263  1.00  0.00     0.029 A 
ATOM     56  C   UNL A   1      46.172  28.431  31.038  1.00  0.00     0.049 A 
ATOM     57  H   UNL A   1      46.425  30.185  29.906  1.00  0.00     0.167 HD
ATOM     58  C   UNL A   1      43.829  29.277  31.004  1.00  0.00     0.074 A 
ATOM     59  C   UNL A   1      43.786  30.101  29.797  1.00  0.00     0.031 C 
ATOM     60  C   UNL A   1      44.840  28.580  31.601  1.00  0.00     0.034 A 
BRANCH  47  61
ATOM     61  C   UNL A   1      47.637  30.016  27.197  1.00  0.00     0.023 A 
ATOM     62  C   UNL A   1      48.862  30.706  27.241  1.00  0.00     0.031 A 
ATOM     63  C   UNL A   1      46.524  30.786  26.777  1.00  0.00     0.131 A 
ATOM     64  C   UNL A   1      48.917  32.095  27.040  1.00  0.00     0.055 A 
ATOM     65  C   UNL A   1      46.597  32.157  26.517  1.00  0.00     0.041 A 
ATOM     66  F   UNL A   1      45.287  30.294  26.658  1.00  0.00    -0.206 F 
ATOM     67  C   UNL A   1      47.791  32.829  26.687  1.00  0.00     0.022 A 
BRANCH  64  68
ATOM     68  S   UNL A   1      50.459  32.947  27.443  1.00  0.00     0.124 S 
ATOM     69  O   UNL A   1      51.299  32.558  26.315  1.00  0.00    -0.237 OA
ATOM     70  O   UNL A   1      50.028  34.341  27.479  1.00  0.00    -0.237 OA
ATOM     71  O   UNL A   1      50.831  32.376  28.735  1.00  0.00    -0.744 OA
ENDBRANCH  64  68
ENDBRANCH  47  61
BRANCH  48  72
ATOM     72  C   UNL A   1      39.435  29.016  29.231  1.00  0.00     0.023 A 
ATOM     73  C   UNL A   1      38.557  29.648  30.149  1.00  0.00     0.031 A 
ATOM     74  C   UNL A   1      39.107  29.162  27.864  1.00  0.00     0.131 A 
ATOM     75  C   UNL A   1      37.429  30.378  29.687  1.00  0.00     0.055 A 
ATOM     76  C   UNL A   1      37.996  29.882  27.415  1.00  0.00     0.041 A 
ATOM     77  F   UNL A   1      39.907  28.684  26.899  1.00  0.00    -0.206 F 
ATOM     78  C   UNL A   1      37.157  30.503  28.324  1.00  0.00     0.022 A 
BRANCH  75  79
ATOM     79  S   UNL A   1      36.323  31.263  30.845  1.00  0.00     0.124 S 
ATOM     80  O   UNL A   1      35.223  31.669  29.978  1.00  0.00    -0.237 OA
ATOM     81  O   UNL A   1      36.024  30.241  31.842  1.00  0.00    -0.237 OA
ATOM     82  O   UNL A   1      37.151  32.366  31.336  1.00  0.00    -0.744 OA
ENDBRANCH  75  79
ENDBRANCH  48  72
BRANCH  60  83
ATOM     83  C   UNL A   1      44.538  27.781  32.855  1.00  0.00     0.023 A 
ATOM     84  C   UNL A   1      44.463  28.288  34.172  1.00  0.00     0.031 A 
ATOM     85  C   UNL A   1      44.197  26.429  32.657  1.00  0.00     0.131 A 
ATOM     86  C   UNL A   1      44.059  27.440  35.227  1.00  0.00     0.055 A 
ATOM     87  C   UNL A   1      43.774  25.605  33.696  1.00  0.00     0.041 A 
ATOM     88  F   UNL A   1      44.236  25.891  31.426  1.00  0.00    -0.206 F 
ATOM     89  C   UNL A   1      43.708  26.108  34.987  1.00  0.00     0.022 A 
BRANCH  86  90
ATOM     90  S   UNL A   1      44.004  28.040  36.949  1.00  0.00     0.124 S 
ATOM     91  O   UNL A   1      45.329  28.615  37.153  1.00  0.00    -0.237 OA
ATOM     92  O   UNL A   1      42.893  28.987  36.919  1.00  0.00    -0.237 OA
ATOM     93  O   UNL A   1      43.743  26.825  37.723  1.00  0.00    -0.744 OA
ENDBRANCH  86  90
ENDBRANCH  60  83
ENDBRANCH  34  35
ENDBRANCH  27  29
ENDBRANCH  26  27
ENDBRANCH  25  26
ENDBRANCH  24  25
ENDBRANCH  23  24
ENDBRANCH   1  23
TORSDOF 22
ENDMDL
MODEL 3
REMARK VINA RESULT:      -9.3      2.266      3.526
REMARK SMILES Cc1ccc(OCCn2ccnc2)c(/C=C/C(=O)OCCOCCOC(=O)c2ccc(-c3c4nc(c(-c5cc(S(=O)(=O)[O-])ccc5F)c5ccc([nH]5)c(-c5cc(S(=O)(=O)[O-])ccc5F)c5nc(c(-c6cc(S(=O)(=O)[O-])ccc6F)c6ccc3[nH]6)C=C5)C=C4)cc2)n1
REMARK SMILES IDX 21 1 20 2 19 3 17 4 18 5 16 6 15 7 14 8 1 9 2 10 3 11 91 12
REMARK SMILES IDX 4 13 5 14 6 15 7 16 8 17 9 18 10 19 13 20 11 21 12 22 22 23
REMARK SMILES IDX 23 24 24 25 25 26 26 27 27 28 28 29 29 30 90 31 30 32 89 33
REMARK SMILES IDX 31 34 32 35 33 36 83 37 34 38 88 39 82 40 84 41 35 42 87 43
REMARK SMILES IDX 81 44 80 45 36 47 68 48 48 49 67 50 49 51 52 52 66 53 85 54
REMARK SMILES IDX 50 55 51 56 65 58 86 59 53 60 37 61 38 62 46 63 39 64 45 65
REMARK SMILES IDX 47 66 44 67 40 68 41 69 42 70 43 71 69 72 70 73 78 74 71 75
REMARK SMILES IDX 77 76 79 77 76 78 72 79 73 80 74 81 75 82 54 83 55 84 63 85
REMARK SMILES IDX 56 86 62 87 64 88 61 89 57 90 58 91 59 92 60 93
REMARK H PARENT 84 46 52 57
REMARK Flexibility Score: inf
ROOT
ATOM      1  C   UNL A   1      34.448  35.759  32.953  1.00  0.00     0.202 C 
ENDROOT
BRANCH   1   2
ATOM      2  C   UNL A   1      33.447  35.361  31.867  1.00  0.00     0.261 C 
BRANCH   2   3
ATOM      3  O   UNL A   1      33.860  35.778  30.555  1.00  0.00    -0.460 OA
BRANCH   3   4
ATOM      4  C   UNL A   1      33.361  35.040  29.534  1.00  0.00     0.330 C 
ATOM      5  O   UNL A   1      32.438  35.350  28.795  1.00  0.00    -0.247 OA
BRANCH   4   6
ATOM      6  C   UNL A   1      34.162  33.829  29.287  1.00  0.00     0.096 C 
ATOM      7  C   UNL A   1      35.503  33.754  29.277  1.00  0.00     0.040 C 
BRANCH   7   8
ATOM      8  C   UNL A   1      36.217  32.494  28.981  1.00  0.00     0.105 A 
ATOM      9  C   UNL A   1      35.215  29.317  27.404  1.00  0.00     0.067 C 
ATOM     10  C   UNL A   1      36.081  30.380  28.009  1.00  0.00     0.038 A 
ATOM     11  C   UNL A   1      37.429  30.151  28.229  1.00  0.00     0.027 A 
ATOM     12  N   UNL A   1      35.485  31.552  28.326  1.00  0.00    -0.250 NA
ATOM     13  C   UNL A   1      38.170  31.117  28.905  1.00  0.00     0.050 A 
ATOM     14  C   UNL A   1      37.547  32.278  29.366  1.00  0.00     0.145 A 
BRANCH  14  15
ATOM     15  O   UNL A   1      38.140  33.181  30.209  1.00  0.00    -0.489 OA
BRANCH  15  16
ATOM     16  C   UNL A   1      39.205  33.990  29.684  1.00  0.00     0.251 C 
BRANCH  16  17
ATOM     17  C   UNL A   1      40.585  33.687  30.288  1.00  0.00     0.164 C 
BRANCH  17  18
ATOM     18  N   UNL A   1      40.743  34.073  31.677  1.00  0.00    -0.334 N 
ATOM     19  C   UNL A   1      41.917  34.116  32.377  1.00  0.00     0.107 A 
ATOM     20  C   UNL A   1      39.744  34.449  32.531  1.00  0.00     0.199 A 
ATOM     21  C   UNL A   1      41.579  34.626  33.608  1.00  0.00     0.130 A 
ATOM     22  N   UNL A   1      40.225  34.815  33.700  1.00  0.00    -0.245 NA
ENDBRANCH  17  18
ENDBRANCH  16  17
ENDBRANCH  15  16
ENDBRANCH  14  15
ENDBRANCH   7   8
ENDBRANCH   4   6
ENDBRANCH   3   4
ENDBRANCH   2   3
ENDBRANCH   1   2
BRANCH   1  23
ATOM     23  O   UNL A   1      34.750  34.784  33.950  1.00  0.00    -0.374 OA
BRANCH  23  24
ATOM     24  C   UNL A   1      34.852  33.418  33.564  1.00  0.00     0.202 C 
BRANCH  24  25
ATOM     25  C   UNL A   1      36.142  32.952  32.905  1.00  0.00     0.261 C 
BRANCH  25  26
ATOM     26  O   UNL A   1      36.596  31.693  33.382  1.00  0.00    -0.460 OA
BRANCH  26  27
ATOM     27  C   UNL A   1      36.632  30.742  32.413  1.00  0.00     0.338 C 
ATOM     28  O   UNL A   1      35.710  30.387  31.703  1.00  0.00    -0.246 OA
BRANCH  27  29
ATOM     29  C   UNL A   1      37.924  30.054  32.480  1.00  0.00     0.060 A 
ATOM     30  C   UNL A   1      39.065  30.850  32.605  1.00  0.00     0.016 A 
ATOM     31  C   UNL A   1      38.002  28.691  32.164  1.00  0.00     0.016 A 
ATOM     32  C   UNL A   1      40.287  30.307  32.266  1.00  0.00     0.010 A 
ATOM     33  C   UNL A   1      39.214  28.162  31.792  1.00  0.00     0.010 A 
ATOM     34  C   UNL A   1      40.338  28.987  31.797  1.00  0.00    -0.014 A 
BRANCH  34  35
ATOM     35  C   UNL A   1      41.639  28.379  31.575  1.00  0.00     0.031 A 
ATOM     36  C   UNL A   1      42.347  28.183  32.867  1.00  0.00     0.074 A 
ATOM     37  C   UNL A   1      42.036  27.919  30.369  1.00  0.00     0.049 A 
ATOM     38  N   UNL A   1      43.425  28.766  33.270  1.00  0.00    -0.248 NA
ATOM     39  C   UNL A   1      41.643  27.448  33.942  1.00  0.00     0.031 C 
ATOM     40  C   UNL A   1      41.250  27.894  29.132  1.00  0.00     0.029 A 
ATOM     41  N   UNL A   1      43.183  27.280  30.001  1.00  0.00    -0.354 N 
ATOM     42  C   UNL A   1      43.687  28.217  34.521  1.00  0.00     0.074 A 
ATOM     43  C   UNL A   1      42.449  27.664  34.980  1.00  0.00     0.031 C 
ATOM     44  C   UNL A   1      41.846  27.075  28.235  1.00  0.00     0.029 A 
ATOM     45  C   UNL A   1      43.106  26.595  28.782  1.00  0.00     0.049 A 
ATOM     46  H   UNL A   1      44.000  27.299  30.548  1.00  0.00     0.167 HD
ATOM     47  C   UNL A   1      44.968  27.937  34.882  1.00  0.00     0.034 A 
ATOM     48  C   UNL A   1      43.976  25.661  28.293  1.00  0.00     0.034 A 
ATOM     49  C   UNL A   1      45.891  28.744  34.108  1.00  0.00     0.049 A 
ATOM     50  C   UNL A   1      45.249  25.846  29.032  1.00  0.00     0.074 A 
ATOM     51  C   UNL A   1      46.044  30.102  33.902  1.00  0.00     0.029 A 
ATOM     52  N   UNL A   1      46.572  28.130  33.080  1.00  0.00    -0.354 N 
ATOM     53  N   UNL A   1      45.992  26.914  28.928  1.00  0.00    -0.248 NA
ATOM     54  C   UNL A   1      45.432  25.080  30.255  1.00  0.00     0.031 C 
ATOM     55  C   UNL A   1      46.397  30.233  32.528  1.00  0.00     0.029 A 
ATOM     56  C   UNL A   1      46.555  28.955  31.986  1.00  0.00     0.049 A 
ATOM     57  H   UNL A   1      47.000  27.245  33.124  1.00  0.00     0.167 HD
ATOM     58  C   UNL A   1      46.387  27.200  30.227  1.00  0.00     0.074 A 
ATOM     59  C   UNL A   1      46.082  25.989  30.988  1.00  0.00     0.031 C 
ATOM     60  C   UNL A   1      46.644  28.485  30.615  1.00  0.00     0.034 A 
BRANCH  47  61
ATOM     61  C   UNL A   1      45.377  26.627  35.537  1.00  0.00     0.023 A 
ATOM     62  C   UNL A   1      45.088  25.455  34.815  1.00  0.00     0.031 A 
ATOM     63  C   UNL A   1      45.724  26.429  36.896  1.00  0.00     0.131 A 
ATOM     64  C   UNL A   1      44.994  24.212  35.461  1.00  0.00     0.055 A 
ATOM     65  C   UNL A   1      45.691  25.179  37.520  1.00  0.00     0.041 A 
ATOM     66  F   UNL A   1      46.046  27.423  37.730  1.00  0.00    -0.206 F 
ATOM     67  C   UNL A   1      45.285  24.065  36.812  1.00  0.00     0.022 A 
BRANCH  64  68
ATOM     68  S   UNL A   1      44.296  22.827  34.534  1.00  0.00     0.124 S 
ATOM     69  O   UNL A   1      44.928  23.012  33.232  1.00  0.00    -0.237 OA
ATOM     70  O   UNL A   1      44.751  21.684  35.319  1.00  0.00    -0.237 OA
ATOM     71  O   UNL A   1      42.858  23.083  34.580  1.00  0.00    -0.744 OA
ENDBRANCH  64  68
ENDBRANCH  47  61
BRANCH  48  72
ATOM     72  C   UNL A   1      43.677  24.424  27.495  1.00  0.00     0.023 A 
ATOM     73  C   UNL A   1      44.460  23.995  26.392  1.00  0.00     0.031 A 
ATOM     74  C   UNL A   1      42.737  23.488  27.985  1.00  0.00     0.131 A 
ATOM     75  C   UNL A   1      44.285  22.697  25.841  1.00  0.00     0.055 A 
ATOM     76  C   UNL A   1      42.570  22.212  27.439  1.00  0.00     0.041 A 
ATOM     77  F   UNL A   1      42.001  23.745  29.077  1.00  0.00    -0.206 F 
ATOM     78  C   UNL A   1      43.351  21.806  26.371  1.00  0.00     0.022 A 
BRANCH  75  79
ATOM     79  S   UNL A   1      45.331  22.093  24.466  1.00  0.00     0.124 S 
ATOM     80  O   UNL A   1      45.732  23.332  23.812  1.00  0.00    -0.237 OA
ATOM     81  O   UNL A   1      46.378  21.356  25.164  1.00  0.00    -0.237 OA
ATOM     82  O   UNL A   1      44.418  21.257  23.683  1.00  0.00    -0.744 OA
ENDBRANCH  75  79
ENDBRANCH  48  72
BRANCH  60  83
ATOM     83  C   UNL A   1      46.896  29.534  29.549  1.00  0.00     0.023 A 
ATOM     84  C   UNL A   1      45.913  30.299  28.879  1.00  0.00     0.031 A 
ATOM     85  C   UNL A   1      48.246  29.839  29.291  1.00  0.00     0.131 A 
ATOM     86  C   UNL A   1      46.308  31.322  27.989  1.00  0.00     0.055 A 
ATOM     87  C   UNL A   1      48.630  30.866  28.433  1.00  0.00     0.041 A 
ATOM     88  F   UNL A   1      49.227  29.157  29.905  1.00  0.00    -0.206 F 
ATOM     89  C   UNL A   1      47.660  31.609  27.775  1.00  0.00     0.022 A 
BRANCH  86  90
ATOM     90  S   UNL A   1      45.073  32.293  27.063  1.00  0.00     0.124 S 
ATOM     91  O   UNL A   1      45.582  33.657  27.137  1.00  0.00    -0.237 OA
ATOM     92  O   UNL A   1      45.104  31.667  25.743  1.00  0.00    -0.237 OA
ATOM     93  O   UNL A   1      43.833  32.066  27.810  1.00  0.00    -0.744 OA
ENDBRANCH  86  90
ENDBRANCH  60  83
ENDBRANCH  34  35
ENDBRANCH  27  29
ENDBRANCH  26  27
ENDBRANCH  25  26
ENDBRANCH  24  25
ENDBRANCH  23  24
ENDBRANCH   1  23
TORSDOF 22
ENDMDL
