MODEL 1
REMARK VINA RESULT:      -9.4      0.000      0.000
REMARK SMILES CCCCCCNC(=O)Oc1cccc(-c2ccc([C@@H](C)C(=O)OCCOCCOC(=O)c3ccc(-c4c5nc(c(-c6cc(S(=O)(=O)[O-])ccc6F)c6ccc([nH]6)c(-c6cc(S(=O)(=O)[O-])ccc6F)c6nc(c(-c7cc(S(=O)(=O)[O-])ccc7F)c7ccc4[nH]7)C=C6)C=C5)cc3)cc2)c1
REMARK SMILES IDX 24 1 22 2 23 3 20 4 21 5 19 6 16 7 17 8 97 9 18 10 96 11
REMARK SMILES IDX 15 12 11 13 12 14 98 15 13 16 14 17 10 18 8 19 7 20 9 22
REMARK SMILES IDX 6 23 5 24 4 25 3 26 2 27 1 28 25 29 26 30 27 31 28 32 29 33
REMARK SMILES IDX 30 34 31 35 32 36 33 37 34 38 95 39 35 40 94 41 36 42 37 43
REMARK SMILES IDX 38 44 88 45 39 46 93 47 87 48 89 49 40 50 92 51 86 52 85 53
REMARK SMILES IDX 41 55 73 56 53 57 72 58 54 59 57 60 71 61 90 62 55 63 56 64
REMARK SMILES IDX 70 66 91 67 58 68 42 69 43 70 51 71 44 72 50 73 52 74 49 75
REMARK SMILES IDX 45 76 46 77 47 78 48 79 74 80 75 81 83 82 76 83 82 84 84 85
REMARK SMILES IDX 81 86 77 87 78 88 79 89 80 90 59 91 60 92 68 93 61 94 67 95
REMARK SMILES IDX 69 96 66 97 62 98 63 99 64 100 65 101
REMARK H PARENT 7 21 89 54 57 65
REMARK Flexibility Score: inf
ROOT
ATOM      1  O   UNL A   1      33.672  33.875  28.636  1.00  0.00    -0.463 OA
ENDROOT
BRANCH   1   2
ATOM      2  C   UNL A   1      34.620  33.023  28.168  1.00  0.00     0.313 C 
ATOM      3  O   UNL A   1      35.570  33.357  27.466  1.00  0.00    -0.252 OA
BRANCH   2   4
ATOM      4  C   UNL A   1      34.393  31.571  28.561  1.00  0.00     0.126 C 
ATOM      5  C   UNL A   1      35.692  30.998  29.121  1.00  0.00     0.025 C 
BRANCH   4   6
ATOM      6  C   UNL A   1      33.753  30.635  27.542  1.00  0.00    -0.034 A 
ATOM      7  C   UNL A   1      32.758  28.957  25.458  1.00  0.00    -0.018 A 
ATOM      8  C   UNL A   1      32.066  30.109  25.862  1.00  0.00     0.009 A 
ATOM      9  C   UNL A   1      33.931  28.631  26.153  1.00  0.00     0.009 A 
ATOM     10  C   UNL A   1      32.554  30.937  26.883  1.00  0.00     0.005 A 
ATOM     11  C   UNL A   1      34.420  29.454  27.176  1.00  0.00     0.005 A 
BRANCH   7  12
ATOM     12  C   UNL A   1      32.315  28.157  24.299  1.00  0.00    -0.015 A 
ATOM     13  C   UNL A   1      32.750  26.606  22.479  1.00  0.00     0.133 A 
ATOM     14  C   UNL A   1      31.441  26.732  22.019  1.00  0.00     0.047 A 
ATOM     15  C   UNL A   1      33.196  27.316  23.598  1.00  0.00     0.056 A 
ATOM     16  C   UNL A   1      30.555  27.558  22.702  1.00  0.00     0.004 A 
ATOM     17  C   UNL A   1      30.990  28.261  23.830  1.00  0.00     0.009 A 
BRANCH  13  18
ATOM     18  O   UNL A   1      33.615  25.826  21.690  1.00  0.00    -0.410 OA
BRANCH  18  19
ATOM     19  C   UNL A   1      33.070  25.013  20.711  1.00  0.00     0.412 C 
ATOM     20  N   UNL A   1      32.853  23.731  21.127  1.00  0.00    -0.321 N 
ATOM     21  H   UNL A   1      32.465  23.115  20.464  1.00  0.00     0.167 HD
ATOM     22  O   UNL A   1      32.792  25.356  19.561  1.00  0.00    -0.224 OA
BRANCH  20  23
ATOM     23  C   UNL A   1      33.128  23.178  22.439  1.00  0.00     0.119 C 
BRANCH  23  24
ATOM     24  C   UNL A   1      32.435  21.831  22.651  1.00  0.00     0.021 C 
BRANCH  24  25
ATOM     25  C   UNL A   1      32.502  21.291  24.084  1.00  0.00     0.002 C 
BRANCH  25  26
ATOM     26  C   UNL A   1      33.176  19.922  24.245  1.00  0.00    -0.000 C 
BRANCH  26  27
ATOM     27  C   UNL A   1      32.283  18.711  23.963  1.00  0.00    -0.003 C 
ATOM     28  C   UNL A   1      32.518  18.095  22.593  1.00  0.00     0.004 C 
ENDBRANCH  26  27
ENDBRANCH  25  26
ENDBRANCH  24  25
ENDBRANCH  23  24
ENDBRANCH  20  23
ENDBRANCH  18  19
ENDBRANCH  13  18
ENDBRANCH   7  12
ENDBRANCH   4   6
ENDBRANCH   2   4
ENDBRANCH   1   2
BRANCH   1  29
ATOM     29  C   UNL A   1      34.071  35.251  28.773  1.00  0.00     0.261 C 
BRANCH  29  30
ATOM     30  C   UNL A   1      32.859  36.168  28.950  1.00  0.00     0.202 C 
BRANCH  30  31
ATOM     31  O   UNL A   1      32.097  35.994  30.145  1.00  0.00    -0.374 OA
BRANCH  31  32
ATOM     32  C   UNL A   1      32.720  36.336  31.382  1.00  0.00     0.202 C 
BRANCH  32  33
ATOM     33  C   UNL A   1      32.939  35.215  32.405  1.00  0.00     0.261 C 
BRANCH  33  34
ATOM     34  O   UNL A   1      33.771  34.154  31.909  1.00  0.00    -0.460 OA
BRANCH  34  35
ATOM     35  C   UNL A   1      34.598  33.619  32.840  1.00  0.00     0.338 C 
ATOM     36  O   UNL A   1      34.325  33.368  34.003  1.00  0.00    -0.246 OA
BRANCH  35  37
ATOM     37  C   UNL A   1      35.860  33.170  32.217  1.00  0.00     0.060 A 
ATOM     38  C   UNL A   1      36.487  32.059  32.793  1.00  0.00     0.016 A 
ATOM     39  C   UNL A   1      36.470  33.863  31.168  1.00  0.00     0.016 A 
ATOM     40  C   UNL A   1      37.761  31.683  32.381  1.00  0.00     0.010 A 
ATOM     41  C   UNL A   1      37.755  33.482  30.754  1.00  0.00     0.010 A 
ATOM     42  C   UNL A   1      38.426  32.423  31.394  1.00  0.00    -0.014 A 
BRANCH  42  43
ATOM     43  C   UNL A   1      39.881  32.187  31.194  1.00  0.00     0.031 A 
ATOM     44  C   UNL A   1      40.863  32.960  32.038  1.00  0.00     0.074 A 
ATOM     45  C   UNL A   1      40.318  31.225  30.360  1.00  0.00     0.049 A 
ATOM     46  N   UNL A   1      42.168  32.881  32.078  1.00  0.00    -0.248 NA
ATOM     47  C   UNL A   1      40.293  33.952  32.963  1.00  0.00     0.031 C 
ATOM     48  C   UNL A   1      39.462  30.368  29.540  1.00  0.00     0.029 A 
ATOM     49  N   UNL A   1      41.590  30.795  30.080  1.00  0.00    -0.354 N 
ATOM     50  C   UNL A   1      42.576  33.803  33.038  1.00  0.00     0.074 A 
ATOM     51  C   UNL A   1      41.381  34.467  33.514  1.00  0.00     0.031 C 
ATOM     52  C   UNL A   1      40.234  29.506  28.857  1.00  0.00     0.029 A 
ATOM     53  C   UNL A   1      41.639  29.770  29.162  1.00  0.00     0.049 A 
ATOM     54  H   UNL A   1      42.394  31.182  30.496  1.00  0.00     0.167 HD
ATOM     55  C   UNL A   1      43.827  34.059  33.496  1.00  0.00     0.034 A 
ATOM     56  C   UNL A   1      42.697  29.130  28.622  1.00  0.00     0.034 A 
ATOM     57  C   UNL A   1      45.012  33.398  33.007  1.00  0.00     0.049 A 
ATOM     58  C   UNL A   1      44.090  29.512  29.069  1.00  0.00     0.074 A 
ATOM     59  C   UNL A   1      46.327  33.589  33.393  1.00  0.00     0.029 A 
ATOM     60  N   UNL A   1      45.028  32.425  32.017  1.00  0.00    -0.354 N 
ATOM     61  N   UNL A   1      44.458  30.389  29.975  1.00  0.00    -0.248 NA
ATOM     62  C   UNL A   1      45.207  28.811  28.424  1.00  0.00     0.031 C 
ATOM     63  C   UNL A   1      47.143  32.784  32.589  1.00  0.00     0.029 A 
ATOM     64  C   UNL A   1      46.333  32.030  31.757  1.00  0.00     0.049 A 
ATOM     65  H   UNL A   1      44.230  32.066  31.565  1.00  0.00     0.167 HD
ATOM     66  C   UNL A   1      45.848  30.313  30.032  1.00  0.00     0.074 A 
ATOM     67  C   UNL A   1      46.248  29.296  29.083  1.00  0.00     0.031 C 
ATOM     68  C   UNL A   1      46.717  31.019  30.801  1.00  0.00     0.034 A 
BRANCH  55  69
ATOM     69  C   UNL A   1      43.972  35.130  34.551  1.00  0.00     0.023 A 
ATOM     70  C   UNL A   1      43.959  34.824  35.924  1.00  0.00     0.031 A 
ATOM     71  C   UNL A   1      44.101  36.480  34.180  1.00  0.00     0.131 A 
ATOM     72  C   UNL A   1      44.008  35.857  36.872  1.00  0.00     0.055 A 
ATOM     73  C   UNL A   1      44.226  37.497  35.129  1.00  0.00     0.041 A 
ATOM     74  F   UNL A   1      44.095  36.836  32.886  1.00  0.00    -0.206 F 
ATOM     75  C   UNL A   1      44.166  37.189  36.484  1.00  0.00     0.022 A 
BRANCH  72  76
ATOM     76  S   UNL A   1      43.726  35.450  38.618  1.00  0.00     0.124 S 
ATOM     77  O   UNL A   1      44.421  34.172  38.739  1.00  0.00    -0.237 OA
ATOM     78  O   UNL A   1      44.336  36.580  39.309  1.00  0.00    -0.237 OA
ATOM     79  O   UNL A   1      42.269  35.371  38.720  1.00  0.00    -0.744 OA
ENDBRANCH  72  76
ENDBRANCH  55  69
BRANCH  56  80
ATOM     80  C   UNL A   1      42.503  28.083  27.575  1.00  0.00     0.023 A 
ATOM     81  C   UNL A   1      42.515  26.717  27.900  1.00  0.00     0.031 A 
ATOM     82  C   UNL A   1      42.391  28.434  26.217  1.00  0.00     0.131 A 
ATOM     83  C   UNL A   1      42.476  25.753  26.879  1.00  0.00     0.055 A 
ATOM     84  C   UNL A   1      42.289  27.472  25.210  1.00  0.00     0.041 A 
ATOM     85  F   UNL A   1      42.381  29.725  25.848  1.00  0.00    -0.206 F 
ATOM     86  C   UNL A   1      42.349  26.122  25.538  1.00  0.00     0.022 A 
BRANCH  83  87
ATOM     87  S   UNL A   1      42.710  24.009  27.321  1.00  0.00     0.124 S 
ATOM     88  O   UNL A   1      41.366  23.474  27.138  1.00  0.00    -0.237 OA
ATOM     89  O   UNL A   1      43.710  23.583  26.349  1.00  0.00    -0.237 OA
ATOM     90  O   UNL A   1      43.176  24.070  28.706  1.00  0.00    -0.744 OA
ENDBRANCH  83  87
ENDBRANCH  56  80
BRANCH  68  91
ATOM     91  C   UNL A   1      48.183  30.674  30.675  1.00  0.00     0.023 A 
ATOM     92  C   UNL A   1      48.771  29.645  31.432  1.00  0.00     0.031 A 
ATOM     93  C   UNL A   1      49.008  31.398  29.795  1.00  0.00     0.131 A 
ATOM     94  C   UNL A   1      50.152  29.411  31.343  1.00  0.00     0.055 A 
ATOM     95  C   UNL A   1      50.368  31.117  29.662  1.00  0.00     0.041 A 
ATOM     96  F   UNL A   1      48.502  32.392  29.046  1.00  0.00    -0.206 F 
ATOM     97  C   UNL A   1      50.951  30.130  30.449  1.00  0.00     0.022 A 
BRANCH  94  98
ATOM     98  S   UNL A   1      50.909  28.221  32.483  1.00  0.00     0.124 S 
ATOM     99  O   UNL A   1      50.705  26.957  31.783  1.00  0.00    -0.237 OA
ATOM    100  O   UNL A   1      52.287  28.693  32.557  1.00  0.00    -0.237 OA
ATOM    101  O   UNL A   1      50.133  28.381  33.712  1.00  0.00    -0.744 OA
ENDBRANCH  94  98
ENDBRANCH  68  91
ENDBRANCH  42  43
ENDBRANCH  35  37
ENDBRANCH  34  35
ENDBRANCH  33  34
ENDBRANCH  32  33
ENDBRANCH  31  32
ENDBRANCH  30  31
ENDBRANCH  29  30
ENDBRANCH   1  29
TORSDOF 26
ENDMDL
MODEL 2
REMARK VINA RESULT:      -9.3      2.071      2.351
REMARK SMILES CCCCCCNC(=O)Oc1cccc(-c2ccc([C@@H](C)C(=O)OCCOCCOC(=O)c3ccc(-c4c5nc(c(-c6cc(S(=O)(=O)[O-])ccc6F)c6ccc([nH]6)c(-c6cc(S(=O)(=O)[O-])ccc6F)c6nc(c(-c7cc(S(=O)(=O)[O-])ccc7F)c7ccc4[nH]7)C=C6)C=C5)cc3)cc2)c1
REMARK SMILES IDX 24 1 22 2 23 3 20 4 21 5 19 6 16 7 17 8 97 9 18 10 96 11
REMARK SMILES IDX 15 12 11 13 12 14 98 15 13 16 14 17 10 18 8 19 7 20 9 22
REMARK SMILES IDX 6 23 5 24 4 25 3 26 2 27 1 28 25 29 26 30 27 31 28 32 29 33
REMARK SMILES IDX 30 34 31 35 32 36 33 37 34 38 95 39 35 40 94 41 36 42 37 43
REMARK SMILES IDX 38 44 88 45 39 46 93 47 87 48 89 49 40 50 92 51 86 52 85 53
REMARK SMILES IDX 41 55 73 56 53 57 72 58 54 59 57 60 71 61 90 62 55 63 56 64
REMARK SMILES IDX 70 66 91 67 58 68 42 69 43 70 51 71 44 72 50 73 52 74 49 75
REMARK SMILES IDX 45 76 46 77 47 78 48 79 74 80 75 81 83 82 76 83 82 84 84 85
REMARK SMILES IDX 81 86 77 87 78 88 79 89 80 90 59 91 60 92 68 93 61 94 67 95
REMARK SMILES IDX 69 96 66 97 62 98 63 99 64 100 65 101
REMARK H PARENT 7 21 89 54 57 65
REMARK Flexibility Score: inf
ROOT
ATOM      1  O   UNL A   1      33.817  33.900  28.669  1.00  0.00    -0.463 OA
ENDROOT
BRANCH   1   2
ATOM      2  C   UNL A   1      34.783  33.047  28.243  1.00  0.00     0.313 C 
ATOM      3  O   UNL A   1      35.771  33.382  27.595  1.00  0.00    -0.252 OA
BRANCH   2   4
ATOM      4  C   UNL A   1      34.529  31.593  28.611  1.00  0.00     0.126 C 
ATOM      5  C   UNL A   1      35.823  30.980  29.138  1.00  0.00     0.025 C 
BRANCH   4   6
ATOM      6  C   UNL A   1      33.852  30.692  27.583  1.00  0.00    -0.034 A 
ATOM      7  C   UNL A   1      32.798  29.062  25.491  1.00  0.00    -0.018 A 
ATOM      8  C   UNL A   1      32.184  30.271  25.855  1.00  0.00     0.009 A 
ATOM      9  C   UNL A   1      33.920  28.658  26.229  1.00  0.00     0.009 A 
ATOM     10  C   UNL A   1      32.702  31.075  26.881  1.00  0.00     0.005 A 
ATOM     11  C   UNL A   1      34.438  29.457  27.256  1.00  0.00     0.005 A 
BRANCH   7  12
ATOM     12  C   UNL A   1      32.333  28.280  24.329  1.00  0.00    -0.015 A 
ATOM     13  C   UNL A   1      32.741  26.801  22.443  1.00  0.00     0.133 A 
ATOM     14  C   UNL A   1      31.408  26.890  22.047  1.00  0.00     0.047 A 
ATOM     15  C   UNL A   1      33.211  27.495  23.563  1.00  0.00     0.056 A 
ATOM     16  C   UNL A   1      30.525  27.660  22.795  1.00  0.00     0.004 A 
ATOM     17  C   UNL A   1      30.984  28.346  23.923  1.00  0.00     0.009 A 
BRANCH  13  18
ATOM     18  O   UNL A   1      33.597  26.079  21.593  1.00  0.00    -0.410 OA
BRANCH  18  19
ATOM     19  C   UNL A   1      33.052  25.108  20.769  1.00  0.00     0.412 C 
ATOM     20  N   UNL A   1      32.784  23.935  21.414  1.00  0.00    -0.321 N 
ATOM     21  H   UNL A   1      32.395  23.214  20.868  1.00  0.00     0.167 HD
ATOM     22  O   UNL A   1      32.814  25.233  19.567  1.00  0.00    -0.224 OA
BRANCH  20  23
ATOM     23  C   UNL A   1      33.009  23.635  22.814  1.00  0.00     0.119 C 
BRANCH  23  24
ATOM     24  C   UNL A   1      31.868  22.813  23.415  1.00  0.00     0.021 C 
BRANCH  24  25
ATOM     25  C   UNL A   1      32.169  21.318  23.580  1.00  0.00     0.002 C 
BRANCH  25  26
ATOM     26  C   UNL A   1      33.538  20.981  24.182  1.00  0.00    -0.000 C 
BRANCH  26  27
ATOM     27  C   UNL A   1      33.573  19.752  25.093  1.00  0.00    -0.003 C 
ATOM     28  C   UNL A   1      34.170  18.523  24.425  1.00  0.00     0.004 C 
ENDBRANCH  26  27
ENDBRANCH  25  26
ENDBRANCH  24  25
ENDBRANCH  23  24
ENDBRANCH  20  23
ENDBRANCH  18  19
ENDBRANCH  13  18
ENDBRANCH   7  12
ENDBRANCH   4   6
ENDBRANCH   2   4
ENDBRANCH   1   2
BRANCH   1  29
ATOM     29  C   UNL A   1      34.168  35.295  28.688  1.00  0.00     0.261 C 
BRANCH  29  30
ATOM     30  C   UNL A   1      32.957  36.171  29.015  1.00  0.00     0.202 C 
BRANCH  30  31
ATOM     31  O   UNL A   1      32.471  36.113  30.357  1.00  0.00    -0.374 OA
BRANCH  31  32
ATOM     32  C   UNL A   1      33.317  36.620  31.388  1.00  0.00     0.202 C 
BRANCH  32  33
ATOM     33  C   UNL A   1      33.793  35.639  32.467  1.00  0.00     0.261 C 
BRANCH  33  34
ATOM     34  O   UNL A   1      34.439  34.476  31.926  1.00  0.00    -0.460 OA
BRANCH  34  35
ATOM     35  C   UNL A   1      34.913  33.620  32.865  1.00  0.00     0.338 C 
ATOM     36  O   UNL A   1      34.382  33.330  33.924  1.00  0.00    -0.246 OA
BRANCH  35  37
ATOM     37  C   UNL A   1      36.096  32.896  32.357  1.00  0.00     0.060 A 
ATOM     38  C   UNL A   1      36.316  31.612  32.868  1.00  0.00     0.016 A 
ATOM     39  C   UNL A   1      37.020  33.479  31.485  1.00  0.00     0.016 A 
ATOM     40  C   UNL A   1      37.496  30.936  32.578  1.00  0.00     0.010 A 
ATOM     41  C   UNL A   1      38.210  32.795  31.194  1.00  0.00     0.010 A 
ATOM     42  C   UNL A   1      38.475  31.544  31.781  1.00  0.00    -0.014 A 
BRANCH  42  43
ATOM     43  C   UNL A   1      39.831  30.935  31.740  1.00  0.00     0.031 A 
ATOM     44  C   UNL A   1      40.854  31.375  32.757  1.00  0.00     0.074 A 
ATOM     45  C   UNL A   1      40.114  29.931  30.889  1.00  0.00     0.049 A 
ATOM     46  N   UNL A   1      42.076  30.946  32.947  1.00  0.00    -0.248 NA
ATOM     47  C   UNL A   1      40.440  32.440  33.684  1.00  0.00     0.031 C 
ATOM     48  C   UNL A   1      39.186  29.375  29.904  1.00  0.00     0.029 A 
ATOM     49  N   UNL A   1      41.257  29.188  30.730  1.00  0.00    -0.354 N 
ATOM     50  C   UNL A   1      42.572  31.679  34.021  1.00  0.00     0.074 A 
ATOM     51  C   UNL A   1      41.538  32.617  34.402  1.00  0.00     0.031 C 
ATOM     52  C   UNL A   1      39.795  28.370  29.251  1.00  0.00     0.029 A 
ATOM     53  C   UNL A   1      41.164  28.232  29.744  1.00  0.00     0.049 A 
ATOM     54  H   UNL A   1      42.067  29.325  31.270  1.00  0.00     0.167 HD
ATOM     55  C   UNL A   1      43.771  31.567  34.647  1.00  0.00     0.034 A 
ATOM     56  C   UNL A   1      42.082  27.357  29.285  1.00  0.00     0.034 A 
ATOM     57  C   UNL A   1      44.799  30.636  34.252  1.00  0.00     0.049 A 
ATOM     58  C   UNL A   1      43.451  27.329  29.927  1.00  0.00     0.074 A 
ATOM     59  C   UNL A   1      46.053  30.448  34.809  1.00  0.00     0.029 A 
ATOM     60  N   UNL A   1      44.698  29.741  33.195  1.00  0.00    -0.354 N 
ATOM     61  N   UNL A   1      43.906  28.031  30.940  1.00  0.00    -0.248 NA
ATOM     62  C   UNL A   1      44.426  26.384  29.367  1.00  0.00     0.031 C 
ATOM     63  C   UNL A   1      46.734  29.492  34.046  1.00  0.00     0.029 A 
ATOM     64  C   UNL A   1      45.878  29.023  33.064  1.00  0.00     0.049 A 
ATOM     65  H   UNL A   1      43.904  29.632  32.623  1.00  0.00     0.167 HD
ATOM     66  C   UNL A   1      45.207  27.582  31.158  1.00  0.00     0.074 A 
ATOM     67  C   UNL A   1      45.455  26.540  30.184  1.00  0.00     0.031 C 
ATOM     68  C   UNL A   1      46.115  27.991  32.081  1.00  0.00     0.034 A 
BRANCH  55  69
ATOM     69  C   UNL A   1      44.043  32.509  35.796  1.00  0.00     0.023 A 
ATOM     70  C   UNL A   1      43.562  32.254  37.093  1.00  0.00     0.031 A 
ATOM     71  C   UNL A   1      44.772  33.693  35.587  1.00  0.00     0.131 A 
ATOM     72  C   UNL A   1      43.761  33.198  38.112  1.00  0.00     0.055 A 
ATOM     73  C   UNL A   1      45.033  34.592  36.624  1.00  0.00     0.041 A 
ATOM     74  F   UNL A   1      45.236  34.003  34.366  1.00  0.00    -0.206 F 
ATOM     75  C   UNL A   1      44.514  34.353  37.892  1.00  0.00     0.022 A 
BRANCH  72  76
ATOM     76  S   UNL A   1      42.907  32.961  39.696  1.00  0.00     0.124 S 
ATOM     77  O   UNL A   1      43.981  33.213  40.652  1.00  0.00    -0.237 OA
ATOM     78  O   UNL A   1      41.851  33.966  39.639  1.00  0.00    -0.237 OA
ATOM     79  O   UNL A   1      42.450  31.573  39.634  1.00  0.00    -0.744 OA
ENDBRANCH  72  76
ENDBRANCH  55  69
BRANCH  56  80
ATOM     80  C   UNL A   1      41.769  26.450  28.141  1.00  0.00     0.023 A 
ATOM     81  C   UNL A   1      41.686  25.060  28.314  1.00  0.00     0.031 A 
ATOM     82  C   UNL A   1      41.635  26.958  26.835  1.00  0.00     0.131 A 
ATOM     83  C   UNL A   1      41.535  24.222  27.197  1.00  0.00     0.055 A 
ATOM     84  C   UNL A   1      41.422  26.126  25.736  1.00  0.00     0.041 A 
ATOM     85  F   UNL A   1      41.713  28.280  26.609  1.00  0.00    -0.206 F 
ATOM     86  C   UNL A   1      41.388  24.746  25.911  1.00  0.00     0.022 A 
BRANCH  83  87
ATOM     87  S   UNL A   1      41.649  22.427  27.437  1.00  0.00     0.124 S 
ATOM     88  O   UNL A   1      41.929  21.964  26.083  1.00  0.00    -0.237 OA
ATOM     89  O   UNL A   1      42.744  22.318  28.393  1.00  0.00    -0.237 OA
ATOM     90  O   UNL A   1      40.331  22.070  27.959  1.00  0.00    -0.744 OA
ENDBRANCH  83  87
ENDBRANCH  56  80
BRANCH  68  91
ATOM     91  C   UNL A   1      47.443  27.272  32.106  1.00  0.00     0.023 A 
ATOM     92  C   UNL A   1      47.647  26.117  32.882  1.00  0.00     0.031 A 
ATOM     93  C   UNL A   1      48.527  27.759  31.353  1.00  0.00     0.131 A 
ATOM     94  C   UNL A   1      48.918  25.525  32.938  1.00  0.00     0.055 A 
ATOM     95  C   UNL A   1      49.772  27.129  31.361  1.00  0.00     0.041 A 
ATOM     96  F   UNL A   1      48.391  28.858  30.593  1.00  0.00    -0.206 F 
ATOM     97  C   UNL A   1      49.978  26.015  32.169  1.00  0.00     0.022 A 
BRANCH  94  98
ATOM     98  S   UNL A   1      49.197  24.167  34.107  1.00  0.00     0.124 S 
ATOM     99  O   UNL A   1      50.065  23.280  33.340  1.00  0.00    -0.237 OA
ATOM    100  O   UNL A   1      49.820  24.849  35.235  1.00  0.00    -0.237 OA
ATOM    101  O   UNL A   1      47.853  23.652  34.361  1.00  0.00    -0.744 OA
ENDBRANCH  94  98
ENDBRANCH  68  91
ENDBRANCH  42  43
ENDBRANCH  35  37
ENDBRANCH  34  35
ENDBRANCH  33  34
ENDBRANCH  32  33
ENDBRANCH  31  32
ENDBRANCH  30  31
ENDBRANCH  29  30
ENDBRANCH   1  29
TORSDOF 26
ENDMDL
MODEL 3
REMARK VINA RESULT:      -8.9      4.670     11.096
REMARK SMILES CCCCCCNC(=O)Oc1cccc(-c2ccc([C@@H](C)C(=O)OCCOCCOC(=O)c3ccc(-c4c5nc(c(-c6cc(S(=O)(=O)[O-])ccc6F)c6ccc([nH]6)c(-c6cc(S(=O)(=O)[O-])ccc6F)c6nc(c(-c7cc(S(=O)(=O)[O-])ccc7F)c7ccc4[nH]7)C=C6)C=C5)cc3)cc2)c1
REMARK SMILES IDX 24 1 22 2 23 3 20 4 21 5 19 6 16 7 17 8 97 9 18 10 96 11
REMARK SMILES IDX 15 12 11 13 12 14 98 15 13 16 14 17 10 18 8 19 7 20 9 22
REMARK SMILES IDX 6 23 5 24 4 25 3 26 2 27 1 28 25 29 26 30 27 31 28 32 29 33
REMARK SMILES IDX 30 34 31 35 32 36 33 37 34 38 95 39 35 40 94 41 36 42 37 43
REMARK SMILES IDX 38 44 88 45 39 46 93 47 87 48 89 49 40 50 92 51 86 52 85 53
REMARK SMILES IDX 41 55 73 56 53 57 72 58 54 59 57 60 71 61 90 62 55 63 56 64
REMARK SMILES IDX 70 66 91 67 58 68 42 69 43 70 51 71 44 72 50 73 52 74 49 75
REMARK SMILES IDX 45 76 46 77 47 78 48 79 74 80 75 81 83 82 76 83 82 84 84 85
REMARK SMILES IDX 81 86 77 87 78 88 79 89 80 90 59 91 60 92 68 93 61 94 67 95
REMARK SMILES IDX 69 96 66 97 62 98 63 99 64 100 65 101
REMARK H PARENT 7 21 89 54 57 65
REMARK Flexibility Score: inf
ROOT
ATOM      1  O   UNL A   1      46.135  25.820  24.619  1.00  0.00    -0.463 OA
ENDROOT
BRANCH   1   2
ATOM      2  C   UNL A   1      45.285  26.118  25.634  1.00  0.00     0.313 C 
ATOM      3  O   UNL A   1      44.915  25.318  26.490  1.00  0.00    -0.252 OA
BRANCH   2   4
ATOM      4  C   UNL A   1      44.781  27.553  25.616  1.00  0.00     0.126 C 
ATOM      5  C   UNL A   1      45.916  28.484  26.030  1.00  0.00     0.025 C 
BRANCH   4   6
ATOM      6  C   UNL A   1      43.485  27.876  26.354  1.00  0.00    -0.034 A 
ATOM      7  C   UNL A   1      41.049  28.713  27.582  1.00  0.00    -0.018 A 
ATOM      8  C   UNL A   1      42.258  28.701  28.293  1.00  0.00     0.009 A 
ATOM      9  C   UNL A   1      41.071  28.249  26.259  1.00  0.00     0.009 A 
ATOM     10  C   UNL A   1      43.457  28.293  27.690  1.00  0.00     0.005 A 
ATOM     11  C   UNL A   1      42.266  27.837  25.656  1.00  0.00     0.005 A 
BRANCH   7  12
ATOM     12  C   UNL A   1      39.812  29.263  28.172  1.00  0.00    -0.015 A 
ATOM     13  C   UNL A   1      37.490  29.961  28.008  1.00  0.00     0.133 A 
ATOM     14  C   UNL A   1      37.505  30.427  29.321  1.00  0.00     0.047 A 
ATOM     15  C   UNL A   1      38.629  29.395  27.426  1.00  0.00     0.056 A 
ATOM     16  C   UNL A   1      38.667  30.302  30.074  1.00  0.00     0.004 A 
ATOM     17  C   UNL A   1      39.807  29.726  29.504  1.00  0.00     0.009 A 
BRANCH  13  18
ATOM     18  O   UNL A   1      36.312  30.199  27.276  1.00  0.00    -0.410 OA
BRANCH  18  19
ATOM     19  C   UNL A   1      35.426  31.159  27.735  1.00  0.00     0.412 C 
ATOM     20  N   UNL A   1      34.147  30.702  27.864  1.00  0.00    -0.321 N 
ATOM     21  H   UNL A   1      33.480  31.350  28.189  1.00  0.00     0.167 HD
ATOM     22  O   UNL A   1      35.708  32.326  28.012  1.00  0.00    -0.224 OA
BRANCH  20  23
ATOM     23  C   UNL A   1      33.662  29.366  27.577  1.00  0.00     0.119 C 
BRANCH  23  24
ATOM     24  C   UNL A   1      32.179  29.364  27.202  1.00  0.00     0.021 C 
BRANCH  24  25
ATOM     25  C   UNL A   1      31.869  28.818  25.802  1.00  0.00     0.002 C 
BRANCH  25  26
ATOM     26  C   UNL A   1      32.984  28.990  24.763  1.00  0.00    -0.000 C 
BRANCH  26  27
ATOM     27  C   UNL A   1      33.040  27.917  23.674  1.00  0.00    -0.003 C 
ATOM     28  C   UNL A   1      33.901  28.311  22.483  1.00  0.00     0.004 C 
ENDBRANCH  26  27
ENDBRANCH  25  26
ENDBRANCH  24  25
ENDBRANCH  23  24
ENDBRANCH  20  23
ENDBRANCH  18  19
ENDBRANCH  13  18
ENDBRANCH   7  12
ENDBRANCH   4   6
ENDBRANCH   2   4
ENDBRANCH   1   2
BRANCH   1  29
ATOM     29  C   UNL A   1      47.489  25.514  24.997  1.00  0.00     0.261 C 
BRANCH  29  30
ATOM     30  C   UNL A   1      48.495  26.272  24.127  1.00  0.00     0.202 C 
BRANCH  30  31
ATOM     31  O   UNL A   1      49.823  26.384  24.637  1.00  0.00    -0.374 OA
BRANCH  31  32
ATOM     32  C   UNL A   1      50.123  27.512  25.458  1.00  0.00     0.202 C 
BRANCH  32  33
ATOM     33  C   UNL A   1      51.067  27.299  26.648  1.00  0.00     0.261 C 
BRANCH  33  34
ATOM     34  O   UNL A   1      50.674  26.203  27.489  1.00  0.00    -0.460 OA
BRANCH  34  35
ATOM     35  C   UNL A   1      50.969  26.379  28.800  1.00  0.00     0.338 C 
ATOM     36  O   UNL A   1      52.075  26.334  29.313  1.00  0.00    -0.246 OA
BRANCH  35  37
ATOM     37  C   UNL A   1      49.780  26.848  29.540  1.00  0.00     0.060 A 
ATOM     38  C   UNL A   1      48.547  26.305  29.162  1.00  0.00     0.016 A 
ATOM     39  C   UNL A   1      49.843  27.857  30.506  1.00  0.00     0.016 A 
ATOM     40  C   UNL A   1      47.365  26.821  29.684  1.00  0.00     0.010 A 
ATOM     41  C   UNL A   1      48.650  28.376  31.030  1.00  0.00     0.010 A 
ATOM     42  C   UNL A   1      47.405  27.895  30.583  1.00  0.00    -0.014 A 
BRANCH  42  43
ATOM     43  C   UNL A   1      46.138  28.613  30.883  1.00  0.00     0.031 A 
ATOM     44  C   UNL A   1      45.347  28.208  32.101  1.00  0.00     0.074 A 
ATOM     45  C   UNL A   1      45.756  29.677  30.152  1.00  0.00     0.049 A 
ATOM     46  N   UNL A   1      44.248  28.725  32.589  1.00  0.00    -0.248 NA
ATOM     47  C   UNL A   1      45.869  27.070  32.873  1.00  0.00     0.031 C 
ATOM     48  C   UNL A   1      46.473  30.203  28.991  1.00  0.00     0.029 A 
ATOM     49  N   UNL A   1      44.680  30.518  30.291  1.00  0.00    -0.354 N 
ATOM     50  C   UNL A   1      43.953  27.984  33.729  1.00  0.00     0.074 A 
ATOM     51  C   UNL A   1      44.959  26.948  33.826  1.00  0.00     0.031 C 
ATOM     52  C   UNL A   1      45.822  31.286  28.530  1.00  0.00     0.029 A 
ATOM     53  C   UNL A   1      44.625  31.510  29.338  1.00  0.00     0.049 A 
ATOM     54  H   UNL A   1      44.010  30.421  31.004  1.00  0.00     0.167 HD
ATOM     55  C   UNL A   1      42.950  28.162  34.625  1.00  0.00     0.034 A 
ATOM     56  C   UNL A   1      43.708  32.478  29.136  1.00  0.00     0.034 A 
ATOM     57  C   UNL A   1      41.947  29.192  34.513  1.00  0.00     0.049 A 
ATOM     58  C   UNL A   1      42.537  32.586  30.086  1.00  0.00     0.074 A 
ATOM     59  C   UNL A   1      40.881  29.454  35.357  1.00  0.00     0.029 A 
ATOM     60  N   UNL A   1      41.878  30.126  33.487  1.00  0.00    -0.354 N 
ATOM     61  N   UNL A   1      42.270  31.874  31.158  1.00  0.00    -0.248 NA
ATOM     62  C   UNL A   1      41.547  33.633  29.800  1.00  0.00     0.031 C 
ATOM     63  C   UNL A   1      40.129  30.498  34.805  1.00  0.00     0.029 A 
ATOM     64  C   UNL A   1      40.770  30.944  33.661  1.00  0.00     0.049 A 
ATOM     65  H   UNL A   1      42.522  30.199  32.746  1.00  0.00     0.167 HD
ATOM     66  C   UNL A   1      41.103  32.417  31.692  1.00  0.00     0.074 A 
ATOM     67  C   UNL A   1      40.728  33.522  30.835  1.00  0.00     0.031 C 
ATOM     68  C   UNL A   1      40.404  32.038  32.793  1.00  0.00     0.034 A 
BRANCH  55  69
ATOM     69  C   UNL A   1      42.871  27.190  35.779  1.00  0.00     0.023 A 
ATOM     70  C   UNL A   1      43.713  27.302  36.900  1.00  0.00     0.031 A 
ATOM     71  C   UNL A   1      41.958  26.122  35.746  1.00  0.00     0.131 A 
ATOM     72  C   UNL A   1      43.668  26.328  37.909  1.00  0.00     0.055 A 
ATOM     73  C   UNL A   1      41.866  25.198  36.790  1.00  0.00     0.041 A 
ATOM     74  F   UNL A   1      41.146  25.949  34.691  1.00  0.00    -0.206 F 
ATOM     75  C   UNL A   1      42.734  25.291  37.874  1.00  0.00     0.022 A 
BRANCH  72  76
ATOM     76  S   UNL A   1      44.940  26.357  39.203  1.00  0.00     0.124 S 
ATOM     77  O   UNL A   1      45.764  27.486  38.782  1.00  0.00    -0.237 OA
ATOM     78  O   UNL A   1      44.153  26.554  40.415  1.00  0.00    -0.237 OA
ATOM     79  O   UNL A   1      45.581  25.048  39.083  1.00  0.00    -0.744 OA
ENDBRANCH  72  76
ENDBRANCH  55  69
BRANCH  56  80
ATOM     80  C   UNL A   1      43.825  33.411  27.976  1.00  0.00     0.023 A 
ATOM     81  C   UNL A   1      43.925  34.799  28.164  1.00  0.00     0.031 A 
ATOM     82  C   UNL A   1      43.749  32.931  26.656  1.00  0.00     0.131 A 
ATOM     83  C   UNL A   1      43.886  35.661  27.056  1.00  0.00     0.055 A 
ATOM     84  C   UNL A   1      43.774  33.788  25.554  1.00  0.00     0.041 A 
ATOM     85  F   UNL A   1      43.645  31.614  26.416  1.00  0.00    -0.206 F 
ATOM     86  C   UNL A   1      43.826  35.164  25.752  1.00  0.00     0.022 A 
BRANCH  83  87
ATOM     87  S   UNL A   1      43.800  37.449  27.350  1.00  0.00     0.124 S 
ATOM     88  O   UNL A   1      43.548  37.503  28.785  1.00  0.00    -0.237 OA
ATOM     89  O   UNL A   1      45.120  37.890  26.912  1.00  0.00    -0.237 OA
ATOM     90  O   UNL A   1      42.690  37.879  26.502  1.00  0.00    -0.744 OA
ENDBRANCH  83  87
ENDBRANCH  56  80
BRANCH  68  91
ATOM     91  C   UNL A   1      39.189  32.861  33.153  1.00  0.00     0.023 A 
ATOM     92  C   UNL A   1      37.921  32.593  32.606  1.00  0.00     0.031 A 
ATOM     93  C   UNL A   1      39.306  33.943  34.045  1.00  0.00     0.131 A 
ATOM     94  C   UNL A   1      36.837  33.431  32.905  1.00  0.00     0.055 A 
ATOM     95  C   UNL A   1      38.209  34.734  34.390  1.00  0.00     0.041 A 
ATOM     96  F   UNL A   1      40.491  34.247  34.599  1.00  0.00    -0.206 F 
ATOM     97  C   UNL A   1      36.970  34.490  33.808  1.00  0.00     0.022 A 
BRANCH  94  98
ATOM     98  S   UNL A   1      35.273  33.181  32.023  1.00  0.00     0.124 S 
ATOM     99  O   UNL A   1      34.291  33.565  33.031  1.00  0.00    -0.237 OA
ATOM    100  O   UNL A   1      35.407  34.086  30.887  1.00  0.00    -0.237 OA
ATOM    101  O   UNL A   1      35.292  31.758  31.687  1.00  0.00    -0.744 OA
ENDBRANCH  94  98
ENDBRANCH  68  91
ENDBRANCH  42  43
ENDBRANCH  35  37
ENDBRANCH  34  35
ENDBRANCH  33  34
ENDBRANCH  32  33
ENDBRANCH  31  32
ENDBRANCH  30  31
ENDBRANCH  29  30
ENDBRANCH   1  29
TORSDOF 26
ENDMDL
