MODEL 1
REMARK VINA RESULT:     -11.1      0.000      0.000
REMARK SMILES CCC[C@H](CNC(=O)N1CCN2C(=O)NC[C@H]2C1)C(=O)OCCOCCOC(=O)c1ccc(-c2c3nc(c(-c4cc(S(=O)(=O)[O-])ccc4F)c4ccc([nH]4)c(-c4cc(S(=O)(=O)[O-])ccc4F)c4nc(c(-c5cc(S(=O)(=O)[O-])ccc5F)c5ccc2[nH]5)C=C4)C=C3)cc1
REMARK SMILES IDX 24 1 23 2 22 3 21 4 19 5 20 6 4 7 3 8 2 9 1 10 5 11 6 12
REMARK SMILES IDX 7 13 8 15 9 16 10 17 18 18 11 19 17 20 12 21 16 22 13 23
REMARK SMILES IDX 15 24 14 25 25 27 26 28 27 29 28 30 29 31 30 32 31 33 92 34
REMARK SMILES IDX 32 35 91 36 33 37 34 38 35 39 85 40 36 41 90 42 84 43 86 44
REMARK SMILES IDX 37 45 89 46 83 47 82 48 38 50 70 51 50 52 69 53 51 54 54 55
REMARK SMILES IDX 68 56 87 57 52 58 53 59 67 61 88 62 55 63 39 64 40 65 48 66
REMARK SMILES IDX 41 67 47 68 49 69 46 70 42 71 43 72 44 73 45 74 71 75 72 76
REMARK SMILES IDX 80 77 73 78 79 79 81 80 78 81 74 82 75 83 76 84 77 85 56 86
REMARK SMILES IDX 57 87 65 88 58 89 64 90 66 91 63 92 59 93 60 94 61 95 62 96
REMARK H PARENT 6 14 15 26 86 49 54 60
REMARK Flexibility Score: inf
ROOT
ATOM      1  O   UNL A   1      35.735  21.565  26.419  1.00  0.00    -0.374 OA
ENDROOT
BRANCH   1   2
ATOM      2  C   UNL A   1      34.425  21.736  26.952  1.00  0.00     0.202 C 
BRANCH   2   3
ATOM      3  C   UNL A   1      33.277  20.972  26.293  1.00  0.00     0.261 C 
BRANCH   3   4
ATOM      4  O   UNL A   1      32.353  21.828  25.601  1.00  0.00    -0.463 OA
BRANCH   4   5
ATOM      5  C   UNL A   1      32.434  21.806  24.243  1.00  0.00     0.310 C 
ATOM      6  O   UNL A   1      32.600  20.803  23.560  1.00  0.00    -0.252 OA
BRANCH   5   7
ATOM      7  C   UNL A   1      32.295  23.190  23.652  1.00  0.00     0.118 C 
BRANCH   7   8
ATOM      8  C   UNL A   1      33.254  24.219  24.288  1.00  0.00     0.017 C 
BRANCH   8   9
ATOM      9  C   UNL A   1      34.768  24.099  24.046  1.00  0.00    -0.002 C 
ATOM     10  C   UNL A   1      35.207  23.154  22.937  1.00  0.00     0.004 C 
ENDBRANCH   8   9
ENDBRANCH   7   8
BRANCH   7  11
ATOM     11  C   UNL A   1      30.800  23.595  23.648  1.00  0.00     0.133 C 
BRANCH  11  12
ATOM     12  N   UNL A   1      30.363  24.276  24.862  1.00  0.00    -0.337 N 
ATOM     13  C   UNL A   1      30.197  25.589  25.133  1.00  0.00     0.317 C 
ATOM     14  H   UNL A   1      30.153  23.675  25.613  1.00  0.00     0.165 HD
ATOM     15  O   UNL A   1      30.355  25.955  26.298  1.00  0.00    -0.249 OA
BRANCH  13  16
ATOM     16  N   UNL A   1      29.933  26.465  24.126  1.00  0.00    -0.321 N 
ATOM     17  C   UNL A   1      30.904  26.911  23.104  1.00  0.00     0.143 C 
ATOM     18  C   UNL A   1      28.531  26.710  23.765  1.00  0.00     0.148 C 
ATOM     19  C   UNL A   1      30.699  28.388  22.700  1.00  0.00     0.143 C 
ATOM     20  C   UNL A   1      28.351  28.213  23.601  1.00  0.00     0.125 C 
ATOM     21  N   UNL A   1      29.289  28.741  22.626  1.00  0.00    -0.317 N 
ATOM     22  C   UNL A   1      27.003  28.678  23.071  1.00  0.00     0.144 C 
ATOM     23  C   UNL A   1      28.713  29.759  21.892  1.00  0.00     0.317 C 
ATOM     24  N   UNL A   1      27.359  29.772  22.200  1.00  0.00    -0.336 N 
ATOM     25  O   UNL A   1      29.262  30.519  21.112  1.00  0.00    -0.249 OA
ATOM     26  H   UNL A   1      26.721  30.443  21.866  1.00  0.00     0.165 HD
ENDBRANCH  13  16
ENDBRANCH  11  12
ENDBRANCH   7  11
ENDBRANCH   5   7
ENDBRANCH   4   5
ENDBRANCH   3   4
ENDBRANCH   2   3
ENDBRANCH   1   2
BRANCH   1  27
ATOM     27  C   UNL A   1      35.925  20.651  25.345  1.00  0.00     0.202 C 
BRANCH  27  28
ATOM     28  C   UNL A   1      37.355  20.298  24.921  1.00  0.00     0.261 C 
BRANCH  28  29
ATOM     29  O   UNL A   1      38.286  21.374  25.113  1.00  0.00    -0.460 OA
BRANCH  29  30
ATOM     30  C   UNL A   1      39.304  21.046  25.951  1.00  0.00     0.338 C 
ATOM     31  O   UNL A   1      39.927  19.998  25.963  1.00  0.00    -0.246 OA
BRANCH  30  32
ATOM     32  C   UNL A   1      39.721  22.207  26.757  1.00  0.00     0.060 A 
ATOM     33  C   UNL A   1      39.075  23.419  26.482  1.00  0.00     0.016 A 
ATOM     34  C   UNL A   1      40.785  22.153  27.659  1.00  0.00     0.016 A 
ATOM     35  C   UNL A   1      39.556  24.599  27.031  1.00  0.00     0.010 A 
ATOM     36  C   UNL A   1      41.266  23.346  28.214  1.00  0.00     0.010 A 
ATOM     37  C   UNL A   1      40.689  24.578  27.855  1.00  0.00    -0.014 A 
BRANCH  37  38
ATOM     38  C   UNL A   1      41.340  25.872  28.176  1.00  0.00     0.031 A 
ATOM     39  C   UNL A   1      42.728  26.144  27.657  1.00  0.00     0.074 A 
ATOM     40  C   UNL A   1      40.651  26.834  28.817  1.00  0.00     0.049 A 
ATOM     41  N   UNL A   1      43.447  27.233  27.741  1.00  0.00    -0.248 NA
ATOM     42  C   UNL A   1      43.392  25.040  26.947  1.00  0.00     0.031 C 
ATOM     43  C   UNL A   1      39.283  26.694  29.318  1.00  0.00     0.029 A 
ATOM     44  N   UNL A   1      40.996  28.122  29.134  1.00  0.00    -0.354 N 
ATOM     45  C   UNL A   1      44.647  26.948  27.096  1.00  0.00     0.074 A 
ATOM     46  C   UNL A   1      44.576  25.566  26.672  1.00  0.00     0.031 C 
ATOM     47  C   UNL A   1      38.898  27.860  29.861  1.00  0.00     0.029 A 
ATOM     48  C   UNL A   1      40.002  28.814  29.784  1.00  0.00     0.049 A 
ATOM     49  H   UNL A   1      41.872  28.515  28.915  1.00  0.00     0.167 HD
ATOM     50  C   UNL A   1      45.704  27.768  26.865  1.00  0.00     0.034 A 
ATOM     51  C   UNL A   1      39.989  30.070  30.271  1.00  0.00     0.034 A 
ATOM     52  C   UNL A   1      45.758  29.143  27.305  1.00  0.00     0.049 A 
ATOM     53  C   UNL A   1      41.205  30.940  30.069  1.00  0.00     0.074 A 
ATOM     54  C   UNL A   1      46.773  30.066  27.125  1.00  0.00     0.029 A 
ATOM     55  N   UNL A   1      44.758  29.790  28.022  1.00  0.00    -0.354 N 
ATOM     56  N   UNL A   1      42.332  30.659  29.453  1.00  0.00    -0.248 NA
ATOM     57  C   UNL A   1      41.138  32.302  30.609  1.00  0.00     0.031 C 
ATOM     58  C   UNL A   1      46.426  31.238  27.804  1.00  0.00     0.029 A 
ATOM     59  C   UNL A   1      45.150  31.088  28.322  1.00  0.00     0.049 A 
ATOM     60  H   UNL A   1      43.898  29.388  28.279  1.00  0.00     0.167 HD
ATOM     61  C   UNL A   1      43.092  31.825  29.503  1.00  0.00     0.074 A 
ATOM     62  C   UNL A   1      42.283  32.814  30.186  1.00  0.00     0.031 C 
ATOM     63  C   UNL A   1      44.341  32.061  29.021  1.00  0.00     0.034 A 
BRANCH  50  64
ATOM     64  C   UNL A   1      46.903  27.178  26.158  1.00  0.00     0.023 A 
ATOM     65  C   UNL A   1      47.900  26.462  26.847  1.00  0.00     0.031 A 
ATOM     66  C   UNL A   1      47.067  27.359  24.773  1.00  0.00     0.131 A 
ATOM     67  C   UNL A   1      49.043  26.018  26.164  1.00  0.00     0.055 A 
ATOM     68  C   UNL A   1      48.165  26.839  24.084  1.00  0.00     0.041 A 
ATOM     69  F   UNL A   1      46.166  28.057  24.064  1.00  0.00    -0.206 F 
ATOM     70  C   UNL A   1      49.169  26.178  24.781  1.00  0.00     0.022 A 
BRANCH  67  71
ATOM     71  S   UNL A   1      50.435  25.369  27.130  1.00  0.00     0.124 S 
ATOM     72  O   UNL A   1      51.345  24.928  26.076  1.00  0.00    -0.237 OA
ATOM     73  O   UNL A   1      50.859  26.536  27.895  1.00  0.00    -0.237 OA
ATOM     74  O   UNL A   1      49.834  24.291  27.915  1.00  0.00    -0.744 OA
ENDBRANCH  67  71
ENDBRANCH  50  64
BRANCH  51  75
ATOM     75  C   UNL A   1      38.800  30.578  31.018  1.00  0.00     0.023 A 
ATOM     76  C   UNL A   1      37.721  31.180  30.355  1.00  0.00     0.031 A 
ATOM     77  C   UNL A   1      38.756  30.511  32.423  1.00  0.00     0.131 A 
ATOM     78  C   UNL A   1      36.668  31.738  31.096  1.00  0.00     0.055 A 
ATOM     79  C   UNL A   1      37.677  31.011  33.153  1.00  0.00     0.041 A 
ATOM     80  F   UNL A   1      39.762  29.947  33.110  1.00  0.00    -0.206 F 
ATOM     81  C   UNL A   1      36.631  31.643  32.489  1.00  0.00     0.022 A 
BRANCH  78  82
ATOM     82  S   UNL A   1      35.390  32.680  30.219  1.00  0.00     0.124 S 
ATOM     83  O   UNL A   1      34.282  32.628  31.165  1.00  0.00    -0.237 OA
ATOM     84  O   UNL A   1      36.033  33.979  30.054  1.00  0.00    -0.237 OA
ATOM     85  O   UNL A   1      35.196  31.921  28.986  1.00  0.00    -0.744 OA
ENDBRANCH  78  82
ENDBRANCH  51  75
BRANCH  63  86
ATOM     86  C   UNL A   1      44.880  33.466  29.177  1.00  0.00     0.023 A 
ATOM     87  C   UNL A   1      45.704  33.832  30.256  1.00  0.00     0.031 A 
ATOM     88  C   UNL A   1      44.525  34.467  28.254  1.00  0.00     0.131 A 
ATOM     89  C   UNL A   1      46.066  35.176  30.436  1.00  0.00     0.055 A 
ATOM     90  C   UNL A   1      44.959  35.786  28.392  1.00  0.00     0.041 A 
ATOM     91  F   UNL A   1      43.739  34.182  27.202  1.00  0.00    -0.206 F 
ATOM     92  C   UNL A   1      45.716  36.152  29.501  1.00  0.00     0.022 A 
BRANCH  89  93
ATOM     93  S   UNL A   1      46.869  35.656  31.991  1.00  0.00     0.124 S 
ATOM     94  O   UNL A   1      47.225  37.047  31.730  1.00  0.00    -0.237 OA
ATOM     95  O   UNL A   1      45.807  35.443  32.969  1.00  0.00    -0.237 OA
ATOM     96  O   UNL A   1      47.999  34.734  32.091  1.00  0.00    -0.744 OA
ENDBRANCH  89  93
ENDBRANCH  63  86
ENDBRANCH  37  38
ENDBRANCH  30  32
ENDBRANCH  29  30
ENDBRANCH  28  29
ENDBRANCH  27  28
ENDBRANCH   1  27
TORSDOF 22
ENDMDL
MODEL 2
REMARK VINA RESULT:     -11.1      2.105      7.720
REMARK SMILES CCC[C@H](CNC(=O)N1CCN2C(=O)NC[C@H]2C1)C(=O)OCCOCCOC(=O)c1ccc(-c2c3nc(c(-c4cc(S(=O)(=O)[O-])ccc4F)c4ccc([nH]4)c(-c4cc(S(=O)(=O)[O-])ccc4F)c4nc(c(-c5cc(S(=O)(=O)[O-])ccc5F)c5ccc2[nH]5)C=C4)C=C3)cc1
REMARK SMILES IDX 24 1 23 2 22 3 21 4 19 5 20 6 4 7 3 8 2 9 1 10 5 11 6 12
REMARK SMILES IDX 7 13 8 15 9 16 10 17 18 18 11 19 17 20 12 21 16 22 13 23
REMARK SMILES IDX 15 24 14 25 25 27 26 28 27 29 28 30 29 31 30 32 31 33 92 34
REMARK SMILES IDX 32 35 91 36 33 37 34 38 35 39 85 40 36 41 90 42 84 43 86 44
REMARK SMILES IDX 37 45 89 46 83 47 82 48 38 50 70 51 50 52 69 53 51 54 54 55
REMARK SMILES IDX 68 56 87 57 52 58 53 59 67 61 88 62 55 63 39 64 40 65 48 66
REMARK SMILES IDX 41 67 47 68 49 69 46 70 42 71 43 72 44 73 45 74 71 75 72 76
REMARK SMILES IDX 80 77 73 78 79 79 81 80 78 81 74 82 75 83 76 84 77 85 56 86
REMARK SMILES IDX 57 87 65 88 58 89 64 90 66 91 63 92 59 93 60 94 61 95 62 96
REMARK H PARENT 6 14 15 26 86 49 54 60
REMARK Flexibility Score: inf
ROOT
ATOM      1  O   UNL A   1      35.330  21.356  25.994  1.00  0.00    -0.374 OA
ENDROOT
BRANCH   1   2
ATOM      2  C   UNL A   1      34.038  21.094  26.534  1.00  0.00     0.202 C 
BRANCH   2   3
ATOM      3  C   UNL A   1      33.080  20.228  25.716  1.00  0.00     0.261 C 
BRANCH   3   4
ATOM      4  O   UNL A   1      32.057  20.988  25.053  1.00  0.00    -0.463 OA
BRANCH   4   5
ATOM      5  C   UNL A   1      32.243  21.187  23.721  1.00  0.00     0.310 C 
ATOM      6  O   UNL A   1      32.393  20.303  22.886  1.00  0.00    -0.252 OA
BRANCH   5   7
ATOM      7  C   UNL A   1      32.244  22.657  23.369  1.00  0.00     0.118 C 
BRANCH   7   8
ATOM      8  C   UNL A   1      33.491  23.403  23.892  1.00  0.00     0.017 C 
BRANCH   8   9
ATOM      9  C   UNL A   1      34.087  24.558  23.070  1.00  0.00    -0.002 C 
ATOM     10  C   UNL A   1      33.132  25.675  22.676  1.00  0.00     0.004 C 
ENDBRANCH   8   9
ENDBRANCH   7   8
BRANCH   7  11
ATOM     11  C   UNL A   1      30.884  23.280  23.773  1.00  0.00     0.133 C 
BRANCH  11  12
ATOM     12  N   UNL A   1      30.680  23.382  25.214  1.00  0.00    -0.337 N 
ATOM     13  C   UNL A   1      30.676  24.454  26.036  1.00  0.00     0.317 C 
ATOM     14  H   UNL A   1      30.516  22.522  25.664  1.00  0.00     0.165 HD
ATOM     15  O   UNL A   1      31.022  24.277  27.204  1.00  0.00    -0.249 OA
BRANCH  13  16
ATOM     16  N   UNL A   1      30.364  25.686  25.550  1.00  0.00    -0.321 N 
ATOM     17  C   UNL A   1      29.243  25.984  24.633  1.00  0.00     0.143 C 
ATOM     18  C   UNL A   1      30.900  26.864  26.241  1.00  0.00     0.148 C 
ATOM     19  C   UNL A   1      29.591  27.095  23.618  1.00  0.00     0.143 C 
ATOM     20  C   UNL A   1      31.430  27.822  25.183  1.00  0.00     0.125 C 
ATOM     21  N   UNL A   1      30.392  28.151  24.220  1.00  0.00    -0.317 N 
ATOM     22  C   UNL A   1      31.889  29.186  25.675  1.00  0.00     0.144 C 
ATOM     23  C   UNL A   1      30.505  29.463  23.807  1.00  0.00     0.317 C 
ATOM     24  N   UNL A   1      31.444  30.074  24.628  1.00  0.00    -0.336 N 
ATOM     25  O   UNL A   1      29.906  30.013  22.898  1.00  0.00    -0.249 OA
ATOM     26  H   UNL A   1      31.767  30.996  24.510  1.00  0.00     0.165 HD
ENDBRANCH  13  16
ENDBRANCH  11  12
ENDBRANCH   7  11
ENDBRANCH   5   7
ENDBRANCH   4   5
ENDBRANCH   3   4
ENDBRANCH   2   3
ENDBRANCH   1   2
BRANCH   1  27
ATOM     27  C   UNL A   1      35.849  20.479  25.001  1.00  0.00     0.202 C 
BRANCH  27  28
ATOM     28  C   UNL A   1      37.352  20.181  24.993  1.00  0.00     0.261 C 
BRANCH  28  29
ATOM     29  O   UNL A   1      38.165  21.353  25.161  1.00  0.00    -0.460 OA
BRANCH  29  30
ATOM     30  C   UNL A   1      39.213  21.152  26.000  1.00  0.00     0.338 C 
ATOM     31  O   UNL A   1      39.850  20.120  26.135  1.00  0.00    -0.246 OA
BRANCH  30  32
ATOM     32  C   UNL A   1      39.642  22.415  26.625  1.00  0.00     0.060 A 
ATOM     33  C   UNL A   1      39.050  23.584  26.132  1.00  0.00     0.016 A 
ATOM     34  C   UNL A   1      40.671  22.478  27.566  1.00  0.00     0.016 A 
ATOM     35  C   UNL A   1      39.552  24.824  26.502  1.00  0.00     0.010 A 
ATOM     36  C   UNL A   1      41.173  23.731  27.941  1.00  0.00     0.010 A 
ATOM     37  C   UNL A   1      40.654  24.904  27.364  1.00  0.00    -0.014 A 
BRANCH  37  38
ATOM     38  C   UNL A   1      41.338  26.213  27.498  1.00  0.00     0.031 A 
ATOM     39  C   UNL A   1      40.681  27.305  28.301  1.00  0.00     0.074 A 
ATOM     40  C   UNL A   1      42.582  26.379  27.012  1.00  0.00     0.049 A 
ATOM     41  N   UNL A   1      41.136  28.490  28.621  1.00  0.00    -0.248 NA
ATOM     42  C   UNL A   1      39.331  27.023  28.814  1.00  0.00     0.031 C 
ATOM     43  C   UNL A   1      43.331  25.370  26.263  1.00  0.00     0.029 A 
ATOM     44  N   UNL A   1      43.441  27.444  27.096  1.00  0.00    -0.354 N 
ATOM     45  C   UNL A   1      40.131  29.094  29.371  1.00  0.00     0.074 A 
ATOM     46  C   UNL A   1      39.023  28.162  29.413  1.00  0.00     0.031 C 
ATOM     47  C   UNL A   1      44.548  25.858  25.973  1.00  0.00     0.029 A 
ATOM     48  C   UNL A   1      44.650  27.225  26.479  1.00  0.00     0.049 A 
ATOM     49  H   UNL A   1      43.215  28.285  27.554  1.00  0.00     0.167 HD
ATOM     50  C   UNL A   1      40.137  30.306  29.981  1.00  0.00     0.034 A 
ATOM     51  C   UNL A   1      45.714  28.039  26.330  1.00  0.00     0.034 A 
ATOM     52  C   UNL A   1      41.251  31.224  29.919  1.00  0.00     0.049 A 
ATOM     53  C   UNL A   1      45.669  29.412  26.953  1.00  0.00     0.074 A 
ATOM     54  C   UNL A   1      41.370  32.474  30.500  1.00  0.00     0.029 A 
ATOM     55  N   UNL A   1      42.435  30.996  29.227  1.00  0.00    -0.354 N 
ATOM     56  N   UNL A   1      44.714  29.970  27.663  1.00  0.00    -0.248 NA
ATOM     57  C   UNL A   1      46.854  30.256  26.771  1.00  0.00     0.031 C 
ATOM     58  C   UNL A   1      42.584  33.036  30.089  1.00  0.00     0.029 A 
ATOM     59  C   UNL A   1      43.273  32.097  29.336  1.00  0.00     0.049 A 
ATOM     60  H   UNL A   1      42.648  30.173  28.731  1.00  0.00     0.167 HD
ATOM     61  C   UNL A   1      45.202  31.218  28.042  1.00  0.00     0.074 A 
ATOM     62  C   UNL A   1      46.542  31.316  27.501  1.00  0.00     0.031 C 
ATOM     63  C   UNL A   1      44.603  32.191  28.777  1.00  0.00     0.034 A 
BRANCH  50  64
ATOM     64  C   UNL A   1      38.883  30.726  30.713  1.00  0.00     0.023 A 
ATOM     65  C   UNL A   1      37.840  31.421  30.072  1.00  0.00     0.031 A 
ATOM     66  C   UNL A   1      38.739  30.451  32.085  1.00  0.00     0.131 A 
ATOM     67  C   UNL A   1      36.740  31.876  30.815  1.00  0.00     0.055 A 
ATOM     68  C   UNL A   1      37.601  30.830  32.800  1.00  0.00     0.041 A 
ATOM     69  F   UNL A   1      39.710  29.816  32.760  1.00  0.00    -0.206 F 
ATOM     70  C   UNL A   1      36.600  31.561  32.169  1.00  0.00     0.022 A 
BRANCH  67  71
ATOM     71  S   UNL A   1      35.571  33.018  30.027  1.00  0.00     0.124 S 
ATOM     72  O   UNL A   1      36.459  33.810  29.180  1.00  0.00    -0.237 OA
ATOM     73  O   UNL A   1      34.665  32.111  29.333  1.00  0.00    -0.237 OA
ATOM     74  O   UNL A   1      34.988  33.744  31.155  1.00  0.00    -0.744 OA
ENDBRANCH  67  71
ENDBRANCH  50  64
BRANCH  51  75
ATOM     75  C   UNL A   1      46.900  27.594  25.541  1.00  0.00     0.023 A 
ATOM     76  C   UNL A   1      47.072  27.971  24.201  1.00  0.00     0.031 A 
ATOM     77  C   UNL A   1      47.857  26.734  26.111  1.00  0.00     0.131 A 
ATOM     78  C   UNL A   1      48.144  27.450  23.460  1.00  0.00     0.055 A 
ATOM     79  C   UNL A   1      48.957  26.270  25.389  1.00  0.00     0.041 A 
ATOM     80  F   UNL A   1      47.742  26.339  27.390  1.00  0.00    -0.206 F 
ATOM     81  C   UNL A   1      49.097  26.615  24.049  1.00  0.00     0.022 A 
BRANCH  78  82
ATOM     82  S   UNL A   1      48.224  27.801  21.682  1.00  0.00     0.124 S 
ATOM     83  O   UNL A   1      46.861  28.239  21.405  1.00  0.00    -0.237 OA
ATOM     84  O   UNL A   1      49.255  28.832  21.625  1.00  0.00    -0.237 OA
ATOM     85  O   UNL A   1      48.599  26.515  21.100  1.00  0.00    -0.744 OA
ENDBRANCH  78  82
ENDBRANCH  51  75
BRANCH  63  86
ATOM     86  C   UNL A   1      45.424  33.426  29.077  1.00  0.00     0.023 A 
ATOM     87  C   UNL A   1      45.347  34.582  28.281  1.00  0.00     0.031 A 
ATOM     88  C   UNL A   1      46.332  33.428  30.151  1.00  0.00     0.131 A 
ATOM     89  C   UNL A   1      46.227  35.651  28.512  1.00  0.00     0.055 A 
ATOM     90  C   UNL A   1      47.145  34.529  30.428  1.00  0.00     0.041 A 
ATOM     91  F   UNL A   1      46.454  32.354  30.948  1.00  0.00    -0.206 F 
ATOM     92  C   UNL A   1      47.111  35.641  29.592  1.00  0.00     0.022 A 
BRANCH  89  93
ATOM     93  S   UNL A   1      46.306  36.989  27.288  1.00  0.00     0.124 S 
ATOM     94  O   UNL A   1      44.923  37.059  26.827  1.00  0.00    -0.237 OA
ATOM     95  O   UNL A   1      46.768  38.118  28.090  1.00  0.00    -0.237 OA
ATOM     96  O   UNL A   1      47.265  36.495  26.302  1.00  0.00    -0.744 OA
ENDBRANCH  89  93
ENDBRANCH  63  86
ENDBRANCH  37  38
ENDBRANCH  30  32
ENDBRANCH  29  30
ENDBRANCH  28  29
ENDBRANCH  27  28
ENDBRANCH   1  27
TORSDOF 22
ENDMDL
MODEL 3
REMARK VINA RESULT:     -10.2      2.230      2.749
REMARK SMILES CCC[C@H](CNC(=O)N1CCN2C(=O)NC[C@H]2C1)C(=O)OCCOCCOC(=O)c1ccc(-c2c3nc(c(-c4cc(S(=O)(=O)[O-])ccc4F)c4ccc([nH]4)c(-c4cc(S(=O)(=O)[O-])ccc4F)c4nc(c(-c5cc(S(=O)(=O)[O-])ccc5F)c5ccc2[nH]5)C=C4)C=C3)cc1
REMARK SMILES IDX 24 1 23 2 22 3 21 4 19 5 20 6 4 7 3 8 2 9 1 10 5 11 6 12
REMARK SMILES IDX 7 13 8 15 9 16 10 17 18 18 11 19 17 20 12 21 16 22 13 23
REMARK SMILES IDX 15 24 14 25 25 27 26 28 27 29 28 30 29 31 30 32 31 33 92 34
REMARK SMILES IDX 32 35 91 36 33 37 34 38 35 39 85 40 36 41 90 42 84 43 86 44
REMARK SMILES IDX 37 45 89 46 83 47 82 48 38 50 70 51 50 52 69 53 51 54 54 55
REMARK SMILES IDX 68 56 87 57 52 58 53 59 67 61 88 62 55 63 39 64 40 65 48 66
REMARK SMILES IDX 41 67 47 68 49 69 46 70 42 71 43 72 44 73 45 74 71 75 72 76
REMARK SMILES IDX 80 77 73 78 79 79 81 80 78 81 74 82 75 83 76 84 77 85 56 86
REMARK SMILES IDX 57 87 65 88 58 89 64 90 66 91 63 92 59 93 60 94 61 95 62 96
REMARK H PARENT 6 14 15 26 86 49 54 60
REMARK Flexibility Score: inf
ROOT
ATOM      1  O   UNL A   1      37.535  22.594  25.797  1.00  0.00    -0.374 OA
ENDROOT
BRANCH   1   2
ATOM      2  C   UNL A   1      36.286  23.055  25.292  1.00  0.00     0.202 C 
BRANCH   2   3
ATOM      3  C   UNL A   1      35.143  22.047  25.174  1.00  0.00     0.261 C 
BRANCH   3   4
ATOM      4  O   UNL A   1      33.859  22.666  24.990  1.00  0.00    -0.463 OA
BRANCH   4   5
ATOM      5  C   UNL A   1      32.968  21.961  24.243  1.00  0.00     0.310 C 
ATOM      6  O   UNL A   1      32.659  20.790  24.426  1.00  0.00    -0.252 OA
BRANCH   5   7
ATOM      7  C   UNL A   1      32.384  22.800  23.130  1.00  0.00     0.118 C 
BRANCH   7   8
ATOM      8  C   UNL A   1      33.385  23.827  22.557  1.00  0.00     0.017 C 
BRANCH   8   9
ATOM      9  C   UNL A   1      32.862  25.056  21.795  1.00  0.00    -0.002 C 
ATOM     10  C   UNL A   1      33.329  26.415  22.295  1.00  0.00     0.004 C 
ENDBRANCH   8   9
ENDBRANCH   7   8
BRANCH   7  11
ATOM     11  C   UNL A   1      31.027  23.388  23.592  1.00  0.00     0.133 C 
BRANCH  11  12
ATOM     12  N   UNL A   1      30.845  23.401  25.040  1.00  0.00    -0.337 N 
ATOM     13  C   UNL A   1      30.837  24.422  25.925  1.00  0.00     0.317 C 
ATOM     14  H   UNL A   1      30.703  22.513  25.441  1.00  0.00     0.165 HD
ATOM     15  O   UNL A   1      31.206  24.181  27.075  1.00  0.00    -0.249 OA
BRANCH  13  16
ATOM     16  N   UNL A   1      30.497  25.675  25.518  1.00  0.00    -0.321 N 
ATOM     17  C   UNL A   1      29.349  26.009  24.649  1.00  0.00     0.143 C 
ATOM     18  C   UNL A   1      31.037  26.819  26.262  1.00  0.00     0.148 C 
ATOM     19  C   UNL A   1      29.655  27.181  23.691  1.00  0.00     0.143 C 
ATOM     20  C   UNL A   1      31.526  27.843  25.247  1.00  0.00     0.125 C 
ATOM     21  N   UNL A   1      30.459  28.211  24.332  1.00  0.00    -0.317 N 
ATOM     22  C   UNL A   1      31.981  29.183  25.804  1.00  0.00     0.144 C 
ATOM     23  C   UNL A   1      30.544  29.547  23.992  1.00  0.00     0.317 C 
ATOM     24  N   UNL A   1      31.497  30.123  24.821  1.00  0.00    -0.336 N 
ATOM     25  O   UNL A   1      29.914  30.139  23.131  1.00  0.00    -0.249 OA
ATOM     26  H   UNL A   1      31.805  31.055  24.748  1.00  0.00     0.165 HD
ENDBRANCH  13  16
ENDBRANCH  11  12
ENDBRANCH   7  11
ENDBRANCH   5   7
ENDBRANCH   4   5
ENDBRANCH   3   4
ENDBRANCH   2   3
ENDBRANCH   1   2
BRANCH   1  27
ATOM     27  C   UNL A   1      37.978  21.288  25.443  1.00  0.00     0.202 C 
BRANCH  27  28
ATOM     28  C   UNL A   1      39.290  20.767  26.039  1.00  0.00     0.261 C 
BRANCH  28  29
ATOM     29  O   UNL A   1      40.457  21.366  25.455  1.00  0.00    -0.460 OA
BRANCH  29  30
ATOM     30  C   UNL A   1      41.486  21.483  26.333  1.00  0.00     0.338 C 
ATOM     31  O   UNL A   1      42.452  20.744  26.425  1.00  0.00    -0.246 OA
BRANCH  30  32
ATOM     32  C   UNL A   1      41.407  22.754  27.075  1.00  0.00     0.060 A 
ATOM     33  C   UNL A   1      40.909  23.855  26.368  1.00  0.00     0.016 A 
ATOM     34  C   UNL A   1      41.915  22.905  28.366  1.00  0.00     0.016 A 
ATOM     35  C   UNL A   1      41.008  25.129  26.910  1.00  0.00     0.010 A 
ATOM     36  C   UNL A   1      42.010  24.191  28.913  1.00  0.00     0.010 A 
ATOM     37  C   UNL A   1      41.612  25.311  28.163  1.00  0.00    -0.014 A 
BRANCH  37  38
ATOM     38  C   UNL A   1      41.963  26.694  28.570  1.00  0.00     0.031 A 
ATOM     39  C   UNL A   1      43.376  27.178  28.379  1.00  0.00     0.074 A 
ATOM     40  C   UNL A   1      41.003  27.539  28.989  1.00  0.00     0.049 A 
ATOM     41  N   UNL A   1      43.881  28.368  28.582  1.00  0.00    -0.248 NA
ATOM     42  C   UNL A   1      44.350  26.189  27.893  1.00  0.00     0.031 C 
ATOM     43  C   UNL A   1      39.593  27.188  29.161  1.00  0.00     0.029 A 
ATOM     44  N   UNL A   1      41.063  28.868  29.321  1.00  0.00    -0.354 N 
ATOM     45  C   UNL A   1      45.229  28.272  28.248  1.00  0.00     0.074 A 
ATOM     46  C   UNL A   1      45.471  26.893  27.881  1.00  0.00     0.031 C 
ATOM     47  C   UNL A   1      38.916  28.282  29.548  1.00  0.00     0.029 A 
ATOM     48  C   UNL A   1      39.849  29.398  29.690  1.00  0.00     0.049 A 
ATOM     49  H   UNL A   1      41.896  29.393  29.297  1.00  0.00     0.167 HD
ATOM     50  C   UNL A   1      46.173  29.247  28.236  1.00  0.00     0.034 A 
ATOM     51  C   UNL A   1      39.530  30.640  30.105  1.00  0.00     0.034 A 
ATOM     52  C   UNL A   1      45.911  30.616  28.615  1.00  0.00     0.049 A 
ATOM     53  C   UNL A   1      40.612  31.689  30.155  1.00  0.00     0.074 A 
ATOM     54  C   UNL A   1      46.787  31.686  28.637  1.00  0.00     0.029 A 
ATOM     55  N   UNL A   1      44.683  31.102  29.049  1.00  0.00    -0.354 N 
ATOM     56  N   UNL A   1      41.883  31.585  29.834  1.00  0.00    -0.248 NA
ATOM     57  C   UNL A   1      40.212  33.026  30.604  1.00  0.00     0.031 C 
ATOM     58  C   UNL A   1      46.115  32.794  29.165  1.00  0.00     0.029 A 
ATOM     59  C   UNL A   1      44.790  32.447  29.376  1.00  0.00     0.049 A 
ATOM     60  H   UNL A   1      43.858  30.570  29.115  1.00  0.00     0.167 HD
ATOM     61  C   UNL A   1      42.423  32.858  30.008  1.00  0.00     0.074 A 
ATOM     62  C   UNL A   1      41.334  33.710  30.440  1.00  0.00     0.031 C 
ATOM     63  C   UNL A   1      43.699  33.285  29.822  1.00  0.00     0.034 A 
BRANCH  50  64
ATOM     64  C   UNL A   1      47.582  28.850  27.855  1.00  0.00     0.023 A 
ATOM     65  C   UNL A   1      47.963  28.640  26.517  1.00  0.00     0.031 A 
ATOM     66  C   UNL A   1      48.554  28.653  28.851  1.00  0.00     0.131 A 
ATOM     67  C   UNL A   1      49.255  28.178  26.220  1.00  0.00     0.055 A 
ATOM     68  C   UNL A   1      49.864  28.278  28.543  1.00  0.00     0.041 A 
ATOM     69  F   UNL A   1      48.246  28.811  30.148  1.00  0.00    -0.206 F 
ATOM     70  C   UNL A   1      50.217  28.022  27.222  1.00  0.00     0.022 A 
BRANCH  67  71
ATOM     71  S   UNL A   1      49.616  27.633  24.528  1.00  0.00     0.124 S 
ATOM     72  O   UNL A   1      50.692  28.545  24.148  1.00  0.00    -0.237 OA
ATOM     73  O   UNL A   1      49.996  26.239  24.720  1.00  0.00    -0.237 OA
ATOM     74  O   UNL A   1      48.352  27.846  23.823  1.00  0.00    -0.744 OA
ENDBRANCH  67  71
ENDBRANCH  50  64
BRANCH  51  75
ATOM     75  C   UNL A   1      38.135  30.957  30.530  1.00  0.00     0.023 A 
ATOM     76  C   UNL A   1      37.191  31.466  29.625  1.00  0.00     0.031 A 
ATOM     77  C   UNL A   1      37.743  30.803  31.872  1.00  0.00     0.131 A 
ATOM     78  C   UNL A   1      35.921  31.851  30.081  1.00  0.00     0.055 A 
ATOM     79  C   UNL A   1      36.458  31.127  32.309  1.00  0.00     0.041 A 
ATOM     80  F   UNL A   1      38.605  30.322  32.782  1.00  0.00    -0.206 F 
ATOM     81  C   UNL A   1      35.542  31.670  31.413  1.00  0.00     0.022 A 
BRANCH  78  82
ATOM     82  S   UNL A   1      34.798  32.685  28.927  1.00  0.00     0.124 S 
ATOM     83  O   UNL A   1      34.016  33.524  29.828  1.00  0.00    -0.237 OA
ATOM     84  O   UNL A   1      35.731  33.381  28.048  1.00  0.00    -0.237 OA
ATOM     85  O   UNL A   1      34.067  31.582  28.308  1.00  0.00    -0.744 OA
ENDBRANCH  78  82
ENDBRANCH  51  75
BRANCH  63  86
ATOM     86  C   UNL A   1      43.966  34.758  30.038  1.00  0.00     0.023 A 
ATOM     87  C   UNL A   1      43.823  35.700  29.004  1.00  0.00     0.031 A 
ATOM     88  C   UNL A   1      44.417  35.220  31.288  1.00  0.00     0.131 A 
ATOM     89  C   UNL A   1      44.215  37.032  29.211  1.00  0.00     0.055 A 
ATOM     90  C   UNL A   1      44.724  36.563  31.513  1.00  0.00     0.041 A 
ATOM     91  F   UNL A   1      44.576  34.370  32.316  1.00  0.00    -0.206 F 
ATOM     92  C   UNL A   1      44.645  37.474  30.463  1.00  0.00     0.022 A 
BRANCH  89  93
ATOM     93  S   UNL A   1      44.301  38.143  27.778  1.00  0.00     0.124 S 
ATOM     94  O   UNL A   1      45.694  38.001  27.369  1.00  0.00    -0.237 OA
ATOM     95  O   UNL A   1      43.310  37.564  26.876  1.00  0.00    -0.237 OA
ATOM     96  O   UNL A   1      43.946  39.447  28.335  1.00  0.00    -0.744 OA
ENDBRANCH  89  93
ENDBRANCH  63  86
ENDBRANCH  37  38
ENDBRANCH  30  32
ENDBRANCH  29  30
ENDBRANCH  28  29
ENDBRANCH  27  28
ENDBRANCH   1  27
TORSDOF 22
ENDMDL
