MODEL 1
REMARK VINA RESULT:     -12.3      0.000      0.000
REMARK SMILES O=C(OCCOCCOC(=O)[C@H]1CC=CC[C@@H]1C(=O)Nc1nn(Cc2ccccc2F)cc1Br)c1ccc(-c2c3nc(c(-c4cc(S(=O)(=O)[O-])ccc4F)c4ccc([nH]4)c(-c4cc(S(=O)(=O)[O-])ccc4F)c4nc(c(-c5cc(S(=O)(=O)[O-])ccc5F)c5ccc2[nH]5)C=C4)C=C3)cc1
REMARK SMILES IDX 7 1 6 2 5 3 4 4 3 5 2 6 1 7 35 8 36 9 97 10 37 11 96 12
REMARK SMILES IDX 38 13 39 14 40 15 90 16 41 17 95 18 89 19 91 20 42 21 94 22
REMARK SMILES IDX 88 23 87 24 43 26 75 27 55 28 74 29 56 30 59 31 73 32 92 33
REMARK SMILES IDX 57 34 58 35 72 37 93 38 60 39 44 40 45 41 53 42 46 43 52 44
REMARK SMILES IDX 54 45 51 46 47 47 48 48 49 49 50 50 76 51 77 52 85 53 78 54
REMARK SMILES IDX 84 55 86 56 83 57 79 58 80 59 81 60 82 61 61 62 62 63 70 64
REMARK SMILES IDX 63 65 69 66 71 67 68 68 64 69 65 70 66 71 67 72 8 73 9 74
REMARK SMILES IDX 10 75 11 76 12 77 13 78 17 79 14 80 16 81 15 82 18 83 19 84
REMARK SMILES IDX 20 85 21 87 22 88 33 89 23 90 32 91 34 92 24 93 25 94 26 95
REMARK SMILES IDX 30 96 27 97 29 98 31 99 28 100
REMARK H PARENT 91 25 59 36 20 86
REMARK Flexibility Score: inf
ROOT
ATOM      1  C   UNL A   1      33.680  28.709  26.930  1.00  0.00     0.202 C 
ENDROOT
BRANCH   1   2
ATOM      2  O   UNL A   1      33.868  29.822  27.804  1.00  0.00    -0.374 OA
BRANCH   2   3
ATOM      3  C   UNL A   1      33.876  31.164  27.349  1.00  0.00     0.202 C 
BRANCH   3   4
ATOM      4  C   UNL A   1      34.623  32.255  28.123  1.00  0.00     0.261 C 
BRANCH   4   5
ATOM      5  O   UNL A   1      34.608  32.114  29.540  1.00  0.00    -0.460 OA
BRANCH   5   6
ATOM      6  C   UNL A   1      35.608  31.679  30.329  1.00  0.00     0.338 C 
ATOM      7  O   UNL A   1      35.552  31.948  31.529  1.00  0.00    -0.246 OA
BRANCH   6   8
ATOM      8  C   UNL A   1      36.774  30.878  29.848  1.00  0.00     0.060 A 
ATOM      9  C   UNL A   1      36.801  29.502  29.619  1.00  0.00     0.016 A 
ATOM     10  C   UNL A   1      37.978  31.603  29.755  1.00  0.00     0.016 A 
ATOM     11  C   UNL A   1      38.003  28.830  29.634  1.00  0.00     0.010 A 
ATOM     12  C   UNL A   1      39.186  30.944  29.731  1.00  0.00     0.010 A 
ATOM     13  C   UNL A   1      39.172  29.560  29.799  1.00  0.00    -0.014 A 
BRANCH  13  14
ATOM     14  C   UNL A   1      40.407  28.820  29.932  1.00  0.00     0.031 A 
ATOM     15  C   UNL A   1      40.826  28.693  31.347  1.00  0.00     0.074 A 
ATOM     16  C   UNL A   1      40.990  28.270  28.849  1.00  0.00     0.049 A 
ATOM     17  N   UNL A   1      41.890  29.161  31.907  1.00  0.00    -0.248 NA
ATOM     18  C   UNL A   1      39.833  28.165  32.306  1.00  0.00     0.031 C 
ATOM     19  C   UNL A   1      40.471  28.224  27.479  1.00  0.00     0.029 A 
ATOM     20  N   UNL A   1      42.124  27.531  28.755  1.00  0.00    -0.354 N 
ATOM     21  C   UNL A   1      41.830  28.712  33.220  1.00  0.00     0.074 A 
ATOM     22  C   UNL A   1      40.467  28.332  33.466  1.00  0.00     0.031 C 
ATOM     23  C   UNL A   1      41.144  27.287  26.776  1.00  0.00     0.029 A 
ATOM     24  C   UNL A   1      42.210  26.749  27.603  1.00  0.00     0.049 A 
ATOM     25  H   UNL A   1      42.828  27.544  29.443  1.00  0.00     0.167 HD
ATOM     26  C   UNL A   1      42.967  28.347  33.868  1.00  0.00     0.034 A 
ATOM     27  C   UNL A   1      43.034  25.680  27.412  1.00  0.00     0.034 A 
ATOM     28  C   UNL A   1      44.123  29.015  33.323  1.00  0.00     0.049 A 
ATOM     29  C   UNL A   1      44.137  25.834  28.401  1.00  0.00     0.074 A 
ATOM     30  C   UNL A   1      44.428  30.345  33.091  1.00  0.00     0.029 A 
ATOM     31  N   UNL A   1      44.977  28.295  32.520  1.00  0.00    -0.354 N 
ATOM     32  N   UNL A   1      44.986  26.829  28.384  1.00  0.00    -0.248 NA
ATOM     33  C   UNL A   1      43.968  25.182  29.693  1.00  0.00     0.031 C 
ATOM     34  C   UNL A   1      45.052  30.359  31.811  1.00  0.00     0.029 A 
ATOM     35  C   UNL A   1      45.194  29.038  31.382  1.00  0.00     0.049 A 
ATOM     36  H   UNL A   1      45.362  27.412  32.722  1.00  0.00     0.167 HD
ATOM     37  C   UNL A   1      45.133  27.197  29.713  1.00  0.00     0.074 A 
ATOM     38  C   UNL A   1      44.524  26.108  30.479  1.00  0.00     0.031 C 
ATOM     39  C   UNL A   1      45.455  28.474  30.072  1.00  0.00     0.034 A 
BRANCH  26  40
ATOM     40  C   UNL A   1      43.038  27.087  34.692  1.00  0.00     0.023 A 
ATOM     41  C   UNL A   1      43.714  25.979  34.159  1.00  0.00     0.031 A 
ATOM     42  C   UNL A   1      42.253  26.839  35.848  1.00  0.00     0.131 A 
ATOM     43  C   UNL A   1      43.566  24.706  34.742  1.00  0.00     0.055 A 
ATOM     44  C   UNL A   1      42.166  25.591  36.462  1.00  0.00     0.041 A 
ATOM     45  F   UNL A   1      41.446  27.761  36.387  1.00  0.00    -0.206 F 
ATOM     46  C   UNL A   1      42.808  24.508  35.896  1.00  0.00     0.022 A 
BRANCH  43  47
ATOM     47  S   UNL A   1      44.280  23.280  33.891  1.00  0.00     0.124 S 
ATOM     48  O   UNL A   1      44.212  22.256  34.927  1.00  0.00    -0.237 OA
ATOM     49  O   UNL A   1      43.368  23.116  32.763  1.00  0.00    -0.237 OA
ATOM     50  O   UNL A   1      45.624  23.733  33.542  1.00  0.00    -0.744 OA
ENDBRANCH  43  47
ENDBRANCH  26  40
BRANCH  27  51
ATOM     51  C   UNL A   1      42.706  24.380  26.736  1.00  0.00     0.023 A 
ATOM     52  C   UNL A   1      43.650  23.689  25.938  1.00  0.00     0.031 A 
ATOM     53  C   UNL A   1      41.532  23.661  27.063  1.00  0.00     0.131 A 
ATOM     54  C   UNL A   1      43.405  22.357  25.518  1.00  0.00     0.055 A 
ATOM     55  C   UNL A   1      41.293  22.350  26.642  1.00  0.00     0.041 A 
ATOM     56  F   UNL A   1      40.602  24.168  27.885  1.00  0.00    -0.206 F 
ATOM     57  C   UNL A   1      42.235  21.686  25.877  1.00  0.00     0.022 A 
BRANCH  54  58
ATOM     58  S   UNL A   1      44.668  21.419  24.596  1.00  0.00     0.124 S 
ATOM     59  O   UNL A   1      44.202  20.042  24.761  1.00  0.00    -0.237 OA
ATOM     60  O   UNL A   1      44.570  21.979  23.256  1.00  0.00    -0.237 OA
ATOM     61  O   UNL A   1      45.908  21.735  25.305  1.00  0.00    -0.744 OA
ENDBRANCH  54  58
ENDBRANCH  27  51
BRANCH  39  62
ATOM     62  C   UNL A   1      45.960  29.443  29.020  1.00  0.00     0.023 A 
ATOM     63  C   UNL A   1      45.166  30.359  28.291  1.00  0.00     0.031 A 
ATOM     64  C   UNL A   1      47.357  29.557  28.915  1.00  0.00     0.131 A 
ATOM     65  C   UNL A   1      45.792  31.353  27.503  1.00  0.00     0.055 A 
ATOM     66  C   UNL A   1      47.968  30.550  28.154  1.00  0.00     0.041 A 
ATOM     67  F   UNL A   1      48.158  28.733  29.612  1.00  0.00    -0.206 F 
ATOM     68  C   UNL A   1      47.187  31.454  27.445  1.00  0.00     0.022 A 
BRANCH  65  69
ATOM     69  S   UNL A   1      44.806  32.574  26.569  1.00  0.00     0.124 S 
ATOM     70  O   UNL A   1      44.150  33.342  27.620  1.00  0.00    -0.237 OA
ATOM     71  O   UNL A   1      45.820  33.280  25.791  1.00  0.00    -0.237 OA
ATOM     72  O   UNL A   1      43.902  31.746  25.767  1.00  0.00    -0.744 OA
ENDBRANCH  65  69
ENDBRANCH  39  62
ENDBRANCH  13  14
ENDBRANCH   6   8
ENDBRANCH   5   6
ENDBRANCH   4   5
ENDBRANCH   3   4
ENDBRANCH   2   3
ENDBRANCH   1   2
BRANCH   1  73
ATOM     73  C   UNL A   1      32.584  27.644  27.099  1.00  0.00     0.261 C 
BRANCH  73  74
ATOM     74  O   UNL A   1      32.720  26.536  26.217  1.00  0.00    -0.463 OA
BRANCH  74  75
ATOM     75  C   UNL A   1      31.555  25.994  25.769  1.00  0.00     0.310 C 
ATOM     76  O   UNL A   1      30.499  26.024  26.389  1.00  0.00    -0.252 OA
BRANCH  75  77
ATOM     77  C   UNL A   1      31.724  25.450  24.346  1.00  0.00     0.116 C 
ATOM     78  C   UNL A   1      30.481  25.730  23.496  1.00  0.00     0.043 C 
ATOM     79  C   UNL A   1      32.997  26.044  23.736  1.00  0.00     0.097 C 
ATOM     80  C   UNL A   1      30.359  27.181  23.153  1.00  0.00    -0.030 C 
ATOM     81  C   UNL A   1      32.815  27.573  23.514  1.00  0.00     0.041 C 
ATOM     82  C   UNL A   1      31.410  28.014  23.187  1.00  0.00    -0.030 C 
BRANCH  79  83
ATOM     83  C   UNL A   1      33.427  25.356  22.437  1.00  0.00     0.229 C 
ATOM     84  O   UNL A   1      33.531  25.990  21.380  1.00  0.00    -0.274 OA
ATOM     85  N   UNL A   1      33.877  24.069  22.423  1.00  0.00    -0.308 N 
ATOM     86  H   UNL A   1      34.407  23.834  21.627  1.00  0.00     0.171 HD
BRANCH  85  87
ATOM     87  C   UNL A   1      33.722  23.038  23.323  1.00  0.00     0.168 A 
ATOM     88  N   UNL A   1      32.780  22.095  23.253  1.00  0.00    -0.153 NA
ATOM     89  C   UNL A   1      34.619  22.751  24.378  1.00  0.00     0.080 A 
ATOM     90  N   UNL A   1      32.994  21.310  24.343  1.00  0.00    -0.265 N 
ATOM     91  C   UNL A   1      34.125  21.654  25.032  1.00  0.00     0.127 A 
ATOM     92  Br  UNL A   1      36.119  23.763  24.857  1.00  0.00    -0.045 Br
BRANCH  90  93
ATOM     93  C   UNL A   1      32.127  20.164  24.636  1.00  0.00     0.182 C 
BRANCH  93  94
ATOM     94  C   UNL A   1      32.778  18.812  24.459  1.00  0.00     0.009 A 
ATOM     95  C   UNL A   1      33.166  18.371  23.183  1.00  0.00     0.008 A 
ATOM     96  C   UNL A   1      32.915  17.904  25.509  1.00  0.00     0.128 A 
ATOM     97  C   UNL A   1      33.661  17.073  22.991  1.00  0.00     0.001 A 
ATOM     98  C   UNL A   1      33.418  16.620  25.332  1.00  0.00     0.039 A 
ATOM     99  F   UNL A   1      32.538  18.231  26.744  1.00  0.00    -0.207 F 
ATOM    100  C   UNL A   1      33.780  16.194  24.065  1.00  0.00     0.003 A 
ENDBRANCH  93  94
ENDBRANCH  90  93
ENDBRANCH  85  87
ENDBRANCH  79  83
ENDBRANCH  75  77
ENDBRANCH  74  75
ENDBRANCH  73  74
ENDBRANCH   1  73
TORSDOF 21
ENDMDL
MODEL 2
REMARK VINA RESULT:     -12.3      2.370      4.793
REMARK SMILES O=C(OCCOCCOC(=O)[C@H]1CC=CC[C@@H]1C(=O)Nc1nn(Cc2ccccc2F)cc1Br)c1ccc(-c2c3nc(c(-c4cc(S(=O)(=O)[O-])ccc4F)c4ccc([nH]4)c(-c4cc(S(=O)(=O)[O-])ccc4F)c4nc(c(-c5cc(S(=O)(=O)[O-])ccc5F)c5ccc2[nH]5)C=C4)C=C3)cc1
REMARK SMILES IDX 7 1 6 2 5 3 4 4 3 5 2 6 1 7 35 8 36 9 97 10 37 11 96 12
REMARK SMILES IDX 38 13 39 14 40 15 90 16 41 17 95 18 89 19 91 20 42 21 94 22
REMARK SMILES IDX 88 23 87 24 43 26 75 27 55 28 74 29 56 30 59 31 73 32 92 33
REMARK SMILES IDX 57 34 58 35 72 37 93 38 60 39 44 40 45 41 53 42 46 43 52 44
REMARK SMILES IDX 54 45 51 46 47 47 48 48 49 49 50 50 76 51 77 52 85 53 78 54
REMARK SMILES IDX 84 55 86 56 83 57 79 58 80 59 81 60 82 61 61 62 62 63 70 64
REMARK SMILES IDX 63 65 69 66 71 67 68 68 64 69 65 70 66 71 67 72 8 73 9 74
REMARK SMILES IDX 10 75 11 76 12 77 13 78 17 79 14 80 16 81 15 82 18 83 19 84
REMARK SMILES IDX 20 85 21 87 22 88 33 89 23 90 32 91 34 92 24 93 25 94 26 95
REMARK SMILES IDX 30 96 27 97 29 98 31 99 28 100
REMARK H PARENT 91 25 59 36 20 86
REMARK Flexibility Score: inf
ROOT
ATOM      1  C   UNL A   1      32.811  27.350  26.463  1.00  0.00     0.202 C 
ENDROOT
BRANCH   1   2
ATOM      2  O   UNL A   1      32.658  28.770  26.476  1.00  0.00    -0.374 OA
BRANCH   2   3
ATOM      3  C   UNL A   1      33.722  29.655  26.781  1.00  0.00     0.202 C 
BRANCH   3   4
ATOM      4  C   UNL A   1      33.489  30.898  27.646  1.00  0.00     0.261 C 
BRANCH   4   5
ATOM      5  O   UNL A   1      34.661  31.629  27.990  1.00  0.00    -0.460 OA
BRANCH   5   6
ATOM      6  C   UNL A   1      35.578  31.312  28.924  1.00  0.00     0.338 C 
ATOM      7  O   UNL A   1      35.312  31.565  30.099  1.00  0.00    -0.246 OA
BRANCH   6   8
ATOM      8  C   UNL A   1      36.890  30.661  28.630  1.00  0.00     0.060 A 
ATOM      9  C   UNL A   1      37.087  29.368  28.143  1.00  0.00     0.016 A 
ATOM     10  C   UNL A   1      38.013  31.416  29.021  1.00  0.00     0.016 A 
ATOM     11  C   UNL A   1      38.293  28.736  28.352  1.00  0.00     0.010 A 
ATOM     12  C   UNL A   1      39.234  30.805  29.197  1.00  0.00     0.010 A 
ATOM     13  C   UNL A   1      39.314  29.438  28.978  1.00  0.00    -0.014 A 
BRANCH  13  14
ATOM     14  C   UNL A   1      40.525  28.715  29.292  1.00  0.00     0.031 A 
ATOM     15  C   UNL A   1      40.839  28.763  30.739  1.00  0.00     0.074 A 
ATOM     16  C   UNL A   1      41.178  28.031  28.332  1.00  0.00     0.049 A 
ATOM     17  N   UNL A   1      41.865  29.292  31.314  1.00  0.00    -0.248 NA
ATOM     18  C   UNL A   1      39.770  28.365  31.680  1.00  0.00     0.031 C 
ATOM     19  C   UNL A   1      40.759  27.816  26.943  1.00  0.00     0.029 A 
ATOM     20  N   UNL A   1      42.305  27.280  28.415  1.00  0.00    -0.354 N 
ATOM     21  C   UNL A   1      41.704  29.012  32.664  1.00  0.00     0.074 A 
ATOM     22  C   UNL A   1      40.321  28.672  32.854  1.00  0.00     0.031 C 
ATOM     23  C   UNL A   1      41.468  26.795  26.415  1.00  0.00     0.029 A 
ATOM     24  C   UNL A   1      42.463  26.359  27.378  1.00  0.00     0.049 A 
ATOM     25  H   UNL A   1      42.957  27.375  29.146  1.00  0.00     0.167 HD
ATOM     26  C   UNL A   1      42.785  28.725  33.435  1.00  0.00     0.034 A 
ATOM     27  C   UNL A   1      43.284  25.271  27.383  1.00  0.00     0.034 A 
ATOM     28  C   UNL A   1      43.987  29.314  32.898  1.00  0.00     0.049 A 
ATOM     29  C   UNL A   1      44.314  25.542  28.424  1.00  0.00     0.074 A 
ATOM     30  C   UNL A   1      44.327  30.603  32.526  1.00  0.00     0.029 A 
ATOM     31  N   UNL A   1      44.887  28.495  32.256  1.00  0.00    -0.354 N 
ATOM     32  N   UNL A   1      45.176  26.523  28.346  1.00  0.00    -0.248 NA
ATOM     33  C   UNL A   1      44.043  25.058  29.771  1.00  0.00     0.031 C 
ATOM     34  C   UNL A   1      45.043  30.453  31.304  1.00  0.00     0.029 A 
ATOM     35  C   UNL A   1      45.197  29.089  31.054  1.00  0.00     0.049 A 
ATOM     36  H   UNL A   1      45.244  27.642  32.595  1.00  0.00     0.167 HD
ATOM     37  C   UNL A   1      45.231  27.053  29.627  1.00  0.00     0.074 A 
ATOM     38  C   UNL A   1      44.553  26.072  30.475  1.00  0.00     0.031 C 
ATOM     39  C   UNL A   1      45.545  28.364  29.847  1.00  0.00     0.034 A 
BRANCH  26  40
ATOM     40  C   UNL A   1      42.778  27.577  34.412  1.00  0.00     0.023 A 
ATOM     41  C   UNL A   1      43.490  26.415  34.081  1.00  0.00     0.031 A 
ATOM     42  C   UNL A   1      41.895  27.471  35.519  1.00  0.00     0.131 A 
ATOM     43  C   UNL A   1      43.285  25.224  34.803  1.00  0.00     0.055 A 
ATOM     44  C   UNL A   1      41.749  26.309  36.273  1.00  0.00     0.041 A 
ATOM     45  F   UNL A   1      41.051  28.449  35.869  1.00  0.00    -0.206 F 
ATOM     46  C   UNL A   1      42.431  25.167  35.903  1.00  0.00     0.022 A 
BRANCH  43  47
ATOM     47  S   UNL A   1      44.061  23.706  34.199  1.00  0.00     0.124 S 
ATOM     48  O   UNL A   1      45.474  24.069  34.224  1.00  0.00    -0.237 OA
ATOM     49  O   UNL A   1      43.629  22.731  35.195  1.00  0.00    -0.237 OA
ATOM     50  O   UNL A   1      43.480  23.535  32.870  1.00  0.00    -0.744 OA
ENDBRANCH  43  47
ENDBRANCH  26  40
BRANCH  27  51
ATOM     51  C   UNL A   1      42.988  23.899  26.852  1.00  0.00     0.023 A 
ATOM     52  C   UNL A   1      43.846  23.246  25.935  1.00  0.00     0.031 A 
ATOM     53  C   UNL A   1      41.976  23.095  27.427  1.00  0.00     0.131 A 
ATOM     54  C   UNL A   1      43.680  21.869  25.641  1.00  0.00     0.055 A 
ATOM     55  C   UNL A   1      41.812  21.739  27.130  1.00  0.00     0.041 A 
ATOM     56  F   UNL A   1      41.154  23.567  28.375  1.00  0.00    -0.206 F 
ATOM     57  C   UNL A   1      42.673  21.116  26.244  1.00  0.00     0.022 A 
BRANCH  54  58
ATOM     58  S   UNL A   1      44.857  20.994  24.557  1.00  0.00     0.124 S 
ATOM     59  O   UNL A   1      44.802  21.801  23.338  1.00  0.00    -0.237 OA
ATOM     60  O   UNL A   1      46.097  21.052  25.316  1.00  0.00    -0.237 OA
ATOM     61  O   UNL A   1      44.274  19.658  24.434  1.00  0.00    -0.744 OA
ENDBRANCH  54  58
ENDBRANCH  27  51
BRANCH  39  62
ATOM     62  C   UNL A   1      46.138  29.191  28.724  1.00  0.00     0.023 A 
ATOM     63  C   UNL A   1      45.539  30.325  28.125  1.00  0.00     0.031 A 
ATOM     64  C   UNL A   1      47.476  28.908  28.397  1.00  0.00     0.131 A 
ATOM     65  C   UNL A   1      46.294  31.130  27.242  1.00  0.00     0.055 A 
ATOM     66  C   UNL A   1      48.221  29.716  27.543  1.00  0.00     0.041 A 
ATOM     67  F   UNL A   1      48.104  27.862  28.962  1.00  0.00    -0.206 F 
ATOM     68  C   UNL A   1      47.633  30.832  26.963  1.00  0.00     0.022 A 
BRANCH  65  69
ATOM     69  S   UNL A   1      45.569  32.619  26.470  1.00  0.00     0.124 S 
ATOM     70  O   UNL A   1      44.786  33.203  27.552  1.00  0.00    -0.237 OA
ATOM     71  O   UNL A   1      46.748  33.369  26.048  1.00  0.00    -0.237 OA
ATOM     72  O   UNL A   1      44.772  32.079  25.366  1.00  0.00    -0.744 OA
ENDBRANCH  65  69
ENDBRANCH  39  62
ENDBRANCH  13  14
ENDBRANCH   6   8
ENDBRANCH   5   6
ENDBRANCH   4   5
ENDBRANCH   3   4
ENDBRANCH   2   3
ENDBRANCH   1   2
BRANCH   1  73
ATOM     73  C   UNL A   1      31.663  26.348  26.661  1.00  0.00     0.261 C 
BRANCH  73  74
ATOM     74  O   UNL A   1      31.791  25.166  25.879  1.00  0.00    -0.463 OA
BRANCH  74  75
ATOM     75  C   UNL A   1      33.061  24.704  25.715  1.00  0.00     0.310 C 
ATOM     76  O   UNL A   1      33.676  24.067  26.561  1.00  0.00    -0.252 OA
BRANCH  75  77
ATOM     77  C   UNL A   1      33.562  24.994  24.295  1.00  0.00     0.116 C 
ATOM     78  C   UNL A   1      34.905  24.305  24.032  1.00  0.00     0.043 C 
ATOM     79  C   UNL A   1      32.483  24.575  23.293  1.00  0.00     0.097 C 
ATOM     80  C   UNL A   1      34.751  22.822  23.903  1.00  0.00    -0.030 C 
ATOM     81  C   UNL A   1      32.320  23.029  23.306  1.00  0.00     0.041 C 
ATOM     82  C   UNL A   1      33.578  22.250  23.599  1.00  0.00    -0.030 C 
BRANCH  79  83
ATOM     83  C   UNL A   1      32.745  25.081  21.871  1.00  0.00     0.229 C 
ATOM     84  O   UNL A   1      33.376  24.399  21.055  1.00  0.00    -0.274 OA
ATOM     85  N   UNL A   1      32.152  26.212  21.393  1.00  0.00    -0.308 N 
ATOM     86  H   UNL A   1      32.133  26.274  20.411  1.00  0.00     0.171 HD
BRANCH  85  87
ATOM     87  C   UNL A   1      31.576  27.283  22.038  1.00  0.00     0.168 A 
ATOM     88  N   UNL A   1      30.264  27.454  22.218  1.00  0.00    -0.153 NA
ATOM     89  C   UNL A   1      32.295  28.292  22.720  1.00  0.00     0.080 A 
ATOM     90  N   UNL A   1      30.157  28.639  22.877  1.00  0.00    -0.265 N 
ATOM     91  C   UNL A   1      31.370  29.162  23.233  1.00  0.00     0.127 A 
ATOM     92  Br  UNL A   1      34.158  28.464  22.789  1.00  0.00    -0.045 Br
BRANCH  90  93
ATOM     93  C   UNL A   1      28.846  29.195  23.232  1.00  0.00     0.182 C 
BRANCH  93  94
ATOM     94  C   UNL A   1      28.494  30.487  22.534  1.00  0.00     0.009 A 
ATOM     95  C   UNL A   1      28.064  30.479  21.196  1.00  0.00     0.008 A 
ATOM     96  C   UNL A   1      28.687  31.735  23.127  1.00  0.00     0.128 A 
ATOM     97  C   UNL A   1      27.849  31.680  20.504  1.00  0.00     0.001 A 
ATOM     98  C   UNL A   1      28.462  32.930  22.454  1.00  0.00     0.039 A 
ATOM     99  F   UNL A   1      29.126  31.831  24.381  1.00  0.00    -0.207 F 
ATOM    100  C   UNL A   1      28.056  32.906  21.131  1.00  0.00     0.003 A 
ENDBRANCH  93  94
ENDBRANCH  90  93
ENDBRANCH  85  87
ENDBRANCH  79  83
ENDBRANCH  75  77
ENDBRANCH  74  75
ENDBRANCH  73  74
ENDBRANCH   1  73
TORSDOF 21
ENDMDL
MODEL 3
REMARK VINA RESULT:     -12.2      3.263      8.599
REMARK SMILES O=C(OCCOCCOC(=O)[C@H]1CC=CC[C@@H]1C(=O)Nc1nn(Cc2ccccc2F)cc1Br)c1ccc(-c2c3nc(c(-c4cc(S(=O)(=O)[O-])ccc4F)c4ccc([nH]4)c(-c4cc(S(=O)(=O)[O-])ccc4F)c4nc(c(-c5cc(S(=O)(=O)[O-])ccc5F)c5ccc2[nH]5)C=C4)C=C3)cc1
REMARK SMILES IDX 7 1 6 2 5 3 4 4 3 5 2 6 1 7 35 8 36 9 97 10 37 11 96 12
REMARK SMILES IDX 38 13 39 14 40 15 90 16 41 17 95 18 89 19 91 20 42 21 94 22
REMARK SMILES IDX 88 23 87 24 43 26 75 27 55 28 74 29 56 30 59 31 73 32 92 33
REMARK SMILES IDX 57 34 58 35 72 37 93 38 60 39 44 40 45 41 53 42 46 43 52 44
REMARK SMILES IDX 54 45 51 46 47 47 48 48 49 49 50 50 76 51 77 52 85 53 78 54
REMARK SMILES IDX 84 55 86 56 83 57 79 58 80 59 81 60 82 61 61 62 62 63 70 64
REMARK SMILES IDX 63 65 69 66 71 67 68 68 64 69 65 70 66 71 67 72 8 73 9 74
REMARK SMILES IDX 10 75 11 76 12 77 13 78 17 79 14 80 16 81 15 82 18 83 19 84
REMARK SMILES IDX 20 85 21 87 22 88 33 89 23 90 32 91 34 92 24 93 25 94 26 95
REMARK SMILES IDX 30 96 27 97 29 98 31 99 28 100
REMARK H PARENT 91 25 59 36 20 86
REMARK Flexibility Score: inf
ROOT
ATOM      1  C   UNL A   1      36.917  22.411  24.479  1.00  0.00     0.202 C 
ENDROOT
BRANCH   1   2
ATOM      2  O   UNL A   1      36.690  21.004  24.558  1.00  0.00    -0.374 OA
BRANCH   2   3
ATOM      3  C   UNL A   1      37.681  20.089  24.995  1.00  0.00     0.202 C 
BRANCH   3   4
ATOM      4  C   UNL A   1      39.060  20.577  25.449  1.00  0.00     0.261 C 
BRANCH   4   5
ATOM      5  O   UNL A   1      40.022  19.554  25.684  1.00  0.00    -0.460 OA
BRANCH   5   6
ATOM      6  C   UNL A   1      41.344  19.705  25.885  1.00  0.00     0.338 C 
ATOM      7  O   UNL A   1      42.101  18.874  25.379  1.00  0.00    -0.246 OA
BRANCH   6   8
ATOM      8  C   UNL A   1      41.956  20.820  26.667  1.00  0.00     0.060 A 
ATOM      9  C   UNL A   1      42.056  20.905  28.057  1.00  0.00     0.016 A 
ATOM     10  C   UNL A   1      42.339  21.932  25.892  1.00  0.00     0.016 A 
ATOM     11  C   UNL A   1      42.202  22.136  28.657  1.00  0.00     0.010 A 
ATOM     12  C   UNL A   1      42.525  23.161  26.484  1.00  0.00     0.010 A 
ATOM     13  C   UNL A   1      42.326  23.260  27.852  1.00  0.00    -0.014 A 
BRANCH  13  14
ATOM     14  C   UNL A   1      42.356  24.549  28.506  1.00  0.00     0.031 A 
ATOM     15  C   UNL A   1      41.161  25.362  28.181  1.00  0.00     0.074 A 
ATOM     16  C   UNL A   1      43.349  24.853  29.364  1.00  0.00     0.049 A 
ATOM     17  N   UNL A   1      41.111  26.489  27.555  1.00  0.00    -0.248 NA
ATOM     18  C   UNL A   1      39.837  24.737  28.388  1.00  0.00     0.031 C 
ATOM     19  C   UNL A   1      44.422  23.974  29.839  1.00  0.00     0.029 A 
ATOM     20  N   UNL A   1      43.555  25.982  30.089  1.00  0.00    -0.354 N 
ATOM     21  C   UNL A   1      39.769  26.848  27.571  1.00  0.00     0.074 A 
ATOM     22  C   UNL A   1      39.025  25.655  27.862  1.00  0.00     0.031 C 
ATOM     23  C   UNL A   1      44.983  24.511  30.946  1.00  0.00     0.029 A 
ATOM     24  C   UNL A   1      44.393  25.815  31.192  1.00  0.00     0.049 A 
ATOM     25  H   UNL A   1      43.146  26.846  29.857  1.00  0.00     0.167 HD
ATOM     26  C   UNL A   1      39.414  28.151  27.708  1.00  0.00     0.034 A 
ATOM     27  C   UNL A   1      44.496  26.653  32.262  1.00  0.00     0.034 A 
ATOM     28  C   UNL A   1      40.454  29.034  27.238  1.00  0.00     0.049 A 
ATOM     29  C   UNL A   1      43.975  27.970  31.800  1.00  0.00     0.074 A 
ATOM     30  C   UNL A   1      41.150  29.128  26.045  1.00  0.00     0.029 A 
ATOM     31  N   UNL A   1      41.224  29.693  28.167  1.00  0.00    -0.354 N 
ATOM     32  N   UNL A   1      44.541  28.676  30.855  1.00  0.00    -0.248 NA
ATOM     33  C   UNL A   1      42.560  28.239  32.015  1.00  0.00     0.031 C 
ATOM     34  C   UNL A   1      42.502  29.359  26.429  1.00  0.00     0.029 A 
ATOM     35  C   UNL A   1      42.541  29.505  27.817  1.00  0.00     0.049 A 
ATOM     36  H   UNL A   1      40.894  30.205  28.941  1.00  0.00     0.167 HD
ATOM     37  C   UNL A   1      43.489  29.156  30.089  1.00  0.00     0.074 A 
ATOM     38  C   UNL A   1      42.289  28.900  30.886  1.00  0.00     0.031 C 
ATOM     39  C   UNL A   1      43.640  29.439  28.761  1.00  0.00     0.034 A 
BRANCH  26  40
ATOM     40  C   UNL A   1      38.314  28.578  28.647  1.00  0.00     0.023 A 
ATOM     41  C   UNL A   1      37.380  29.521  28.195  1.00  0.00     0.031 A 
ATOM     42  C   UNL A   1      38.298  28.304  30.039  1.00  0.00     0.131 A 
ATOM     43  C   UNL A   1      36.521  30.165  29.106  1.00  0.00     0.055 A 
ATOM     44  C   UNL A   1      37.399  28.893  30.925  1.00  0.00     0.041 A 
ATOM     45  F   UNL A   1      39.215  27.533  30.637  1.00  0.00    -0.206 F 
ATOM     46  C   UNL A   1      36.515  29.848  30.464  1.00  0.00     0.022 A 
BRANCH  43  47
ATOM     47  S   UNL A   1      35.492  31.526  28.505  1.00  0.00     0.124 S 
ATOM     48  O   UNL A   1      34.413  30.805  27.840  1.00  0.00    -0.237 OA
ATOM     49  O   UNL A   1      35.141  32.207  29.747  1.00  0.00    -0.237 OA
ATOM     50  O   UNL A   1      36.391  32.266  27.624  1.00  0.00    -0.744 OA
ENDBRANCH  43  47
ENDBRANCH  26  40
BRANCH  27  51
ATOM     51  C   UNL A   1      44.624  26.278  33.709  1.00  0.00     0.023 A 
ATOM     52  C   UNL A   1      43.556  26.440  34.625  1.00  0.00     0.031 A 
ATOM     53  C   UNL A   1      45.722  25.517  34.174  1.00  0.00     0.131 A 
ATOM     54  C   UNL A   1      43.613  25.856  35.915  1.00  0.00     0.055 A 
ATOM     55  C   UNL A   1      45.776  24.948  35.450  1.00  0.00     0.041 A 
ATOM     56  F   UNL A   1      46.757  25.214  33.377  1.00  0.00    -0.206 F 
ATOM     57  C   UNL A   1      44.715  25.105  36.323  1.00  0.00     0.022 A 
BRANCH  54  58
ATOM     58  S   UNL A   1      42.191  25.957  37.053  1.00  0.00     0.124 S 
ATOM     59  O   UNL A   1      41.428  27.068  36.485  1.00  0.00    -0.237 OA
ATOM     60  O   UNL A   1      41.592  24.636  36.937  1.00  0.00    -0.237 OA
ATOM     61  O   UNL A   1      42.812  26.239  38.347  1.00  0.00    -0.744 OA
ENDBRANCH  54  58
ENDBRANCH  27  51
BRANCH  39  62
ATOM     62  C   UNL A   1      45.032  29.527  28.168  1.00  0.00     0.023 A 
ATOM     63  C   UNL A   1      45.741  28.463  27.560  1.00  0.00     0.031 A 
ATOM     64  C   UNL A   1      45.566  30.822  28.049  1.00  0.00     0.131 A 
ATOM     65  C   UNL A   1      46.936  28.733  26.854  1.00  0.00     0.055 A 
ATOM     66  C   UNL A   1      46.732  31.085  27.336  1.00  0.00     0.041 A 
ATOM     67  F   UNL A   1      44.916  31.872  28.579  1.00  0.00    -0.206 F 
ATOM     68  C   UNL A   1      47.421  30.041  26.734  1.00  0.00     0.022 A 
BRANCH  65  69
ATOM     69  S   UNL A   1      47.867  27.395  26.030  1.00  0.00     0.124 S 
ATOM     70  O   UNL A   1      48.432  28.057  24.861  1.00  0.00    -0.237 OA
ATOM     71  O   UNL A   1      48.816  26.981  27.059  1.00  0.00    -0.237 OA
ATOM     72  O   UNL A   1      46.838  26.398  25.725  1.00  0.00    -0.744 OA
ENDBRANCH  65  69
ENDBRANCH  39  62
ENDBRANCH  13  14
ENDBRANCH   6   8
ENDBRANCH   5   6
ENDBRANCH   4   5
ENDBRANCH   3   4
ENDBRANCH   2   3
ENDBRANCH   1   2
BRANCH   1  73
ATOM     73  C   UNL A   1      36.178  23.360  23.522  1.00  0.00     0.261 C 
BRANCH  73  74
ATOM     74  O   UNL A   1      34.946  23.850  24.038  1.00  0.00    -0.463 OA
BRANCH  74  75
ATOM     75  C   UNL A   1      33.835  23.509  23.328  1.00  0.00     0.310 C 
ATOM     76  O   UNL A   1      33.856  23.084  22.180  1.00  0.00    -0.252 OA
BRANCH  75  77
ATOM     77  C   UNL A   1      32.581  23.622  24.202  1.00  0.00     0.116 C 
ATOM     78  C   UNL A   1      31.653  22.420  23.996  1.00  0.00     0.043 C 
ATOM     79  C   UNL A   1      33.008  23.787  25.664  1.00  0.00     0.097 C 
ATOM     80  C   UNL A   1      32.220  21.173  24.599  1.00  0.00    -0.030 C 
ATOM     81  C   UNL A   1      33.680  22.480  26.171  1.00  0.00     0.041 C 
ATOM     82  C   UNL A   1      33.151  21.205  25.562  1.00  0.00    -0.030 C 
BRANCH  79  83
ATOM     83  C   UNL A   1      31.859  24.200  26.590  1.00  0.00     0.229 C 
ATOM     84  O   UNL A   1      31.524  23.493  27.547  1.00  0.00    -0.274 OA
ATOM     85  N   UNL A   1      31.279  25.431  26.505  1.00  0.00    -0.308 N 
ATOM     86  H   UNL A   1      30.791  25.704  27.315  1.00  0.00     0.171 HD
BRANCH  85  87
ATOM     87  C   UNL A   1      31.253  26.360  25.490  1.00  0.00     0.168 A 
ATOM     88  N   UNL A   1      30.270  26.489  24.594  1.00  0.00    -0.153 NA
ATOM     89  C   UNL A   1      32.197  27.400  25.327  1.00  0.00     0.080 A 
ATOM     90  N   UNL A   1      30.672  27.506  23.785  1.00  0.00    -0.265 N 
ATOM     91  C   UNL A   1      31.820  28.110  24.219  1.00  0.00     0.127 A 
ATOM     92  Br  UNL A   1      33.736  27.663  26.359  1.00  0.00    -0.045 Br
BRANCH  90  93
ATOM     93  C   UNL A   1      29.859  27.932  22.640  1.00  0.00     0.182 C 
BRANCH  93  94
ATOM     94  C   UNL A   1      29.084  29.211  22.852  1.00  0.00     0.009 A 
ATOM     95  C   UNL A   1      29.748  30.449  22.877  1.00  0.00     0.008 A 
ATOM     96  C   UNL A   1      27.720  29.220  23.146  1.00  0.00     0.128 A 
ATOM     97  C   UNL A   1      29.056  31.628  23.190  1.00  0.00     0.001 A 
ATOM     98  C   UNL A   1      27.023  30.385  23.444  1.00  0.00     0.039 A 
ATOM     99  F   UNL A   1      27.025  28.085  23.179  1.00  0.00    -0.207 F 
ATOM    100  C   UNL A   1      27.695  31.595  23.482  1.00  0.00     0.003 A 
ENDBRANCH  93  94
ENDBRANCH  90  93
ENDBRANCH  85  87
ENDBRANCH  79  83
ENDBRANCH  75  77
ENDBRANCH  74  75
ENDBRANCH  73  74
ENDBRANCH   1  73
TORSDOF 21
ENDMDL
