MODEL 1
REMARK VINA RESULT:     -12.2      0.000      0.000
REMARK SMILES Cc1ccc([C@H](C)NC(=O)[C@H]2[C@@H]3CC[C@@H](C3)[C@@H]2C(=O)OCCOCCOC(=O)c2ccc(-c3c4nc(c(-c5cc(S(=O)(=O)[O-])ccc5F)c5ccc([nH]5)c(-c5cc(S(=O)(=O)[O-])ccc5F)c5nc(c(-c6cc(S(=O)(=O)[O-])ccc6F)c6ccc3[nH]6)C=C5)C=C4)cc2)cc1
REMARK SMILES IDX 23 1 22 2 21 3 20 4 18 5 19 6 17 7 11 8 12 9 13 10 16 11
REMARK SMILES IDX 15 12 14 13 9 14 8 15 10 17 6 18 7 19 5 20 1 21 2 22 3 23
REMARK SMILES IDX 93 24 4 25 92 26 24 27 25 28 26 29 27 30 28 31 29 32 30 33
REMARK SMILES IDX 91 34 31 35 90 36 32 37 33 38 34 39 84 40 35 41 89 42 83 43
REMARK SMILES IDX 85 44 36 45 88 46 82 47 81 48 37 50 69 51 49 52 68 53 50 54
REMARK SMILES IDX 53 55 67 56 86 57 51 58 52 59 66 61 87 62 54 63 38 64 39 65
REMARK SMILES IDX 47 66 40 67 46 68 48 69 45 70 41 71 42 72 43 73 44 74 70 75
REMARK SMILES IDX 71 76 79 77 72 78 78 79 80 80 77 81 73 82 74 83 75 84 76 85
REMARK SMILES IDX 55 86 56 87 64 88 57 89 63 90 65 91 62 92 58 93 59 94 60 95
REMARK SMILES IDX 61 96
REMARK H PARENT 8 16 85 49 53 60
REMARK Flexibility Score: inf
ROOT
ATOM      1  O   UNL A   1      33.636  30.257  26.747  1.00  0.00    -0.374 OA
ENDROOT
BRANCH   1   2
ATOM      2  C   UNL A   1      32.444  29.498  26.892  1.00  0.00     0.202 C 
BRANCH   2   3
ATOM      3  C   UNL A   1      32.963  28.154  27.184  1.00  0.00     0.261 C 
BRANCH   3   4
ATOM      4  O   UNL A   1      32.785  27.226  26.114  1.00  0.00    -0.463 OA
BRANCH   4   5
ATOM      5  C   UNL A   1      31.580  26.651  25.862  1.00  0.00     0.310 C 
ATOM      6  O   UNL A   1      30.694  26.447  26.663  1.00  0.00    -0.252 OA
BRANCH   5   7
ATOM      7  C   UNL A   1      31.512  26.204  24.411  1.00  0.00     0.115 C 
ATOM      8  C   UNL A   1      32.748  26.562  23.558  1.00  0.00     0.096 C 
ATOM      9  C   UNL A   1      32.172  27.587  22.558  1.00  0.00     0.002 C 
ATOM     10  C   UNL A   1      31.757  28.863  23.347  1.00  0.00     0.005 C 
ATOM     11  C   UNL A   1      30.814  26.984  22.226  1.00  0.00     0.009 C 
ATOM     12  C   UNL A   1      30.359  26.953  23.687  1.00  0.00     0.004 C 
ATOM     13  C   UNL A   1      30.425  28.458  24.003  1.00  0.00     0.005 C 
BRANCH   8  14
ATOM     14  C   UNL A   1      33.577  25.438  22.933  1.00  0.00     0.224 C 
ATOM     15  N   UNL A   1      33.933  24.271  23.492  1.00  0.00    -0.349 N 
ATOM     16  H   UNL A   1      34.285  23.643  22.821  1.00  0.00     0.164 HD
ATOM     17  O   UNL A   1      33.936  25.514  21.750  1.00  0.00    -0.275 OA
BRANCH  15  18
ATOM     18  C   UNL A   1      33.939  23.687  24.818  1.00  0.00     0.109 C 
ATOM     19  C   UNL A   1      32.973  22.504  24.869  1.00  0.00     0.036 C 
BRANCH  18  20
ATOM     20  C   UNL A   1      35.331  23.208  25.184  1.00  0.00    -0.026 A 
ATOM     21  C   UNL A   1      39.344  21.873  26.104  1.00  0.00     0.044 C 
ATOM     22  C   UNL A   1      37.957  22.322  25.735  1.00  0.00    -0.051 A 
ATOM     23  C   UNL A   1      36.979  21.432  25.265  1.00  0.00     0.004 A 
ATOM     24  C   UNL A   1      37.607  23.653  25.939  1.00  0.00     0.004 A 
ATOM     25  C   UNL A   1      35.673  21.863  25.016  1.00  0.00     0.006 A 
ATOM     26  C   UNL A   1      36.320  24.097  25.642  1.00  0.00     0.006 A 
ENDBRANCH  18  20
ENDBRANCH  15  18
ENDBRANCH   8  14
ENDBRANCH   5   7
ENDBRANCH   4   5
ENDBRANCH   3   4
ENDBRANCH   2   3
ENDBRANCH   1   2
BRANCH   1  27
ATOM     27  C   UNL A   1      33.572  31.493  27.405  1.00  0.00     0.202 C 
BRANCH  27  28
ATOM     28  C   UNL A   1      34.679  31.597  28.459  1.00  0.00     0.261 C 
BRANCH  28  29
ATOM     29  O   UNL A   1      35.803  30.755  28.088  1.00  0.00    -0.460 OA
BRANCH  29  30
ATOM     30  C   UNL A   1      36.926  30.835  28.869  1.00  0.00     0.338 C 
ATOM     31  O   UNL A   1      37.269  31.830  29.493  1.00  0.00    -0.246 OA
BRANCH  30  32
ATOM     32  C   UNL A   1      37.790  29.622  28.679  1.00  0.00     0.060 A 
ATOM     33  C   UNL A   1      37.938  28.657  29.698  1.00  0.00     0.016 A 
ATOM     34  C   UNL A   1      38.719  29.671  27.654  1.00  0.00     0.016 A 
ATOM     35  C   UNL A   1      39.115  27.874  29.778  1.00  0.00     0.010 A 
ATOM     36  C   UNL A   1      39.917  29.012  27.829  1.00  0.00     0.010 A 
ATOM     37  C   UNL A   1      40.156  28.116  28.879  1.00  0.00    -0.014 A 
BRANCH  37  38
ATOM     38  C   UNL A   1      41.551  27.610  28.966  1.00  0.00     0.031 A 
ATOM     39  C   UNL A   1      41.791  26.359  28.211  1.00  0.00     0.074 A 
ATOM     40  C   UNL A   1      42.557  28.290  29.567  1.00  0.00     0.049 A 
ATOM     41  N   UNL A   1      41.791  25.159  28.709  1.00  0.00    -0.248 NA
ATOM     42  C   UNL A   1      41.821  26.379  26.738  1.00  0.00     0.031 C 
ATOM     43  C   UNL A   1      43.995  28.047  29.608  1.00  0.00     0.029 A 
ATOM     44  N   UNL A   1      42.438  29.459  30.314  1.00  0.00    -0.354 N 
ATOM     45  C   UNL A   1      42.199  24.359  27.650  1.00  0.00     0.074 A 
ATOM     46  C   UNL A   1      41.798  25.077  26.460  1.00  0.00     0.031 C 
ATOM     47  C   UNL A   1      44.553  28.839  30.552  1.00  0.00     0.029 A 
ATOM     48  C   UNL A   1      43.508  29.644  31.174  1.00  0.00     0.049 A 
ATOM     49  H   UNL A   1      41.679  30.082  30.240  1.00  0.00     0.167 HD
ATOM     50  C   UNL A   1      43.373  23.653  27.702  1.00  0.00     0.034 A 
ATOM     51  C   UNL A   1      43.252  29.857  32.487  1.00  0.00     0.034 A 
ATOM     52  C   UNL A   1      44.198  24.119  28.826  1.00  0.00     0.049 A 
ATOM     53  C   UNL A   1      43.529  28.478  33.065  1.00  0.00     0.074 A 
ATOM     54  C   UNL A   1      45.420  24.756  28.795  1.00  0.00     0.029 A 
ATOM     55  N   UNL A   1      43.711  24.270  30.142  1.00  0.00    -0.354 N 
ATOM     56  N   UNL A   1      43.293  27.336  32.445  1.00  0.00    -0.248 NA
ATOM     57  C   UNL A   1      44.459  28.363  34.179  1.00  0.00     0.031 C 
ATOM     58  C   UNL A   1      45.684  25.206  30.093  1.00  0.00     0.029 A 
ATOM     59  C   UNL A   1      44.590  25.011  30.917  1.00  0.00     0.049 A 
ATOM     60  H   UNL A   1      42.860  23.897  30.468  1.00  0.00     0.167 HD
ATOM     61  C   UNL A   1      44.194  26.404  32.915  1.00  0.00     0.074 A 
ATOM     62  C   UNL A   1      44.884  27.105  34.007  1.00  0.00     0.031 C 
ATOM     63  C   UNL A   1      44.511  25.179  32.368  1.00  0.00     0.034 A 
BRANCH  50  64
ATOM     64  C   UNL A   1      43.982  22.987  26.447  1.00  0.00     0.023 A 
ATOM     65  C   UNL A   1      43.726  21.632  26.143  1.00  0.00     0.031 A 
ATOM     66  C   UNL A   1      44.824  23.643  25.520  1.00  0.00     0.131 A 
ATOM     67  C   UNL A   1      44.398  20.953  25.105  1.00  0.00     0.055 A 
ATOM     68  C   UNL A   1      45.497  22.972  24.482  1.00  0.00     0.041 A 
ATOM     69  F   UNL A   1      45.016  24.972  25.573  1.00  0.00    -0.206 F 
ATOM     70  C   UNL A   1      45.302  21.613  24.282  1.00  0.00     0.022 A 
BRANCH  67  71
ATOM     71  S   UNL A   1      44.069  19.183  24.843  1.00  0.00     0.124 S 
ATOM     72  O   UNL A   1      42.640  19.100  25.124  1.00  0.00    -0.237 OA
ATOM     73  O   UNL A   1      44.465  18.987  23.453  1.00  0.00    -0.237 OA
ATOM     74  O   UNL A   1      44.934  18.531  25.826  1.00  0.00    -0.744 OA
ENDBRANCH  67  71
ENDBRANCH  50  64
BRANCH  51  75
ATOM     75  C   UNL A   1      42.153  30.874  32.748  1.00  0.00     0.023 A 
ATOM     76  C   UNL A   1      40.875  30.411  33.225  1.00  0.00     0.031 A 
ATOM     77  C   UNL A   1      42.391  32.252  32.870  1.00  0.00     0.131 A 
ATOM     78  C   UNL A   1      39.965  31.285  33.883  1.00  0.00     0.055 A 
ATOM     79  C   UNL A   1      41.482  33.116  33.518  1.00  0.00     0.041 A 
ATOM     80  F   UNL A   1      43.552  32.782  32.458  1.00  0.00    -0.206 F 
ATOM     81  C   UNL A   1      40.283  32.634  34.049  1.00  0.00     0.022 A 
BRANCH  78  82
ATOM     82  S   UNL A   1      38.495  30.684  34.815  1.00  0.00     0.124 S 
ATOM     83  O   UNL A   1      39.077  30.252  36.081  1.00  0.00    -0.237 OA
ATOM     84  O   UNL A   1      37.613  31.837  34.885  1.00  0.00    -0.237 OA
ATOM     85  O   UNL A   1      38.006  29.597  33.968  1.00  0.00    -0.744 OA
ENDBRANCH  78  82
ENDBRANCH  51  75
BRANCH  63  86
ATOM     86  C   UNL A   1      45.163  24.111  33.214  1.00  0.00     0.023 A 
ATOM     87  C   UNL A   1      46.459  24.284  33.708  1.00  0.00     0.031 A 
ATOM     88  C   UNL A   1      44.499  22.934  33.625  1.00  0.00     0.131 A 
ATOM     89  C   UNL A   1      47.117  23.265  34.394  1.00  0.00     0.055 A 
ATOM     90  C   UNL A   1      45.118  21.962  34.414  1.00  0.00     0.041 A 
ATOM     91  F   UNL A   1      43.219  22.684  33.317  1.00  0.00    -0.206 F 
ATOM     92  C   UNL A   1      46.449  22.110  34.778  1.00  0.00     0.022 A 
BRANCH  89  93
ATOM     93  S   UNL A   1      48.883  23.481  34.689  1.00  0.00     0.124 S 
ATOM     94  O   UNL A   1      49.278  24.269  33.524  1.00  0.00    -0.237 OA
ATOM     95  O   UNL A   1      48.914  24.189  35.965  1.00  0.00    -0.237 OA
ATOM     96  O   UNL A   1      49.390  22.113  34.725  1.00  0.00    -0.744 OA
ENDBRANCH  89  93
ENDBRANCH  63  86
ENDBRANCH  37  38
ENDBRANCH  30  32
ENDBRANCH  29  30
ENDBRANCH  28  29
ENDBRANCH  27  28
ENDBRANCH   1  27
TORSDOF 20
ENDMDL
MODEL 2
REMARK VINA RESULT:     -12.0      4.597     10.345
REMARK SMILES Cc1ccc([C@H](C)NC(=O)[C@H]2[C@@H]3CC[C@@H](C3)[C@@H]2C(=O)OCCOCCOC(=O)c2ccc(-c3c4nc(c(-c5cc(S(=O)(=O)[O-])ccc5F)c5ccc([nH]5)c(-c5cc(S(=O)(=O)[O-])ccc5F)c5nc(c(-c6cc(S(=O)(=O)[O-])ccc6F)c6ccc3[nH]6)C=C5)C=C4)cc2)cc1
REMARK SMILES IDX 23 1 22 2 21 3 20 4 18 5 19 6 17 7 11 8 12 9 13 10 16 11
REMARK SMILES IDX 15 12 14 13 9 14 8 15 10 17 6 18 7 19 5 20 1 21 2 22 3 23
REMARK SMILES IDX 93 24 4 25 92 26 24 27 25 28 26 29 27 30 28 31 29 32 30 33
REMARK SMILES IDX 91 34 31 35 90 36 32 37 33 38 34 39 84 40 35 41 89 42 83 43
REMARK SMILES IDX 85 44 36 45 88 46 82 47 81 48 37 50 69 51 49 52 68 53 50 54
REMARK SMILES IDX 53 55 67 56 86 57 51 58 52 59 66 61 87 62 54 63 38 64 39 65
REMARK SMILES IDX 47 66 40 67 46 68 48 69 45 70 41 71 42 72 43 73 44 74 70 75
REMARK SMILES IDX 71 76 79 77 72 78 78 79 80 80 77 81 73 82 74 83 75 84 76 85
REMARK SMILES IDX 55 86 56 87 64 88 57 89 63 90 65 91 62 92 58 93 59 94 60 95
REMARK SMILES IDX 61 96
REMARK H PARENT 8 16 85 49 53 60
REMARK Flexibility Score: inf
ROOT
ATOM      1  O   UNL A   1      36.514  22.664  25.138  1.00  0.00    -0.374 OA
ENDROOT
BRANCH   1   2
ATOM      2  C   UNL A   1      36.009  23.991  25.090  1.00  0.00     0.202 C 
BRANCH   2   3
ATOM      3  C   UNL A   1      35.110  23.942  23.929  1.00  0.00     0.261 C 
BRANCH   3   4
ATOM      4  O   UNL A   1      34.280  25.096  23.796  1.00  0.00    -0.463 OA
BRANCH   4   5
ATOM      5  C   UNL A   1      32.925  25.011  23.849  1.00  0.00     0.310 C 
ATOM      6  O   UNL A   1      32.172  24.868  22.911  1.00  0.00    -0.252 OA
BRANCH   5   7
ATOM      7  C   UNL A   1      32.449  25.206  25.280  1.00  0.00     0.115 C 
ATOM      8  C   UNL A   1      31.048  24.633  25.586  1.00  0.00     0.096 C 
ATOM      9  C   UNL A   1      30.225  25.911  25.860  1.00  0.00     0.002 C 
ATOM     10  C   UNL A   1      30.124  26.724  24.537  1.00  0.00     0.005 C 
ATOM     11  C   UNL A   1      31.204  26.758  26.660  1.00  0.00     0.009 C 
ATOM     12  C   UNL A   1      32.280  26.722  25.573  1.00  0.00     0.004 C 
ATOM     13  C   UNL A   1      31.503  27.398  24.428  1.00  0.00     0.005 C 
BRANCH   8  14
ATOM     14  C   UNL A   1      30.903  23.528  26.634  1.00  0.00     0.224 C 
ATOM     15  N   UNL A   1      31.814  22.609  26.988  1.00  0.00    -0.349 N 
ATOM     16  H   UNL A   1      31.554  22.147  27.818  1.00  0.00     0.164 HD
ATOM     17  O   UNL A   1      29.878  23.457  27.325  1.00  0.00    -0.275 OA
BRANCH  15  18
ATOM     18  C   UNL A   1      33.076  22.112  26.478  1.00  0.00     0.109 C 
ATOM     19  C   UNL A   1      33.906  21.531  27.622  1.00  0.00     0.036 C 
BRANCH  18  20
ATOM     20  C   UNL A   1      32.843  21.033  25.438  1.00  0.00    -0.026 A 
ATOM     21  C   UNL A   1      32.307  17.955  22.441  1.00  0.00     0.044 C 
ATOM     22  C   UNL A   1      32.532  19.044  23.454  1.00  0.00    -0.051 A 
ATOM     23  C   UNL A   1      32.365  20.403  23.146  1.00  0.00     0.004 A 
ATOM     24  C   UNL A   1      32.842  18.689  24.764  1.00  0.00     0.004 A 
ATOM     25  C   UNL A   1      32.494  21.386  24.131  1.00  0.00     0.006 A 
ATOM     26  C   UNL A   1      33.022  19.669  25.736  1.00  0.00     0.006 A 
ENDBRANCH  18  20
ENDBRANCH  15  18
ENDBRANCH   8  14
ENDBRANCH   5   7
ENDBRANCH   4   5
ENDBRANCH   3   4
ENDBRANCH   2   3
ENDBRANCH   1   2
BRANCH   1  27
ATOM     27  C   UNL A   1      37.806  22.598  25.675  1.00  0.00     0.202 C 
BRANCH  27  28
ATOM     28  C   UNL A   1      38.146  23.895  26.416  1.00  0.00     0.261 C 
BRANCH  28  29
ATOM     29  O   UNL A   1      39.569  24.169  26.317  1.00  0.00    -0.460 OA
BRANCH  29  30
ATOM     30  C   UNL A   1      40.195  24.629  27.446  1.00  0.00     0.338 C 
ATOM     31  O   UNL A   1      40.943  23.961  28.147  1.00  0.00    -0.246 OA
BRANCH  30  32
ATOM     32  C   UNL A   1      39.668  25.980  27.829  1.00  0.00     0.060 A 
ATOM     33  C   UNL A   1      39.964  27.130  27.066  1.00  0.00     0.016 A 
ATOM     34  C   UNL A   1      39.219  26.131  29.130  1.00  0.00     0.016 A 
ATOM     35  C   UNL A   1      39.984  28.408  27.672  1.00  0.00     0.010 A 
ATOM     36  C   UNL A   1      39.387  27.356  29.740  1.00  0.00     0.010 A 
ATOM     37  C   UNL A   1      39.776  28.511  29.050  1.00  0.00    -0.014 A 
BRANCH  37  38
ATOM     38  C   UNL A   1      40.026  29.699  29.908  1.00  0.00     0.031 A 
ATOM     39  C   UNL A   1      38.838  30.556  30.121  1.00  0.00     0.074 A 
ATOM     40  C   UNL A   1      41.196  29.922  30.555  1.00  0.00     0.049 A 
ATOM     41  N   UNL A   1      38.554  31.639  29.463  1.00  0.00    -0.248 NA
ATOM     42  C   UNL A   1      37.734  30.089  30.978  1.00  0.00     0.031 C 
ATOM     43  C   UNL A   1      41.571  30.916  31.554  1.00  0.00     0.029 A 
ATOM     44  N   UNL A   1      42.374  29.192  30.412  1.00  0.00    -0.354 N 
ATOM     45  C   UNL A   1      37.438  32.144  30.117  1.00  0.00     0.074 A 
ATOM     46  C   UNL A   1      36.793  30.991  30.705  1.00  0.00     0.031 C 
ATOM     47  C   UNL A   1      42.916  30.912  31.700  1.00  0.00     0.029 A 
ATOM     48  C   UNL A   1      43.489  29.914  30.806  1.00  0.00     0.049 A 
ATOM     49  H   UNL A   1      42.410  28.269  30.071  1.00  0.00     0.167 HD
ATOM     50  C   UNL A   1      37.478  33.354  30.763  1.00  0.00     0.034 A 
ATOM     51  C   UNL A   1      44.524  30.026  29.939  1.00  0.00     0.034 A 
ATOM     52  C   UNL A   1      38.868  33.807  30.909  1.00  0.00     0.049 A 
ATOM     53  C   UNL A   1      44.295  31.425  29.392  1.00  0.00     0.074 A 
ATOM     54  C   UNL A   1      39.604  33.980  32.062  1.00  0.00     0.029 A 
ATOM     55  N   UNL A   1      39.795  33.841  29.845  1.00  0.00    -0.354 N 
ATOM     56  N   UNL A   1      43.111  31.978  29.199  1.00  0.00    -0.248 NA
ATOM     57  C   UNL A   1      45.392  32.382  29.441  1.00  0.00     0.031 C 
ATOM     58  C   UNL A   1      40.933  34.191  31.676  1.00  0.00     0.029 A 
ATOM     59  C   UNL A   1      41.089  34.000  30.315  1.00  0.00     0.049 A 
ATOM     60  H   UNL A   1      39.554  33.762  28.893  1.00  0.00     0.167 HD
ATOM     61  C   UNL A   1      43.254  33.343  29.330  1.00  0.00     0.074 A 
ATOM     62  C   UNL A   1      44.705  33.531  29.465  1.00  0.00     0.031 C 
ATOM     63  C   UNL A   1      42.264  34.288  29.493  1.00  0.00     0.034 A 
BRANCH  50  64
ATOM     64  C   UNL A   1      36.354  33.804  31.724  1.00  0.00     0.023 A 
ATOM     65  C   UNL A   1      35.179  34.417  31.236  1.00  0.00     0.031 A 
ATOM     66  C   UNL A   1      36.392  33.654  33.129  1.00  0.00     0.131 A 
ATOM     67  C   UNL A   1      34.216  34.989  32.094  1.00  0.00     0.055 A 
ATOM     68  C   UNL A   1      35.435  34.221  33.990  1.00  0.00     0.041 A 
ATOM     69  F   UNL A   1      37.356  32.933  33.726  1.00  0.00    -0.206 F 
ATOM     70  C   UNL A   1      34.348  34.912  33.474  1.00  0.00     0.022 A 
BRANCH  67  71
ATOM     71  S   UNL A   1      32.778  35.837  31.373  1.00  0.00     0.124 S 
ATOM     72  O   UNL A   1      33.297  37.186  31.170  1.00  0.00    -0.237 OA
ATOM     73  O   UNL A   1      32.519  35.059  30.167  1.00  0.00    -0.237 OA
ATOM     74  O   UNL A   1      31.758  35.714  32.414  1.00  0.00    -0.744 OA
ENDBRANCH  67  71
ENDBRANCH  50  64
BRANCH  51  75
ATOM     75  C   UNL A   1      44.921  28.718  29.273  1.00  0.00     0.023 A 
ATOM     76  C   UNL A   1      44.538  28.491  27.903  1.00  0.00     0.031 A 
ATOM     77  C   UNL A   1      45.905  27.859  29.787  1.00  0.00     0.131 A 
ATOM     78  C   UNL A   1      45.205  27.529  27.094  1.00  0.00     0.055 A 
ATOM     79  C   UNL A   1      46.560  26.903  28.980  1.00  0.00     0.041 A 
ATOM     80  F   UNL A   1      46.333  27.990  31.050  1.00  0.00    -0.206 F 
ATOM     81  C   UNL A   1      46.234  26.753  27.631  1.00  0.00     0.022 A 
BRANCH  78  82
ATOM     82  S   UNL A   1      45.003  27.445  25.266  1.00  0.00     0.124 S 
ATOM     83  O   UNL A   1      46.043  28.352  24.790  1.00  0.00    -0.237 OA
ATOM     84  O   UNL A   1      45.194  26.040  24.944  1.00  0.00    -0.237 OA
ATOM     85  O   UNL A   1      43.638  27.931  25.076  1.00  0.00    -0.744 OA
ENDBRANCH  78  82
ENDBRANCH  51  75
BRANCH  63  86
ATOM     86  C   UNL A   1      42.536  35.741  29.179  1.00  0.00     0.023 A 
ATOM     87  C   UNL A   1      43.432  36.483  29.953  1.00  0.00     0.031 A 
ATOM     88  C   UNL A   1      41.987  36.410  28.063  1.00  0.00     0.131 A 
ATOM     89  C   UNL A   1      43.610  37.850  29.749  1.00  0.00     0.055 A 
ATOM     90  C   UNL A   1      42.257  37.752  27.786  1.00  0.00     0.041 A 
ATOM     91  F   UNL A   1      41.196  35.795  27.172  1.00  0.00    -0.206 F 
ATOM     92  C   UNL A   1      43.051  38.491  28.652  1.00  0.00     0.022 A 
BRANCH  89  93
ATOM     93  S   UNL A   1      44.530  38.755  31.009  1.00  0.00     0.124 S 
ATOM     94  O   UNL A   1      45.449  39.542  30.189  1.00  0.00    -0.237 OA
ATOM     95  O   UNL A   1      43.486  39.517  31.687  1.00  0.00    -0.237 OA
ATOM     96  O   UNL A   1      45.145  37.697  31.804  1.00  0.00    -0.744 OA
ENDBRANCH  89  93
ENDBRANCH  63  86
ENDBRANCH  37  38
ENDBRANCH  30  32
ENDBRANCH  29  30
ENDBRANCH  28  29
ENDBRANCH  27  28
ENDBRANCH   1  27
TORSDOF 20
ENDMDL
MODEL 3
REMARK VINA RESULT:     -11.9      4.675     10.824
REMARK SMILES Cc1ccc([C@H](C)NC(=O)[C@H]2[C@@H]3CC[C@@H](C3)[C@@H]2C(=O)OCCOCCOC(=O)c2ccc(-c3c4nc(c(-c5cc(S(=O)(=O)[O-])ccc5F)c5ccc([nH]5)c(-c5cc(S(=O)(=O)[O-])ccc5F)c5nc(c(-c6cc(S(=O)(=O)[O-])ccc6F)c6ccc3[nH]6)C=C5)C=C4)cc2)cc1
REMARK SMILES IDX 23 1 22 2 21 3 20 4 18 5 19 6 17 7 11 8 12 9 13 10 16 11
REMARK SMILES IDX 15 12 14 13 9 14 8 15 10 17 6 18 7 19 5 20 1 21 2 22 3 23
REMARK SMILES IDX 93 24 4 25 92 26 24 27 25 28 26 29 27 30 28 31 29 32 30 33
REMARK SMILES IDX 91 34 31 35 90 36 32 37 33 38 34 39 84 40 35 41 89 42 83 43
REMARK SMILES IDX 85 44 36 45 88 46 82 47 81 48 37 50 69 51 49 52 68 53 50 54
REMARK SMILES IDX 53 55 67 56 86 57 51 58 52 59 66 61 87 62 54 63 38 64 39 65
REMARK SMILES IDX 47 66 40 67 46 68 48 69 45 70 41 71 42 72 43 73 44 74 70 75
REMARK SMILES IDX 71 76 79 77 72 78 78 79 80 80 77 81 73 82 74 83 75 84 76 85
REMARK SMILES IDX 55 86 56 87 64 88 57 89 63 90 65 91 62 92 58 93 59 94 60 95
REMARK SMILES IDX 61 96
REMARK H PARENT 8 16 85 49 53 60
REMARK Flexibility Score: inf
ROOT
ATOM      1  O   UNL A   1      37.311  22.452  24.890  1.00  0.00    -0.374 OA
ENDROOT
BRANCH   1   2
ATOM      2  C   UNL A   1      36.150  23.142  25.329  1.00  0.00     0.202 C 
BRANCH   2   3
ATOM      3  C   UNL A   1      35.442  23.398  24.067  1.00  0.00     0.261 C 
BRANCH   3   4
ATOM      4  O   UNL A   1      34.213  24.106  24.231  1.00  0.00    -0.463 OA
BRANCH   4   5
ATOM      5  C   UNL A   1      33.051  23.653  23.692  1.00  0.00     0.310 C 
ATOM      6  O   UNL A   1      32.906  23.161  22.595  1.00  0.00    -0.252 OA
BRANCH   5   7
ATOM      7  C   UNL A   1      31.898  23.924  24.645  1.00  0.00     0.115 C 
ATOM      8  C   UNL A   1      32.303  24.526  26.008  1.00  0.00     0.096 C 
ATOM      9  C   UNL A   1      31.949  23.386  26.987  1.00  0.00     0.002 C 
ATOM     10  C   UNL A   1      32.893  22.182  26.704  1.00  0.00     0.005 C 
ATOM     11  C   UNL A   1      30.631  22.875  26.423  1.00  0.00     0.009 C 
ATOM     12  C   UNL A   1      31.220  22.583  25.041  1.00  0.00     0.004 C 
ATOM     13  C   UNL A   1      32.289  21.548  25.437  1.00  0.00     0.005 C 
BRANCH   8  14
ATOM     14  C   UNL A   1      31.780  25.909  26.401  1.00  0.00     0.224 C 
ATOM     15  N   UNL A   1      32.404  27.090  26.274  1.00  0.00    -0.349 N 
ATOM     16  H   UNL A   1      31.783  27.841  26.408  1.00  0.00     0.164 HD
ATOM     17  O   UNL A   1      30.625  26.038  26.829  1.00  0.00    -0.275 OA
BRANCH  15  18
ATOM     18  C   UNL A   1      33.747  27.556  25.992  1.00  0.00     0.109 C 
ATOM     19  C   UNL A   1      33.964  27.634  24.481  1.00  0.00     0.036 C 
BRANCH  18  20
ATOM     20  C   UNL A   1      33.972  28.929  26.596  1.00  0.00    -0.026 A 
ATOM     21  C   UNL A   1      34.583  32.798  28.440  1.00  0.00     0.044 C 
ATOM     22  C   UNL A   1      34.332  31.444  27.834  1.00  0.00    -0.051 A 
ATOM     23  C   UNL A   1      33.107  31.099  27.244  1.00  0.00     0.004 A 
ATOM     24  C   UNL A   1      35.379  30.527  27.787  1.00  0.00     0.004 A 
ATOM     25  C   UNL A   1      32.935  29.865  26.610  1.00  0.00     0.006 A 
ATOM     26  C   UNL A   1      35.195  29.277  27.201  1.00  0.00     0.006 A 
ENDBRANCH  18  20
ENDBRANCH  15  18
ENDBRANCH   8  14
ENDBRANCH   5   7
ENDBRANCH   4   5
ENDBRANCH   3   4
ENDBRANCH   2   3
ENDBRANCH   1   2
BRANCH   1  27
ATOM     27  C   UNL A   1      38.372  22.550  25.799  1.00  0.00     0.202 C 
BRANCH  27  28
ATOM     28  C   UNL A   1      38.471  23.973  26.357  1.00  0.00     0.261 C 
BRANCH  28  29
ATOM     29  O   UNL A   1      39.222  23.972  27.601  1.00  0.00    -0.460 OA
BRANCH  29  30
ATOM     30  C   UNL A   1      40.265  24.855  27.699  1.00  0.00     0.338 C 
ATOM     31  O   UNL A   1      41.447  24.541  27.691  1.00  0.00    -0.246 OA
BRANCH  30  32
ATOM     32  C   UNL A   1      39.763  26.228  28.043  1.00  0.00     0.060 A 
ATOM     33  C   UNL A   1      40.074  27.348  27.241  1.00  0.00     0.016 A 
ATOM     34  C   UNL A   1      39.327  26.427  29.342  1.00  0.00     0.016 A 
ATOM     35  C   UNL A   1      40.121  28.644  27.807  1.00  0.00     0.010 A 
ATOM     36  C   UNL A   1      39.520  27.668  29.910  1.00  0.00     0.010 A 
ATOM     37  C   UNL A   1      39.924  28.794  29.182  1.00  0.00    -0.014 A 
BRANCH  37  38
ATOM     38  C   UNL A   1      40.201  30.004  30.000  1.00  0.00     0.031 A 
ATOM     39  C   UNL A   1      39.010  30.840  30.271  1.00  0.00     0.074 A 
ATOM     40  C   UNL A   1      41.404  30.264  30.567  1.00  0.00     0.049 A 
ATOM     41  N   UNL A   1      38.661  31.903  29.611  1.00  0.00    -0.248 NA
ATOM     42  C   UNL A   1      37.972  30.367  31.204  1.00  0.00     0.031 C 
ATOM     43  C   UNL A   1      41.819  31.286  31.521  1.00  0.00     0.029 A 
ATOM     44  N   UNL A   1      42.586  29.557  30.364  1.00  0.00    -0.354 N 
ATOM     45  C   UNL A   1      37.577  32.398  30.325  1.00  0.00     0.074 A 
ATOM     46  C   UNL A   1      36.996  31.244  30.974  1.00  0.00     0.031 C 
ATOM     47  C   UNL A   1      43.170  31.314  31.583  1.00  0.00     0.029 A 
ATOM     48  C   UNL A   1      43.708  30.310  30.673  1.00  0.00     0.049 A 
ATOM     49  H   UNL A   1      42.621  28.628  30.039  1.00  0.00     0.167 HD
ATOM     50  C   UNL A   1      37.631  33.621  30.944  1.00  0.00     0.034 A 
ATOM     51  C   UNL A   1      44.684  30.425  29.741  1.00  0.00     0.034 A 
ATOM     52  C   UNL A   1      39.017  34.106  30.994  1.00  0.00     0.049 A 
ATOM     53  C   UNL A   1      44.390  31.808  29.183  1.00  0.00     0.074 A 
ATOM     54  C   UNL A   1      39.819  34.318  32.095  1.00  0.00     0.029 A 
ATOM     55  N   UNL A   1      39.874  34.138  29.873  1.00  0.00    -0.354 N 
ATOM     56  N   UNL A   1      43.184  32.333  29.054  1.00  0.00    -0.248 NA
ATOM     57  C   UNL A   1      45.466  32.789  29.145  1.00  0.00     0.031 C 
ATOM     58  C   UNL A   1      41.116  34.549  31.622  1.00  0.00     0.029 A 
ATOM     59  C   UNL A   1      41.191  34.334  30.258  1.00  0.00     0.049 A 
ATOM     60  H   UNL A   1      39.576  34.035  28.940  1.00  0.00     0.167 HD
ATOM     61  C   UNL A   1      43.305  33.703  29.151  1.00  0.00     0.074 A 
ATOM     62  C   UNL A   1      44.757  33.924  29.190  1.00  0.00     0.031 C 
ATOM     63  C   UNL A   1      42.306  34.630  29.357  1.00  0.00     0.034 A 
BRANCH  50  64
ATOM     64  C   UNL A   1      36.559  34.067  31.965  1.00  0.00     0.023 A 
ATOM     65  C   UNL A   1      35.376  34.715  31.545  1.00  0.00     0.031 A 
ATOM     66  C   UNL A   1      36.656  33.879  33.362  1.00  0.00     0.131 A 
ATOM     67  C   UNL A   1      34.464  35.281  32.460  1.00  0.00     0.055 A 
ATOM     68  C   UNL A   1      35.749  34.441  34.279  1.00  0.00     0.041 A 
ATOM     69  F   UNL A   1      37.631  33.125  33.898  1.00  0.00    -0.206 F 
ATOM     70  C   UNL A   1      34.654  35.166  33.830  1.00  0.00     0.022 A 
BRANCH  67  71
ATOM     71  S   UNL A   1      33.012  36.175  31.825  1.00  0.00     0.124 S 
ATOM     72  O   UNL A   1      31.919  35.299  32.234  1.00  0.00    -0.237 OA
ATOM     73  O   UNL A   1      33.100  37.458  32.514  1.00  0.00    -0.237 OA
ATOM     74  O   UNL A   1      33.256  36.233  30.385  1.00  0.00    -0.744 OA
ENDBRANCH  67  71
ENDBRANCH  50  64
BRANCH  51  75
ATOM     75  C   UNL A   1      45.067  29.114  29.076  1.00  0.00     0.023 A 
ATOM     76  C   UNL A   1      45.257  29.086  27.649  1.00  0.00     0.031 A 
ATOM     77  C   UNL A   1      45.564  28.008  29.784  1.00  0.00     0.131 A 
ATOM     78  C   UNL A   1      46.005  28.054  27.018  1.00  0.00     0.055 A 
ATOM     79  C   UNL A   1      46.301  26.983  29.151  1.00  0.00     0.041 A 
ATOM     80  F   UNL A   1      45.440  27.938  31.116  1.00  0.00    -0.206 F 
ATOM     81  C   UNL A   1      46.547  27.015  27.776  1.00  0.00     0.022 A 
BRANCH  78  82
ATOM     82  S   UNL A   1      46.575  28.155  25.269  1.00  0.00     0.124 S 
ATOM     83  O   UNL A   1      47.943  27.654  25.352  1.00  0.00    -0.237 OA
ATOM     84  O   UNL A   1      45.639  27.321  24.534  1.00  0.00    -0.237 OA
ATOM     85  O   UNL A   1      46.467  29.585  24.984  1.00  0.00    -0.744 OA
ENDBRANCH  78  82
ENDBRANCH  51  75
BRANCH  63  86
ATOM     86  C   UNL A   1      42.525  36.081  29.000  1.00  0.00     0.023 A 
ATOM     87  C   UNL A   1      43.322  36.902  29.803  1.00  0.00     0.031 A 
ATOM     88  C   UNL A   1      42.026  36.674  27.819  1.00  0.00     0.131 A 
ATOM     89  C   UNL A   1      43.445  38.267  29.551  1.00  0.00     0.055 A 
ATOM     90  C   UNL A   1      42.246  38.016  27.503  1.00  0.00     0.041 A 
ATOM     91  F   UNL A   1      41.336  35.981  26.902  1.00  0.00    -0.206 F 
ATOM     92  C   UNL A   1      42.936  38.832  28.390  1.00  0.00     0.022 A 
BRANCH  89  93
ATOM     93  S   UNL A   1      44.222  39.271  30.832  1.00  0.00     0.124 S 
ATOM     94  O   UNL A   1      44.633  38.250  31.793  1.00  0.00    -0.237 OA
ATOM     95  O   UNL A   1      45.308  39.929  30.113  1.00  0.00    -0.237 OA
ATOM     96  O   UNL A   1      43.144  40.152  31.271  1.00  0.00    -0.744 OA
ENDBRANCH  89  93
ENDBRANCH  63  86
ENDBRANCH  37  38
ENDBRANCH  30  32
ENDBRANCH  29  30
ENDBRANCH  28  29
ENDBRANCH  27  28
ENDBRANCH   1  27
TORSDOF 20
ENDMDL
