MODEL 1
REMARK VINA RESULT:      -9.7      0.000      0.000
REMARK SMILES C[NH2+]CCCC(=O)NC[C@@H]1CC[C@H](C(=O)OCCOCCOC(=O)c2ccc(-c3c4nc(c(-c5cc(S(=O)(=O)[O-])ccc5F)c5ccc([nH]5)c(-c5cc(S(=O)(=O)[O-])ccc5F)c5nc(c(-c6cc(S(=O)(=O)[O-])ccc6F)c6ccc3[nH]6)C=C5)C=C4)cc2)O1
REMARK SMILES IDX 17 1 16 2 14 3 15 4 13 5 10 6 11 7 88 8 12 9 9 10 8 11 6 12
REMARK SMILES IDX 7 13 5 15 4 16 3 17 2 18 1 19 18 22 19 23 20 24 21 25 22 26
REMARK SMILES IDX 23 27 24 28 25 29 26 30 87 31 27 32 86 33 28 34 29 35 30 36
REMARK SMILES IDX 80 37 31 38 85 39 79 40 81 41 32 42 84 43 78 44 77 45 33 47
REMARK SMILES IDX 65 48 45 49 64 50 46 51 49 52 63 53 82 54 47 55 48 56 62 58
REMARK SMILES IDX 83 59 50 60 34 61 35 62 43 63 36 64 42 65 44 66 41 67 37 68
REMARK SMILES IDX 38 69 39 70 40 71 66 72 67 73 75 74 68 75 74 76 76 77 73 78
REMARK SMILES IDX 69 79 70 80 71 81 72 82 51 83 52 84 60 85 53 86 59 87 61 88
REMARK SMILES IDX 58 89 54 90 55 91 56 92 57 93
REMARK H PARENT 8 14 2 20 2 21 81 46 49 57
REMARK Flexibility Score: inf
ROOT
ATOM      1  C   UNL A   1      36.114  22.947  25.026  1.00  0.00     0.261 C 
ENDROOT
BRANCH   1   2
ATOM      2  O   UNL A   1      35.474  23.773  26.016  1.00  0.00    -0.461 OA
BRANCH   2   3
ATOM      3  C   UNL A   1      34.235  24.236  25.683  1.00  0.00     0.335 C 
ATOM      4  O   UNL A   1      33.229  24.094  26.372  1.00  0.00    -0.249 OA
BRANCH   3   5
ATOM      5  C   UNL A   1      34.204  24.931  24.314  1.00  0.00     0.228 C 
ATOM      6  C   UNL A   1      32.225  25.819  23.411  1.00  0.00     0.138 C 
ATOM      7  C   UNL A   1      32.375  24.399  22.881  1.00  0.00     0.037 C 
ATOM      8  O   UNL A   1      33.309  26.043  24.325  1.00  0.00    -0.361 OA
ATOM      9  C   UNL A   1      33.832  24.078  23.115  1.00  0.00     0.047 C 
BRANCH   6  10
ATOM     10  C   UNL A   1      30.870  26.174  24.072  1.00  0.00     0.147 C 
BRANCH  10  11
ATOM     11  N   UNL A   1      30.914  27.396  24.868  1.00  0.00    -0.353 N 
ATOM     12  C   UNL A   1      31.031  28.701  24.526  1.00  0.00     0.220 C 
ATOM     13  O   UNL A   1      31.298  29.506  25.420  1.00  0.00    -0.275 OA
ATOM     14  H   UNL A   1      30.846  27.243  25.838  1.00  0.00     0.163 HD
BRANCH  12  15
ATOM     15  C   UNL A   1      30.814  29.168  23.105  1.00  0.00     0.106 C 
BRANCH  15  16
ATOM     16  C   UNL A   1      29.517  29.959  22.939  1.00  0.00     0.071 C 
BRANCH  16  17
ATOM     17  C   UNL A   1      29.266  30.438  21.510  1.00  0.00     0.260 C 
BRANCH  17  18
ATOM     18  N   UNL A   1      27.885  30.847  21.249  1.00  0.00    -0.349 N 
ATOM     19  C   UNL A   1      27.822  31.954  20.309  1.00  0.00     0.330 C 
ATOM     20  H   UNL A   1      27.373  30.054  20.861  1.00  0.00     0.346 HD
ATOM     21  H   UNL A   1      27.472  31.152  22.130  1.00  0.00     0.346 HD
ENDBRANCH  17  18
ENDBRANCH  16  17
ENDBRANCH  15  16
ENDBRANCH  12  15
ENDBRANCH  10  11
ENDBRANCH   6  10
ENDBRANCH   3   5
ENDBRANCH   2   3
ENDBRANCH   1   2
BRANCH   1  22
ATOM     22  C   UNL A   1      36.765  21.680  25.591  1.00  0.00     0.202 C 
BRANCH  22  23
ATOM     23  O   UNL A   1      37.786  21.065  24.811  1.00  0.00    -0.374 OA
BRANCH  23  24
ATOM     24  C   UNL A   1      37.956  19.656  24.935  1.00  0.00     0.202 C 
BRANCH  24  25
ATOM     25  C   UNL A   1      39.149  19.153  25.760  1.00  0.00     0.261 C 
BRANCH  25  26
ATOM     26  O   UNL A   1      40.260  20.069  25.771  1.00  0.00    -0.460 OA
BRANCH  26  27
ATOM     27  C   UNL A   1      40.845  20.227  26.987  1.00  0.00     0.338 C 
ATOM     28  O   UNL A   1      41.331  19.346  27.685  1.00  0.00    -0.246 OA
BRANCH  27  29
ATOM     29  C   UNL A   1      40.962  21.653  27.337  1.00  0.00     0.060 A 
ATOM     30  C   UNL A   1      40.352  22.589  26.492  1.00  0.00     0.016 A 
ATOM     31  C   UNL A   1      41.768  22.074  28.396  1.00  0.00     0.016 A 
ATOM     32  C   UNL A   1      40.571  23.953  26.683  1.00  0.00     0.010 A 
ATOM     33  C   UNL A   1      41.995  23.445  28.579  1.00  0.00     0.010 A 
ATOM     34  C   UNL A   1      41.420  24.390  27.708  1.00  0.00    -0.014 A 
BRANCH  34  35
ATOM     35  C   UNL A   1      41.805  25.822  27.802  1.00  0.00     0.031 A 
ATOM     36  C   UNL A   1      43.113  26.272  27.209  1.00  0.00     0.074 A 
ATOM     37  C   UNL A   1      41.000  26.711  28.409  1.00  0.00     0.049 A 
ATOM     38  N   UNL A   1      43.696  27.441  27.275  1.00  0.00    -0.248 NA
ATOM     39  C   UNL A   1      43.860  25.267  26.439  1.00  0.00     0.031 C 
ATOM     40  C   UNL A   1      39.681  26.410  28.962  1.00  0.00     0.029 A 
ATOM     41  N   UNL A   1      41.180  28.046  28.677  1.00  0.00    -0.354 N 
ATOM     42  C   UNL A   1      44.882  27.314  26.559  1.00  0.00     0.074 A 
ATOM     43  C   UNL A   1      44.945  25.944  26.094  1.00  0.00     0.031 C 
ATOM     44  C   UNL A   1      39.181  27.522  29.527  1.00  0.00     0.029 A 
ATOM     45  C   UNL A   1      40.163  28.599  29.419  1.00  0.00     0.049 A 
ATOM     46  H   UNL A   1      41.962  28.557  28.369  1.00  0.00     0.167 HD
ATOM     47  C   UNL A   1      45.826  28.257  26.310  1.00  0.00     0.034 A 
ATOM     48  C   UNL A   1      40.056  29.819  29.985  1.00  0.00     0.034 A 
ATOM     49  C   UNL A   1      45.751  29.615  26.789  1.00  0.00     0.049 A 
ATOM     50  C   UNL A   1      41.181  30.810  29.809  1.00  0.00     0.074 A 
ATOM     51  C   UNL A   1      46.635  30.659  26.568  1.00  0.00     0.029 A 
ATOM     52  N   UNL A   1      44.745  30.116  27.605  1.00  0.00    -0.354 N 
ATOM     53  N   UNL A   1      42.299  30.681  29.132  1.00  0.00    -0.248 NA
ATOM     54  C   UNL A   1      41.036  32.108  30.485  1.00  0.00     0.031 C 
ATOM     55  C   UNL A   1      46.204  31.764  27.311  1.00  0.00     0.029 A 
ATOM     56  C   UNL A   1      45.013  31.436  27.938  1.00  0.00     0.049 A 
ATOM     57  H   UNL A   1      43.956  29.610  27.903  1.00  0.00     0.167 HD
ATOM     58  C   UNL A   1      42.978  31.887  29.284  1.00  0.00     0.074 A 
ATOM     59  C   UNL A   1      42.142  32.735  30.107  1.00  0.00     0.031 C 
ATOM     60  C   UNL A   1      44.183  32.261  28.784  1.00  0.00     0.034 A 
BRANCH  47  61
ATOM     61  C   UNL A   1      47.045  27.829  25.531  1.00  0.00     0.023 A 
ATOM     62  C   UNL A   1      47.187  28.107  24.161  1.00  0.00     0.031 A 
ATOM     63  C   UNL A   1      48.074  27.112  26.169  1.00  0.00     0.131 A 
ATOM     64  C   UNL A   1      48.300  27.617  23.459  1.00  0.00     0.055 A 
ATOM     65  C   UNL A   1      49.212  26.689  25.480  1.00  0.00     0.041 A 
ATOM     66  F   UNL A   1      47.983  26.800  27.471  1.00  0.00    -0.206 F 
ATOM     67  C   UNL A   1      49.323  26.930  24.114  1.00  0.00     0.022 A 
BRANCH  64  68
ATOM     68  S   UNL A   1      48.328  27.778  21.652  1.00  0.00     0.124 S 
ATOM     69  O   UNL A   1      46.966  28.224  21.372  1.00  0.00    -0.237 OA
ATOM     70  O   UNL A   1      49.381  28.765  21.440  1.00  0.00    -0.237 OA
ATOM     71  O   UNL A   1      48.639  26.425  21.193  1.00  0.00    -0.744 OA
ENDBRANCH  64  68
ENDBRANCH  47  61
BRANCH  48  72
ATOM     72  C   UNL A   1      38.880  30.153  30.838  1.00  0.00     0.023 A 
ATOM     73  C   UNL A   1      37.827  30.945  30.352  1.00  0.00     0.031 A 
ATOM     74  C   UNL A   1      38.821  29.727  32.178  1.00  0.00     0.131 A 
ATOM     75  C   UNL A   1      36.781  31.316  31.209  1.00  0.00     0.055 A 
ATOM     76  C   UNL A   1      37.753  30.059  33.012  1.00  0.00     0.041 A 
ATOM     77  F   UNL A   1      39.806  28.975  32.696  1.00  0.00    -0.206 F 
ATOM     78  C   UNL A   1      36.729  30.868  32.531  1.00  0.00     0.022 A 
BRANCH  75  79
ATOM     79  S   UNL A   1      35.519  32.467  30.596  1.00  0.00     0.124 S 
ATOM     80  O   UNL A   1      34.782  32.777  31.816  1.00  0.00    -0.237 OA
ATOM     81  O   UNL A   1      36.334  33.545  30.045  1.00  0.00    -0.237 OA
ATOM     82  O   UNL A   1      34.788  31.676  29.609  1.00  0.00    -0.744 OA
ENDBRANCH  75  79
ENDBRANCH  48  72
BRANCH  60  83
ATOM     83  C   UNL A   1      44.653  33.659  29.100  1.00  0.00     0.023 A 
ATOM     84  C   UNL A   1      44.250  34.763  28.329  1.00  0.00     0.031 A 
ATOM     85  C   UNL A   1      45.511  33.890  30.190  1.00  0.00     0.131 A 
ATOM     86  C   UNL A   1      44.735  36.043  28.636  1.00  0.00     0.055 A 
ATOM     87  C   UNL A   1      45.950  35.172  30.520  1.00  0.00     0.041 A 
ATOM     88  F   UNL A   1      45.928  32.870  30.958  1.00  0.00    -0.206 F 
ATOM     89  C   UNL A   1      45.569  36.257  29.736  1.00  0.00     0.022 A 
BRANCH  86  90
ATOM     90  S   UNL A   1      44.308  37.426  27.541  1.00  0.00     0.124 S 
ATOM     91  O   UNL A   1      43.956  38.471  28.496  1.00  0.00    -0.237 OA
ATOM     92  O   UNL A   1      45.546  37.633  26.798  1.00  0.00    -0.237 OA
ATOM     93  O   UNL A   1      43.192  36.907  26.751  1.00  0.00    -0.744 OA
ENDBRANCH  86  90
ENDBRANCH  60  83
ENDBRANCH  34  35
ENDBRANCH  27  29
ENDBRANCH  26  27
ENDBRANCH  25  26
ENDBRANCH  24  25
ENDBRANCH  23  24
ENDBRANCH  22  23
ENDBRANCH   1  22
TORSDOF 23
ENDMDL
MODEL 2
REMARK VINA RESULT:      -9.5      2.468      3.077
REMARK SMILES C[NH2+]CCCC(=O)NC[C@@H]1CC[C@H](C(=O)OCCOCCOC(=O)c2ccc(-c3c4nc(c(-c5cc(S(=O)(=O)[O-])ccc5F)c5ccc([nH]5)c(-c5cc(S(=O)(=O)[O-])ccc5F)c5nc(c(-c6cc(S(=O)(=O)[O-])ccc6F)c6ccc3[nH]6)C=C5)C=C4)cc2)O1
REMARK SMILES IDX 17 1 16 2 14 3 15 4 13 5 10 6 11 7 88 8 12 9 9 10 8 11 6 12
REMARK SMILES IDX 7 13 5 15 4 16 3 17 2 18 1 19 18 22 19 23 20 24 21 25 22 26
REMARK SMILES IDX 23 27 24 28 25 29 26 30 87 31 27 32 86 33 28 34 29 35 30 36
REMARK SMILES IDX 80 37 31 38 85 39 79 40 81 41 32 42 84 43 78 44 77 45 33 47
REMARK SMILES IDX 65 48 45 49 64 50 46 51 49 52 63 53 82 54 47 55 48 56 62 58
REMARK SMILES IDX 83 59 50 60 34 61 35 62 43 63 36 64 42 65 44 66 41 67 37 68
REMARK SMILES IDX 38 69 39 70 40 71 66 72 67 73 75 74 68 75 74 76 76 77 73 78
REMARK SMILES IDX 69 79 70 80 71 81 72 82 51 83 52 84 60 85 53 86 59 87 61 88
REMARK SMILES IDX 58 89 54 90 55 91 56 92 57 93
REMARK H PARENT 8 14 2 20 2 21 81 46 49 57
REMARK Flexibility Score: inf
ROOT
ATOM      1  C   UNL A   1      36.653  23.478  24.900  1.00  0.00     0.261 C 
ENDROOT
BRANCH   1   2
ATOM      2  O   UNL A   1      35.682  24.292  25.582  1.00  0.00    -0.461 OA
BRANCH   2   3
ATOM      3  C   UNL A   1      34.388  23.874  25.478  1.00  0.00     0.335 C 
ATOM      4  O   UNL A   1      33.543  23.993  26.360  1.00  0.00    -0.249 OA
BRANCH   3   5
ATOM      5  C   UNL A   1      34.088  23.184  24.139  1.00  0.00     0.228 C 
ATOM      6  C   UNL A   1      31.988  23.343  23.098  1.00  0.00     0.138 C 
ATOM      7  C   UNL A   1      31.985  22.079  23.948  1.00  0.00     0.037 C 
ATOM      8  O   UNL A   1      33.245  23.998  23.323  1.00  0.00    -0.361 OA
ATOM      9  C   UNL A   1      33.449  21.809  24.199  1.00  0.00     0.047 C 
BRANCH   6  10
ATOM     10  C   UNL A   1      30.812  24.328  23.314  1.00  0.00     0.147 C 
BRANCH  10  11
ATOM     11  N   UNL A   1      30.311  24.343  24.684  1.00  0.00    -0.353 N 
ATOM     12  C   UNL A   1      30.368  25.275  25.664  1.00  0.00     0.220 C 
ATOM     13  O   UNL A   1      30.083  24.920  26.810  1.00  0.00    -0.275 OA
ATOM     14  H   UNL A   1      29.842  23.518  24.945  1.00  0.00     0.163 HD
BRANCH  12  15
ATOM     15  C   UNL A   1      30.740  26.710  25.369  1.00  0.00     0.106 C 
BRANCH  15  16
ATOM     16  C   UNL A   1      31.979  27.164  26.141  1.00  0.00     0.071 C 
BRANCH  16  17
ATOM     17  C   UNL A   1      31.659  27.963  27.403  1.00  0.00     0.260 C 
BRANCH  17  18
ATOM     18  N   UNL A   1      32.463  29.177  27.563  1.00  0.00    -0.349 N 
ATOM     19  C   UNL A   1      32.391  30.026  26.386  1.00  0.00     0.330 C 
ATOM     20  H   UNL A   1      32.117  29.699  28.368  1.00  0.00     0.346 HD
ATOM     21  H   UNL A   1      33.435  28.899  27.697  1.00  0.00     0.346 HD
ENDBRANCH  17  18
ENDBRANCH  16  17
ENDBRANCH  15  16
ENDBRANCH  12  15
ENDBRANCH  10  11
ENDBRANCH   6  10
ENDBRANCH   3   5
ENDBRANCH   2   3
ENDBRANCH   1   2
BRANCH   1  22
ATOM     22  C   UNL A   1      37.828  23.033  25.778  1.00  0.00     0.202 C 
BRANCH  22  23
ATOM     23  O   UNL A   1      38.273  21.687  25.645  1.00  0.00    -0.374 OA
BRANCH  23  24
ATOM     24  C   UNL A   1      39.571  21.366  26.138  1.00  0.00     0.202 C 
BRANCH  24  25
ATOM     25  C   UNL A   1      40.028  19.904  26.037  1.00  0.00     0.261 C 
BRANCH  25  26
ATOM     26  O   UNL A   1      41.293  19.658  26.681  1.00  0.00    -0.460 OA
BRANCH  26  27
ATOM     27  C   UNL A   1      42.375  19.845  25.880  1.00  0.00     0.338 C 
ATOM     28  O   UNL A   1      42.772  19.092  24.999  1.00  0.00    -0.246 OA
BRANCH  27  29
ATOM     29  C   UNL A   1      42.970  21.175  26.097  1.00  0.00     0.060 A 
ATOM     30  C   UNL A   1      43.120  21.620  27.417  1.00  0.00     0.016 A 
ATOM     31  C   UNL A   1      43.251  22.025  25.027  1.00  0.00     0.016 A 
ATOM     32  C   UNL A   1      43.522  22.930  27.673  1.00  0.00     0.010 A 
ATOM     33  C   UNL A   1      43.644  23.344  25.287  1.00  0.00     0.010 A 
ATOM     34  C   UNL A   1      43.756  23.812  26.610  1.00  0.00    -0.014 A 
BRANCH  34  35
ATOM     35  C   UNL A   1      44.002  25.254  26.873  1.00  0.00     0.031 A 
ATOM     36  C   UNL A   1      45.392  25.805  26.706  1.00  0.00     0.074 A 
ATOM     37  C   UNL A   1      42.999  26.063  27.256  1.00  0.00     0.049 A 
ATOM     38  N   UNL A   1      45.854  26.995  26.989  1.00  0.00    -0.248 NA
ATOM     39  C   UNL A   1      46.394  24.886  26.146  1.00  0.00     0.031 C 
ATOM     40  C   UNL A   1      41.600  25.663  27.388  1.00  0.00     0.029 A 
ATOM     41  N   UNL A   1      43.006  27.388  27.622  1.00  0.00    -0.354 N 
ATOM     42  C   UNL A   1      47.202  26.972  26.645  1.00  0.00     0.074 A 
ATOM     43  C   UNL A   1      47.486  25.637  26.161  1.00  0.00     0.031 C 
ATOM     44  C   UNL A   1      40.886  26.714  27.829  1.00  0.00     0.029 A 
ATOM     45  C   UNL A   1      41.784  27.843  28.058  1.00  0.00     0.049 A 
ATOM     46  H   UNL A   1      43.809  27.955  27.577  1.00  0.00     0.167 HD
ATOM     47  C   UNL A   1      48.113  27.974  26.722  1.00  0.00     0.034 A 
ATOM     48  C   UNL A   1      41.439  29.020  28.620  1.00  0.00     0.034 A 
ATOM     49  C   UNL A   1      47.814  29.296  27.216  1.00  0.00     0.049 A 
ATOM     50  C   UNL A   1      42.499  30.075  28.821  1.00  0.00     0.074 A 
ATOM     51  C   UNL A   1      48.654  30.394  27.307  1.00  0.00     0.029 A 
ATOM     52  N   UNL A   1      46.585  29.696  27.725  1.00  0.00    -0.354 N 
ATOM     53  N   UNL A   1      43.771  30.043  28.494  1.00  0.00    -0.248 NA
ATOM     54  C   UNL A   1      42.080  31.321  29.480  1.00  0.00     0.031 C 
ATOM     55  C   UNL A   1      47.955  31.430  27.938  1.00  0.00     0.029 A 
ATOM     56  C   UNL A   1      46.658  31.004  28.177  1.00  0.00     0.049 A 
ATOM     57  H   UNL A   1      45.779  29.133  27.758  1.00  0.00     0.167 HD
ATOM     58  C   UNL A   1      44.296  31.271  28.889  1.00  0.00     0.074 A 
ATOM     59  C   UNL A   1      43.204  32.025  29.468  1.00  0.00     0.031 C 
ATOM     60  C   UNL A   1      45.567  31.735  28.778  1.00  0.00     0.034 A 
BRANCH  47  61
ATOM     61  C   UNL A   1      49.530  27.656  26.314  1.00  0.00     0.023 A 
ATOM     62  C   UNL A   1      49.976  27.812  24.991  1.00  0.00     0.031 A 
ATOM     63  C   UNL A   1      50.445  27.168  27.266  1.00  0.00     0.131 A 
ATOM     64  C   UNL A   1      51.280  27.424  24.642  1.00  0.00     0.055 A 
ATOM     65  C   UNL A   1      51.762  26.851  26.926  1.00  0.00     0.041 A 
ATOM     66  F   UNL A   1      50.069  26.979  28.540  1.00  0.00    -0.206 F 
ATOM     67  C   UNL A   1      52.181  26.967  25.605  1.00  0.00     0.022 A 
BRANCH  64  68
ATOM     68  S   UNL A   1      51.739  27.404  22.887  1.00  0.00     0.124 S 
ATOM     69  O   UNL A   1      50.482  27.012  22.255  1.00  0.00    -0.237 OA
ATOM     70  O   UNL A   1      52.168  28.779  22.658  1.00  0.00    -0.237 OA
ATOM     71  O   UNL A   1      52.800  26.400  22.823  1.00  0.00    -0.744 OA
ENDBRANCH  64  68
ENDBRANCH  47  61
BRANCH  48  72
ATOM     72  C   UNL A   1      40.047  29.243  29.106  1.00  0.00     0.023 A 
ATOM     73  C   UNL A   1      39.726  29.142  30.469  1.00  0.00     0.031 A 
ATOM     74  C   UNL A   1      39.004  29.507  28.200  1.00  0.00     0.131 A 
ATOM     75  C   UNL A   1      38.391  29.267  30.881  1.00  0.00     0.055 A 
ATOM     76  C   UNL A   1      37.685  29.680  28.621  1.00  0.00     0.041 A 
ATOM     77  F   UNL A   1      39.255  29.606  26.884  1.00  0.00    -0.206 F 
ATOM     78  C   UNL A   1      37.371  29.548  29.969  1.00  0.00     0.022 A 
BRANCH  75  79
ATOM     79  S   UNL A   1      37.987  28.976  32.626  1.00  0.00     0.124 S 
ATOM     80  O   UNL A   1      38.104  27.525  32.720  1.00  0.00    -0.237 OA
ATOM     81  O   UNL A   1      39.019  29.749  33.309  1.00  0.00    -0.237 OA
ATOM     82  O   UNL A   1      36.631  29.503  32.755  1.00  0.00    -0.744 OA
ENDBRANCH  75  79
ENDBRANCH  48  72
BRANCH  60  83
ATOM     83  C   UNL A   1      45.833  33.133  29.276  1.00  0.00     0.023 A 
ATOM     84  C   UNL A   1      45.671  34.255  28.444  1.00  0.00     0.031 A 
ATOM     85  C   UNL A   1      46.249  33.347  30.603  1.00  0.00     0.131 A 
ATOM     86  C   UNL A   1      45.959  35.537  28.936  1.00  0.00     0.055 A 
ATOM     87  C   UNL A   1      46.486  34.629  31.101  1.00  0.00     0.041 A 
ATOM     88  F   UNL A   1      46.421  32.310  31.439  1.00  0.00    -0.206 F 
ATOM     89  C   UNL A   1      46.350  35.732  30.264  1.00  0.00     0.022 A 
BRANCH  86  90
ATOM     90  S   UNL A   1      45.874  36.949  27.800  1.00  0.00     0.124 S 
ATOM     91  O   UNL A   1      46.643  37.961  28.516  1.00  0.00    -0.237 OA
ATOM     92  O   UNL A   1      46.492  36.417  26.590  1.00  0.00    -0.237 OA
ATOM     93  O   UNL A   1      44.441  37.219  27.694  1.00  0.00    -0.744 OA
ENDBRANCH  86  90
ENDBRANCH  60  83
ENDBRANCH  34  35
ENDBRANCH  27  29
ENDBRANCH  26  27
ENDBRANCH  25  26
ENDBRANCH  24  25
ENDBRANCH  23  24
ENDBRANCH  22  23
ENDBRANCH   1  22
TORSDOF 23
ENDMDL
MODEL 3
REMARK VINA RESULT:      -9.4      6.902     11.900
REMARK SMILES C[NH2+]CCCC(=O)NC[C@@H]1CC[C@H](C(=O)OCCOCCOC(=O)c2ccc(-c3c4nc(c(-c5cc(S(=O)(=O)[O-])ccc5F)c5ccc([nH]5)c(-c5cc(S(=O)(=O)[O-])ccc5F)c5nc(c(-c6cc(S(=O)(=O)[O-])ccc6F)c6ccc3[nH]6)C=C5)C=C4)cc2)O1
REMARK SMILES IDX 17 1 16 2 14 3 15 4 13 5 10 6 11 7 88 8 12 9 9 10 8 11 6 12
REMARK SMILES IDX 7 13 5 15 4 16 3 17 2 18 1 19 18 22 19 23 20 24 21 25 22 26
REMARK SMILES IDX 23 27 24 28 25 29 26 30 87 31 27 32 86 33 28 34 29 35 30 36
REMARK SMILES IDX 80 37 31 38 85 39 79 40 81 41 32 42 84 43 78 44 77 45 33 47
REMARK SMILES IDX 65 48 45 49 64 50 46 51 49 52 63 53 82 54 47 55 48 56 62 58
REMARK SMILES IDX 83 59 50 60 34 61 35 62 43 63 36 64 42 65 44 66 41 67 37 68
REMARK SMILES IDX 38 69 39 70 40 71 66 72 67 73 75 74 68 75 74 76 76 77 73 78
REMARK SMILES IDX 69 79 70 80 71 81 72 82 51 83 52 84 60 85 53 86 59 87 61 88
REMARK SMILES IDX 58 89 54 90 55 91 56 92 57 93
REMARK H PARENT 8 14 2 20 2 21 81 46 49 57
REMARK Flexibility Score: inf
ROOT
ATOM      1  C   UNL A   1      33.542  35.395  32.674  1.00  0.00     0.261 C 
ENDROOT
BRANCH   1   2
ATOM      2  O   UNL A   1      33.038  35.080  31.363  1.00  0.00    -0.461 OA
BRANCH   2   3
ATOM      3  C   UNL A   1      32.941  36.134  30.502  1.00  0.00     0.335 C 
ATOM      4  O   UNL A   1      32.815  37.305  30.845  1.00  0.00    -0.249 OA
BRANCH   3   5
ATOM      5  C   UNL A   1      32.964  35.706  29.028  1.00  0.00     0.228 C 
ATOM      6  C   UNL A   1      33.891  33.661  28.337  1.00  0.00     0.138 C 
ATOM      7  C   UNL A   1      34.980  34.720  28.226  1.00  0.00     0.037 C 
ATOM      8  O   UNL A   1      32.737  34.302  28.900  1.00  0.00    -0.361 OA
ATOM      9  C   UNL A   1      34.218  36.023  28.236  1.00  0.00     0.047 C 
BRANCH   6  10
ATOM     10  C   UNL A   1      34.247  32.380  29.133  1.00  0.00     0.147 C 
BRANCH  10  11
ATOM     11  N   UNL A   1      35.258  31.554  28.482  1.00  0.00    -0.353 N 
ATOM     12  C   UNL A   1      35.167  30.505  27.630  1.00  0.00     0.220 C 
ATOM     13  O   UNL A   1      36.183  29.833  27.438  1.00  0.00    -0.275 OA
ATOM     14  H   UNL A   1      36.183  31.807  28.706  1.00  0.00     0.163 HD
BRANCH  12  15
ATOM     15  C   UNL A   1      33.877  30.180  26.913  1.00  0.00     0.106 C 
BRANCH  15  16
ATOM     16  C   UNL A   1      33.324  28.807  27.296  1.00  0.00     0.071 C 
BRANCH  16  17
ATOM     17  C   UNL A   1      31.803  28.770  27.423  1.00  0.00     0.260 C 
BRANCH  17  18
ATOM     18  N   UNL A   1      31.233  27.421  27.413  1.00  0.00    -0.349 N 
ATOM     19  C   UNL A   1      31.789  26.613  26.340  1.00  0.00     0.330 C 
ATOM     20  H   UNL A   1      31.436  26.970  28.305  1.00  0.00     0.346 HD
ATOM     21  H   UNL A   1      30.228  27.502  27.264  1.00  0.00     0.346 HD
ENDBRANCH  17  18
ENDBRANCH  16  17
ENDBRANCH  15  16
ENDBRANCH  12  15
ENDBRANCH  10  11
ENDBRANCH   6  10
ENDBRANCH   3   5
ENDBRANCH   2   3
ENDBRANCH   1   2
BRANCH   1  22
ATOM     22  C   UNL A   1      34.967  34.898  32.936  1.00  0.00     0.202 C 
BRANCH  22  23
ATOM     23  O   UNL A   1      35.179  34.093  34.091  1.00  0.00    -0.374 OA
BRANCH  23  24
ATOM     24  C   UNL A   1      36.162  33.065  34.012  1.00  0.00     0.202 C 
BRANCH  24  25
ATOM     25  C   UNL A   1      36.209  32.222  32.731  1.00  0.00     0.261 C 
BRANCH  25  26
ATOM     26  O   UNL A   1      36.666  30.874  32.951  1.00  0.00    -0.460 OA
BRANCH  26  27
ATOM     27  C   UNL A   1      37.272  30.305  31.877  1.00  0.00     0.338 C 
ATOM     28  O   UNL A   1      36.919  30.389  30.707  1.00  0.00    -0.246 OA
BRANCH  27  29
ATOM     29  C   UNL A   1      38.538  29.658  32.265  1.00  0.00     0.060 A 
ATOM     30  C   UNL A   1      39.675  30.466  32.394  1.00  0.00     0.016 A 
ATOM     31  C   UNL A   1      38.640  28.270  32.366  1.00  0.00     0.016 A 
ATOM     32  C   UNL A   1      40.927  29.885  32.595  1.00  0.00     0.010 A 
ATOM     33  C   UNL A   1      39.900  27.689  32.558  1.00  0.00     0.010 A 
ATOM     34  C   UNL A   1      41.054  28.491  32.646  1.00  0.00    -0.014 A 
BRANCH  34  35
ATOM     35  C   UNL A   1      42.399  27.861  32.673  1.00  0.00     0.031 A 
ATOM     36  C   UNL A   1      43.072  27.622  33.997  1.00  0.00     0.074 A 
ATOM     37  C   UNL A   1      43.015  27.507  31.531  1.00  0.00     0.049 A 
ATOM     38  N   UNL A   1      44.282  27.194  34.249  1.00  0.00    -0.248 NA
ATOM     39  C   UNL A   1      42.269  27.904  35.197  1.00  0.00     0.031 C 
ATOM     40  C   UNL A   1      42.439  27.626  30.194  1.00  0.00     0.029 A 
ATOM     41  N   UNL A   1      44.269  26.989  31.313  1.00  0.00    -0.354 N 
ATOM     42  C   UNL A   1      44.391  27.158  35.636  1.00  0.00     0.074 A 
ATOM     43  C   UNL A   1      43.132  27.637  36.167  1.00  0.00     0.031 C 
ATOM     44  C   UNL A   1      43.347  27.218  29.290  1.00  0.00     0.029 A 
ATOM     45  C   UNL A   1      44.583  26.856  29.981  1.00  0.00     0.049 A 
ATOM     46  H   UNL A   1      44.883  26.740  32.040  1.00  0.00     0.167 HD
ATOM     47  C   UNL A   1      45.444  26.758  36.392  1.00  0.00     0.034 A 
ATOM     48  C   UNL A   1      45.747  26.523  29.386  1.00  0.00     0.034 A 
ATOM     49  C   UNL A   1      46.696  26.293  35.846  1.00  0.00     0.049 A 
ATOM     50  C   UNL A   1      46.947  26.212  30.246  1.00  0.00     0.074 A 
ATOM     51  C   UNL A   1      47.815  25.833  36.521  1.00  0.00     0.029 A 
ATOM     52  N   UNL A   1      47.005  26.247  34.493  1.00  0.00    -0.354 N 
ATOM     53  N   UNL A   1      47.042  26.182  31.555  1.00  0.00    -0.248 NA
ATOM     54  C   UNL A   1      48.203  25.901  29.547  1.00  0.00     0.031 C 
ATOM     55  C   UNL A   1      48.822  25.583  35.582  1.00  0.00     0.029 A 
ATOM     56  C   UNL A   1      48.311  25.817  34.315  1.00  0.00     0.049 A 
ATOM     57  H   UNL A   1      46.386  26.484  33.765  1.00  0.00     0.167 HD
ATOM     58  C   UNL A   1      48.359  25.830  31.834  1.00  0.00     0.074 A 
ATOM     59  C   UNL A   1      49.021  25.646  30.559  1.00  0.00     0.031 C 
ATOM     60  C   UNL A   1      48.967  25.666  33.037  1.00  0.00     0.034 A 
BRANCH  47  61
ATOM     61  C   UNL A   1      45.301  26.862  37.890  1.00  0.00     0.023 A 
ATOM     62  C   UNL A   1      45.644  28.031  38.590  1.00  0.00     0.031 A 
ATOM     63  C   UNL A   1      44.833  25.762  38.632  1.00  0.00     0.131 A 
ATOM     64  C   UNL A   1      45.573  28.053  39.992  1.00  0.00     0.055 A 
ATOM     65  C   UNL A   1      44.697  25.814  40.020  1.00  0.00     0.041 A 
ATOM     66  F   UNL A   1      44.510  24.612  38.019  1.00  0.00    -0.206 F 
ATOM     67  C   UNL A   1      45.080  26.960  40.709  1.00  0.00     0.022 A 
BRANCH  64  68
ATOM     68  S   UNL A   1      46.256  29.483  40.875  1.00  0.00     0.124 S 
ATOM     69  O   UNL A   1      46.251  29.010  42.257  1.00  0.00    -0.237 OA
ATOM     70  O   UNL A   1      47.567  29.638  40.256  1.00  0.00    -0.237 OA
ATOM     71  O   UNL A   1      45.299  30.551  40.588  1.00  0.00    -0.744 OA
ENDBRANCH  64  68
ENDBRANCH  47  61
BRANCH  48  72
ATOM     72  C   UNL A   1      45.865  26.543  27.899  1.00  0.00     0.023 A 
ATOM     73  C   UNL A   1      45.772  25.363  27.145  1.00  0.00     0.031 A 
ATOM     74  C   UNL A   1      46.129  27.744  27.216  1.00  0.00     0.131 A 
ATOM     75  C   UNL A   1      45.980  25.404  25.758  1.00  0.00     0.055 A 
ATOM     76  C   UNL A   1      46.285  27.787  25.831  1.00  0.00     0.041 A 
ATOM     77  F   UNL A   1      46.236  28.901  27.891  1.00  0.00    -0.206 F 
ATOM     78  C   UNL A   1      46.222  26.609  25.094  1.00  0.00     0.022 A 
BRANCH  75  79
ATOM     79  S   UNL A   1      46.008  23.842  24.835  1.00  0.00     0.124 S 
ATOM     80  O   UNL A   1      47.052  24.099  23.849  1.00  0.00    -0.237 OA
ATOM     81  O   UNL A   1      46.335  22.878  25.880  1.00  0.00    -0.237 OA
ATOM     82  O   UNL A   1      44.654  23.739  24.297  1.00  0.00    -0.744 OA
ENDBRANCH  75  79
ENDBRANCH  48  72
BRANCH  60  83
ATOM     83  C   UNL A   1      50.416  25.250  33.023  1.00  0.00     0.023 A 
ATOM     84  C   UNL A   1      50.792  23.895  33.019  1.00  0.00     0.031 A 
ATOM     85  C   UNL A   1      51.434  26.220  33.009  1.00  0.00     0.131 A 
ATOM     86  C   UNL A   1      52.152  23.548  33.038  1.00  0.00     0.055 A 
ATOM     87  C   UNL A   1      52.783  25.868  32.978  1.00  0.00     0.041 A 
ATOM     88  F   UNL A   1      51.129  27.528  33.015  1.00  0.00    -0.206 F 
ATOM     89  C   UNL A   1      53.149  24.526  33.001  1.00  0.00     0.022 A 
BRANCH  86  90
ATOM     90  S   UNL A   1      52.605  21.796  33.171  1.00  0.00     0.124 S 
ATOM     91  O   UNL A   1      51.948  21.223  32.001  1.00  0.00    -0.237 OA
ATOM     92  O   UNL A   1      54.062  21.843  33.124  1.00  0.00    -0.237 OA
ATOM     93  O   UNL A   1      52.041  21.392  34.458  1.00  0.00    -0.744 OA
ENDBRANCH  86  90
ENDBRANCH  60  83
ENDBRANCH  34  35
ENDBRANCH  27  29
ENDBRANCH  26  27
ENDBRANCH  25  26
ENDBRANCH  24  25
ENDBRANCH  23  24
ENDBRANCH  22  23
ENDBRANCH   1  22
TORSDOF 23
ENDMDL
