MODEL 1
REMARK VINA RESULT:     -11.8      0.000      0.000
REMARK SMILES O=C(CC1CC[NH+](C[C@@H]2Cc3ccccc32)CC1)OCCOCCOC(=O)c1ccc(-c2c3nc(c(-c4cc(S(=O)(=O)[O-])ccc4F)c4ccc([nH]4)c(-c4cc(S(=O)(=O)[O-])ccc4F)c4nc(c(-c5cc(S(=O)(=O)[O-])ccc5F)c5ccc2[nH]5)C=C4)C=C3)cc1
REMARK SMILES IDX 22 1 21 2 20 3 19 4 2 5 1 6 3 7 4 8 5 9 18 10 6 11 17 12
REMARK SMILES IDX 7 13 8 15 9 16 10 17 16 18 11 19 15 20 12 21 14 22 13 23
REMARK SMILES IDX 23 24 24 25 25 26 26 27 27 28 28 29 29 30 90 31 30 32 89 33
REMARK SMILES IDX 31 34 32 35 33 36 83 37 34 38 88 39 82 40 84 41 35 42 87 43
REMARK SMILES IDX 81 44 80 45 36 47 68 48 48 49 67 50 49 51 52 52 66 53 85 54
REMARK SMILES IDX 50 55 51 56 65 58 86 59 53 60 37 61 38 62 46 63 39 64 45 65
REMARK SMILES IDX 47 66 44 67 40 68 41 69 42 70 43 71 69 72 70 73 78 74 71 75
REMARK SMILES IDX 77 76 79 77 76 78 72 79 73 80 74 81 75 82 54 83 55 84 63 85
REMARK SMILES IDX 56 86 62 87 64 88 61 89 57 90 58 91 59 92 60 93
REMARK H PARENT 7 14 84 46 52 57
REMARK Flexibility Score: inf
ROOT
ATOM      1  O   UNL A   1      34.905  20.310  24.638  1.00  0.00    -0.374 OA
ENDROOT
BRANCH   1   2
ATOM      2  C   UNL A   1      33.624  20.186  25.240  1.00  0.00     0.202 C 
BRANCH   2   3
ATOM      3  C   UNL A   1      32.405  20.880  24.628  1.00  0.00     0.261 C 
BRANCH   3   4
ATOM      4  O   UNL A   1      32.266  22.270  24.910  1.00  0.00    -0.463 OA
BRANCH   4   5
ATOM      5  C   UNL A   1      32.700  23.245  24.085  1.00  0.00     0.306 C 
ATOM      6  O   UNL A   1      33.421  22.949  23.132  1.00  0.00    -0.252 OA
BRANCH   5   7
ATOM      7  C   UNL A   1      32.407  24.694  24.406  1.00  0.00     0.126 C 
BRANCH   7   8
ATOM      8  C   UNL A   1      32.863  25.261  25.758  1.00  0.00     0.011 C 
ATOM      9  C   UNL A   1      31.716  25.921  26.516  1.00  0.00     0.066 C 
ATOM     10  C   UNL A   1      33.952  26.322  25.578  1.00  0.00     0.066 C 
ATOM     11  C   UNL A   1      31.136  27.076  25.698  1.00  0.00     0.262 C 
ATOM     12  C   UNL A   1      33.436  27.514  24.779  1.00  0.00     0.262 C 
ATOM     13  N   UNL A   1      32.131  28.021  25.194  1.00  0.00    -0.334 N 
ATOM     14  H   UNL A   1      32.385  28.476  26.070  1.00  0.00     0.348 HD
BRANCH  13  15
ATOM     15  C   UNL A   1      31.590  29.078  24.320  1.00  0.00     0.270 C 
BRANCH  15  16
ATOM     16  C   UNL A   1      30.127  29.068  23.815  1.00  0.00     0.079 C 
ATOM     17  C   UNL A   1      29.700  28.566  22.382  1.00  0.00     0.050 C 
ATOM     18  C   UNL A   1      29.435  30.361  23.449  1.00  0.00    -0.036 A 
ATOM     19  C   UNL A   1      29.151  29.947  22.169  1.00  0.00    -0.043 A 
ATOM     20  C   UNL A   1      29.065  31.609  23.901  1.00  0.00     0.004 A 
ATOM     21  C   UNL A   1      28.547  30.773  21.247  1.00  0.00     0.004 A 
ATOM     22  C   UNL A   1      28.454  32.474  22.987  1.00  0.00     0.000 A 
ATOM     23  C   UNL A   1      28.206  32.061  21.664  1.00  0.00     0.000 A 
ENDBRANCH  15  16
ENDBRANCH  13  15
ENDBRANCH   7   8
ENDBRANCH   5   7
ENDBRANCH   4   5
ENDBRANCH   3   4
ENDBRANCH   2   3
ENDBRANCH   1   2
BRANCH   1  24
ATOM     24  C   UNL A   1      35.900  21.076  25.328  1.00  0.00     0.202 C 
BRANCH  24  25
ATOM     25  C   UNL A   1      37.360  20.743  25.021  1.00  0.00     0.261 C 
BRANCH  25  26
ATOM     26  O   UNL A   1      38.224  21.822  25.393  1.00  0.00    -0.460 OA
BRANCH  26  27
ATOM     27  C   UNL A   1      39.315  21.467  26.113  1.00  0.00     0.338 C 
ATOM     28  O   UNL A   1      39.935  20.418  26.046  1.00  0.00    -0.246 OA
BRANCH  27  29
ATOM     29  C   UNL A   1      39.805  22.676  26.802  1.00  0.00     0.060 A 
ATOM     30  C   UNL A   1      39.193  23.905  26.509  1.00  0.00     0.016 A 
ATOM     31  C   UNL A   1      40.821  22.590  27.753  1.00  0.00     0.016 A 
ATOM     32  C   UNL A   1      39.627  25.068  27.138  1.00  0.00     0.010 A 
ATOM     33  C   UNL A   1      41.270  23.754  28.366  1.00  0.00     0.010 A 
ATOM     34  C   UNL A   1      40.701  24.996  28.029  1.00  0.00    -0.014 A 
BRANCH  34  35
ATOM     35  C   UNL A   1      41.422  26.219  28.430  1.00  0.00     0.031 A 
ATOM     36  C   UNL A   1      40.620  27.301  29.089  1.00  0.00     0.074 A 
ATOM     37  C   UNL A   1      42.721  26.384  28.145  1.00  0.00     0.049 A 
ATOM     38  N   UNL A   1      40.935  28.544  29.329  1.00  0.00    -0.248 NA
ATOM     39  C   UNL A   1      39.257  26.928  29.500  1.00  0.00     0.031 C 
ATOM     40  C   UNL A   1      43.589  25.372  27.546  1.00  0.00     0.029 A 
ATOM     41  N   UNL A   1      43.523  27.485  28.284  1.00  0.00    -0.354 N 
ATOM     42  C   UNL A   1      39.795  29.114  29.888  1.00  0.00     0.074 A 
ATOM     43  C   UNL A   1      38.777  28.087  29.914  1.00  0.00     0.031 C 
ATOM     44  C   UNL A   1      44.799  25.916  27.329  1.00  0.00     0.029 A 
ATOM     45  C   UNL A   1      44.766  27.325  27.721  1.00  0.00     0.049 A 
ATOM     46  H   UNL A   1      43.239  28.310  28.741  1.00  0.00     0.167 HD
ATOM     47  C   UNL A   1      39.623  30.382  30.332  1.00  0.00     0.034 A 
ATOM     48  C   UNL A   1      45.738  28.230  27.495  1.00  0.00     0.034 A 
ATOM     49  C   UNL A   1      40.661  31.381  30.263  1.00  0.00     0.049 A 
ATOM     50  C   UNL A   1      45.511  29.659  27.926  1.00  0.00     0.074 A 
ATOM     51  C   UNL A   1      40.630  32.691  30.703  1.00  0.00     0.029 A 
ATOM     52  N   UNL A   1      41.915  31.182  29.693  1.00  0.00    -0.354 N 
ATOM     53  N   UNL A   1      44.440  30.199  28.465  1.00  0.00    -0.248 NA
ATOM     54  C   UNL A   1      46.621  30.596  27.723  1.00  0.00     0.031 C 
ATOM     55  C   UNL A   1      41.825  33.307  30.320  1.00  0.00     0.029 A 
ATOM     56  C   UNL A   1      42.649  32.356  29.734  1.00  0.00     0.049 A 
ATOM     57  H   UNL A   1      42.234  30.331  29.315  1.00  0.00     0.167 HD
ATOM     58  C   UNL A   1      44.762  31.533  28.700  1.00  0.00     0.074 A 
ATOM     59  C   UNL A   1      46.125  31.713  28.240  1.00  0.00     0.031 C 
ATOM     60  C   UNL A   1      44.008  32.514  29.261  1.00  0.00     0.034 A 
BRANCH  47  61
ATOM     61  C   UNL A   1      38.252  30.753  30.844  1.00  0.00     0.023 A 
ATOM     62  C   UNL A   1      37.258  31.280  29.997  1.00  0.00     0.031 A 
ATOM     63  C   UNL A   1      37.957  30.661  32.216  1.00  0.00     0.131 A 
ATOM     64  C   UNL A   1      36.073  31.796  30.543  1.00  0.00     0.055 A 
ATOM     65  C   UNL A   1      36.732  31.080  32.738  1.00  0.00     0.041 A 
ATOM     66  F   UNL A   1      38.870  30.194  33.083  1.00  0.00    -0.206 F 
ATOM     67  C   UNL A   1      35.790  31.674  31.904  1.00  0.00     0.022 A 
BRANCH  64  68
ATOM     68  S   UNL A   1      35.007  32.812  29.482  1.00  0.00     0.124 S 
ATOM     69  O   UNL A   1      34.119  33.432  30.463  1.00  0.00    -0.237 OA
ATOM     70  O   UNL A   1      35.964  33.704  28.835  1.00  0.00    -0.237 OA
ATOM     71  O   UNL A   1      34.368  31.836  28.604  1.00  0.00    -0.744 OA
ENDBRANCH  64  68
ENDBRANCH  47  61
BRANCH  48  72
ATOM     72  C   UNL A   1      46.980  27.816  26.787  1.00  0.00     0.023 A 
ATOM     73  C   UNL A   1      47.079  27.882  25.390  1.00  0.00     0.031 A 
ATOM     74  C   UNL A   1      48.102  27.366  27.509  1.00  0.00     0.131 A 
ATOM     75  C   UNL A   1      48.266  27.485  24.755  1.00  0.00     0.055 A 
ATOM     76  C   UNL A   1      49.296  27.017  26.877  1.00  0.00     0.041 A 
ATOM     77  F   UNL A   1      48.060  27.289  28.849  1.00  0.00    -0.206 F 
ATOM     78  C   UNL A   1      49.380  27.071  25.489  1.00  0.00     0.022 A 
BRANCH  75  79
ATOM     79  S   UNL A   1      48.321  27.476  22.942  1.00  0.00     0.124 S 
ATOM     80  O   UNL A   1      48.263  26.048  22.651  1.00  0.00    -0.237 OA
ATOM     81  O   UNL A   1      47.134  28.251  22.599  1.00  0.00    -0.237 OA
ATOM     82  O   UNL A   1      49.595  28.125  22.637  1.00  0.00    -0.744 OA
ENDBRANCH  75  79
ENDBRANCH  48  72
BRANCH  60  83
ATOM     83  C   UNL A   1      44.663  33.858  29.475  1.00  0.00     0.023 A 
ATOM     84  C   UNL A   1      44.599  34.886  28.520  1.00  0.00     0.031 A 
ATOM     85  C   UNL A   1      45.336  34.118  30.684  1.00  0.00     0.131 A 
ATOM     86  C   UNL A   1      45.232  36.113  28.775  1.00  0.00     0.055 A 
ATOM     87  C   UNL A   1      45.906  35.360  30.957  1.00  0.00     0.041 A 
ATOM     88  F   UNL A   1      45.432  33.170  31.629  1.00  0.00    -0.206 F 
ATOM     89  C   UNL A   1      45.864  36.364  29.995  1.00  0.00     0.022 A 
BRANCH  86  90
ATOM     90  S   UNL A   1      45.288  37.359  27.457  1.00  0.00     0.124 S 
ATOM     91  O   UNL A   1      46.119  36.699  26.455  1.00  0.00    -0.237 OA
ATOM     92  O   UNL A   1      43.878  37.516  27.114  1.00  0.00    -0.237 OA
ATOM     93  O   UNL A   1      45.901  38.516  28.105  1.00  0.00    -0.744 OA
ENDBRANCH  86  90
ENDBRANCH  60  83
ENDBRANCH  34  35
ENDBRANCH  27  29
ENDBRANCH  26  27
ENDBRANCH  25  26
ENDBRANCH  24  25
ENDBRANCH   1  24
TORSDOF 20
ENDMDL
MODEL 2
REMARK VINA RESULT:     -11.7      4.962     10.593
REMARK SMILES O=C(CC1CC[NH+](C[C@@H]2Cc3ccccc32)CC1)OCCOCCOC(=O)c1ccc(-c2c3nc(c(-c4cc(S(=O)(=O)[O-])ccc4F)c4ccc([nH]4)c(-c4cc(S(=O)(=O)[O-])ccc4F)c4nc(c(-c5cc(S(=O)(=O)[O-])ccc5F)c5ccc2[nH]5)C=C4)C=C3)cc1
REMARK SMILES IDX 22 1 21 2 20 3 19 4 2 5 1 6 3 7 4 8 5 9 18 10 6 11 17 12
REMARK SMILES IDX 7 13 8 15 9 16 10 17 16 18 11 19 15 20 12 21 14 22 13 23
REMARK SMILES IDX 23 24 24 25 25 26 26 27 27 28 28 29 29 30 90 31 30 32 89 33
REMARK SMILES IDX 31 34 32 35 33 36 83 37 34 38 88 39 82 40 84 41 35 42 87 43
REMARK SMILES IDX 81 44 80 45 36 47 68 48 48 49 67 50 49 51 52 52 66 53 85 54
REMARK SMILES IDX 50 55 51 56 65 58 86 59 53 60 37 61 38 62 46 63 39 64 45 65
REMARK SMILES IDX 47 66 44 67 40 68 41 69 42 70 43 71 69 72 70 73 78 74 71 75
REMARK SMILES IDX 77 76 79 77 76 78 72 79 73 80 74 81 75 82 54 83 55 84 63 85
REMARK SMILES IDX 56 86 62 87 64 88 61 89 57 90 58 91 59 92 60 93
REMARK H PARENT 7 14 84 46 52 57
REMARK Flexibility Score: inf
ROOT
ATOM      1  O   UNL A   1      30.432  29.711  24.173  1.00  0.00    -0.374 OA
ENDROOT
BRANCH   1   2
ATOM      2  C   UNL A   1      30.069  28.471  23.581  1.00  0.00     0.202 C 
BRANCH   2   3
ATOM      3  C   UNL A   1      30.991  27.255  23.691  1.00  0.00     0.261 C 
BRANCH   3   4
ATOM      4  O   UNL A   1      30.353  25.981  23.686  1.00  0.00    -0.463 OA
BRANCH   4   5
ATOM      5  C   UNL A   1      31.002  24.822  23.918  1.00  0.00     0.306 C 
ATOM      6  O   UNL A   1      30.547  23.775  23.457  1.00  0.00    -0.252 OA
BRANCH   5   7
ATOM      7  C   UNL A   1      32.202  24.797  24.840  1.00  0.00     0.126 C 
BRANCH   7   8
ATOM      8  C   UNL A   1      33.584  25.146  24.268  1.00  0.00     0.011 C 
ATOM      9  C   UNL A   1      33.940  24.279  23.066  1.00  0.00     0.066 C 
ATOM     10  C   UNL A   1      34.685  24.942  25.311  1.00  0.00     0.066 C 
ATOM     11  C   UNL A   1      33.961  22.803  23.466  1.00  0.00     0.262 C 
ATOM     12  C   UNL A   1      34.771  23.484  25.747  1.00  0.00     0.262 C 
ATOM     13  N   UNL A   1      34.751  22.509  24.659  1.00  0.00    -0.334 N 
ATOM     14  H   UNL A   1      35.685  22.648  24.276  1.00  0.00     0.348 HD
BRANCH  13  15
ATOM     15  C   UNL A   1      34.691  21.106  25.109  1.00  0.00     0.270 C 
BRANCH  15  16
ATOM     16  C   UNL A   1      33.727  20.074  24.477  1.00  0.00     0.079 C 
ATOM     17  C   UNL A   1      32.317  19.708  25.085  1.00  0.00     0.050 C 
ATOM     18  C   UNL A   1      34.025  18.595  24.563  1.00  0.00    -0.036 A 
ATOM     19  C   UNL A   1      32.832  18.301  25.178  1.00  0.00    -0.043 A 
ATOM     20  C   UNL A   1      34.950  17.613  24.279  1.00  0.00     0.004 A 
ATOM     21  C   UNL A   1      32.521  17.030  25.609  1.00  0.00     0.004 A 
ATOM     22  C   UNL A   1      34.666  16.312  24.708  1.00  0.00     0.000 A 
ATOM     23  C   UNL A   1      33.462  16.025  25.378  1.00  0.00     0.000 A 
ENDBRANCH  15  16
ENDBRANCH  13  15
ENDBRANCH   7   8
ENDBRANCH   5   7
ENDBRANCH   4   5
ENDBRANCH   3   4
ENDBRANCH   2   3
ENDBRANCH   1   2
BRANCH   1  24
ATOM     24  C   UNL A   1      31.551  29.725  25.068  1.00  0.00     0.202 C 
BRANCH  24  25
ATOM     25  C   UNL A   1      31.578  30.836  26.118  1.00  0.00     0.261 C 
BRANCH  25  26
ATOM     26  O   UNL A   1      32.689  30.679  27.005  1.00  0.00    -0.460 OA
BRANCH  26  27
ATOM     27  C   UNL A   1      33.294  31.831  27.384  1.00  0.00     0.338 C 
ATOM     28  O   UNL A   1      32.768  32.918  27.555  1.00  0.00    -0.246 OA
BRANCH  27  29
ATOM     29  C   UNL A   1      34.658  31.490  27.832  1.00  0.00     0.060 A 
ATOM     30  C   UNL A   1      34.958  30.144  28.094  1.00  0.00     0.016 A 
ATOM     31  C   UNL A   1      35.636  32.477  27.948  1.00  0.00     0.016 A 
ATOM     32  C   UNL A   1      36.232  29.783  28.518  1.00  0.00     0.010 A 
ATOM     33  C   UNL A   1      36.904  32.121  28.392  1.00  0.00     0.010 A 
ATOM     34  C   UNL A   1      37.189  30.782  28.715  1.00  0.00    -0.014 A 
BRANCH  34  35
ATOM     35  C   UNL A   1      38.409  30.504  29.497  1.00  0.00     0.031 A 
ATOM     36  C   UNL A   1      39.375  29.509  28.927  1.00  0.00     0.074 A 
ATOM     37  C   UNL A   1      38.604  31.059  30.701  1.00  0.00     0.049 A 
ATOM     38  N   UNL A   1      40.389  28.912  29.492  1.00  0.00    -0.248 NA
ATOM     39  C   UNL A   1      39.134  29.109  27.531  1.00  0.00     0.031 C 
ATOM     40  C   UNL A   1      37.741  32.067  31.314  1.00  0.00     0.029 A 
ATOM     41  N   UNL A   1      39.570  30.817  31.640  1.00  0.00    -0.354 N 
ATOM     42  C   UNL A   1      40.886  28.038  28.531  1.00  0.00     0.074 A 
ATOM     43  C   UNL A   1      40.039  28.161  27.366  1.00  0.00     0.031 C 
ATOM     44  C   UNL A   1      38.196  32.328  32.552  1.00  0.00     0.029 A 
ATOM     45  C   UNL A   1      39.343  31.463  32.831  1.00  0.00     0.049 A 
ATOM     46  H   UNL A   1      40.351  30.238  31.479  1.00  0.00     0.167 HD
ATOM     47  C   UNL A   1      41.954  27.209  28.624  1.00  0.00     0.034 A 
ATOM     48  C   UNL A   1      39.955  31.323  34.023  1.00  0.00     0.034 A 
ATOM     49  C   UNL A   1      42.757  27.101  29.817  1.00  0.00     0.049 A 
ATOM     50  C   UNL A   1      41.096  30.343  34.140  1.00  0.00     0.074 A 
ATOM     51  C   UNL A   1      43.880  26.326  30.035  1.00  0.00     0.029 A 
ATOM     52  N   UNL A   1      42.504  27.779  31.007  1.00  0.00    -0.354 N 
ATOM     53  N   UNL A   1      41.578  29.523  33.231  1.00  0.00    -0.248 NA
ATOM     54  C   UNL A   1      41.778  30.271  35.437  1.00  0.00     0.031 C 
ATOM     55  C   UNL A   1      44.250  26.464  31.377  1.00  0.00     0.029 A 
ATOM     56  C   UNL A   1      43.424  27.407  31.972  1.00  0.00     0.049 A 
ATOM     57  H   UNL A   1      41.776  28.428  31.142  1.00  0.00     0.167 HD
ATOM     58  C   UNL A   1      42.645  28.865  33.837  1.00  0.00     0.074 A 
ATOM     59  C   UNL A   1      42.731  29.382  35.189  1.00  0.00     0.031 C 
ATOM     60  C   UNL A   1      43.487  27.932  33.319  1.00  0.00     0.034 A 
BRANCH  47  61
ATOM     61  C   UNL A   1      42.240  26.317  27.439  1.00  0.00     0.023 A 
ATOM     62  C   UNL A   1      41.727  25.010  27.350  1.00  0.00     0.031 A 
ATOM     63  C   UNL A   1      43.109  26.747  26.421  1.00  0.00     0.131 A 
ATOM     64  C   UNL A   1      42.176  24.148  26.337  1.00  0.00     0.055 A 
ATOM     65  C   UNL A   1      43.469  25.918  25.357  1.00  0.00     0.041 A 
ATOM     66  F   UNL A   1      43.657  27.973  26.460  1.00  0.00    -0.206 F 
ATOM     67  C   UNL A   1      43.020  24.601  25.323  1.00  0.00     0.022 A 
BRANCH  64  68
ATOM     68  S   UNL A   1      41.804  22.377  26.486  1.00  0.00     0.124 S 
ATOM     69  O   UNL A   1      42.585  21.819  25.383  1.00  0.00    -0.237 OA
ATOM     70  O   UNL A   1      42.283  22.066  27.828  1.00  0.00    -0.237 OA
ATOM     71  O   UNL A   1      40.356  22.315  26.307  1.00  0.00    -0.744 OA
ENDBRANCH  64  68
ENDBRANCH  47  61
BRANCH  48  72
ATOM     72  C   UNL A   1      39.463  32.093  35.199  1.00  0.00     0.023 A 
ATOM     73  C   UNL A   1      39.896  33.403  35.445  1.00  0.00     0.031 A 
ATOM     74  C   UNL A   1      38.529  31.527  36.087  1.00  0.00     0.131 A 
ATOM     75  C   UNL A   1      39.411  34.100  36.562  1.00  0.00     0.055 A 
ATOM     76  C   UNL A   1      38.013  32.241  37.170  1.00  0.00     0.041 A 
ATOM     77  F   UNL A   1      38.079  30.276  35.893  1.00  0.00    -0.206 F 
ATOM     78  C   UNL A   1      38.459  33.536  37.415  1.00  0.00     0.022 A 
BRANCH  75  79
ATOM     79  S   UNL A   1      40.076  35.751  36.913  1.00  0.00     0.124 S 
ATOM     80  O   UNL A   1      39.609  36.510  35.757  1.00  0.00    -0.237 OA
ATOM     81  O   UNL A   1      39.443  36.069  38.188  1.00  0.00    -0.237 OA
ATOM     82  O   UNL A   1      41.519  35.530  36.974  1.00  0.00    -0.744 OA
ENDBRANCH  75  79
ENDBRANCH  48  72
BRANCH  60  83
ATOM     83  C   UNL A   1      44.623  27.460  34.195  1.00  0.00     0.023 A 
ATOM     84  C   UNL A   1      44.500  26.354  35.054  1.00  0.00     0.031 A 
ATOM     85  C   UNL A   1      45.866  28.116  34.134  1.00  0.00     0.131 A 
ATOM     86  C   UNL A   1      45.592  25.965  35.846  1.00  0.00     0.055 A 
ATOM     87  C   UNL A   1      46.965  27.684  34.875  1.00  0.00     0.041 A 
ATOM     88  F   UNL A   1      46.038  29.180  33.334  1.00  0.00    -0.206 F 
ATOM     89  C   UNL A   1      46.828  26.607  35.745  1.00  0.00     0.022 A 
BRANCH  86  90
ATOM     90  S   UNL A   1      45.355  24.651  37.075  1.00  0.00     0.124 S 
ATOM     91  O   UNL A   1      46.497  24.857  37.960  1.00  0.00    -0.237 OA
ATOM     92  O   UNL A   1      44.047  24.977  37.635  1.00  0.00    -0.237 OA
ATOM     93  O   UNL A   1      45.401  23.425  36.280  1.00  0.00    -0.744 OA
ENDBRANCH  86  90
ENDBRANCH  60  83
ENDBRANCH  34  35
ENDBRANCH  27  29
ENDBRANCH  26  27
ENDBRANCH  25  26
ENDBRANCH  24  25
ENDBRANCH   1  24
TORSDOF 20
ENDMDL
MODEL 3
REMARK VINA RESULT:     -11.5      4.886      8.460
REMARK SMILES O=C(CC1CC[NH+](C[C@@H]2Cc3ccccc32)CC1)OCCOCCOC(=O)c1ccc(-c2c3nc(c(-c4cc(S(=O)(=O)[O-])ccc4F)c4ccc([nH]4)c(-c4cc(S(=O)(=O)[O-])ccc4F)c4nc(c(-c5cc(S(=O)(=O)[O-])ccc5F)c5ccc2[nH]5)C=C4)C=C3)cc1
REMARK SMILES IDX 22 1 21 2 20 3 19 4 2 5 1 6 3 7 4 8 5 9 18 10 6 11 17 12
REMARK SMILES IDX 7 13 8 15 9 16 10 17 16 18 11 19 15 20 12 21 14 22 13 23
REMARK SMILES IDX 23 24 24 25 25 26 26 27 27 28 28 29 29 30 90 31 30 32 89 33
REMARK SMILES IDX 31 34 32 35 33 36 83 37 34 38 88 39 82 40 84 41 35 42 87 43
REMARK SMILES IDX 81 44 80 45 36 47 68 48 48 49 67 50 49 51 52 52 66 53 85 54
REMARK SMILES IDX 50 55 51 56 65 58 86 59 53 60 37 61 38 62 46 63 39 64 45 65
REMARK SMILES IDX 47 66 44 67 40 68 41 69 42 70 43 71 69 72 70 73 78 74 71 75
REMARK SMILES IDX 77 76 79 77 76 78 72 79 73 80 74 81 75 82 54 83 55 84 63 85
REMARK SMILES IDX 56 86 62 87 64 88 61 89 57 90 58 91 59 92 60 93
REMARK H PARENT 7 14 84 46 52 57
REMARK Flexibility Score: inf
ROOT
ATOM      1  O   UNL A   1      31.847  30.399  26.409  1.00  0.00    -0.374 OA
ENDROOT
BRANCH   1   2
ATOM      2  C   UNL A   1      31.815  29.392  25.408  1.00  0.00     0.202 C 
BRANCH   2   3
ATOM      3  C   UNL A   1      32.908  29.322  24.338  1.00  0.00     0.261 C 
BRANCH   3   4
ATOM      4  O   UNL A   1      33.623  28.093  24.251  1.00  0.00    -0.463 OA
BRANCH   4   5
ATOM      5  C   UNL A   1      33.397  27.166  23.298  1.00  0.00     0.306 C 
ATOM      6  O   UNL A   1      33.632  27.443  22.122  1.00  0.00    -0.252 OA
BRANCH   5   7
ATOM      7  C   UNL A   1      32.743  25.850  23.662  1.00  0.00     0.126 C 
BRANCH   7   8
ATOM      8  C   UNL A   1      31.224  25.811  23.878  1.00  0.00     0.011 C 
ATOM      9  C   UNL A   1      30.861  25.651  25.350  1.00  0.00     0.066 C 
ATOM     10  C   UNL A   1      30.585  24.640  23.127  1.00  0.00     0.066 C 
ATOM     11  C   UNL A   1      31.442  24.348  25.900  1.00  0.00     0.262 C 
ATOM     12  C   UNL A   1      31.112  23.303  23.637  1.00  0.00     0.262 C 
ATOM     13  N   UNL A   1      31.156  23.166  25.090  1.00  0.00    -0.334 N 
ATOM     14  H   UNL A   1      30.161  23.066  25.291  1.00  0.00     0.348 HD
BRANCH  13  15
ATOM     15  C   UNL A   1      31.799  21.925  25.559  1.00  0.00     0.270 C 
BRANCH  15  16
ATOM     16  C   UNL A   1      32.817  21.142  24.696  1.00  0.00     0.079 C 
ATOM     17  C   UNL A   1      33.619  19.886  25.213  1.00  0.00     0.050 C 
ATOM     18  C   UNL A   1      34.169  21.738  24.379  1.00  0.00    -0.036 A 
ATOM     19  C   UNL A   1      34.859  20.679  24.918  1.00  0.00    -0.043 A 
ATOM     20  C   UNL A   1      34.824  22.817  23.824  1.00  0.00     0.004 A 
ATOM     21  C   UNL A   1      36.234  20.663  25.001  1.00  0.00     0.004 A 
ATOM     22  C   UNL A   1      36.221  22.833  23.897  1.00  0.00     0.000 A 
ATOM     23  C   UNL A   1      36.921  21.766  24.491  1.00  0.00     0.000 A 
ENDBRANCH  15  16
ENDBRANCH  13  15
ENDBRANCH   7   8
ENDBRANCH   5   7
ENDBRANCH   4   5
ENDBRANCH   3   4
ENDBRANCH   2   3
ENDBRANCH   1   2
BRANCH   1  24
ATOM     24  C   UNL A   1      31.159  31.629  26.147  1.00  0.00     0.202 C 
BRANCH  24  25
ATOM     25  C   UNL A   1      31.776  32.900  26.732  1.00  0.00     0.261 C 
BRANCH  25  26
ATOM     26  O   UNL A   1      32.748  32.588  27.734  1.00  0.00    -0.460 OA
BRANCH  26  27
ATOM     27  C   UNL A   1      33.856  33.367  27.727  1.00  0.00     0.338 C 
ATOM     28  O   UNL A   1      33.905  34.580  27.598  1.00  0.00    -0.246 OA
BRANCH  27  29
ATOM     29  C   UNL A   1      34.987  32.537  28.186  1.00  0.00     0.060 A 
ATOM     30  C   UNL A   1      34.775  31.160  28.362  1.00  0.00     0.016 A 
ATOM     31  C   UNL A   1      36.245  33.101  28.393  1.00  0.00     0.016 A 
ATOM     32  C   UNL A   1      35.816  30.344  28.793  1.00  0.00     0.010 A 
ATOM     33  C   UNL A   1      37.280  32.291  28.844  1.00  0.00     0.010 A 
ATOM     34  C   UNL A   1      37.055  30.922  29.083  1.00  0.00    -0.014 A 
BRANCH  34  35
ATOM     35  C   UNL A   1      38.057  30.184  29.875  1.00  0.00     0.031 A 
ATOM     36  C   UNL A   1      38.244  30.603  31.303  1.00  0.00     0.074 A 
ATOM     37  C   UNL A   1      38.820  29.234  29.318  1.00  0.00     0.049 A 
ATOM     38  N   UNL A   1      39.192  30.297  32.145  1.00  0.00    -0.248 NA
ATOM     39  C   UNL A   1      37.232  31.528  31.837  1.00  0.00     0.031 C 
ATOM     40  C   UNL A   1      38.680  28.733  27.952  1.00  0.00     0.029 A 
ATOM     41  N   UNL A   1      39.896  28.554  29.825  1.00  0.00    -0.354 N 
ATOM     42  C   UNL A   1      38.911  31.020  33.299  1.00  0.00     0.074 A 
ATOM     43  C   UNL A   1      37.726  31.804  33.031  1.00  0.00     0.031 C 
ATOM     44  C   UNL A   1      39.666  27.851  27.714  1.00  0.00     0.029 A 
ATOM     45  C   UNL A   1      40.532  27.774  28.890  1.00  0.00     0.049 A 
ATOM     46  H   UNL A   1      40.184  28.618  30.764  1.00  0.00     0.167 HD
ATOM     47  C   UNL A   1      39.589  31.024  34.472  1.00  0.00     0.034 A 
ATOM     48  C   UNL A   1      41.710  27.123  28.963  1.00  0.00     0.034 A 
ATOM     49  C   UNL A   1      40.782  30.244  34.687  1.00  0.00     0.049 A 
ATOM     50  C   UNL A   1      42.498  27.193  30.248  1.00  0.00     0.074 A 
ATOM     51  C   UNL A   1      41.548  30.134  35.833  1.00  0.00     0.029 A 
ATOM     52  N   UNL A   1      41.397  29.454  33.720  1.00  0.00    -0.354 N 
ATOM     53  N   UNL A   1      42.229  27.865  31.346  1.00  0.00    -0.248 NA
ATOM     54  C   UNL A   1      43.740  26.415  30.307  1.00  0.00     0.031 C 
ATOM     55  C   UNL A   1      42.669  29.354  35.533  1.00  0.00     0.029 A 
ATOM     56  C   UNL A   1      42.553  28.888  34.231  1.00  0.00     0.049 A 
ATOM     57  H   UNL A   1      41.060  29.318  32.805  1.00  0.00     0.167 HD
ATOM     58  C   UNL A   1      43.253  27.561  32.240  1.00  0.00     0.074 A 
ATOM     59  C   UNL A   1      44.142  26.649  31.549  1.00  0.00     0.031 C 
ATOM     60  C   UNL A   1      43.431  27.984  33.519  1.00  0.00     0.034 A 
BRANCH  47  61
ATOM     61  C   UNL A   1      39.093  31.957  35.552  1.00  0.00     0.023 A 
ATOM     62  C   UNL A   1      39.516  33.296  35.632  1.00  0.00     0.031 A 
ATOM     63  C   UNL A   1      38.249  31.478  36.570  1.00  0.00     0.131 A 
ATOM     64  C   UNL A   1      39.191  34.069  36.758  1.00  0.00     0.055 A 
ATOM     65  C   UNL A   1      37.843  32.286  37.634  1.00  0.00     0.041 A 
ATOM     66  F   UNL A   1      37.831  30.202  36.570  1.00  0.00    -0.206 F 
ATOM     67  C   UNL A   1      38.334  33.583  37.746  1.00  0.00     0.022 A 
BRANCH  64  68
ATOM     68  S   UNL A   1      40.072  35.636  37.011  1.00  0.00     0.124 S 
ATOM     69  O   UNL A   1      39.545  36.064  38.305  1.00  0.00    -0.237 OA
ATOM     70  O   UNL A   1      41.469  35.217  36.998  1.00  0.00    -0.237 OA
ATOM     71  O   UNL A   1      39.652  36.452  35.875  1.00  0.00    -0.744 OA
ENDBRANCH  64  68
ENDBRANCH  47  61
BRANCH  48  72
ATOM     72  C   UNL A   1      42.227  26.400  27.769  1.00  0.00     0.023 A 
ATOM     73  C   UNL A   1      41.967  25.037  27.573  1.00  0.00     0.031 A 
ATOM     74  C   UNL A   1      42.977  27.078  26.789  1.00  0.00     0.131 A 
ATOM     75  C   UNL A   1      42.469  24.387  26.435  1.00  0.00     0.055 A 
ATOM     76  C   UNL A   1      43.433  26.439  25.635  1.00  0.00     0.041 A 
ATOM     77  F   UNL A   1      43.250  28.386  26.926  1.00  0.00    -0.206 F 
ATOM     78  C   UNL A   1      43.184  25.082  25.456  1.00  0.00     0.022 A 
BRANCH  75  79
ATOM     79  S   UNL A   1      42.209  22.599  26.269  1.00  0.00     0.124 S 
ATOM     80  O   UNL A   1      42.886  22.317  25.008  1.00  0.00    -0.237 OA
ATOM     81  O   UNL A   1      42.853  22.086  27.473  1.00  0.00    -0.237 OA
ATOM     82  O   UNL A   1      40.754  22.468  26.240  1.00  0.00    -0.744 OA
ENDBRANCH  75  79
ENDBRANCH  48  72
BRANCH  60  83
ATOM     83  C   UNL A   1      44.598  27.406  34.285  1.00  0.00     0.023 A 
ATOM     84  C   UNL A   1      44.510  26.191  34.984  1.00  0.00     0.031 A 
ATOM     85  C   UNL A   1      45.834  28.078  34.278  1.00  0.00     0.131 A 
ATOM     86  C   UNL A   1      45.629  25.706  35.680  1.00  0.00     0.055 A 
ATOM     87  C   UNL A   1      46.959  27.560  34.917  1.00  0.00     0.041 A 
ATOM     88  F   UNL A   1      45.973  29.246  33.630  1.00  0.00    -0.206 F 
ATOM     89  C   UNL A   1      46.858  26.370  35.632  1.00  0.00     0.022 A 
BRANCH  86  90
ATOM     90  S   UNL A   1      45.441  24.232  36.721  1.00  0.00     0.124 S 
ATOM     91  O   UNL A   1      45.220  24.819  38.038  1.00  0.00    -0.237 OA
ATOM     92  O   UNL A   1      44.291  23.567  36.117  1.00  0.00    -0.237 OA
ATOM     93  O   UNL A   1      46.715  23.534  36.560  1.00  0.00    -0.744 OA
ENDBRANCH  86  90
ENDBRANCH  60  83
ENDBRANCH  34  35
ENDBRANCH  27  29
ENDBRANCH  26  27
ENDBRANCH  25  26
ENDBRANCH  24  25
ENDBRANCH   1  24
TORSDOF 20
ENDMDL
