MODEL 1
REMARK VINA RESULT:     -10.2      0.000      0.000
REMARK SMILES CCN1C(=O)[C@H](CC(=O)Nc2ccc(C(=O)OCCOCCOC(=O)c3ccc(-c4c5nc(c(-c6cc(S(=O)(=O)[O-])ccc6F)c6ccc([nH]6)c(-c6cc(S(=O)(=O)[O-])ccc6F)c6nc(c(-c7cc(S(=O)(=O)[O-])ccc7F)c7ccc4[nH]7)C=C6)C=C5)cc3)cc2)S/C1=[NH+]\c1ccc(Cl)cc1
REMARK SMILES IDX 19 1 18 2 17 3 15 4 16 5 14 6 11 7 12 8 90 9 13 10 89 11
REMARK SMILES IDX 10 12 8 13 9 14 7 16 6 17 3 18 4 19 92 20 5 21 91 22 93 23
REMARK SMILES IDX 2 25 1 26 94 27 95 28 100 29 96 30 99 31 97 32 98 33 20 34
REMARK SMILES IDX 21 35 22 36 23 37 24 38 25 39 26 40 27 41 88 42 28 43 87 44
REMARK SMILES IDX 29 45 30 46 31 47 81 48 32 49 86 50 80 51 82 52 33 53 85 54
REMARK SMILES IDX 79 55 78 56 34 58 66 59 46 60 65 61 47 62 50 63 64 64 83 65
REMARK SMILES IDX 48 66 49 67 63 69 84 70 51 71 35 72 36 73 44 74 37 75 43 76
REMARK SMILES IDX 45 77 42 78 38 79 39 80 40 81 41 82 67 83 68 84 76 85 69 86
REMARK SMILES IDX 75 87 77 88 74 89 70 90 71 91 72 92 73 93 52 94 53 95 61 96
REMARK SMILES IDX 54 97 60 98 62 99 59 100 55 101 56 102 57 103 58 104
REMARK H PARENT 10 15 93 24 82 57 50 68
REMARK Flexibility Score: inf
ROOT
ATOM      1  C   UNL A   1      33.409  36.841  33.003  1.00  0.00     0.202 C 
ENDROOT
BRANCH   1   2
ATOM      2  C   UNL A   1      33.286  37.227  31.528  1.00  0.00     0.261 C 
BRANCH   2   3
ATOM      3  O   UNL A   1      33.006  36.062  30.732  1.00  0.00    -0.460 OA
BRANCH   3   4
ATOM      4  C   UNL A   1      33.225  36.163  29.400  1.00  0.00     0.338 C 
ATOM      5  O   UNL A   1      33.294  37.174  28.723  1.00  0.00    -0.246 OA
BRANCH   4   6
ATOM      6  C   UNL A   1      33.540  34.810  28.892  1.00  0.00     0.060 A 
ATOM      7  C   UNL A   1      34.018  32.122  28.195  1.00  0.00     0.041 A 
ATOM      8  C   UNL A   1      34.899  32.820  29.037  1.00  0.00     0.027 A 
ATOM      9  C   UNL A   1      32.947  32.820  27.642  1.00  0.00     0.027 A 
ATOM     10  C   UNL A   1      34.670  34.156  29.382  1.00  0.00     0.018 A 
ATOM     11  C   UNL A   1      32.698  34.153  27.995  1.00  0.00     0.018 A 
BRANCH   7  12
ATOM     12  N   UNL A   1      34.290  30.753  28.025  1.00  0.00    -0.326 N 
ATOM     13  C   UNL A   1      33.981  29.803  27.100  1.00  0.00     0.226 C 
ATOM     14  O   UNL A   1      34.378  28.652  27.315  1.00  0.00    -0.275 OA
ATOM     15  H   UNL A   1      34.840  30.391  28.757  1.00  0.00     0.169 HD
BRANCH  13  16
ATOM     16  C   UNL A   1      33.208  30.086  25.840  1.00  0.00     0.128 C 
BRANCH  16  17
ATOM     17  C   UNL A   1      31.876  29.352  25.710  1.00  0.00     0.183 C 
ATOM     18  N   UNL A   1      30.397  28.997  23.849  1.00  0.00    -0.190 N 
ATOM     19  C   UNL A   1      30.832  29.925  24.772  1.00  0.00     0.324 C 
ATOM     20  C   UNL A   1      30.974  27.755  23.866  1.00  0.00     0.319 C 
ATOM     21  O   UNL A   1      30.396  31.068  24.867  1.00  0.00    -0.245 OA
ATOM     22  S   UNL A   1      32.142  27.637  25.157  1.00  0.00    -0.022 SA
ATOM     23  N   UNL A   1      30.654  26.844  23.009  1.00  0.00    -0.235 N 
ATOM     24  H   UNL A   1      30.026  27.062  22.283  1.00  0.00     0.313 HD
BRANCH  18  25
ATOM     25  C   UNL A   1      29.315  29.331  22.933  1.00  0.00     0.243 C 
ATOM     26  C   UNL A   1      29.814  30.107  21.731  1.00  0.00     0.054 C 
ENDBRANCH  18  25
BRANCH  23  27
ATOM     27  C   UNL A   1      31.182  25.550  23.094  1.00  0.00     0.125 A 
ATOM     28  C   UNL A   1      32.299  25.190  22.336  1.00  0.00     0.053 A 
ATOM     29  C   UNL A   1      30.544  24.576  23.873  1.00  0.00     0.053 A 
ATOM     30  C   UNL A   1      32.807  23.889  22.400  1.00  0.00     0.025 A 
ATOM     31  C   UNL A   1      31.053  23.277  23.946  1.00  0.00     0.025 A 
ATOM     32  C   UNL A   1      32.190  22.943  23.218  1.00  0.00     0.041 A 
ATOM     33  Cl  UNL A   1      32.846  21.358  23.336  1.00  0.00    -0.084 Cl
ENDBRANCH  23  27
ENDBRANCH  16  17
ENDBRANCH  13  16
ENDBRANCH   7  12
ENDBRANCH   4   6
ENDBRANCH   3   4
ENDBRANCH   2   3
ENDBRANCH   1   2
BRANCH   1  34
ATOM     34  O   UNL A   1      34.712  36.338  33.308  1.00  0.00    -0.374 OA
BRANCH  34  35
ATOM     35  C   UNL A   1      34.767  34.935  33.566  1.00  0.00     0.202 C 
BRANCH  35  36
ATOM     36  C   UNL A   1      36.158  34.335  33.331  1.00  0.00     0.261 C 
BRANCH  36  37
ATOM     37  O   UNL A   1      36.212  32.954  33.734  1.00  0.00    -0.460 OA
BRANCH  37  38
ATOM     38  C   UNL A   1      36.013  32.052  32.741  1.00  0.00     0.338 C 
ATOM     39  O   UNL A   1      34.991  31.892  32.096  1.00  0.00    -0.246 OA
BRANCH  38  40
ATOM     40  C   UNL A   1      37.282  31.355  32.431  1.00  0.00     0.060 A 
ATOM     41  C   UNL A   1      37.505  30.116  33.040  1.00  0.00     0.016 A 
ATOM     42  C   UNL A   1      38.260  31.916  31.602  1.00  0.00     0.016 A 
ATOM     43  C   UNL A   1      38.716  29.448  32.853  1.00  0.00     0.010 A 
ATOM     44  C   UNL A   1      39.476  31.244  31.415  1.00  0.00     0.010 A 
ATOM     45  C   UNL A   1      39.722  30.020  32.062  1.00  0.00    -0.014 A 
BRANCH  45  46
ATOM     46  C   UNL A   1      41.070  29.395  32.016  1.00  0.00     0.031 A 
ATOM     47  C   UNL A   1      42.066  29.718  33.098  1.00  0.00     0.074 A 
ATOM     48  C   UNL A   1      41.397  28.533  31.037  1.00  0.00     0.049 A 
ATOM     49  N   UNL A   1      43.306  29.323  33.232  1.00  0.00    -0.248 NA
ATOM     50  C   UNL A   1      41.599  30.611  34.169  1.00  0.00     0.031 C 
ATOM     51  C   UNL A   1      40.514  28.113  29.948  1.00  0.00     0.029 A 
ATOM     52  N   UNL A   1      42.569  27.859  30.797  1.00  0.00    -0.354 N 
ATOM     53  C   UNL A   1      43.771  29.920  34.398  1.00  0.00     0.074 A 
ATOM     54  C   UNL A   1      42.688  30.733  34.911  1.00  0.00     0.031 C 
ATOM     55  C   UNL A   1      41.180  27.259  29.151  1.00  0.00     0.029 A 
ATOM     56  C   UNL A   1      42.545  27.098  29.651  1.00  0.00     0.049 A 
ATOM     57  H   UNL A   1      43.353  27.914  31.389  1.00  0.00     0.167 HD
ATOM     58  C   UNL A   1      44.985  29.797  34.991  1.00  0.00     0.034 A 
ATOM     59  C   UNL A   1      43.519  26.378  29.060  1.00  0.00     0.034 A 
ATOM     60  C   UNL A   1      46.062  28.991  34.468  1.00  0.00     0.049 A 
ATOM     61  C   UNL A   1      44.887  26.319  29.694  1.00  0.00     0.074 A 
ATOM     62  C   UNL A   1      47.322  28.782  35.004  1.00  0.00     0.029 A 
ATOM     63  N   UNL A   1      46.014  28.271  33.282  1.00  0.00    -0.354 N 
ATOM     64  N   UNL A   1      45.313  26.887  30.798  1.00  0.00    -0.248 NA
ATOM     65  C   UNL A   1      45.906  25.518  28.999  1.00  0.00     0.031 C 
ATOM     66  C   UNL A   1      48.056  27.994  34.110  1.00  0.00     0.029 A 
ATOM     67  C   UNL A   1      47.231  27.647  33.053  1.00  0.00     0.049 A 
ATOM     68  H   UNL A   1      45.230  28.211  32.690  1.00  0.00     0.167 HD
ATOM     69  C   UNL A   1      46.640  26.491  30.941  1.00  0.00     0.074 A 
ATOM     70  C   UNL A   1      46.942  25.629  29.818  1.00  0.00     0.031 C 
ATOM     71  C   UNL A   1      47.528  26.804  31.919  1.00  0.00     0.034 A 
BRANCH  58  72
ATOM     72  C   UNL A   1      45.225  30.597  36.248  1.00  0.00     0.023 A 
ATOM     73  C   UNL A   1      45.759  31.897  36.209  1.00  0.00     0.031 A 
ATOM     74  C   UNL A   1      44.938  30.040  37.507  1.00  0.00     0.131 A 
ATOM     75  C   UNL A   1      46.053  32.569  37.405  1.00  0.00     0.055 A 
ATOM     76  C   UNL A   1      45.161  30.744  38.692  1.00  0.00     0.041 A 
ATOM     77  F   UNL A   1      44.446  28.795  37.607  1.00  0.00    -0.206 F 
ATOM     78  C   UNL A   1      45.735  32.011  38.645  1.00  0.00     0.022 A 
BRANCH  75  79
ATOM     79  S   UNL A   1      46.983  34.124  37.322  1.00  0.00     0.124 S 
ATOM     80  O   UNL A   1      47.959  33.942  38.392  1.00  0.00    -0.237 OA
ATOM     81  O   UNL A   1      47.512  34.100  35.962  1.00  0.00    -0.237 OA
ATOM     82  O   UNL A   1      45.969  35.144  37.578  1.00  0.00    -0.744 OA
ENDBRANCH  75  79
ENDBRANCH  58  72
BRANCH  59  83
ATOM     83  C   UNL A   1      43.269  25.695  27.760  1.00  0.00     0.023 A 
ATOM     84  C   UNL A   1      42.712  24.408  27.709  1.00  0.00     0.031 A 
ATOM     85  C   UNL A   1      43.658  26.298  26.550  1.00  0.00     0.131 A 
ATOM     86  C   UNL A   1      42.603  23.743  26.478  1.00  0.00     0.055 A 
ATOM     87  C   UNL A   1      43.506  25.649  25.323  1.00  0.00     0.041 A 
ATOM     88  F   UNL A   1      44.196  27.527  26.545  1.00  0.00    -0.206 F 
ATOM     89  C   UNL A   1      42.984  24.360  25.283  1.00  0.00     0.022 A 
BRANCH  86  90
ATOM     90  S   UNL A   1      42.028  22.022  26.467  1.00  0.00     0.124 S 
ATOM     91  O   UNL A   1      42.447  21.563  27.786  1.00  0.00    -0.237 OA
ATOM     92  O   UNL A   1      40.590  22.184  26.271  1.00  0.00    -0.237 OA
ATOM     93  O   UNL A   1      42.745  21.429  25.341  1.00  0.00    -0.744 OA
ENDBRANCH  86  90
ENDBRANCH  59  83
BRANCH  71  94
ATOM     94  C   UNL A   1      48.896  26.174  31.837  1.00  0.00     0.023 A 
ATOM     95  C   UNL A   1      49.917  26.714  31.035  1.00  0.00     0.031 A 
ATOM     96  C   UNL A   1      49.181  25.009  32.572  1.00  0.00     0.131 A 
ATOM     97  C   UNL A   1      51.159  26.066  30.953  1.00  0.00     0.055 A 
ATOM     98  C   UNL A   1      50.434  24.397  32.527  1.00  0.00     0.041 A 
ATOM     99  F   UNL A   1      48.242  24.449  33.353  1.00  0.00    -0.206 F 
ATOM    100  C   UNL A   1      51.429  24.919  31.706  1.00  0.00     0.022 A 
BRANCH  97 101
ATOM    101  S   UNL A   1      52.402  26.698  29.792  1.00  0.00     0.124 S 
ATOM    102  O   UNL A   1      53.636  26.143  30.337  1.00  0.00    -0.237 OA
ATOM    103  O   UNL A   1      51.957  26.136  28.521  1.00  0.00    -0.237 OA
ATOM    104  O   UNL A   1      52.272  28.150  29.906  1.00  0.00    -0.744 OA
ENDBRANCH  97 101
ENDBRANCH  71  94
ENDBRANCH  45  46
ENDBRANCH  38  40
ENDBRANCH  37  38
ENDBRANCH  36  37
ENDBRANCH  35  36
ENDBRANCH  34  35
ENDBRANCH   1  34
TORSDOF 22
ENDMDL
MODEL 2
REMARK VINA RESULT:      -9.9      4.638      5.111
REMARK SMILES CCN1C(=O)[C@H](CC(=O)Nc2ccc(C(=O)OCCOCCOC(=O)c3ccc(-c4c5nc(c(-c6cc(S(=O)(=O)[O-])ccc6F)c6ccc([nH]6)c(-c6cc(S(=O)(=O)[O-])ccc6F)c6nc(c(-c7cc(S(=O)(=O)[O-])ccc7F)c7ccc4[nH]7)C=C6)C=C5)cc3)cc2)S/C1=[NH+]\c1ccc(Cl)cc1
REMARK SMILES IDX 19 1 18 2 17 3 15 4 16 5 14 6 11 7 12 8 90 9 13 10 89 11
REMARK SMILES IDX 10 12 8 13 9 14 7 16 6 17 3 18 4 19 92 20 5 21 91 22 93 23
REMARK SMILES IDX 2 25 1 26 94 27 95 28 100 29 96 30 99 31 97 32 98 33 20 34
REMARK SMILES IDX 21 35 22 36 23 37 24 38 25 39 26 40 27 41 88 42 28 43 87 44
REMARK SMILES IDX 29 45 30 46 31 47 81 48 32 49 86 50 80 51 82 52 33 53 85 54
REMARK SMILES IDX 79 55 78 56 34 58 66 59 46 60 65 61 47 62 50 63 64 64 83 65
REMARK SMILES IDX 48 66 49 67 63 69 84 70 51 71 35 72 36 73 44 74 37 75 43 76
REMARK SMILES IDX 45 77 42 78 38 79 39 80 40 81 41 82 67 83 68 84 76 85 69 86
REMARK SMILES IDX 75 87 77 88 74 89 70 90 71 91 72 92 73 93 52 94 53 95 61 96
REMARK SMILES IDX 54 97 60 98 62 99 59 100 55 101 56 102 57 103 58 104
REMARK H PARENT 10 15 93 24 82 57 50 68
REMARK Flexibility Score: inf
ROOT
ATOM      1  C   UNL A   1      33.370  36.930  33.017  1.00  0.00     0.202 C 
ENDROOT
BRANCH   1   2
ATOM      2  C   UNL A   1      33.591  37.119  31.514  1.00  0.00     0.261 C 
BRANCH   2   3
ATOM      3  O   UNL A   1      33.062  35.994  30.791  1.00  0.00    -0.460 OA
BRANCH   3   4
ATOM      4  C   UNL A   1      33.135  36.044  29.440  1.00  0.00     0.338 C 
ATOM      5  O   UNL A   1      33.101  37.027  28.721  1.00  0.00    -0.246 OA
BRANCH   4   6
ATOM      6  C   UNL A   1      33.438  34.680  28.954  1.00  0.00     0.060 A 
ATOM      7  C   UNL A   1      33.839  31.977  28.271  1.00  0.00     0.041 A 
ATOM      8  C   UNL A   1      34.611  32.595  29.269  1.00  0.00     0.027 A 
ATOM      9  C   UNL A   1      32.928  32.760  27.567  1.00  0.00     0.027 A 
ATOM     10  C   UNL A   1      34.420  33.938  29.608  1.00  0.00     0.018 A 
ATOM     11  C   UNL A   1      32.716  34.102  27.911  1.00  0.00     0.018 A 
BRANCH   7  12
ATOM     12  N   UNL A   1      34.040  30.594  28.110  1.00  0.00    -0.326 N 
ATOM     13  C   UNL A   1      33.747  29.669  27.156  1.00  0.00     0.226 C 
ATOM     14  O   UNL A   1      34.056  28.495  27.391  1.00  0.00    -0.275 OA
ATOM     15  H   UNL A   1      34.509  30.196  28.880  1.00  0.00     0.169 HD
BRANCH  13  16
ATOM     16  C   UNL A   1      33.093  30.004  25.843  1.00  0.00     0.128 C 
BRANCH  16  17
ATOM     17  C   UNL A   1      31.765  29.301  25.575  1.00  0.00     0.183 C 
ATOM     18  N   UNL A   1      30.454  29.020  23.579  1.00  0.00    -0.190 N 
ATOM     19  C   UNL A   1      30.821  29.917  24.561  1.00  0.00     0.324 C 
ATOM     20  C   UNL A   1      31.003  27.766  23.619  1.00  0.00     0.319 C 
ATOM     21  O   UNL A   1      30.401  31.067  24.644  1.00  0.00    -0.245 OA
ATOM     22  S   UNL A   1      32.047  27.594  25.006  1.00  0.00    -0.022 SA
ATOM     23  N   UNL A   1      30.745  26.881  22.714  1.00  0.00    -0.235 N 
ATOM     24  H   UNL A   1      30.190  27.130  21.939  1.00  0.00     0.313 HD
BRANCH  18  25
ATOM     25  C   UNL A   1      29.467  29.397  22.578  1.00  0.00     0.243 C 
ATOM     26  C   UNL A   1      28.070  28.958  22.971  1.00  0.00     0.054 C 
ENDBRANCH  18  25
BRANCH  23  27
ATOM     27  C   UNL A   1      31.238  25.575  22.815  1.00  0.00     0.125 A 
ATOM     28  C   UNL A   1      32.436  25.220  22.188  1.00  0.00     0.053 A 
ATOM     29  C   UNL A   1      30.494  24.586  23.471  1.00  0.00     0.053 A 
ATOM     30  C   UNL A   1      32.912  23.907  22.265  1.00  0.00     0.025 A 
ATOM     31  C   UNL A   1      30.969  23.276  23.557  1.00  0.00     0.025 A 
ATOM     32  C   UNL A   1      32.183  22.945  22.963  1.00  0.00     0.041 A 
ATOM     33  Cl  UNL A   1      32.794  21.345  23.102  1.00  0.00    -0.084 Cl
ENDBRANCH  23  27
ENDBRANCH  16  17
ENDBRANCH  13  16
ENDBRANCH   7  12
ENDBRANCH   4   6
ENDBRANCH   3   4
ENDBRANCH   2   3
ENDBRANCH   1   2
BRANCH   1  34
ATOM     34  O   UNL A   1      34.498  36.308  33.639  1.00  0.00    -0.374 OA
BRANCH  34  35
ATOM     35  C   UNL A   1      34.637  34.914  33.369  1.00  0.00     0.202 C 
BRANCH  35  36
ATOM     36  C   UNL A   1      36.051  34.527  32.921  1.00  0.00     0.261 C 
BRANCH  36  37
ATOM     37  O   UNL A   1      36.464  33.275  33.501  1.00  0.00    -0.460 OA
BRANCH  37  38
ATOM     38  C   UNL A   1      36.437  32.212  32.661  1.00  0.00     0.338 C 
ATOM     39  O   UNL A   1      35.451  31.588  32.306  1.00  0.00    -0.246 OA
BRANCH  38  40
ATOM     40  C   UNL A   1      37.787  31.979  32.098  1.00  0.00     0.060 A 
ATOM     41  C   UNL A   1      38.801  31.603  32.985  1.00  0.00     0.016 A 
ATOM     42  C   UNL A   1      38.075  32.168  30.742  1.00  0.00     0.016 A 
ATOM     43  C   UNL A   1      40.112  31.450  32.530  1.00  0.00     0.010 A 
ATOM     44  C   UNL A   1      39.391  32.014  30.287  1.00  0.00     0.010 A 
ATOM     45  C   UNL A   1      40.422  31.681  31.183  1.00  0.00    -0.014 A 
BRANCH  45  46
ATOM     46  C   UNL A   1      41.842  31.695  30.744  1.00  0.00     0.031 A 
ATOM     47  C   UNL A   1      42.611  32.989  30.788  1.00  0.00     0.074 A 
ATOM     48  C   UNL A   1      42.449  30.566  30.334  1.00  0.00     0.049 A 
ATOM     49  N   UNL A   1      43.841  33.239  30.415  1.00  0.00    -0.248 NA
ATOM     50  C   UNL A   1      41.893  34.156  31.321  1.00  0.00     0.031 C 
ATOM     51  C   UNL A   1      41.825  29.244  30.274  1.00  0.00     0.029 A 
ATOM     52  N   UNL A   1      43.728  30.355  29.882  1.00  0.00    -0.354 N 
ATOM     53  C   UNL A   1      44.044  34.592  30.662  1.00  0.00     0.074 A 
ATOM     54  C   UNL A   1      42.798  35.114  31.184  1.00  0.00     0.031 C 
ATOM     55  C   UNL A   1      42.722  28.361  29.802  1.00  0.00     0.029 A 
ATOM     56  C   UNL A   1      43.970  29.058  29.495  1.00  0.00     0.049 A 
ATOM     57  H   UNL A   1      44.408  31.065  29.840  1.00  0.00     0.167 HD
ATOM     58  C   UNL A   1      45.167  35.331  30.480  1.00  0.00     0.034 A 
ATOM     59  C   UNL A   1      45.062  28.503  28.931  1.00  0.00     0.034 A 
ATOM     60  C   UNL A   1      46.403  34.804  29.952  1.00  0.00     0.049 A 
ATOM     61  C   UNL A   1      46.275  29.360  28.663  1.00  0.00     0.074 A 
ATOM     62  C   UNL A   1      47.604  35.463  29.749  1.00  0.00     0.029 A 
ATOM     63  N   UNL A   1      46.595  33.496  29.529  1.00  0.00    -0.354 N 
ATOM     64  N   UNL A   1      46.454  30.639  28.904  1.00  0.00    -0.248 NA
ATOM     65  C   UNL A   1      47.433  28.697  28.046  1.00  0.00     0.031 C 
ATOM     66  C   UNL A   1      48.498  34.573  29.141  1.00  0.00     0.029 A 
ATOM     67  C   UNL A   1      47.882  33.338  29.036  1.00  0.00     0.049 A 
ATOM     68  H   UNL A   1      45.917  32.784  29.575  1.00  0.00     0.167 HD
ATOM     69  C   UNL A   1      47.754  30.923  28.491  1.00  0.00     0.074 A 
ATOM     70  C   UNL A   1      48.315  29.684  27.995  1.00  0.00     0.031 C 
ATOM     71  C   UNL A   1      48.426  32.101  28.526  1.00  0.00     0.034 A 
BRANCH  58  72
ATOM     72  C   UNL A   1      45.089  36.801  30.808  1.00  0.00     0.023 A 
ATOM     73  C   UNL A   1      44.714  37.756  29.847  1.00  0.00     0.031 A 
ATOM     74  C   UNL A   1      45.420  37.258  32.097  1.00  0.00     0.131 A 
ATOM     75  C   UNL A   1      44.744  39.122  30.169  1.00  0.00     0.055 A 
ATOM     76  C   UNL A   1      45.374  38.612  32.432  1.00  0.00     0.041 A 
ATOM     77  F   UNL A   1      45.806  36.394  33.048  1.00  0.00    -0.206 F 
ATOM     78  C   UNL A   1      45.048  39.554  31.461  1.00  0.00     0.022 A 
BRANCH  75  79
ATOM     79  S   UNL A   1      44.515  40.332  28.838  1.00  0.00     0.124 S 
ATOM     80  O   UNL A   1      45.596  41.277  29.107  1.00  0.00    -0.237 OA
ATOM     81  O   UNL A   1      44.665  39.514  27.640  1.00  0.00    -0.237 OA
ATOM     82  O   UNL A   1      43.170  40.851  29.075  1.00  0.00    -0.744 OA
ENDBRANCH  75  79
ENDBRANCH  58  72
BRANCH  59  83
ATOM     83  C   UNL A   1      45.055  27.071  28.521  1.00  0.00     0.023 A 
ATOM     84  C   UNL A   1      44.639  26.683  27.238  1.00  0.00     0.031 A 
ATOM     85  C   UNL A   1      45.395  26.063  29.441  1.00  0.00     0.131 A 
ATOM     86  C   UNL A   1      44.526  25.320  26.924  1.00  0.00     0.055 A 
ATOM     87  C   UNL A   1      45.324  24.710  29.109  1.00  0.00     0.041 A 
ATOM     88  F   UNL A   1      45.799  26.382  30.681  1.00  0.00    -0.206 F 
ATOM     89  C   UNL A   1      44.878  24.331  27.846  1.00  0.00     0.022 A 
BRANCH  86  90
ATOM     90  S   UNL A   1      43.833  24.854  25.313  1.00  0.00     0.124 S 
ATOM     91  O   UNL A   1      43.087  26.054  24.954  1.00  0.00    -0.237 OA
ATOM     92  O   UNL A   1      45.037  24.589  24.530  1.00  0.00    -0.237 OA
ATOM     93  O   UNL A   1      43.021  23.679  25.618  1.00  0.00    -0.744 OA
ENDBRANCH  86  90
ENDBRANCH  59  83
BRANCH  71  94
ATOM     94  C   UNL A   1      49.859  32.093  28.055  1.00  0.00     0.023 A 
ATOM     95  C   UNL A   1      50.220  32.514  26.763  1.00  0.00     0.031 A 
ATOM     96  C   UNL A   1      50.881  31.651  28.915  1.00  0.00     0.131 A 
ATOM     97  C   UNL A   1      51.560  32.443  26.352  1.00  0.00     0.055 A 
ATOM     98  C   UNL A   1      52.220  31.631  28.520  1.00  0.00     0.041 A 
ATOM     99  F   UNL A   1      50.593  31.236  30.160  1.00  0.00    -0.206 F 
ATOM    100  C   UNL A   1      52.564  32.019  27.228  1.00  0.00     0.022 A 
BRANCH  97 101
ATOM    101  S   UNL A   1      51.971  32.845  24.632  1.00  0.00     0.124 S 
ATOM    102  O   UNL A   1      53.380  33.210  24.734  1.00  0.00    -0.237 OA
ATOM    103  O   UNL A   1      51.687  31.591  23.941  1.00  0.00    -0.237 OA
ATOM    104  O   UNL A   1      51.067  33.948  24.310  1.00  0.00    -0.744 OA
ENDBRANCH  97 101
ENDBRANCH  71  94
ENDBRANCH  45  46
ENDBRANCH  38  40
ENDBRANCH  37  38
ENDBRANCH  36  37
ENDBRANCH  35  36
ENDBRANCH  34  35
ENDBRANCH   1  34
TORSDOF 22
ENDMDL
MODEL 3
REMARK VINA RESULT:      -9.8      3.661      5.200
REMARK SMILES CCN1C(=O)[C@H](CC(=O)Nc2ccc(C(=O)OCCOCCOC(=O)c3ccc(-c4c5nc(c(-c6cc(S(=O)(=O)[O-])ccc6F)c6ccc([nH]6)c(-c6cc(S(=O)(=O)[O-])ccc6F)c6nc(c(-c7cc(S(=O)(=O)[O-])ccc7F)c7ccc4[nH]7)C=C6)C=C5)cc3)cc2)S/C1=[NH+]\c1ccc(Cl)cc1
REMARK SMILES IDX 19 1 18 2 17 3 15 4 16 5 14 6 11 7 12 8 90 9 13 10 89 11
REMARK SMILES IDX 10 12 8 13 9 14 7 16 6 17 3 18 4 19 92 20 5 21 91 22 93 23
REMARK SMILES IDX 2 25 1 26 94 27 95 28 100 29 96 30 99 31 97 32 98 33 20 34
REMARK SMILES IDX 21 35 22 36 23 37 24 38 25 39 26 40 27 41 88 42 28 43 87 44
REMARK SMILES IDX 29 45 30 46 31 47 81 48 32 49 86 50 80 51 82 52 33 53 85 54
REMARK SMILES IDX 79 55 78 56 34 58 66 59 46 60 65 61 47 62 50 63 64 64 83 65
REMARK SMILES IDX 48 66 49 67 63 69 84 70 51 71 35 72 36 73 44 74 37 75 43 76
REMARK SMILES IDX 45 77 42 78 38 79 39 80 40 81 41 82 67 83 68 84 76 85 69 86
REMARK SMILES IDX 75 87 77 88 74 89 70 90 71 91 72 92 73 93 52 94 53 95 61 96
REMARK SMILES IDX 54 97 60 98 62 99 59 100 55 101 56 102 57 103 58 104
REMARK H PARENT 10 15 93 24 82 57 50 68
REMARK Flexibility Score: inf
ROOT
ATOM      1  C   UNL A   1      34.585  30.546  28.071  1.00  0.00     0.202 C 
ENDROOT
BRANCH   1   2
ATOM      2  C   UNL A   1      33.455  31.200  27.273  1.00  0.00     0.261 C 
BRANCH   2   3
ATOM      3  O   UNL A   1      32.433  30.233  26.977  1.00  0.00    -0.460 OA
BRANCH   3   4
ATOM      4  C   UNL A   1      31.601  30.515  25.947  1.00  0.00     0.338 C 
ATOM      5  O   UNL A   1      30.966  31.537  25.751  1.00  0.00    -0.246 OA
BRANCH   4   6
ATOM      6  C   UNL A   1      31.706  29.412  24.967  1.00  0.00     0.060 A 
ATOM      7  C   UNL A   1      32.104  27.171  23.307  1.00  0.00     0.041 A 
ATOM      8  C   UNL A   1      33.030  28.228  23.333  1.00  0.00     0.027 A 
ATOM      9  C   UNL A   1      30.940  27.300  24.060  1.00  0.00     0.027 A 
ATOM     10  C   UNL A   1      32.834  29.345  24.151  1.00  0.00     0.018 A 
ATOM     11  C   UNL A   1      30.743  28.406  24.897  1.00  0.00     0.018 A 
BRANCH   7  12
ATOM     12  N   UNL A   1      32.475  26.052  22.540  1.00  0.00    -0.326 N 
ATOM     13  C   UNL A   1      33.542  25.208  22.498  1.00  0.00     0.226 C 
ATOM     14  O   UNL A   1      33.535  24.329  21.627  1.00  0.00    -0.275 OA
ATOM     15  H   UNL A   1      31.795  25.823  21.867  1.00  0.00     0.169 HD
BRANCH  13  16
ATOM     16  C   UNL A   1      34.701  25.279  23.454  1.00  0.00     0.128 C 
BRANCH  16  17
ATOM     17  C   UNL A   1      34.585  24.396  24.693  1.00  0.00     0.183 C 
ATOM     18  N   UNL A   1      32.690  23.520  25.886  1.00  0.00    -0.190 N 
ATOM     19  C   UNL A   1      33.439  24.655  25.652  1.00  0.00     0.324 C 
ATOM     20  C   UNL A   1      33.033  22.376  25.217  1.00  0.00     0.319 C 
ATOM     21  O   UNL A   1      33.242  25.741  26.188  1.00  0.00    -0.245 OA
ATOM     22  S   UNL A   1      34.439  22.644  24.219  1.00  0.00    -0.022 SA
ATOM     23  N   UNL A   1      32.358  21.283  25.348  1.00  0.00    -0.235 N 
ATOM     24  H   UNL A   1      31.538  21.283  25.892  1.00  0.00     0.313 HD
BRANCH  18  25
ATOM     25  C   UNL A   1      31.613  23.547  26.865  1.00  0.00     0.243 C 
ATOM     26  C   UNL A   1      30.325  24.079  26.270  1.00  0.00     0.054 C 
ENDBRANCH  18  25
BRANCH  23  27
ATOM     27  C   UNL A   1      32.771  20.096  24.731  1.00  0.00     0.125 A 
ATOM     28  C   UNL A   1      32.186  19.680  23.532  1.00  0.00     0.053 A 
ATOM     29  C   UNL A   1      33.714  19.267  25.352  1.00  0.00     0.053 A 
ATOM     30  C   UNL A   1      32.579  18.479  22.933  1.00  0.00     0.025 A 
ATOM     31  C   UNL A   1      34.116  18.071  24.753  1.00  0.00     0.025 A 
ATOM     32  C   UNL A   1      33.554  17.688  23.539  1.00  0.00     0.041 A 
ATOM     33  Cl  UNL A   1      34.076  16.239  22.776  1.00  0.00    -0.084 Cl
ENDBRANCH  23  27
ENDBRANCH  16  17
ENDBRANCH  13  16
ENDBRANCH   7  12
ENDBRANCH   4   6
ENDBRANCH   3   4
ENDBRANCH   2   3
ENDBRANCH   1   2
BRANCH   1  34
ATOM     34  O   UNL A   1      35.802  31.290  27.966  1.00  0.00    -0.374 OA
BRANCH  34  35
ATOM     35  C   UNL A   1      36.500  31.472  29.198  1.00  0.00     0.202 C 
BRANCH  35  36
ATOM     36  C   UNL A   1      35.787  30.829  30.393  1.00  0.00     0.261 C 
BRANCH  36  37
ATOM     37  O   UNL A   1      36.672  29.970  31.136  1.00  0.00    -0.460 OA
BRANCH  37  38
ATOM     38  C   UNL A   1      37.218  30.524  32.246  1.00  0.00     0.338 C 
ATOM     39  O   UNL A   1      36.710  31.367  32.966  1.00  0.00    -0.246 OA
BRANCH  38  40
ATOM     40  C   UNL A   1      38.498  29.852  32.569  1.00  0.00     0.060 A 
ATOM     41  C   UNL A   1      39.618  30.663  32.780  1.00  0.00     0.016 A 
ATOM     42  C   UNL A   1      38.620  28.459  32.617  1.00  0.00     0.016 A 
ATOM     43  C   UNL A   1      40.870  30.087  33.006  1.00  0.00     0.010 A 
ATOM     44  C   UNL A   1      39.878  27.883  32.842  1.00  0.00     0.010 A 
ATOM     45  C   UNL A   1      41.014  28.694  33.011  1.00  0.00    -0.014 A 
BRANCH  45  46
ATOM     46  C   UNL A   1      42.373  28.092  33.068  1.00  0.00     0.031 A 
ATOM     47  C   UNL A   1      43.026  27.882  34.407  1.00  0.00     0.074 A 
ATOM     48  C   UNL A   1      43.009  27.716  31.943  1.00  0.00     0.049 A 
ATOM     49  N   UNL A   1      44.217  27.416  34.689  1.00  0.00    -0.248 NA
ATOM     50  C   UNL A   1      42.230  28.252  35.587  1.00  0.00     0.031 C 
ATOM     51  C   UNL A   1      42.473  27.837  30.587  1.00  0.00     0.029 A 
ATOM     52  N   UNL A   1      44.251  27.161  31.765  1.00  0.00    -0.354 N 
ATOM     53  C   UNL A   1      44.316  27.440  36.076  1.00  0.00     0.074 A 
ATOM     54  C   UNL A   1      43.077  28.001  36.573  1.00  0.00     0.031 C 
ATOM     55  C   UNL A   1      43.387  27.378  29.715  1.00  0.00     0.029 A 
ATOM     56  C   UNL A   1      44.584  26.962  30.445  1.00  0.00     0.049 A 
ATOM     57  H   UNL A   1      44.848  26.925  32.511  1.00  0.00     0.167 HD
ATOM     58  C   UNL A   1      45.341  27.026  36.862  1.00  0.00     0.034 A 
ATOM     59  C   UNL A   1      45.731  26.523  29.889  1.00  0.00     0.034 A 
ATOM     60  C   UNL A   1      46.576  26.475  36.357  1.00  0.00     0.049 A 
ATOM     61  C   UNL A   1      46.888  26.142  30.780  1.00  0.00     0.074 A 
ATOM     62  C   UNL A   1      47.666  26.005  37.070  1.00  0.00     0.029 A 
ATOM     63  N   UNL A   1      46.892  26.332  35.013  1.00  0.00    -0.354 N 
ATOM     64  N   UNL A   1      46.968  26.168  32.090  1.00  0.00    -0.248 NA
ATOM     65  C   UNL A   1      48.112  25.672  30.113  1.00  0.00     0.031 C 
ATOM     66  C   UNL A   1      48.666  25.644  36.159  1.00  0.00     0.029 A 
ATOM     67  C   UNL A   1      48.172  25.814  34.877  1.00  0.00     0.049 A 
ATOM     68  H   UNL A   1      46.295  26.562  34.265  1.00  0.00     0.167 HD
ATOM     69  C   UNL A   1      48.240  25.693  32.401  1.00  0.00     0.074 A 
ATOM     70  C   UNL A   1      48.888  25.381  31.146  1.00  0.00     0.031 C 
ATOM     71  C   UNL A   1      48.817  25.523  33.618  1.00  0.00     0.034 A 
BRANCH  58  72
ATOM     72  C   UNL A   1      45.184  27.203  38.352  1.00  0.00     0.023 A 
ATOM     73  C   UNL A   1      45.590  28.380  39.005  1.00  0.00     0.031 A 
ATOM     74  C   UNL A   1      44.643  26.168  39.136  1.00  0.00     0.131 A 
ATOM     75  C   UNL A   1      45.512  28.467  40.404  1.00  0.00     0.055 A 
ATOM     76  C   UNL A   1      44.497  26.290  40.518  1.00  0.00     0.041 A 
ATOM     77  F   UNL A   1      44.258  25.013  38.569  1.00  0.00    -0.206 F 
ATOM     78  C   UNL A   1      44.946  27.440  41.162  1.00  0.00     0.022 A 
BRANCH  75  79
ATOM     79  S   UNL A   1      46.287  29.883  41.230  1.00  0.00     0.124 S 
ATOM     80  O   UNL A   1      47.134  29.221  42.219  1.00  0.00    -0.237 OA
ATOM     81  O   UNL A   1      46.983  30.545  40.132  1.00  0.00    -0.237 OA
ATOM     82  O   UNL A   1      45.153  30.619  41.784  1.00  0.00    -0.744 OA
ENDBRANCH  75  79
ENDBRANCH  58  72
BRANCH  59  83
ATOM     83  C   UNL A   1      45.880  26.470  28.408  1.00  0.00     0.023 A 
ATOM     84  C   UNL A   1      46.360  27.572  27.684  1.00  0.00     0.031 A 
ATOM     85  C   UNL A   1      45.469  25.332  27.690  1.00  0.00     0.131 A 
ATOM     86  C   UNL A   1      46.372  27.533  26.282  1.00  0.00     0.055 A 
ATOM     87  C   UNL A   1      45.525  25.283  26.296  1.00  0.00     0.041 A 
ATOM     88  F   UNL A   1      45.002  24.252  28.335  1.00  0.00    -0.206 F 
ATOM     89  C   UNL A   1      45.970  26.392  25.583  1.00  0.00     0.022 A 
BRANCH  86  90
ATOM     90  S   UNL A   1      46.846  29.031  25.375  1.00  0.00     0.124 S 
ATOM     91  O   UNL A   1      46.594  28.633  23.994  1.00  0.00    -0.237 OA
ATOM     92  O   UNL A   1      45.934  30.026  25.932  1.00  0.00    -0.237 OA
ATOM     93  O   UNL A   1      48.253  29.213  25.727  1.00  0.00    -0.744 OA
ENDBRANCH  86  90
ENDBRANCH  59  83
BRANCH  71  94
ATOM     94  C   UNL A   1      50.205  24.931  33.647  1.00  0.00     0.023 A 
ATOM     95  C   UNL A   1      50.421  23.542  33.630  1.00  0.00     0.031 A 
ATOM     96  C   UNL A   1      51.329  25.775  33.697  1.00  0.00     0.131 A 
ATOM     97  C   UNL A   1      51.728  23.037  33.707  1.00  0.00     0.055 A 
ATOM     98  C   UNL A   1      52.629  25.268  33.721  1.00  0.00     0.041 A 
ATOM     99  F   UNL A   1      51.180  27.110  33.717  1.00  0.00    -0.206 F 
ATOM    100  C   UNL A   1      52.835  23.892  33.737  1.00  0.00     0.022 A 
BRANCH  97 101
ATOM    101  S   UNL A   1      51.968  21.244  33.840  1.00  0.00     0.124 S 
ATOM    102  O   UNL A   1      50.870  20.730  33.028  1.00  0.00    -0.237 OA
ATOM    103  O   UNL A   1      53.307  21.065  33.287  1.00  0.00    -0.237 OA
ATOM    104  O   UNL A   1      51.851  20.986  35.275  1.00  0.00    -0.744 OA
ENDBRANCH  97 101
ENDBRANCH  71  94
ENDBRANCH  45  46
ENDBRANCH  38  40
ENDBRANCH  37  38
ENDBRANCH  36  37
ENDBRANCH  35  36
ENDBRANCH  34  35
ENDBRANCH   1  34
TORSDOF 22
ENDMDL
