MODEL 1
REMARK VINA RESULT:     -12.8      0.000      0.000
REMARK SMILES Cc1cc(/C=C2/C(=O)NC(=S)N=C2OCCOCCOC(=O)c2ccc(-c3c4nc(c(-c5cc(S(=O)(=O)[O-])ccc5F)c5ccc([nH]5)c(-c5cc(S(=O)(=O)[O-])ccc5F)c5nc(c(-c6cc(S(=O)(=O)[O-])ccc6F)c6ccc3[nH]6)C=C5)C=C4)cc2)c(C)n1-c1cccc(C(=O)[O-])c1
REMARK SMILES IDX 18 1 17 2 16 3 15 4 14 5 13 6 5 7 6 8 7 9 8 10 9 11 12 12
REMARK SMILES IDX 10 13 11 15 4 16 1 17 2 18 3 19 88 20 86 21 87 22 89 23
REMARK SMILES IDX 90 24 97 25 91 26 93 27 92 28 94 29 95 30 96 31 19 32 20 33
REMARK SMILES IDX 21 34 22 35 23 36 24 37 85 38 25 39 84 40 26 41 27 42 28 43
REMARK SMILES IDX 78 44 29 45 83 46 77 47 79 48 30 49 82 50 76 51 75 52 31 54
REMARK SMILES IDX 63 55 43 56 62 57 44 58 47 59 61 60 80 61 45 62 46 63 60 65
REMARK SMILES IDX 81 66 48 67 32 68 33 69 41 70 34 71 40 72 42 73 39 74 35 75
REMARK SMILES IDX 36 76 37 77 38 78 64 79 65 80 73 81 66 82 72 83 74 84 71 85
REMARK SMILES IDX 67 86 68 87 69 88 70 89 49 90 50 91 58 92 51 93 57 94 59 95
REMARK SMILES IDX 56 96 52 97 53 98 54 99 55 100
REMARK H PARENT 9 14 79 53 47 64
REMARK Flexibility Score: inf
ROOT
ATOM      1  C   UNL A   1      32.174  30.673  26.882  1.00  0.00     0.202 C 
ENDROOT
BRANCH   1   2
ATOM      2  O   UNL A   1      31.686  30.269  25.575  1.00  0.00    -0.374 OA
BRANCH   2   3
ATOM      3  C   UNL A   1      32.254  29.158  24.860  1.00  0.00     0.202 C 
BRANCH   3   4
ATOM      4  C   UNL A   1      32.505  29.307  23.324  1.00  0.00     0.260 C 
BRANCH   4   5
ATOM      5  O   UNL A   1      31.548  28.597  22.496  1.00  0.00    -0.475 OA
BRANCH   5   6
ATOM      6  C   UNL A   1      30.269  28.983  22.560  1.00  0.00     0.229 C 
ATOM      7  C   UNL A   1      29.432  26.669  23.519  1.00  0.00     0.029 C 
ATOM      8  C   UNL A   1      29.329  27.957  23.091  1.00  0.00     0.103 C 
ATOM      9  C   UNL A   1      27.906  28.467  23.078  1.00  0.00     0.262 C 
ATOM     10  O   UNL A   1      26.936  27.842  23.500  1.00  0.00    -0.269 OA
ATOM     11  N   UNL A   1      27.717  29.715  22.548  1.00  0.00    -0.297 N 
ATOM     12  N   UNL A   1      29.970  30.164  22.145  1.00  0.00    -0.184 NA
ATOM     13  C   UNL A   1      28.680  30.568  22.098  1.00  0.00     0.203 C 
ATOM     14  H   UNL A   1      26.787  30.029  22.483  1.00  0.00     0.172 HD
ATOM     15  S   UNL A   1      28.205  32.061  21.505  1.00  0.00    -0.038 S 
BRANCH   7  16
ATOM     16  C   UNL A   1      30.439  25.638  23.708  1.00  0.00    -0.003 A 
ATOM     17  C   UNL A   1      33.503  23.765  22.553  1.00  0.00     0.065 C 
ATOM     18  C   UNL A   1      32.299  24.359  23.186  1.00  0.00     0.020 A 
ATOM     19  C   UNL A   1      31.399  25.297  22.690  1.00  0.00     0.031 A 
ATOM     20  N   UNL A   1      31.821  23.981  24.418  1.00  0.00    -0.318 N 
ATOM     21  C   UNL A   1      30.875  24.919  24.801  1.00  0.00     0.027 A 
ATOM     22  C   UNL A   1      30.653  25.054  26.243  1.00  0.00     0.065 C 
BRANCH  20  23
ATOM     23  C   UNL A   1      32.269  22.976  25.328  1.00  0.00     0.046 A 
ATOM     24  C   UNL A   1      33.258  23.377  26.251  1.00  0.00     0.026 A 
ATOM     25  C   UNL A   1      32.119  21.622  24.998  1.00  0.00     0.036 A 
ATOM     26  C   UNL A   1      34.145  22.449  26.787  1.00  0.00     0.003 A 
ATOM     27  C   UNL A   1      33.005  20.685  25.562  1.00  0.00    -0.001 A 
ATOM     28  C   UNL A   1      34.026  21.109  26.432  1.00  0.00     0.010 A 
BRANCH  27  29
ATOM     29  C   UNL A   1      32.971  19.252  25.211  1.00  0.00     0.072 C 
ATOM     30  O   UNL A   1      31.993  18.514  25.373  1.00  0.00    -0.545 OA
ATOM     31  O   UNL A   1      34.096  18.809  24.647  1.00  0.00    -0.545 OA
ENDBRANCH  27  29
ENDBRANCH  20  23
ENDBRANCH   7  16
ENDBRANCH   5   6
ENDBRANCH   4   5
ENDBRANCH   3   4
ENDBRANCH   2   3
ENDBRANCH   1   2
BRANCH   1  32
ATOM     32  C   UNL A   1      33.083  31.964  27.006  1.00  0.00     0.261 C 
BRANCH  32  33
ATOM     33  O   UNL A   1      33.493  32.514  28.356  1.00  0.00    -0.460 OA
BRANCH  33  34
ATOM     34  C   UNL A   1      34.858  32.525  28.629  1.00  0.00     0.338 C 
ATOM     35  O   UNL A   1      35.377  33.572  29.015  1.00  0.00    -0.246 OA
BRANCH  34  36
ATOM     36  C   UNL A   1      35.799  31.247  28.455  1.00  0.00     0.060 A 
ATOM     37  C   UNL A   1      37.167  31.497  28.488  1.00  0.00     0.016 A 
ATOM     38  C   UNL A   1      35.564  29.879  28.177  1.00  0.00     0.016 A 
ATOM     39  C   UNL A   1      38.187  30.471  28.278  1.00  0.00     0.010 A 
ATOM     40  C   UNL A   1      36.661  28.800  28.002  1.00  0.00     0.010 A 
ATOM     41  C   UNL A   1      38.052  29.043  28.074  1.00  0.00    -0.014 A 
BRANCH  41  42
ATOM     42  C   UNL A   1      39.479  28.036  28.159  1.00  0.00     0.031 A 
ATOM     43  C   UNL A   1      39.823  28.120  29.601  1.00  0.00     0.074 A 
ATOM     44  C   UNL A   1      40.546  27.319  27.508  1.00  0.00     0.049 A 
ATOM     45  N   UNL A   1      40.475  29.171  29.962  1.00  0.00    -0.248 NA
ATOM     46  C   UNL A   1      39.171  27.414  30.704  1.00  0.00     0.031 C 
ATOM     47  C   UNL A   1      40.818  27.138  26.064  1.00  0.00     0.029 A 
ATOM     48  N   UNL A   1      41.759  26.610  28.012  1.00  0.00    -0.354 N 
ATOM     49  C   UNL A   1      40.267  29.368  31.300  1.00  0.00     0.074 A 
ATOM     50  C   UNL A   1      39.519  28.198  31.740  1.00  0.00     0.031 C 
ATOM     51  C   UNL A   1      41.900  26.326  25.805  1.00  0.00     0.029 A 
ATOM     52  C   UNL A   1      42.604  25.887  27.024  1.00  0.00     0.049 A 
ATOM     53  H   UNL A   1      41.992  26.620  28.968  1.00  0.00     0.167 HD
ATOM     54  C   UNL A   1      41.162  30.193  31.899  1.00  0.00     0.034 A 
ATOM     55  C   UNL A   1      43.811  25.119  27.124  1.00  0.00     0.034 A 
ATOM     56  C   UNL A   1      42.363  29.421  32.106  1.00  0.00     0.049 A 
ATOM     57  C   UNL A   1      44.579  25.665  28.240  1.00  0.00     0.074 A 
ATOM     58  C   UNL A   1      42.511  28.139  32.605  1.00  0.00     0.029 A 
ATOM     59  N   UNL A   1      43.423  29.653  31.252  1.00  0.00    -0.354 N 
ATOM     60  N   UNL A   1      45.267  26.756  28.114  1.00  0.00    -0.248 NA
ATOM     61  C   UNL A   1      44.719  24.980  29.519  1.00  0.00     0.031 C 
ATOM     62  C   UNL A   1      43.296  27.488  31.630  1.00  0.00     0.029 A 
ATOM     63  C   UNL A   1      43.931  28.442  30.838  1.00  0.00     0.049 A 
ATOM     64  H   UNL A   1      43.761  30.538  30.983  1.00  0.00     0.167 HD
ATOM     65  C   UNL A   1      45.340  27.176  29.401  1.00  0.00     0.074 A 
ATOM     66  C   UNL A   1      45.305  25.965  30.203  1.00  0.00     0.031 C 
ATOM     67  C   UNL A   1      44.773  28.381  29.663  1.00  0.00     0.034 A 
BRANCH  54  68
ATOM     68  C   UNL A   1      41.153  31.577  31.242  1.00  0.00     0.023 A 
ATOM     69  C   UNL A   1      42.371  32.128  30.831  1.00  0.00     0.031 A 
ATOM     70  C   UNL A   1      40.012  32.420  31.153  1.00  0.00     0.131 A 
ATOM     71  C   UNL A   1      42.436  33.484  30.444  1.00  0.00     0.055 A 
ATOM     72  C   UNL A   1      40.099  33.781  30.862  1.00  0.00     0.041 A 
ATOM     73  F   UNL A   1      38.771  31.945  31.338  1.00  0.00    -0.206 F 
ATOM     74  C   UNL A   1      41.322  34.324  30.512  1.00  0.00     0.022 A 
BRANCH  71  75
ATOM     75  S   UNL A   1      44.004  34.133  29.812  1.00  0.00     0.124 S 
ATOM     76  O   UNL A   1      43.681  34.398  28.414  1.00  0.00    -0.237 OA
ATOM     77  O   UNL A   1      44.207  35.312  30.650  1.00  0.00    -0.237 OA
ATOM     78  O   UNL A   1      44.952  33.044  30.038  1.00  0.00    -0.744 OA
ENDBRANCH  71  75
ENDBRANCH  54  68
BRANCH  55  79
ATOM     79  C   UNL A   1      44.819  24.043  26.434  1.00  0.00     0.023 A 
ATOM     80  C   UNL A   1      44.560  22.590  26.307  1.00  0.00     0.031 A 
ATOM     81  C   UNL A   1      45.741  24.509  25.483  1.00  0.00     0.131 A 
ATOM     82  C   UNL A   1      45.179  21.754  25.299  1.00  0.00     0.055 A 
ATOM     83  C   UNL A   1      46.341  23.677  24.494  1.00  0.00     0.041 A 
ATOM     84  F   UNL A   1      46.000  25.820  25.393  1.00  0.00    -0.206 F 
ATOM     85  C   UNL A   1      46.061  22.317  24.388  1.00  0.00     0.022 A 
BRANCH  82  86
ATOM     86  S   UNL A   1      44.782  19.944  25.016  1.00  0.00     0.124 S 
ATOM     87  O   UNL A   1      45.976  19.256  25.487  1.00  0.00    -0.237 OA
ATOM     88  O   UNL A   1      43.562  19.749  25.793  1.00  0.00    -0.237 OA
ATOM     89  O   UNL A   1      44.577  19.854  23.565  1.00  0.00    -0.744 OA
ENDBRANCH  82  86
ENDBRANCH  55  79
BRANCH  67  90
ATOM     90  C   UNL A   1      44.918  29.464  28.590  1.00  0.00     0.023 A 
ATOM     91  C   UNL A   1      46.109  30.179  28.271  1.00  0.00     0.031 A 
ATOM     92  C   UNL A   1      43.757  29.872  27.919  1.00  0.00     0.131 A 
ATOM     93  C   UNL A   1      46.095  31.269  27.376  1.00  0.00     0.055 A 
ATOM     94  C   UNL A   1      43.750  30.925  26.999  1.00  0.00     0.041 A 
ATOM     95  F   UNL A   1      42.589  29.254  28.158  1.00  0.00    -0.206 F 
ATOM     96  C   UNL A   1      44.913  31.640  26.736  1.00  0.00     0.022 A 
BRANCH  93  97
ATOM     97  S   UNL A   1      47.604  32.262  27.092  1.00  0.00     0.124 S 
ATOM     98  O   UNL A   1      47.162  33.291  26.157  1.00  0.00    -0.237 OA
ATOM     99  O   UNL A   1      47.945  32.729  28.433  1.00  0.00    -0.237 OA
ATOM    100  O   UNL A   1      48.549  31.295  26.527  1.00  0.00    -0.744 OA
ENDBRANCH  93  97
ENDBRANCH  67  90
ENDBRANCH  41  42
ENDBRANCH  34  36
ENDBRANCH  33  34
ENDBRANCH  32  33
ENDBRANCH   1  32
TORSDOF 19
ENDMDL
MODEL 2
REMARK VINA RESULT:     -12.6      3.695      8.853
REMARK SMILES Cc1cc(/C=C2/C(=O)NC(=S)N=C2OCCOCCOC(=O)c2ccc(-c3c4nc(c(-c5cc(S(=O)(=O)[O-])ccc5F)c5ccc([nH]5)c(-c5cc(S(=O)(=O)[O-])ccc5F)c5nc(c(-c6cc(S(=O)(=O)[O-])ccc6F)c6ccc3[nH]6)C=C5)C=C4)cc2)c(C)n1-c1cccc(C(=O)[O-])c1
REMARK SMILES IDX 18 1 17 2 16 3 15 4 14 5 13 6 5 7 6 8 7 9 8 10 9 11 12 12
REMARK SMILES IDX 10 13 11 15 4 16 1 17 2 18 3 19 88 20 86 21 87 22 89 23
REMARK SMILES IDX 90 24 97 25 91 26 93 27 92 28 94 29 95 30 96 31 19 32 20 33
REMARK SMILES IDX 21 34 22 35 23 36 24 37 85 38 25 39 84 40 26 41 27 42 28 43
REMARK SMILES IDX 78 44 29 45 83 46 77 47 79 48 30 49 82 50 76 51 75 52 31 54
REMARK SMILES IDX 63 55 43 56 62 57 44 58 47 59 61 60 80 61 45 62 46 63 60 65
REMARK SMILES IDX 81 66 48 67 32 68 33 69 41 70 34 71 40 72 42 73 39 74 35 75
REMARK SMILES IDX 36 76 37 77 38 78 64 79 65 80 73 81 66 82 72 83 74 84 71 85
REMARK SMILES IDX 67 86 68 87 69 88 70 89 49 90 50 91 58 92 51 93 57 94 59 95
REMARK SMILES IDX 56 96 52 97 53 98 54 99 55 100
REMARK H PARENT 9 14 79 53 47 64
REMARK Flexibility Score: inf
ROOT
ATOM      1  C   UNL A   1      37.329  21.645  25.380  1.00  0.00     0.202 C 
ENDROOT
BRANCH   1   2
ATOM      2  O   UNL A   1      37.150  22.985  24.848  1.00  0.00    -0.374 OA
BRANCH   2   3
ATOM      3  C   UNL A   1      35.926  23.398  24.218  1.00  0.00     0.202 C 
BRANCH   3   4
ATOM      4  C   UNL A   1      35.063  24.502  24.912  1.00  0.00     0.260 C 
BRANCH   4   5
ATOM      5  O   UNL A   1      33.880  24.887  24.164  1.00  0.00    -0.475 OA
BRANCH   5   6
ATOM      6  C   UNL A   1      32.972  25.643  24.790  1.00  0.00     0.229 C 
ATOM      7  C   UNL A   1      31.441  23.588  25.430  1.00  0.00     0.029 C 
ATOM      8  C   UNL A   1      31.831  24.892  25.382  1.00  0.00     0.103 C 
ATOM      9  C   UNL A   1      30.836  25.833  26.022  1.00  0.00     0.262 C 
ATOM     10  O   UNL A   1      29.823  25.478  26.619  1.00  0.00    -0.269 OA
ATOM     11  N   UNL A   1      31.109  27.170  25.906  1.00  0.00    -0.297 N 
ATOM     12  N   UNL A   1      33.149  26.918  24.804  1.00  0.00    -0.184 NA
ATOM     13  C   UNL A   1      32.213  27.734  25.339  1.00  0.00     0.203 C 
ATOM     14  H   UNL A   1      30.436  27.789  26.270  1.00  0.00     0.172 HD
ATOM     15  S   UNL A   1      32.335  29.405  25.330  1.00  0.00    -0.038 S 
BRANCH   7  16
ATOM     16  C   UNL A   1      31.886  22.279  24.982  1.00  0.00    -0.003 A 
ATOM     17  C   UNL A   1      32.276  19.666  22.290  1.00  0.00     0.065 C 
ATOM     18  C   UNL A   1      32.219  20.540  23.488  1.00  0.00     0.020 A 
ATOM     19  C   UNL A   1      31.578  21.760  23.675  1.00  0.00     0.031 A 
ATOM     20  N   UNL A   1      32.773  20.207  24.701  1.00  0.00    -0.318 N 
ATOM     21  C   UNL A   1      32.773  21.350  25.485  1.00  0.00     0.027 A 
ATOM     22  C   UNL A   1      33.779  21.398  26.550  1.00  0.00     0.065 C 
BRANCH  20  23
ATOM     23  C   UNL A   1      33.447  19.023  25.129  1.00  0.00     0.046 A 
ATOM     24  C   UNL A   1      34.755  18.844  24.629  1.00  0.00     0.026 A 
ATOM     25  C   UNL A   1      32.703  17.921  25.572  1.00  0.00     0.036 A 
ATOM     26  C   UNL A   1      35.294  17.569  24.499  1.00  0.00     0.003 A 
ATOM     27  C   UNL A   1      33.266  16.635  25.459  1.00  0.00    -0.001 A 
ATOM     28  C   UNL A   1      34.546  16.467  24.899  1.00  0.00     0.010 A 
BRANCH  27  29
ATOM     29  C   UNL A   1      32.526  15.412  25.826  1.00  0.00     0.072 C 
ATOM     30  O   UNL A   1      31.743  15.326  26.779  1.00  0.00    -0.545 OA
ATOM     31  O   UNL A   1      32.737  14.385  25.000  1.00  0.00    -0.545 OA
ENDBRANCH  27  29
ENDBRANCH  20  23
ENDBRANCH   7  16
ENDBRANCH   5   6
ENDBRANCH   4   5
ENDBRANCH   3   4
ENDBRANCH   2   3
ENDBRANCH   1   2
BRANCH   1  32
ATOM     32  C   UNL A   1      38.790  21.046  25.499  1.00  0.00     0.261 C 
BRANCH  32  33
ATOM     33  O   UNL A   1      39.534  21.037  26.818  1.00  0.00    -0.460 OA
BRANCH  33  34
ATOM     34  C   UNL A   1      40.724  21.760  26.860  1.00  0.00     0.338 C 
ATOM     35  O   UNL A   1      41.762  21.213  26.489  1.00  0.00    -0.246 OA
BRANCH  34  36
ATOM     36  C   UNL A   1      40.819  23.266  27.380  1.00  0.00     0.060 A 
ATOM     37  C   UNL A   1      39.845  24.134  26.895  1.00  0.00     0.016 A 
ATOM     38  C   UNL A   1      41.746  23.977  28.179  1.00  0.00     0.016 A 
ATOM     39  C   UNL A   1      39.805  25.563  27.199  1.00  0.00     0.010 A 
ATOM     40  C   UNL A   1      41.658  25.485  28.525  1.00  0.00     0.010 A 
ATOM     41  C   UNL A   1      40.648  26.361  28.066  1.00  0.00    -0.014 A 
BRANCH  41  42
ATOM     42  C   UNL A   1      40.155  27.992  28.459  1.00  0.00     0.031 A 
ATOM     43  C   UNL A   1      41.341  28.778  28.035  1.00  0.00     0.074 A 
ATOM     44  C   UNL A   1      39.256  28.903  29.123  1.00  0.00     0.049 A 
ATOM     45  N   UNL A   1      42.320  28.813  28.871  1.00  0.00    -0.248 NA
ATOM     46  C   UNL A   1      41.711  29.142  26.667  1.00  0.00     0.031 C 
ATOM     47  C   UNL A   1      38.041  28.618  29.918  1.00  0.00     0.029 A 
ATOM     48  N   UNL A   1      39.263  30.382  29.325  1.00  0.00    -0.354 N 
ATOM     49  C   UNL A   1      43.466  29.092  28.180  1.00  0.00     0.074 A 
ATOM     50  C   UNL A   1      43.027  29.377  26.820  1.00  0.00     0.031 C 
ATOM     51  C   UNL A   1      37.386  29.750  30.348  1.00  0.00     0.029 A 
ATOM     52  C   UNL A   1      38.089  30.998  29.997  1.00  0.00     0.049 A 
ATOM     53  H   UNL A   1      40.021  30.931  29.022  1.00  0.00     0.167 HD
ATOM     54  C   UNL A   1      44.501  29.525  28.945  1.00  0.00     0.034 A 
ATOM     55  C   UNL A   1      37.746  32.342  30.361  1.00  0.00     0.034 A 
ATOM     56  C   UNL A   1      44.238  30.910  29.250  1.00  0.00     0.049 A 
ATOM     57  C   UNL A   1      38.996  33.047  30.636  1.00  0.00     0.074 A 
ATOM     58  C   UNL A   1      43.821  31.932  28.416  1.00  0.00     0.029 A 
ATOM     59  N   UNL A   1      43.782  31.206  30.520  1.00  0.00    -0.354 N 
ATOM     60  N   UNL A   1      39.625  32.889  31.757  1.00  0.00    -0.248 NA
ATOM     61  C   UNL A   1      39.558  34.046  29.736  1.00  0.00     0.031 C 
ATOM     62  C   UNL A   1      42.698  32.471  29.080  1.00  0.00     0.029 A 
ATOM     63  C   UNL A   1      42.724  32.081  30.417  1.00  0.00     0.049 A 
ATOM     64  H   UNL A   1      44.153  30.850  31.361  1.00  0.00     0.167 HD
ATOM     65  C   UNL A   1      40.889  33.229  31.404  1.00  0.00     0.074 A 
ATOM     66  C   UNL A   1      40.743  34.201  30.335  1.00  0.00     0.031 C 
ATOM     67  C   UNL A   1      41.824  32.252  31.536  1.00  0.00     0.034 A 
BRANCH  54  68
ATOM     68  C   UNL A   1      44.867  28.483  30.006  1.00  0.00     0.023 A 
ATOM     69  C   UNL A   1      45.243  28.930  31.278  1.00  0.00     0.031 A 
ATOM     70  C   UNL A   1      45.005  27.091  29.756  1.00  0.00     0.131 A 
ATOM     71  C   UNL A   1      45.812  28.028  32.202  1.00  0.00     0.055 A 
ATOM     72  C   UNL A   1      45.654  26.226  30.636  1.00  0.00     0.041 A 
ATOM     73  F   UNL A   1      44.504  26.523  28.649  1.00  0.00    -0.206 F 
ATOM     74  C   UNL A   1      46.071  26.696  31.868  1.00  0.00     0.022 A 
BRANCH  71  75
ATOM     75  S   UNL A   1      46.182  28.615  33.875  1.00  0.00     0.124 S 
ATOM     76  O   UNL A   1      45.007  29.425  34.179  1.00  0.00    -0.237 OA
ATOM     77  O   UNL A   1      46.298  27.364  34.619  1.00  0.00    -0.237 OA
ATOM     78  O   UNL A   1      47.430  29.358  33.717  1.00  0.00    -0.744 OA
ENDBRANCH  71  75
ENDBRANCH  54  68
BRANCH  55  79
ATOM     79  C   UNL A   1      36.587  33.394  30.810  1.00  0.00     0.023 A 
ATOM     80  C   UNL A   1      35.717  34.153  29.882  1.00  0.00     0.031 A 
ATOM     81  C   UNL A   1      36.018  33.254  32.086  1.00  0.00     0.131 A 
ATOM     82  C   UNL A   1      34.416  34.672  30.252  1.00  0.00     0.055 A 
ATOM     83  C   UNL A   1      34.736  33.767  32.437  1.00  0.00     0.041 A 
ATOM     84  F   UNL A   1      36.630  32.500  33.009  1.00  0.00    -0.206 F 
ATOM     85  C   UNL A   1      33.933  34.459  31.534  1.00  0.00     0.022 A 
BRANCH  82  86
ATOM     86  S   UNL A   1      33.226  35.518  29.077  1.00  0.00     0.124 S 
ATOM     87  O   UNL A   1      32.627  34.411  28.344  1.00  0.00    -0.237 OA
ATOM     88  O   UNL A   1      32.350  36.262  29.975  1.00  0.00    -0.237 OA
ATOM     89  O   UNL A   1      34.093  36.374  28.257  1.00  0.00    -0.744 OA
ENDBRANCH  82  86
ENDBRANCH  55  79
BRANCH  67  90
ATOM     90  C   UNL A   1      41.687  31.322  32.746  1.00  0.00     0.023 A 
ATOM     91  C   UNL A   1      41.947  31.663  34.104  1.00  0.00     0.031 A 
ATOM     92  C   UNL A   1      41.375  29.978  32.498  1.00  0.00     0.131 A 
ATOM     93  C   UNL A   1      41.945  30.686  35.122  1.00  0.00     0.055 A 
ATOM     94  C   UNL A   1      41.331  29.016  33.511  1.00  0.00     0.041 A 
ATOM     95  F   UNL A   1      41.117  29.567  31.246  1.00  0.00    -0.206 F 
ATOM     96  C   UNL A   1      41.633  29.360  34.824  1.00  0.00     0.022 A 
BRANCH  93  97
ATOM     97  S   UNL A   1      42.422  31.120  36.833  1.00  0.00     0.124 S 
ATOM     98  O   UNL A   1      41.196  31.673  37.397  1.00  0.00    -0.237 OA
ATOM     99  O   UNL A   1      42.853  29.839  37.387  1.00  0.00    -0.237 OA
ATOM    100  O   UNL A   1      43.499  32.096  36.651  1.00  0.00    -0.744 OA
ENDBRANCH  93  97
ENDBRANCH  67  90
ENDBRANCH  41  42
ENDBRANCH  34  36
ENDBRANCH  33  34
ENDBRANCH  32  33
ENDBRANCH   1  32
TORSDOF 19
ENDMDL
MODEL 3
REMARK VINA RESULT:     -12.5      2.321      3.090
REMARK SMILES Cc1cc(/C=C2/C(=O)NC(=S)N=C2OCCOCCOC(=O)c2ccc(-c3c4nc(c(-c5cc(S(=O)(=O)[O-])ccc5F)c5ccc([nH]5)c(-c5cc(S(=O)(=O)[O-])ccc5F)c5nc(c(-c6cc(S(=O)(=O)[O-])ccc6F)c6ccc3[nH]6)C=C5)C=C4)cc2)c(C)n1-c1cccc(C(=O)[O-])c1
REMARK SMILES IDX 18 1 17 2 16 3 15 4 14 5 13 6 5 7 6 8 7 9 8 10 9 11 12 12
REMARK SMILES IDX 10 13 11 15 4 16 1 17 2 18 3 19 88 20 86 21 87 22 89 23
REMARK SMILES IDX 90 24 97 25 91 26 93 27 92 28 94 29 95 30 96 31 19 32 20 33
REMARK SMILES IDX 21 34 22 35 23 36 24 37 85 38 25 39 84 40 26 41 27 42 28 43
REMARK SMILES IDX 78 44 29 45 83 46 77 47 79 48 30 49 82 50 76 51 75 52 31 54
REMARK SMILES IDX 63 55 43 56 62 57 44 58 47 59 61 60 80 61 45 62 46 63 60 65
REMARK SMILES IDX 81 66 48 67 32 68 33 69 41 70 34 71 40 72 42 73 39 74 35 75
REMARK SMILES IDX 36 76 37 77 38 78 64 79 65 80 73 81 66 82 72 83 74 84 71 85
REMARK SMILES IDX 67 86 68 87 69 88 70 89 49 90 50 91 58 92 51 93 57 94 59 95
REMARK SMILES IDX 56 96 52 97 53 98 54 99 55 100
REMARK H PARENT 9 14 79 53 47 64
REMARK Flexibility Score: inf
ROOT
ATOM      1  C   UNL A   1      31.781  29.947  26.680  1.00  0.00     0.202 C 
ENDROOT
BRANCH   1   2
ATOM      2  O   UNL A   1      31.761  28.909  25.664  1.00  0.00    -0.374 OA
BRANCH   2   3
ATOM      3  C   UNL A   1      32.789  28.802  24.665  1.00  0.00     0.202 C 
BRANCH   3   4
ATOM      4  C   UNL A   1      32.501  29.363  23.234  1.00  0.00     0.260 C 
BRANCH   4   5
ATOM      5  O   UNL A   1      31.582  28.556  22.454  1.00  0.00    -0.475 OA
BRANCH   5   6
ATOM      6  C   UNL A   1      30.292  28.908  22.460  1.00  0.00     0.229 C 
ATOM      7  C   UNL A   1      29.506  26.690  23.658  1.00  0.00     0.029 C 
ATOM      8  C   UNL A   1      29.374  27.920  23.089  1.00  0.00     0.103 C 
ATOM      9  C   UNL A   1      27.937  28.383  23.004  1.00  0.00     0.262 C 
ATOM     10  O   UNL A   1      26.979  27.779  23.480  1.00  0.00    -0.269 OA
ATOM     11  N   UNL A   1      27.721  29.559  22.338  1.00  0.00    -0.297 N 
ATOM     12  N   UNL A   1      29.966  30.028  21.915  1.00  0.00    -0.184 NA
ATOM     13  C   UNL A   1      28.666  30.386  21.809  1.00  0.00     0.203 C 
ATOM     14  H   UNL A   1      26.783  29.836  22.229  1.00  0.00     0.172 HD
ATOM     15  S   UNL A   1      28.158  31.791  21.050  1.00  0.00    -0.038 S 
BRANCH   7  16
ATOM     16  C   UNL A   1      30.539  25.716  23.970  1.00  0.00    -0.003 A 
ATOM     17  C   UNL A   1      33.970  24.249  23.415  1.00  0.00     0.065 C 
ATOM     18  C   UNL A   1      32.593  24.659  23.788  1.00  0.00     0.020 A 
ATOM     19  C   UNL A   1      31.748  25.593  23.197  1.00  0.00     0.031 A 
ATOM     20  N   UNL A   1      31.873  24.076  24.802  1.00  0.00    -0.318 N 
ATOM     21  C   UNL A   1      30.769  24.880  25.043  1.00  0.00     0.027 A 
ATOM     22  C   UNL A   1      30.190  24.790  26.386  1.00  0.00     0.065 C 
BRANCH  20  23
ATOM     23  C   UNL A   1      32.188  22.984  25.667  1.00  0.00     0.046 A 
ATOM     24  C   UNL A   1      32.989  23.297  26.787  1.00  0.00     0.026 A 
ATOM     25  C   UNL A   1      32.141  21.672  25.176  1.00  0.00     0.036 A 
ATOM     26  C   UNL A   1      33.799  22.328  27.370  1.00  0.00     0.003 A 
ATOM     27  C   UNL A   1      32.946  20.692  25.787  1.00  0.00    -0.001 A 
ATOM     28  C   UNL A   1      33.787  21.033  26.862  1.00  0.00     0.010 A 
BRANCH  27  29
ATOM     29  C   UNL A   1      33.020  19.304  25.289  1.00  0.00     0.072 C 
ATOM     30  O   UNL A   1      32.176  18.431  25.518  1.00  0.00    -0.545 OA
ATOM     31  O   UNL A   1      34.077  19.068  24.510  1.00  0.00    -0.545 OA
ENDBRANCH  27  29
ENDBRANCH  20  23
ENDBRANCH   7  16
ENDBRANCH   5   6
ENDBRANCH   4   5
ENDBRANCH   3   4
ENDBRANCH   2   3
ENDBRANCH   1   2
BRANCH   1  32
ATOM     32  C   UNL A   1      32.816  31.139  26.551  1.00  0.00     0.261 C 
BRANCH  32  33
ATOM     33  O   UNL A   1      32.892  32.235  27.594  1.00  0.00    -0.460 OA
BRANCH  33  34
ATOM     34  C   UNL A   1      34.036  32.253  28.388  1.00  0.00     0.338 C 
ATOM     35  O   UNL A   1      34.149  33.131  29.243  1.00  0.00    -0.246 OA
BRANCH  34  36
ATOM     36  C   UNL A   1      35.225  31.198  28.240  1.00  0.00     0.060 A 
ATOM     37  C   UNL A   1      36.510  31.730  28.271  1.00  0.00     0.016 A 
ATOM     38  C   UNL A   1      35.283  29.806  27.988  1.00  0.00     0.016 A 
ATOM     39  C   UNL A   1      37.723  30.937  28.083  1.00  0.00     0.010 A 
ATOM     40  C   UNL A   1      36.583  28.978  27.837  1.00  0.00     0.010 A 
ATOM     41  C   UNL A   1      37.892  29.509  27.907  1.00  0.00    -0.014 A 
BRANCH  41  42
ATOM     42  C   UNL A   1      39.498  28.826  28.015  1.00  0.00     0.031 A 
ATOM     43  C   UNL A   1      39.599  28.517  29.463  1.00  0.00     0.074 A 
ATOM     44  C   UNL A   1      40.793  28.573  27.433  1.00  0.00     0.049 A 
ATOM     45  N   UNL A   1      39.909  29.506  30.228  1.00  0.00    -0.248 NA
ATOM     46  C   UNL A   1      38.993  27.387  30.166  1.00  0.00     0.031 C 
ATOM     47  C   UNL A   1      41.305  28.912  26.087  1.00  0.00     0.029 A 
ATOM     48  N   UNL A   1      42.059  27.992  27.970  1.00  0.00    -0.354 N 
ATOM     49  C   UNL A   1      39.468  29.227  31.492  1.00  0.00     0.074 A 
ATOM     50  C   UNL A   1      38.981  27.856  31.427  1.00  0.00     0.031 C 
ATOM     51  C   UNL A   1      42.581  28.451  25.852  1.00  0.00     0.029 A 
ATOM     52  C   UNL A   1      43.190  27.797  27.025  1.00  0.00     0.049 A 
ATOM     53  H   UNL A   1      42.142  27.746  28.919  1.00  0.00     0.167 HD
ATOM     54  C   UNL A   1      40.033  29.980  32.470  1.00  0.00     0.034 A 
ATOM     55  C   UNL A   1      44.524  27.288  27.164  1.00  0.00     0.034 A 
ATOM     56  C   UNL A   1      41.345  29.432  32.708  1.00  0.00     0.049 A 
ATOM     57  C   UNL A   1      44.962  27.594  28.524  1.00  0.00     0.074 A 
ATOM     58  C   UNL A   1      41.736  28.114  32.857  1.00  0.00     0.029 A 
ATOM     59  N   UNL A   1      42.426  30.124  32.195  1.00  0.00    -0.354 N 
ATOM     60  N   UNL A   1      45.367  28.781  28.849  1.00  0.00    -0.248 NA
ATOM     61  C   UNL A   1      45.083  26.582  29.566  1.00  0.00     0.031 C 
ATOM     62  C   UNL A   1      42.791  27.969  31.930  1.00  0.00     0.029 A 
ATOM     63  C   UNL A   1      43.274  29.228  31.583  1.00  0.00     0.049 A 
ATOM     64  H   UNL A   1      42.567  31.097  32.256  1.00  0.00     0.167 HD
ATOM     65  C   UNL A   1      45.147  28.780  30.187  1.00  0.00     0.074 A 
ATOM     66  C   UNL A   1      45.301  27.396  30.602  1.00  0.00     0.031 C 
ATOM     67  C   UNL A   1      44.264  29.706  30.643  1.00  0.00     0.034 A 
BRANCH  54  68
ATOM     68  C   UNL A   1      39.772  31.470  32.229  1.00  0.00     0.023 A 
ATOM     69  C   UNL A   1      38.915  32.147  33.104  1.00  0.00     0.031 A 
ATOM     70  C   UNL A   1      40.214  32.192  31.088  1.00  0.00     0.131 A 
ATOM     71  C   UNL A   1      38.463  33.445  32.785  1.00  0.00     0.055 A 
ATOM     72  C   UNL A   1      39.691  33.435  30.731  1.00  0.00     0.041 A 
ATOM     73  F   UNL A   1      41.178  31.717  30.286  1.00  0.00    -0.206 F 
ATOM     74  C   UNL A   1      38.800  34.067  31.580  1.00  0.00     0.022 A 
BRANCH  71  75
ATOM     75  S   UNL A   1      37.447  34.334  33.992  1.00  0.00     0.124 S 
ATOM     76  O   UNL A   1      36.561  35.109  33.130  1.00  0.00    -0.237 OA
ATOM     77  O   UNL A   1      36.818  33.241  34.727  1.00  0.00    -0.237 OA
ATOM     78  O   UNL A   1      38.416  35.116  34.757  1.00  0.00    -0.744 OA
ENDBRANCH  71  75
ENDBRANCH  54  68
BRANCH  55  79
ATOM     79  C   UNL A   1      45.857  26.702  26.437  1.00  0.00     0.023 A 
ATOM     80  C   UNL A   1      47.212  26.669  27.035  1.00  0.00     0.031 A 
ATOM     81  C   UNL A   1      45.696  25.748  25.420  1.00  0.00     0.131 A 
ATOM     82  C   UNL A   1      48.243  25.739  26.624  1.00  0.00     0.055 A 
ATOM     83  C   UNL A   1      46.717  24.836  25.026  1.00  0.00     0.041 A 
ATOM     84  F   UNL A   1      44.495  25.575  24.852  1.00  0.00    -0.206 F 
ATOM     85  C   UNL A   1      47.976  24.817  25.623  1.00  0.00     0.022 A 
BRANCH  82  86
ATOM     86  S   UNL A   1      49.921  25.571  27.441  1.00  0.00     0.124 S 
ATOM     87  O   UNL A   1      49.961  26.691  28.372  1.00  0.00    -0.237 OA
ATOM     88  O   UNL A   1      49.871  24.234  28.025  1.00  0.00    -0.237 OA
ATOM     89  O   UNL A   1      50.868  25.691  26.325  1.00  0.00    -0.744 OA
ENDBRANCH  82  86
ENDBRANCH  55  79
BRANCH  67  90
ATOM     90  C   UNL A   1      44.287  31.078  29.962  1.00  0.00     0.023 A 
ATOM     91  C   UNL A   1      44.147  31.328  28.567  1.00  0.00     0.031 A 
ATOM     92  C   UNL A   1      44.573  32.193  30.762  1.00  0.00     0.131 A 
ATOM     93  C   UNL A   1      44.345  32.617  28.027  1.00  0.00     0.055 A 
ATOM     94  C   UNL A   1      44.727  33.479  30.234  1.00  0.00     0.041 A 
ATOM     95  F   UNL A   1      44.723  32.050  32.088  1.00  0.00    -0.206 F 
ATOM     96  C   UNL A   1      44.633  33.694  28.864  1.00  0.00     0.022 A 
BRANCH  93  97
ATOM     97  S   UNL A   1      44.302  32.887  26.219  1.00  0.00     0.124 S 
ATOM     98  O   UNL A   1      45.712  32.981  25.856  1.00  0.00    -0.237 OA
ATOM     99  O   UNL A   1      43.599  31.705  25.728  1.00  0.00    -0.237 OA
ATOM    100  O   UNL A   1      43.555  34.139  26.077  1.00  0.00    -0.744 OA
ENDBRANCH  93  97
ENDBRANCH  67  90
ENDBRANCH  41  42
ENDBRANCH  34  36
ENDBRANCH  33  34
ENDBRANCH  32  33
ENDBRANCH   1  32
TORSDOF 19
ENDMDL
