MODEL 1
REMARK VINA RESULT:     -10.9      0.000      0.000
REMARK SMILES CC(C)[C@@](C)(CC(=O)N[C@H]1CCCC1(C)C)C(=O)OCCOCCOC(=O)c1ccc(-c2c3nc(c(-c4cc(S(=O)(=O)[O-])ccc4F)c4ccc([nH]4)c(-c4cc(S(=O)(=O)[O-])ccc4F)c4nc(c(-c5cc(S(=O)(=O)[O-])ccc5F)c5ccc2[nH]5)C=C4)C=C3)cc1
REMARK SMILES IDX 22 1 21 2 20 3 19 4 17 5 18 6 4 7 5 8 2 9 1 10 3 11 6 12
REMARK SMILES IDX 7 13 8 14 9 15 10 17 11 18 14 19 12 20 13 21 15 22 16 23
REMARK SMILES IDX 23 24 24 25 25 26 26 27 27 28 28 29 29 30 90 31 30 32 89 33
REMARK SMILES IDX 31 34 32 35 33 36 83 37 34 38 88 39 82 40 84 41 35 42 87 43
REMARK SMILES IDX 81 44 80 45 36 47 68 48 48 49 67 50 49 51 52 52 66 53 85 54
REMARK SMILES IDX 50 55 51 56 65 58 86 59 53 60 37 61 38 62 46 63 39 64 45 65
REMARK SMILES IDX 47 66 44 67 40 68 41 69 42 70 43 71 69 72 70 73 78 74 71 75
REMARK SMILES IDX 77 76 79 77 76 78 72 79 73 80 74 81 75 82 54 83 55 84 63 85
REMARK SMILES IDX 56 86 62 87 64 88 61 89 57 90 58 91 59 92 60 93
REMARK H PARENT 9 16 84 46 52 57
REMARK Flexibility Score: inf
ROOT
ATOM      1  O   UNL A   1      30.636  30.681  25.065  1.00  0.00    -0.374 OA
ENDROOT
BRANCH   1   2
ATOM      2  C   UNL A   1      30.821  29.507  24.269  1.00  0.00     0.202 C 
BRANCH   2   3
ATOM      3  C   UNL A   1      29.884  29.291  23.079  1.00  0.00     0.261 C 
BRANCH   3   4
ATOM      4  O   UNL A   1      30.045  27.994  22.450  1.00  0.00    -0.463 OA
BRANCH   4   5
ATOM      5  C   UNL A   1      29.936  26.978  23.338  1.00  0.00     0.312 C 
ATOM      6  O   UNL A   1      28.862  26.669  23.856  1.00  0.00    -0.252 OA
BRANCH   5   7
ATOM      7  C   UNL A   1      31.197  26.110  23.541  1.00  0.00     0.076 C 
ATOM      8  C   UNL A   1      30.656  24.677  23.243  1.00  0.00     0.024 C 
BRANCH   7   9
ATOM      9  C   UNL A   1      32.237  26.577  22.498  1.00  0.00     0.000 C 
ATOM     10  C   UNL A   1      33.602  27.062  22.987  1.00  0.00     0.008 C 
ATOM     11  C   UNL A   1      32.510  25.508  21.419  1.00  0.00     0.008 C 
ENDBRANCH   7   9
BRANCH   7  12
ATOM     12  C   UNL A   1      31.864  25.965  24.957  1.00  0.00     0.118 C 
BRANCH  12  13
ATOM     13  C   UNL A   1      31.682  24.771  25.914  1.00  0.00     0.221 C 
ATOM     14  O   UNL A   1      30.713  24.815  26.688  1.00  0.00    -0.275 OA
ATOM     15  N   UNL A   1      32.388  23.611  26.016  1.00  0.00    -0.353 N 
ATOM     16  H   UNL A   1      32.270  23.224  26.914  1.00  0.00     0.163 HD
BRANCH  15  17
ATOM     17  C   UNL A   1      33.283  22.740  25.201  1.00  0.00     0.087 C 
ATOM     18  C   UNL A   1      34.129  23.456  24.125  1.00  0.00     0.025 C 
ATOM     19  C   UNL A   1      34.482  22.183  26.069  1.00  0.00    -0.015 C 
ATOM     20  C   UNL A   1      35.277  24.149  24.847  1.00  0.00     0.003 C 
ATOM     21  C   UNL A   1      35.438  23.398  26.162  1.00  0.00     0.008 C 
ATOM     22  C   UNL A   1      34.113  21.690  27.471  1.00  0.00     0.013 C 
ATOM     23  C   UNL A   1      35.207  21.019  25.347  1.00  0.00     0.013 C 
ENDBRANCH  15  17
ENDBRANCH  12  13
ENDBRANCH   7  12
ENDBRANCH   5   7
ENDBRANCH   4   5
ENDBRANCH   3   4
ENDBRANCH   2   3
ENDBRANCH   1   2
BRANCH   1  24
ATOM     24  C   UNL A   1      31.664  30.983  26.000  1.00  0.00     0.202 C 
BRANCH  24  25
ATOM     25  C   UNL A   1      31.654  32.340  26.703  1.00  0.00     0.261 C 
BRANCH  25  26
ATOM     26  O   UNL A   1      32.481  32.350  27.871  1.00  0.00    -0.460 OA
BRANCH  26  27
ATOM     27  C   UNL A   1      33.434  33.308  27.845  1.00  0.00     0.338 C 
ATOM     28  O   UNL A   1      33.263  34.519  27.800  1.00  0.00    -0.246 OA
BRANCH  27  29
ATOM     29  C   UNL A   1      34.738  32.700  28.144  1.00  0.00     0.060 A 
ATOM     30  C   UNL A   1      34.730  31.332  28.454  1.00  0.00     0.016 A 
ATOM     31  C   UNL A   1      35.927  33.429  28.137  1.00  0.00     0.016 A 
ATOM     32  C   UNL A   1      35.907  30.695  28.807  1.00  0.00     0.010 A 
ATOM     33  C   UNL A   1      37.109  32.795  28.528  1.00  0.00     0.010 A 
ATOM     34  C   UNL A   1      37.088  31.438  28.903  1.00  0.00    -0.014 A 
BRANCH  34  35
ATOM     35  C   UNL A   1      38.223  30.827  29.625  1.00  0.00     0.031 A 
ATOM     36  C   UNL A   1      38.428  31.210  31.064  1.00  0.00     0.074 A 
ATOM     37  C   UNL A   1      38.972  29.876  29.044  1.00  0.00     0.049 A 
ATOM     38  N   UNL A   1      39.331  30.801  31.912  1.00  0.00    -0.248 NA
ATOM     39  C   UNL A   1      37.475  32.187  31.619  1.00  0.00     0.031 C 
ATOM     40  C   UNL A   1      38.792  29.381  27.679  1.00  0.00     0.029 A 
ATOM     41  N   UNL A   1      40.025  29.149  29.532  1.00  0.00    -0.354 N 
ATOM     42  C   UNL A   1      39.058  31.468  33.103  1.00  0.00     0.074 A 
ATOM     43  C   UNL A   1      37.932  32.340  32.851  1.00  0.00     0.031 C 
ATOM     44  C   UNL A   1      39.713  28.432  27.438  1.00  0.00     0.029 A 
ATOM     45  C   UNL A   1      40.569  28.285  28.612  1.00  0.00     0.049 A 
ATOM     46  H   UNL A   1      40.359  29.235  30.453  1.00  0.00     0.167 HD
ATOM     47  C   UNL A   1      39.687  31.351  34.296  1.00  0.00     0.034 A 
ATOM     48  C   UNL A   1      41.655  27.493  28.706  1.00  0.00     0.034 A 
ATOM     49  C   UNL A   1      40.821  30.486  34.508  1.00  0.00     0.049 A 
ATOM     50  C   UNL A   1      42.411  27.463  30.013  1.00  0.00     0.074 A 
ATOM     51  C   UNL A   1      41.554  30.292  35.665  1.00  0.00     0.029 A 
ATOM     52  N   UNL A   1      41.395  29.678  33.533  1.00  0.00    -0.354 N 
ATOM     53  N   UNL A   1      42.157  28.107  31.130  1.00  0.00    -0.248 NA
ATOM     54  C   UNL A   1      43.590  26.592  30.076  1.00  0.00     0.031 C 
ATOM     55  C   UNL A   1      42.618  29.434  35.367  1.00  0.00     0.029 A 
ATOM     56  C   UNL A   1      42.495  29.014  34.051  1.00  0.00     0.049 A 
ATOM     57  H   UNL A   1      41.067  29.591  32.609  1.00  0.00     0.167 HD
ATOM     58  C   UNL A   1      43.129  27.696  32.038  1.00  0.00     0.074 A 
ATOM     59  C   UNL A   1      43.961  26.735  31.340  1.00  0.00     0.031 C 
ATOM     60  C   UNL A   1      43.318  28.069  33.330  1.00  0.00     0.034 A 
BRANCH  47  61
ATOM     61  C   UNL A   1      39.200  32.228  35.426  1.00  0.00     0.023 A 
ATOM     62  C   UNL A   1      39.638  33.556  35.581  1.00  0.00     0.031 A 
ATOM     63  C   UNL A   1      38.319  31.710  36.392  1.00  0.00     0.131 A 
ATOM     64  C   UNL A   1      39.253  34.294  36.711  1.00  0.00     0.055 A 
ATOM     65  C   UNL A   1      37.872  32.478  37.469  1.00  0.00     0.041 A 
ATOM     66  F   UNL A   1      37.891  30.440  36.317  1.00  0.00    -0.206 F 
ATOM     67  C   UNL A   1      38.350  33.773  37.641  1.00  0.00     0.022 A 
BRANCH  64  68
ATOM     68  S   UNL A   1      40.065  35.884  37.030  1.00  0.00     0.124 S 
ATOM     69  O   UNL A   1      41.462  35.478  37.172  1.00  0.00    -0.237 OA
ATOM     70  O   UNL A   1      39.741  36.650  35.833  1.00  0.00    -0.237 OA
ATOM     71  O   UNL A   1      39.432  36.351  38.261  1.00  0.00    -0.744 OA
ENDBRANCH  64  68
ENDBRANCH  47  61
BRANCH  48  72
ATOM     72  C   UNL A   1      42.123  26.712  27.524  1.00  0.00     0.023 A 
ATOM     73  C   UNL A   1      41.829  25.347  27.384  1.00  0.00     0.031 A 
ATOM     74  C   UNL A   1      42.918  27.319  26.533  1.00  0.00     0.131 A 
ATOM     75  C   UNL A   1      42.362  24.624  26.304  1.00  0.00     0.055 A 
ATOM     76  C   UNL A   1      43.395  26.610  25.430  1.00  0.00     0.041 A 
ATOM     77  F   UNL A   1      43.236  28.620  26.619  1.00  0.00    -0.206 F 
ATOM     78  C   UNL A   1      43.129  25.250  25.318  1.00  0.00     0.022 A 
BRANCH  75  79
ATOM     79  S   UNL A   1      42.119  22.827  26.257  1.00  0.00     0.124 S 
ATOM     80  O   UNL A   1      40.668  22.721  26.358  1.00  0.00    -0.237 OA
ATOM     81  O   UNL A   1      42.699  22.478  24.965  1.00  0.00    -0.237 OA
ATOM     82  O   UNL A   1      42.863  22.353  27.421  1.00  0.00    -0.744 OA
ENDBRANCH  75  79
ENDBRANCH  48  72
BRANCH  60  83
ATOM     83  C   UNL A   1      44.442  27.397  34.082  1.00  0.00     0.023 A 
ATOM     84  C   UNL A   1      44.227  26.255  34.871  1.00  0.00     0.031 A 
ATOM     85  C   UNL A   1      45.748  27.913  34.008  1.00  0.00     0.131 A 
ATOM     86  C   UNL A   1      45.289  25.704  35.606  1.00  0.00     0.055 A 
ATOM     87  C   UNL A   1      46.814  27.318  34.682  1.00  0.00     0.041 A 
ATOM     88  F   UNL A   1      46.011  29.005  33.271  1.00  0.00    -0.206 F 
ATOM     89  C   UNL A   1      46.585  26.215  35.499  1.00  0.00     0.022 A 
BRANCH  86  90
ATOM     90  S   UNL A   1      44.931  24.377  36.788  1.00  0.00     0.124 S 
ATOM     91  O   UNL A   1      43.748  24.890  37.471  1.00  0.00    -0.237 OA
ATOM     92  O   UNL A   1      44.714  23.228  35.913  1.00  0.00    -0.237 OA
ATOM     93  O   UNL A   1      46.140  24.312  37.606  1.00  0.00    -0.744 OA
ENDBRANCH  86  90
ENDBRANCH  60  83
ENDBRANCH  34  35
ENDBRANCH  27  29
ENDBRANCH  26  27
ENDBRANCH  25  26
ENDBRANCH  24  25
ENDBRANCH   1  24
TORSDOF 21
ENDMDL
MODEL 2
REMARK VINA RESULT:     -10.1      1.600      2.159
REMARK SMILES CC(C)[C@@](C)(CC(=O)N[C@H]1CCCC1(C)C)C(=O)OCCOCCOC(=O)c1ccc(-c2c3nc(c(-c4cc(S(=O)(=O)[O-])ccc4F)c4ccc([nH]4)c(-c4cc(S(=O)(=O)[O-])ccc4F)c4nc(c(-c5cc(S(=O)(=O)[O-])ccc5F)c5ccc2[nH]5)C=C4)C=C3)cc1
REMARK SMILES IDX 22 1 21 2 20 3 19 4 17 5 18 6 4 7 5 8 2 9 1 10 3 11 6 12
REMARK SMILES IDX 7 13 8 14 9 15 10 17 11 18 14 19 12 20 13 21 15 22 16 23
REMARK SMILES IDX 23 24 24 25 25 26 26 27 27 28 28 29 29 30 90 31 30 32 89 33
REMARK SMILES IDX 31 34 32 35 33 36 83 37 34 38 88 39 82 40 84 41 35 42 87 43
REMARK SMILES IDX 81 44 80 45 36 47 68 48 48 49 67 50 49 51 52 52 66 53 85 54
REMARK SMILES IDX 50 55 51 56 65 58 86 59 53 60 37 61 38 62 46 63 39 64 45 65
REMARK SMILES IDX 47 66 44 67 40 68 41 69 42 70 43 71 69 72 70 73 78 74 71 75
REMARK SMILES IDX 77 76 79 77 76 78 72 79 73 80 74 81 75 82 54 83 55 84 63 85
REMARK SMILES IDX 56 86 62 87 64 88 61 89 57 90 58 91 59 92 60 93
REMARK H PARENT 9 16 84 46 52 57
REMARK Flexibility Score: inf
ROOT
ATOM      1  O   UNL A   1      32.385  30.664  27.259  1.00  0.00    -0.374 OA
ENDROOT
BRANCH   1   2
ATOM      2  C   UNL A   1      33.192  29.796  26.460  1.00  0.00     0.202 C 
BRANCH   2   3
ATOM      3  C   UNL A   1      32.672  29.405  25.075  1.00  0.00     0.261 C 
BRANCH   3   4
ATOM      4  O   UNL A   1      31.840  28.217  25.090  1.00  0.00    -0.463 OA
BRANCH   4   5
ATOM      5  C   UNL A   1      32.505  27.121  24.658  1.00  0.00     0.312 C 
ATOM      6  O   UNL A   1      33.510  26.693  25.227  1.00  0.00    -0.252 OA
BRANCH   5   7
ATOM      7  C   UNL A   1      31.841  26.326  23.511  1.00  0.00     0.076 C 
ATOM      8  C   UNL A   1      30.723  27.307  23.041  1.00  0.00     0.024 C 
BRANCH   7   9
ATOM      9  C   UNL A   1      32.924  26.105  22.433  1.00  0.00     0.000 C 
ATOM     10  C   UNL A   1      32.515  25.488  21.095  1.00  0.00     0.008 C 
ATOM     11  C   UNL A   1      33.699  27.398  22.103  1.00  0.00     0.008 C 
ENDBRANCH   7   9
BRANCH   7  12
ATOM     12  C   UNL A   1      31.063  24.989  23.794  1.00  0.00     0.118 C 
BRANCH  12  13
ATOM     13  C   UNL A   1      31.698  23.589  23.894  1.00  0.00     0.221 C 
ATOM     14  O   UNL A   1      31.334  22.747  23.057  1.00  0.00    -0.275 OA
ATOM     15  N   UNL A   1      32.666  23.120  24.729  1.00  0.00    -0.353 N 
ATOM     16  H   UNL A   1      32.606  22.139  24.794  1.00  0.00     0.163 HD
BRANCH  15  17
ATOM     17  C   UNL A   1      33.787  23.618  25.577  1.00  0.00     0.087 C 
ATOM     18  C   UNL A   1      33.933  22.954  26.965  1.00  0.00     0.025 C 
ATOM     19  C   UNL A   1      35.186  23.177  24.988  1.00  0.00    -0.015 C 
ATOM     20  C   UNL A   1      34.563  21.586  26.740  1.00  0.00     0.003 C 
ATOM     21  C   UNL A   1      35.285  21.689  25.404  1.00  0.00     0.008 C 
ATOM     22  C   UNL A   1      35.342  23.316  23.471  1.00  0.00     0.013 C 
ATOM     23  C   UNL A   1      36.348  23.966  25.645  1.00  0.00     0.013 C 
ENDBRANCH  15  17
ENDBRANCH  12  13
ENDBRANCH   7  12
ENDBRANCH   5   7
ENDBRANCH   4   5
ENDBRANCH   3   4
ENDBRANCH   2   3
ENDBRANCH   1   2
BRANCH   1  24
ATOM     24  C   UNL A   1      31.675  31.686  26.569  1.00  0.00     0.202 C 
BRANCH  24  25
ATOM     25  C   UNL A   1      31.860  33.141  26.999  1.00  0.00     0.261 C 
BRANCH  25  26
ATOM     26  O   UNL A   1      32.419  33.248  28.313  1.00  0.00    -0.460 OA
BRANCH  26  27
ATOM     27  C   UNL A   1      33.479  34.084  28.377  1.00  0.00     0.338 C 
ATOM     28  O   UNL A   1      33.452  35.305  28.459  1.00  0.00    -0.246 OA
BRANCH  27  29
ATOM     29  C   UNL A   1      34.701  33.299  28.600  1.00  0.00     0.060 A 
ATOM     30  C   UNL A   1      34.533  32.049  29.212  1.00  0.00     0.016 A 
ATOM     31  C   UNL A   1      35.967  33.761  28.240  1.00  0.00     0.016 A 
ATOM     32  C   UNL A   1      35.639  31.272  29.513  1.00  0.00     0.010 A 
ATOM     33  C   UNL A   1      37.085  32.993  28.576  1.00  0.00     0.010 A 
ATOM     34  C   UNL A   1      36.920  31.769  29.251  1.00  0.00    -0.014 A 
BRANCH  34  35
ATOM     35  C   UNL A   1      38.061  31.098  29.907  1.00  0.00     0.031 A 
ATOM     36  C   UNL A   1      38.330  31.422  31.350  1.00  0.00     0.074 A 
ATOM     37  C   UNL A   1      38.759  30.147  29.264  1.00  0.00     0.049 A 
ATOM     38  N   UNL A   1      39.251  30.955  32.149  1.00  0.00    -0.248 NA
ATOM     39  C   UNL A   1      37.429  32.406  31.976  1.00  0.00     0.031 C 
ATOM     40  C   UNL A   1      38.513  29.709  27.890  1.00  0.00     0.029 A 
ATOM     41  N   UNL A   1      39.805  29.371  29.686  1.00  0.00    -0.354 N 
ATOM     42  C   UNL A   1      39.042  31.585  33.371  1.00  0.00     0.074 A 
ATOM     43  C   UNL A   1      37.935  32.499  33.194  1.00  0.00     0.031 C 
ATOM     44  C   UNL A   1      39.394  28.742  27.581  1.00  0.00     0.029 A 
ATOM     45  C   UNL A   1      40.288  28.526  28.716  1.00  0.00     0.049 A 
ATOM     46  H   UNL A   1      40.175  29.413  30.597  1.00  0.00     0.167 HD
ATOM     47  C   UNL A   1      39.710  31.406  34.536  1.00  0.00     0.034 A 
ATOM     48  C   UNL A   1      41.352  27.699  28.740  1.00  0.00     0.034 A 
ATOM     49  C   UNL A   1      40.824  30.499  34.673  1.00  0.00     0.049 A 
ATOM     50  C   UNL A   1      42.153  27.598  30.016  1.00  0.00     0.074 A 
ATOM     51  C   UNL A   1      41.592  30.242  35.794  1.00  0.00     0.029 A 
ATOM     52  N   UNL A   1      41.336  29.712  33.649  1.00  0.00    -0.354 N 
ATOM     53  N   UNL A   1      41.961  28.209  31.165  1.00  0.00    -0.248 NA
ATOM     54  C   UNL A   1      43.306  26.691  30.004  1.00  0.00     0.031 C 
ATOM     55  C   UNL A   1      42.617  29.364  35.426  1.00  0.00     0.029 A 
ATOM     56  C   UNL A   1      42.433  28.996  34.102  1.00  0.00     0.049 A 
ATOM     57  H   UNL A   1      40.973  29.669  32.735  1.00  0.00     0.167 HD
ATOM     58  C   UNL A   1      42.952  27.735  32.019  1.00  0.00     0.074 A 
ATOM     59  C   UNL A   1      43.727  26.776  31.257  1.00  0.00     0.031 C 
ATOM     60  C   UNL A   1      43.199  28.055  33.316  1.00  0.00     0.034 A 
BRANCH  47  61
ATOM     61  C   UNL A   1      39.293  32.254  35.713  1.00  0.00     0.023 A 
ATOM     62  C   UNL A   1      39.767  33.566  35.892  1.00  0.00     0.031 A 
ATOM     63  C   UNL A   1      38.442  31.723  36.699  1.00  0.00     0.131 A 
ATOM     64  C   UNL A   1      39.448  34.274  37.062  1.00  0.00     0.055 A 
ATOM     65  C   UNL A   1      38.060  32.464  37.819  1.00  0.00     0.041 A 
ATOM     66  F   UNL A   1      37.982  30.466  36.602  1.00  0.00    -0.206 F 
ATOM     67  C   UNL A   1      38.574  33.742  38.013  1.00  0.00     0.022 A 
BRANCH  64  68
ATOM     68  S   UNL A   1      40.310  35.834  37.397  1.00  0.00     0.124 S 
ATOM     69  O   UNL A   1      39.883  36.119  38.766  1.00  0.00    -0.237 OA
ATOM     70  O   UNL A   1      41.710  35.464  37.229  1.00  0.00    -0.237 OA
ATOM     71  O   UNL A   1      39.779  36.744  36.385  1.00  0.00    -0.744 OA
ENDBRANCH  64  68
ENDBRANCH  47  61
BRANCH  48  72
ATOM     72  C   UNL A   1      41.751  26.949  27.515  1.00  0.00     0.023 A 
ATOM     73  C   UNL A   1      41.594  25.558  27.422  1.00  0.00     0.031 A 
ATOM     74  C   UNL A   1      42.345  27.617  26.427  1.00  0.00     0.131 A 
ATOM     75  C   UNL A   1      42.064  24.874  26.289  1.00  0.00     0.055 A 
ATOM     76  C   UNL A   1      42.756  26.941  25.277  1.00  0.00     0.041 A 
ATOM     77  F   UNL A   1      42.527  28.947  26.462  1.00  0.00    -0.206 F 
ATOM     78  C   UNL A   1      42.628  25.558  25.210  1.00  0.00     0.022 A 
BRANCH  75  79
ATOM     79  S   UNL A   1      42.015  23.061  26.286  1.00  0.00     0.124 S 
ATOM     80  O   UNL A   1      42.742  22.742  27.509  1.00  0.00    -0.237 OA
ATOM     81  O   UNL A   1      40.581  22.797  26.303  1.00  0.00    -0.237 OA
ATOM     82  O   UNL A   1      42.697  22.705  25.043  1.00  0.00    -0.744 OA
ENDBRANCH  75  79
ENDBRANCH  48  72
BRANCH  60  83
ATOM     83  C   UNL A   1      44.329  27.321  34.001  1.00  0.00     0.023 A 
ATOM     84  C   UNL A   1      45.634  27.841  34.040  1.00  0.00     0.031 A 
ATOM     85  C   UNL A   1      44.092  26.080  34.618  1.00  0.00     0.131 A 
ATOM     86  C   UNL A   1      46.664  27.093  34.629  1.00  0.00     0.055 A 
ATOM     87  C   UNL A   1      45.106  25.375  35.266  1.00  0.00     0.041 A 
ATOM     88  F   UNL A   1      42.865  25.534  34.608  1.00  0.00    -0.206 F 
ATOM     89  C   UNL A   1      46.405  25.874  35.261  1.00  0.00     0.022 A 
BRANCH  86  90
ATOM     90  S   UNL A   1      48.371  27.684  34.462  1.00  0.00     0.124 S 
ATOM     91  O   UNL A   1      48.505  27.816  33.015  1.00  0.00    -0.237 OA
ATOM     92  O   UNL A   1      48.345  28.932  35.217  1.00  0.00    -0.237 OA
ATOM     93  O   UNL A   1      49.164  26.613  35.063  1.00  0.00    -0.744 OA
ENDBRANCH  86  90
ENDBRANCH  60  83
ENDBRANCH  34  35
ENDBRANCH  27  29
ENDBRANCH  26  27
ENDBRANCH  25  26
ENDBRANCH  24  25
ENDBRANCH   1  24
TORSDOF 21
ENDMDL
MODEL 3
REMARK VINA RESULT:     -10.1      4.943     10.711
REMARK SMILES CC(C)[C@@](C)(CC(=O)N[C@H]1CCCC1(C)C)C(=O)OCCOCCOC(=O)c1ccc(-c2c3nc(c(-c4cc(S(=O)(=O)[O-])ccc4F)c4ccc([nH]4)c(-c4cc(S(=O)(=O)[O-])ccc4F)c4nc(c(-c5cc(S(=O)(=O)[O-])ccc5F)c5ccc2[nH]5)C=C4)C=C3)cc1
REMARK SMILES IDX 22 1 21 2 20 3 19 4 17 5 18 6 4 7 5 8 2 9 1 10 3 11 6 12
REMARK SMILES IDX 7 13 8 14 9 15 10 17 11 18 14 19 12 20 13 21 15 22 16 23
REMARK SMILES IDX 23 24 24 25 25 26 26 27 27 28 28 29 29 30 90 31 30 32 89 33
REMARK SMILES IDX 31 34 32 35 33 36 83 37 34 38 88 39 82 40 84 41 35 42 87 43
REMARK SMILES IDX 81 44 80 45 36 47 68 48 48 49 67 50 49 51 52 52 66 53 85 54
REMARK SMILES IDX 50 55 51 56 65 58 86 59 53 60 37 61 38 62 46 63 39 64 45 65
REMARK SMILES IDX 47 66 44 67 40 68 41 69 42 70 43 71 69 72 70 73 78 74 71 75
REMARK SMILES IDX 77 76 79 77 76 78 72 79 73 80 74 81 75 82 54 83 55 84 63 85
REMARK SMILES IDX 56 86 62 87 64 88 61 89 57 90 58 91 59 92 60 93
REMARK H PARENT 9 16 84 46 52 57
REMARK Flexibility Score: inf
ROOT
ATOM      1  O   UNL A   1      37.633  19.834  25.055  1.00  0.00    -0.374 OA
ENDROOT
BRANCH   1   2
ATOM      2  C   UNL A   1      36.639  20.786  24.667  1.00  0.00     0.202 C 
BRANCH   2   3
ATOM      3  C   UNL A   1      35.888  21.530  25.773  1.00  0.00     0.261 C 
BRANCH   3   4
ATOM      4  O   UNL A   1      35.409  22.836  25.362  1.00  0.00    -0.463 OA
BRANCH   4   5
ATOM      5  C   UNL A   1      34.079  22.980  25.565  1.00  0.00     0.312 C 
ATOM      6  O   UNL A   1      33.605  23.238  26.673  1.00  0.00    -0.252 OA
BRANCH   5   7
ATOM      7  C   UNL A   1      33.190  22.975  24.302  1.00  0.00     0.076 C 
ATOM      8  C   UNL A   1      34.118  23.655  23.249  1.00  0.00     0.024 C 
BRANCH   7   9
ATOM      9  C   UNL A   1      32.899  21.495  23.964  1.00  0.00     0.000 C 
ATOM     10  C   UNL A   1      32.180  20.632  25.001  1.00  0.00     0.008 C 
ATOM     11  C   UNL A   1      32.120  21.335  22.641  1.00  0.00     0.008 C 
ENDBRANCH   7   9
BRANCH   7  12
ATOM     12  C   UNL A   1      31.869  23.825  24.234  1.00  0.00     0.118 C 
BRANCH  12  13
ATOM     13  C   UNL A   1      31.274  24.647  25.393  1.00  0.00     0.221 C 
ATOM     14  O   UNL A   1      30.279  24.174  25.964  1.00  0.00    -0.275 OA
ATOM     15  N   UNL A   1      31.703  25.810  25.956  1.00  0.00    -0.353 N 
ATOM     16  H   UNL A   1      30.953  26.259  26.411  1.00  0.00     0.163 HD
BRANCH  15  17
ATOM     17  C   UNL A   1      32.945  26.621  26.104  1.00  0.00     0.087 C 
ATOM     18  C   UNL A   1      33.656  27.019  24.790  1.00  0.00     0.025 C 
ATOM     19  C   UNL A   1      32.616  28.082  26.610  1.00  0.00    -0.015 C 
ATOM     20  C   UNL A   1      32.852  28.158  24.176  1.00  0.00     0.003 C 
ATOM     21  C   UNL A   1      32.087  28.782  25.334  1.00  0.00     0.008 C 
ATOM     22  C   UNL A   1      31.581  28.178  27.735  1.00  0.00     0.013 C 
ATOM     23  C   UNL A   1      33.894  28.812  27.097  1.00  0.00     0.013 C 
ENDBRANCH  15  17
ENDBRANCH  12  13
ENDBRANCH   7  12
ENDBRANCH   5   7
ENDBRANCH   4   5
ENDBRANCH   3   4
ENDBRANCH   2   3
ENDBRANCH   1   2
BRANCH   1  24
ATOM     24  C   UNL A   1      38.867  20.361  25.528  1.00  0.00     0.202 C 
BRANCH  24  25
ATOM     25  C   UNL A   1      39.973  19.396  25.953  1.00  0.00     0.261 C 
BRANCH  25  26
ATOM     26  O   UNL A   1      41.207  19.655  25.275  1.00  0.00    -0.460 OA
BRANCH  26  27
ATOM     27  C   UNL A   1      42.246  19.866  26.113  1.00  0.00     0.338 C 
ATOM     28  O   UNL A   1      43.215  19.138  26.285  1.00  0.00    -0.246 OA
BRANCH  27  29
ATOM     29  C   UNL A   1      42.187  21.244  26.619  1.00  0.00     0.060 A 
ATOM     30  C   UNL A   1      42.038  22.253  25.658  1.00  0.00     0.016 A 
ATOM     31  C   UNL A   1      42.284  21.551  27.977  1.00  0.00     0.016 A 
ATOM     32  C   UNL A   1      42.034  23.583  26.044  1.00  0.00     0.010 A 
ATOM     33  C   UNL A   1      42.317  22.894  28.363  1.00  0.00     0.010 A 
ATOM     34  C   UNL A   1      42.234  23.908  27.390  1.00  0.00    -0.014 A 
BRANCH  34  35
ATOM     35  C   UNL A   1      42.591  25.305  27.709  1.00  0.00     0.031 A 
ATOM     36  C   UNL A   1      43.934  25.807  27.261  1.00  0.00     0.074 A 
ATOM     37  C   UNL A   1      41.695  26.127  28.281  1.00  0.00     0.049 A 
ATOM     38  N   UNL A   1      44.469  26.989  27.401  1.00  0.00    -0.248 NA
ATOM     39  C   UNL A   1      44.787  24.838  26.550  1.00  0.00     0.031 C 
ATOM     40  C   UNL A   1      40.338  25.748  28.674  1.00  0.00     0.029 A 
ATOM     41  N   UNL A   1      41.789  27.451  28.617  1.00  0.00    -0.354 N 
ATOM     42  C   UNL A   1      45.720  26.909  26.797  1.00  0.00     0.074 A 
ATOM     43  C   UNL A   1      45.880  25.550  26.330  1.00  0.00     0.031 C 
ATOM     44  C   UNL A   1      39.727  26.820  29.206  1.00  0.00     0.029 A 
ATOM     45  C   UNL A   1      40.661  27.943  29.230  1.00  0.00     0.049 A 
ATOM     46  H   UNL A   1      42.586  27.999  28.437  1.00  0.00     0.167 HD
ATOM     47  C   UNL A   1      46.643  27.888  26.641  1.00  0.00     0.034 A 
ATOM     48  C   UNL A   1      40.430  29.154  29.774  1.00  0.00     0.034 A 
ATOM     49  C   UNL A   1      46.461  29.230  27.137  1.00  0.00     0.049 A 
ATOM     50  C   UNL A   1      41.518  30.198  29.688  1.00  0.00     0.074 A 
ATOM     51  C   UNL A   1      47.328  30.305  27.056  1.00  0.00     0.029 A 
ATOM     52  N   UNL A   1      45.335  29.676  27.820  1.00  0.00    -0.354 N 
ATOM     53  N   UNL A   1      42.705  30.112  29.130  1.00  0.00    -0.248 NA
ATOM     54  C   UNL A   1      41.232  31.503  30.294  1.00  0.00     0.031 C 
ATOM     55  C   UNL A   1      46.763  31.373  27.762  1.00  0.00     0.029 A 
ATOM     56  C   UNL A   1      45.502  30.999  28.200  1.00  0.00     0.049 A 
ATOM     57  H   UNL A   1      44.537  29.132  28.008  1.00  0.00     0.167 HD
ATOM     58  C   UNL A   1      43.295  31.363  29.293  1.00  0.00     0.074 A 
ATOM     59  C   UNL A   1      42.325  32.187  29.985  1.00  0.00     0.031 C 
ATOM     60  C   UNL A   1      44.522  31.796  28.903  1.00  0.00     0.034 A 
BRANCH  47  61
ATOM     61  C   UNL A   1      47.944  27.515  25.971  1.00  0.00     0.023 A 
ATOM     62  C   UNL A   1      48.149  27.691  24.590  1.00  0.00     0.031 A 
ATOM     63  C   UNL A   1      48.981  26.928  26.719  1.00  0.00     0.131 A 
ATOM     64  C   UNL A   1      49.328  27.219  23.991  1.00  0.00     0.055 A 
ATOM     65  C   UNL A   1      50.185  26.539  26.130  1.00  0.00     0.041 A 
ATOM     66  F   UNL A   1      48.833  26.705  28.034  1.00  0.00    -0.206 F 
ATOM     67  C   UNL A   1      50.359  26.670  24.757  1.00  0.00     0.022 A 
BRANCH  64  68
ATOM     68  S   UNL A   1      49.432  27.192  22.180  1.00  0.00     0.124 S 
ATOM     69  O   UNL A   1      48.878  28.499  21.833  1.00  0.00    -0.237 OA
ATOM     70  O   UNL A   1      50.862  27.022  21.948  1.00  0.00    -0.237 OA
ATOM     71  O   UNL A   1      48.599  26.052  21.806  1.00  0.00    -0.744 OA
ENDBRANCH  64  68
ENDBRANCH  47  61
BRANCH  48  72
ATOM     72  C   UNL A   1      39.150  29.428  30.488  1.00  0.00     0.023 A 
ATOM     73  C   UNL A   1      38.188  30.303  29.961  1.00  0.00     0.031 A 
ATOM     74  C   UNL A   1      38.892  28.847  31.744  1.00  0.00     0.131 A 
ATOM     75  C   UNL A   1      37.036  30.606  30.703  1.00  0.00     0.055 A 
ATOM     76  C   UNL A   1      37.716  29.104  32.451  1.00  0.00     0.041 A 
ATOM     77  F   UNL A   1      39.779  28.007  32.300  1.00  0.00    -0.206 F 
ATOM     78  C   UNL A   1      36.786  30.000  31.937  1.00  0.00     0.022 A 
BRANCH  75  79
ATOM     79  S   UNL A   1      35.909  31.882  30.078  1.00  0.00     0.124 S 
ATOM     80  O   UNL A   1      36.826  32.983  29.809  1.00  0.00    -0.237 OA
ATOM     81  O   UNL A   1      35.330  31.228  28.909  1.00  0.00    -0.237 OA
ATOM     82  O   UNL A   1      34.986  32.096  31.191  1.00  0.00    -0.744 OA
ENDBRANCH  75  79
ENDBRANCH  48  72
BRANCH  60  83
ATOM     83  C   UNL A   1      44.858  33.243  29.179  1.00  0.00     0.023 A 
ATOM     84  C   UNL A   1      44.711  34.238  28.198  1.00  0.00     0.031 A 
ATOM     85  C   UNL A   1      45.339  33.627  30.444  1.00  0.00     0.131 A 
ATOM     86  C   UNL A   1      45.100  35.557  28.479  1.00  0.00     0.055 A 
ATOM     87  C   UNL A   1      45.655  34.952  30.740  1.00  0.00     0.041 A 
ATOM     88  F   UNL A   1      45.503  32.717  31.418  1.00  0.00    -0.206 F 
ATOM     89  C   UNL A   1      45.550  35.924  29.750  1.00  0.00     0.022 A 
BRANCH  86  90
ATOM     90  S   UNL A   1      45.112  36.765  27.127  1.00  0.00     0.124 S 
ATOM     91  O   UNL A   1      43.687  36.961  26.883  1.00  0.00    -0.237 OA
ATOM     92  O   UNL A   1      45.818  37.895  27.723  1.00  0.00    -0.237 OA
ATOM     93  O   UNL A   1      45.835  36.077  26.059  1.00  0.00    -0.744 OA
ENDBRANCH  86  90
ENDBRANCH  60  83
ENDBRANCH  34  35
ENDBRANCH  27  29
ENDBRANCH  26  27
ENDBRANCH  25  26
ENDBRANCH  24  25
ENDBRANCH   1  24
TORSDOF 21
ENDMDL
