MODEL 1
REMARK VINA RESULT:     -11.2      0.000      0.000
REMARK SMILES Cc1ccc(Cl)c(Nc2ccccc2C(=O)N[C@@H](C)C(=O)OCCOCCOC(=O)c2ccc(-c3c4nc(c(-c5cc(S(=O)(=O)[O-])ccc5F)c5ccc([nH]5)c(-c5cc(S(=O)(=O)[O-])ccc5F)c5nc(c(-c6cc(S(=O)(=O)[O-])ccc6F)c6ccc3[nH]6)C=C5)C=C4)cc2)c1Cl
REMARK SMILES IDX 24 1 23 2 22 3 20 4 21 5 18 6 19 7 17 8 15 9 16 10 14 12
REMARK SMILES IDX 9 13 10 14 11 15 13 16 12 17 8 18 7 20 1 21 2 22 3 23 94 24
REMARK SMILES IDX 4 25 95 26 5 27 6 28 25 29 26 30 27 31 28 32 29 33 30 34
REMARK SMILES IDX 31 35 32 36 93 37 33 38 92 39 34 40 35 41 36 42 86 43 37 44
REMARK SMILES IDX 91 45 85 46 87 47 38 48 90 49 84 50 83 51 39 53 71 54 51 55
REMARK SMILES IDX 70 56 52 57 55 58 69 59 88 60 53 61 54 62 68 64 89 65 56 66
REMARK SMILES IDX 40 67 41 68 49 69 42 70 48 71 50 72 47 73 43 74 44 75 45 76
REMARK SMILES IDX 46 77 72 78 73 79 81 80 74 81 80 82 82 83 79 84 75 85 76 86
REMARK SMILES IDX 77 87 78 88 57 89 58 90 66 91 59 92 65 93 67 94 64 95 60 96
REMARK SMILES IDX 61 97 62 98 63 99
REMARK H PARENT 17 11 8 19 87 52 55 63
REMARK Flexibility Score: inf
ROOT
ATOM      1  C   UNL A   1      34.942  34.087  28.836  1.00  0.00     0.202 C 
ENDROOT
BRANCH   1   2
ATOM      2  C   UNL A   1      33.805  33.271  28.036  1.00  0.00     0.261 C 
BRANCH   2   3
ATOM      3  O   UNL A   1      33.822  31.794  27.972  1.00  0.00    -0.462 OA
BRANCH   3   4
ATOM      4  C   UNL A   1      32.845  31.163  27.224  1.00  0.00     0.328 C 
ATOM      5  O   UNL A   1      31.821  31.746  26.865  1.00  0.00    -0.250 OA
BRANCH   4   6
ATOM      6  C   UNL A   1      33.210  29.708  26.641  1.00  0.00     0.189 C 
ATOM      7  C   UNL A   1      34.452  29.146  27.342  1.00  0.00     0.043 C 
BRANCH   6   8
ATOM      8  N   UNL A   1      33.359  29.462  25.205  1.00  0.00    -0.339 N 
ATOM      9  C   UNL A   1      32.729  28.726  24.219  1.00  0.00     0.254 C 
ATOM     10  O   UNL A   1      33.415  28.724  23.180  1.00  0.00    -0.269 OA
ATOM     11  H   UNL A   1      34.125  29.961  24.837  1.00  0.00     0.164 HD
BRANCH   9  12
ATOM     12  C   UNL A   1      31.378  27.986  24.135  1.00  0.00     0.063 A 
ATOM     13  C   UNL A   1      30.828  26.820  24.734  1.00  0.00     0.051 A 
ATOM     14  C   UNL A   1      29.474  26.436  24.452  1.00  0.00     0.027 A 
ATOM     15  C   UNL A   1      28.629  27.189  23.651  1.00  0.00     0.002 A 
ATOM     16  C   UNL A   1      30.472  28.686  23.271  1.00  0.00     0.016 A 
ATOM     17  C   UNL A   1      29.134  28.319  23.049  1.00  0.00     0.001 A 
BRANCH  13  18
ATOM     18  N   UNL A   1      31.352  26.083  25.821  1.00  0.00    -0.352 N 
ATOM     19  H   UNL A   1      31.249  26.453  26.727  1.00  0.00     0.167 HD
BRANCH  18  20
ATOM     20  C   UNL A   1      32.026  24.820  25.675  1.00  0.00     0.077 A 
ATOM     21  C   UNL A   1      33.624  24.746  22.589  1.00  0.00     0.046 C 
ATOM     22  C   UNL A   1      33.149  24.004  23.799  1.00  0.00    -0.030 A 
ATOM     23  C   UNL A   1      32.384  22.831  23.831  1.00  0.00     0.006 A 
ATOM     24  C   UNL A   1      33.199  24.760  24.940  1.00  0.00     0.069 A 
ATOM     25  C   UNL A   1      31.508  22.596  24.890  1.00  0.00     0.023 A 
ATOM     26  Cl  UNL A   1      34.604  25.722  25.245  1.00  0.00    -0.082 Cl
ATOM     27  C   UNL A   1      31.266  23.642  25.770  1.00  0.00     0.066 A 
ATOM     28  Cl  UNL A   1      29.943  23.542  26.867  1.00  0.00    -0.082 Cl
ENDBRANCH  18  20
ENDBRANCH  13  18
ENDBRANCH   9  12
ENDBRANCH   6   8
ENDBRANCH   4   6
ENDBRANCH   3   4
ENDBRANCH   2   3
ENDBRANCH   1   2
BRANCH   1  29
ATOM     29  O   UNL A   1      34.612  34.976  29.910  1.00  0.00    -0.374 OA
BRANCH  29  30
ATOM     30  C   UNL A   1      33.879  34.457  31.046  1.00  0.00     0.202 C 
BRANCH  30  31
ATOM     31  C   UNL A   1      34.647  34.272  32.382  1.00  0.00     0.261 C 
BRANCH  31  32
ATOM     32  O   UNL A   1      35.915  33.687  32.098  1.00  0.00    -0.460 OA
BRANCH  32  33
ATOM     33  C   UNL A   1      36.352  32.729  32.925  1.00  0.00     0.338 C 
ATOM     34  O   UNL A   1      36.095  32.579  34.118  1.00  0.00    -0.246 OA
BRANCH  33  35
ATOM     35  C   UNL A   1      37.012  31.748  32.064  1.00  0.00     0.060 A 
ATOM     36  C   UNL A   1      37.868  30.843  32.704  1.00  0.00     0.016 A 
ATOM     37  C   UNL A   1      36.904  31.768  30.677  1.00  0.00     0.016 A 
ATOM     38  C   UNL A   1      38.644  29.963  31.973  1.00  0.00     0.010 A 
ATOM     39  C   UNL A   1      37.730  30.917  29.931  1.00  0.00     0.010 A 
ATOM     40  C   UNL A   1      38.645  30.060  30.581  1.00  0.00    -0.014 A 
BRANCH  40  41
ATOM     41  C   UNL A   1      39.853  29.554  29.881  1.00  0.00     0.031 A 
ATOM     42  C   UNL A   1      41.058  30.460  29.827  1.00  0.00     0.074 A 
ATOM     43  C   UNL A   1      39.950  28.289  29.439  1.00  0.00     0.049 A 
ATOM     44  N   UNL A   1      42.223  30.264  29.266  1.00  0.00    -0.248 NA
ATOM     45  C   UNL A   1      40.932  31.758  30.510  1.00  0.00     0.031 C 
ATOM     46  C   UNL A   1      38.909  27.268  29.543  1.00  0.00     0.029 A 
ATOM     47  N   UNL A   1      40.994  27.647  28.820  1.00  0.00    -0.354 N 
ATOM     48  C   UNL A   1      42.958  31.418  29.509  1.00  0.00     0.074 A 
ATOM     49  C   UNL A   1      42.100  32.319  30.246  1.00  0.00     0.031 C 
ATOM     50  C   UNL A   1      39.364  26.131  28.989  1.00  0.00     0.029 A 
ATOM     51  C   UNL A   1      40.708  26.355  28.453  1.00  0.00     0.049 A 
ATOM     52  H   UNL A   1      41.865  28.074  28.655  1.00  0.00     0.167 HD
ATOM     53  C   UNL A   1      44.235  31.705  29.155  1.00  0.00     0.034 A 
ATOM     54  C   UNL A   1      41.432  25.470  27.737  1.00  0.00     0.034 A 
ATOM     55  C   UNL A   1      45.092  30.806  28.422  1.00  0.00     0.049 A 
ATOM     56  C   UNL A   1      42.811  25.854  27.245  1.00  0.00     0.074 A 
ATOM     57  C   UNL A   1      46.394  31.014  28.000  1.00  0.00     0.029 A 
ATOM     58  N   UNL A   1      44.736  29.535  27.991  1.00  0.00    -0.354 N 
ATOM     59  N   UNL A   1      43.482  26.967  27.436  1.00  0.00    -0.248 NA
ATOM     60  C   UNL A   1      43.531  24.852  26.447  1.00  0.00     0.031 C 
ATOM     61  C   UNL A   1      46.798  29.904  27.251  1.00  0.00     0.029 A 
ATOM     62  C   UNL A   1      45.784  28.961  27.284  1.00  0.00     0.049 A 
ATOM     63  H   UNL A   1      43.869  29.103  28.164  1.00  0.00     0.167 HD
ATOM     64  C   UNL A   1      44.717  26.778  26.814  1.00  0.00     0.074 A 
ATOM     65  C   UNL A   1      44.700  25.444  26.256  1.00  0.00     0.031 C 
ATOM     66  C   UNL A   1      45.771  27.631  26.721  1.00  0.00     0.034 A 
BRANCH  53  67
ATOM     67  C   UNL A   1      44.752  33.082  29.495  1.00  0.00     0.023 A 
ATOM     68  C   UNL A   1      44.625  34.168  28.613  1.00  0.00     0.031 A 
ATOM     69  C   UNL A   1      45.410  33.298  30.719  1.00  0.00     0.131 A 
ATOM     70  C   UNL A   1      45.204  35.404  28.940  1.00  0.00     0.055 A 
ATOM     71  C   UNL A   1      45.910  34.551  31.074  1.00  0.00     0.041 A 
ATOM     72  F   UNL A   1      45.586  32.291  31.588  1.00  0.00    -0.206 F 
ATOM     73  C   UNL A   1      45.821  35.610  30.176  1.00  0.00     0.022 A 
BRANCH  70  74
ATOM     74  S   UNL A   1      45.265  36.698  27.670  1.00  0.00     0.124 S 
ATOM     75  O   UNL A   1      45.322  37.910  28.484  1.00  0.00    -0.237 OA
ATOM     76  O   UNL A   1      46.481  36.363  26.938  1.00  0.00    -0.237 OA
ATOM     77  O   UNL A   1      44.019  36.511  26.930  1.00  0.00    -0.744 OA
ENDBRANCH  70  74
ENDBRANCH  53  67
BRANCH  54  78
ATOM     78  C   UNL A   1      40.854  24.144  27.370  1.00  0.00     0.023 A 
ATOM     79  C   UNL A   1      39.684  24.043  26.601  1.00  0.00     0.031 A 
ATOM     80  C   UNL A   1      41.425  22.956  27.862  1.00  0.00     0.131 A 
ATOM     81  C   UNL A   1      39.093  22.787  26.392  1.00  0.00     0.055 A 
ATOM     82  C   UNL A   1      40.866  21.704  27.600  1.00  0.00     0.041 A 
ATOM     83  F   UNL A   1      42.538  22.996  28.610  1.00  0.00    -0.206 F 
ATOM     84  C   UNL A   1      39.684  21.616  26.873  1.00  0.00     0.022 A 
BRANCH  81  85
ATOM     85  S   UNL A   1      37.480  22.711  25.564  1.00  0.00     0.124 S 
ATOM     86  O   UNL A   1      37.752  23.419  24.318  1.00  0.00    -0.237 OA
ATOM     87  O   UNL A   1      37.264  21.272  25.451  1.00  0.00    -0.237 OA
ATOM     88  O   UNL A   1      36.589  23.402  26.494  1.00  0.00    -0.744 OA
ENDBRANCH  81  85
ENDBRANCH  54  78
BRANCH  66  89
ATOM     89  C   UNL A   1      47.027  27.118  26.049  1.00  0.00     0.023 A 
ATOM     90  C   UNL A   1      48.023  26.415  26.751  1.00  0.00     0.031 A 
ATOM     91  C   UNL A   1      47.239  27.358  24.678  1.00  0.00     0.131 A 
ATOM     92  C   UNL A   1      49.210  26.041  26.100  1.00  0.00     0.055 A 
ATOM     93  C   UNL A   1      48.392  26.924  24.021  1.00  0.00     0.041 A 
ATOM     94  F   UNL A   1      46.328  28.025  23.951  1.00  0.00    -0.206 F 
ATOM     95  C   UNL A   1      49.394  26.276  24.736  1.00  0.00     0.022 A 
BRANCH  92  96
ATOM     96  S   UNL A   1      50.566  25.346  27.086  1.00  0.00     0.124 S 
ATOM     97  O   UNL A   1      50.976  26.491  27.892  1.00  0.00    -0.237 OA
ATOM     98  O   UNL A   1      49.905  24.262  27.806  1.00  0.00    -0.237 OA
ATOM     99  O   UNL A   1      51.538  24.918  26.081  1.00  0.00    -0.744 OA
ENDBRANCH  92  96
ENDBRANCH  66  89
ENDBRANCH  40  41
ENDBRANCH  33  35
ENDBRANCH  32  33
ENDBRANCH  31  32
ENDBRANCH  30  31
ENDBRANCH  29  30
ENDBRANCH   1  29
TORSDOF 21
ENDMDL
MODEL 2
REMARK VINA RESULT:     -10.6      5.085      8.594
REMARK SMILES Cc1ccc(Cl)c(Nc2ccccc2C(=O)N[C@@H](C)C(=O)OCCOCCOC(=O)c2ccc(-c3c4nc(c(-c5cc(S(=O)(=O)[O-])ccc5F)c5ccc([nH]5)c(-c5cc(S(=O)(=O)[O-])ccc5F)c5nc(c(-c6cc(S(=O)(=O)[O-])ccc6F)c6ccc3[nH]6)C=C5)C=C4)cc2)c1Cl
REMARK SMILES IDX 24 1 23 2 22 3 20 4 21 5 18 6 19 7 17 8 15 9 16 10 14 12
REMARK SMILES IDX 9 13 10 14 11 15 13 16 12 17 8 18 7 20 1 21 2 22 3 23 94 24
REMARK SMILES IDX 4 25 95 26 5 27 6 28 25 29 26 30 27 31 28 32 29 33 30 34
REMARK SMILES IDX 31 35 32 36 93 37 33 38 92 39 34 40 35 41 36 42 86 43 37 44
REMARK SMILES IDX 91 45 85 46 87 47 38 48 90 49 84 50 83 51 39 53 71 54 51 55
REMARK SMILES IDX 70 56 52 57 55 58 69 59 88 60 53 61 54 62 68 64 89 65 56 66
REMARK SMILES IDX 40 67 41 68 49 69 42 70 48 71 50 72 47 73 43 74 44 75 45 76
REMARK SMILES IDX 46 77 72 78 73 79 81 80 74 81 80 82 82 83 79 84 75 85 76 86
REMARK SMILES IDX 77 87 78 88 57 89 58 90 66 91 59 92 65 93 67 94 64 95 60 96
REMARK SMILES IDX 61 97 62 98 63 99
REMARK H PARENT 17 11 8 19 87 52 55 63
REMARK Flexibility Score: inf
ROOT
ATOM      1  C   UNL A   1      34.256  35.531  28.353  1.00  0.00     0.202 C 
ENDROOT
BRANCH   1   2
ATOM      2  C   UNL A   1      34.754  34.000  28.301  1.00  0.00     0.261 C 
BRANCH   2   3
ATOM      3  O   UNL A   1      33.790  32.878  28.324  1.00  0.00    -0.462 OA
BRANCH   3   4
ATOM      4  C   UNL A   1      34.139  31.705  27.679  1.00  0.00     0.328 C 
ATOM      5  O   UNL A   1      35.277  31.237  27.747  1.00  0.00    -0.250 OA
BRANCH   4   6
ATOM      6  C   UNL A   1      32.937  30.853  27.032  1.00  0.00     0.189 C 
ATOM      7  C   UNL A   1      31.706  31.741  26.817  1.00  0.00     0.043 C 
BRANCH   6   8
ATOM      8  N   UNL A   1      32.479  29.590  27.615  1.00  0.00    -0.339 N 
ATOM      9  C   UNL A   1      31.749  28.484  27.223  1.00  0.00     0.254 C 
ATOM     10  O   UNL A   1      31.481  27.774  28.210  1.00  0.00    -0.269 OA
ATOM     11  H   UNL A   1      32.774  29.504  28.551  1.00  0.00     0.164 HD
BRANCH   9  12
ATOM     12  C   UNL A   1      31.268  27.948  25.858  1.00  0.00     0.063 A 
ATOM     13  C   UNL A   1      30.850  26.683  25.361  1.00  0.00     0.051 A 
ATOM     14  C   UNL A   1      30.412  26.553  24.001  1.00  0.00     0.027 A 
ATOM     15  C   UNL A   1      30.315  27.631  23.135  1.00  0.00     0.002 A 
ATOM     16  C   UNL A   1      31.201  29.009  24.896  1.00  0.00     0.016 A 
ATOM     17  C   UNL A   1      30.720  28.868  23.583  1.00  0.00     0.001 A 
BRANCH  13  18
ATOM     18  N   UNL A   1      30.541  25.524  26.111  1.00  0.00    -0.352 N 
ATOM     19  H   UNL A   1      29.694  25.506  26.611  1.00  0.00     0.167 HD
BRANCH  18  20
ATOM     20  C   UNL A   1      31.397  24.370  26.180  1.00  0.00     0.077 A 
ATOM     21  C   UNL A   1      33.335  24.227  23.298  1.00  0.00     0.046 C 
ATOM     22  C   UNL A   1      32.832  23.548  24.533  1.00  0.00    -0.030 A 
ATOM     23  C   UNL A   1      32.240  22.282  24.627  1.00  0.00     0.006 A 
ATOM     24  C   UNL A   1      32.644  24.415  25.577  1.00  0.00     0.069 A 
ATOM     25  C   UNL A   1      31.290  22.025  25.614  1.00  0.00     0.023 A 
ATOM     26  Cl  UNL A   1      33.856  25.605  25.905  1.00  0.00    -0.082 Cl
ATOM     27  C   UNL A   1      30.805  23.106  26.337  1.00  0.00     0.066 A 
ATOM     28  Cl  UNL A   1      29.391  22.919  27.302  1.00  0.00    -0.082 Cl
ENDBRANCH  18  20
ENDBRANCH  13  18
ENDBRANCH   9  12
ENDBRANCH   6   8
ENDBRANCH   4   6
ENDBRANCH   3   4
ENDBRANCH   2   3
ENDBRANCH   1   2
BRANCH   1  29
ATOM     29  O   UNL A   1      33.131  35.928  29.147  1.00  0.00    -0.374 OA
BRANCH  29  30
ATOM     30  C   UNL A   1      33.221  37.144  29.927  1.00  0.00     0.202 C 
BRANCH  30  31
ATOM     31  C   UNL A   1      33.021  37.038  31.462  1.00  0.00     0.261 C 
BRANCH  31  32
ATOM     32  O   UNL A   1      34.050  36.209  31.997  1.00  0.00    -0.460 OA
BRANCH  32  33
ATOM     33  C   UNL A   1      33.711  34.969  32.371  1.00  0.00     0.338 C 
ATOM     34  O   UNL A   1      32.595  34.540  32.658  1.00  0.00    -0.246 OA
BRANCH  33  35
ATOM     35  C   UNL A   1      34.904  34.156  32.139  1.00  0.00     0.060 A 
ATOM     36  C   UNL A   1      34.846  32.832  32.592  1.00  0.00     0.016 A 
ATOM     37  C   UNL A   1      36.081  34.678  31.609  1.00  0.00     0.016 A 
ATOM     38  C   UNL A   1      35.962  32.018  32.545  1.00  0.00     0.010 A 
ATOM     39  C   UNL A   1      37.227  33.873  31.612  1.00  0.00     0.010 A 
ATOM     40  C   UNL A   1      37.181  32.564  32.140  1.00  0.00    -0.014 A 
BRANCH  40  41
ATOM     41  C   UNL A   1      38.408  31.892  32.636  1.00  0.00     0.031 A 
ATOM     42  C   UNL A   1      39.039  30.849  31.746  1.00  0.00     0.074 A 
ATOM     43  C   UNL A   1      39.040  32.283  33.755  1.00  0.00     0.049 A 
ATOM     44  N   UNL A   1      40.098  30.110  31.951  1.00  0.00    -0.248 NA
ATOM     45  C   UNL A   1      38.390  30.621  30.444  1.00  0.00     0.031 C 
ATOM     46  C   UNL A   1      38.612  33.364  34.640  1.00  0.00     0.029 A 
ATOM     47  N   UNL A   1      40.195  31.811  34.328  1.00  0.00    -0.354 N 
ATOM     48  C   UNL A   1      40.229  29.316  30.817  1.00  0.00     0.074 A 
ATOM     49  C   UNL A   1      39.128  29.646  29.940  1.00  0.00     0.031 C 
ATOM     50  C   UNL A   1      39.487  33.460  35.657  1.00  0.00     0.029 A 
ATOM     51  C   UNL A   1      40.510  32.422  35.517  1.00  0.00     0.049 A 
ATOM     52  H   UNL A   1      40.744  31.102  33.924  1.00  0.00     0.167 HD
ATOM     53  C   UNL A   1      41.182  28.396  30.528  1.00  0.00     0.034 A 
ATOM     54  C   UNL A   1      41.487  32.150  36.407  1.00  0.00     0.034 A 
ATOM     55  C   UNL A   1      42.281  28.068  31.403  1.00  0.00     0.049 A 
ATOM     56  C   UNL A   1      42.470  31.035  36.121  1.00  0.00     0.074 A 
ATOM     57  C   UNL A   1      43.285  27.136  31.205  1.00  0.00     0.029 A 
ATOM     58  N   UNL A   1      42.519  28.648  32.641  1.00  0.00    -0.354 N 
ATOM     59  N   UNL A   1      42.559  30.253  35.069  1.00  0.00    -0.248 NA
ATOM     60  C   UNL A   1      43.490  30.775  37.146  1.00  0.00     0.031 C 
ATOM     61  C   UNL A   1      44.084  27.098  32.353  1.00  0.00     0.029 A 
ATOM     62  C   UNL A   1      43.636  28.072  33.230  1.00  0.00     0.049 A 
ATOM     63  H   UNL A   1      41.975  29.365  33.042  1.00  0.00     0.167 HD
ATOM     64  C   UNL A   1      43.670  29.439  35.293  1.00  0.00     0.074 A 
ATOM     65  C   UNL A   1      44.222  29.833  36.570  1.00  0.00     0.031 C 
ATOM     66  C   UNL A   1      44.190  28.459  34.507  1.00  0.00     0.034 A 
BRANCH  53  67
ATOM     67  C   UNL A   1      41.028  27.626  29.239  1.00  0.00     0.023 A 
ATOM     68  C   UNL A   1      41.906  27.798  28.155  1.00  0.00     0.031 A 
ATOM     69  C   UNL A   1      39.960  26.724  29.087  1.00  0.00     0.131 A 
ATOM     70  C   UNL A   1      41.664  27.126  26.947  1.00  0.00     0.055 A 
ATOM     71  C   UNL A   1      39.773  25.995  27.911  1.00  0.00     0.041 A 
ATOM     72  F   UNL A   1      39.073  26.541  30.077  1.00  0.00    -0.206 F 
ATOM     73  C   UNL A   1      40.620  26.206  26.827  1.00  0.00     0.022 A 
BRANCH  70  74
ATOM     74  S   UNL A   1      42.645  27.577  25.490  1.00  0.00     0.124 S 
ATOM     75  O   UNL A   1      42.526  26.375  24.668  1.00  0.00    -0.237 OA
ATOM     76  O   UNL A   1      41.949  28.759  24.995  1.00  0.00    -0.237 OA
ATOM     77  O   UNL A   1      43.979  27.820  26.036  1.00  0.00    -0.744 OA
ENDBRANCH  70  74
ENDBRANCH  53  67
BRANCH  54  78
ATOM     78  C   UNL A   1      41.561  32.895  37.698  1.00  0.00     0.023 A 
ATOM     79  C   UNL A   1      40.754  32.546  38.792  1.00  0.00     0.031 A 
ATOM     80  C   UNL A   1      42.387  34.027  37.821  1.00  0.00     0.131 A 
ATOM     81  C   UNL A   1      40.750  33.352  39.941  1.00  0.00     0.055 A 
ATOM     82  C   UNL A   1      42.424  34.790  38.989  1.00  0.00     0.041 A 
ATOM     83  F   UNL A   1      43.172  34.411  36.803  1.00  0.00    -0.206 F 
ATOM     84  C   UNL A   1      41.591  34.462  40.053  1.00  0.00     0.022 A 
BRANCH  81  85
ATOM     85  S   UNL A   1      39.554  32.986  41.256  1.00  0.00     0.124 S 
ATOM     86  O   UNL A   1      40.425  32.834  42.416  1.00  0.00    -0.237 OA
ATOM     87  O   UNL A   1      38.711  34.177  41.237  1.00  0.00    -0.237 OA
ATOM     88  O   UNL A   1      38.907  31.760  40.794  1.00  0.00    -0.744 OA
ENDBRANCH  81  85
ENDBRANCH  54  78
BRANCH  66  89
ATOM     89  C   UNL A   1      45.465  27.791  34.974  1.00  0.00     0.023 A 
ATOM     90  C   UNL A   1      45.458  26.618  35.751  1.00  0.00     0.031 A 
ATOM     91  C   UNL A   1      46.714  28.355  34.652  1.00  0.00     0.131 A 
ATOM     92  C   UNL A   1      46.667  26.089  36.235  1.00  0.00     0.055 A 
ATOM     93  C   UNL A   1      47.915  27.787  35.080  1.00  0.00     0.041 A 
ATOM     94  F   UNL A   1      46.789  29.476  33.915  1.00  0.00    -0.206 F 
ATOM     95  C   UNL A   1      47.896  26.657  35.891  1.00  0.00     0.022 A 
BRANCH  92  96
ATOM     96  S   UNL A   1      46.608  24.716  37.421  1.00  0.00     0.124 S 
ATOM     97  O   UNL A   1      47.357  25.257  38.551  1.00  0.00    -0.237 OA
ATOM     98  O   UNL A   1      45.174  24.546  37.629  1.00  0.00    -0.237 OA
ATOM     99  O   UNL A   1      47.265  23.621  36.711  1.00  0.00    -0.744 OA
ENDBRANCH  92  96
ENDBRANCH  66  89
ENDBRANCH  40  41
ENDBRANCH  33  35
ENDBRANCH  32  33
ENDBRANCH  31  32
ENDBRANCH  30  31
ENDBRANCH  29  30
ENDBRANCH   1  29
TORSDOF 21
ENDMDL
MODEL 3
REMARK VINA RESULT:     -10.4      5.614      7.874
REMARK SMILES Cc1ccc(Cl)c(Nc2ccccc2C(=O)N[C@@H](C)C(=O)OCCOCCOC(=O)c2ccc(-c3c4nc(c(-c5cc(S(=O)(=O)[O-])ccc5F)c5ccc([nH]5)c(-c5cc(S(=O)(=O)[O-])ccc5F)c5nc(c(-c6cc(S(=O)(=O)[O-])ccc6F)c6ccc3[nH]6)C=C5)C=C4)cc2)c1Cl
REMARK SMILES IDX 24 1 23 2 22 3 20 4 21 5 18 6 19 7 17 8 15 9 16 10 14 12
REMARK SMILES IDX 9 13 10 14 11 15 13 16 12 17 8 18 7 20 1 21 2 22 3 23 94 24
REMARK SMILES IDX 4 25 95 26 5 27 6 28 25 29 26 30 27 31 28 32 29 33 30 34
REMARK SMILES IDX 31 35 32 36 93 37 33 38 92 39 34 40 35 41 36 42 86 43 37 44
REMARK SMILES IDX 91 45 85 46 87 47 38 48 90 49 84 50 83 51 39 53 71 54 51 55
REMARK SMILES IDX 70 56 52 57 55 58 69 59 88 60 53 61 54 62 68 64 89 65 56 66
REMARK SMILES IDX 40 67 41 68 49 69 42 70 48 71 50 72 47 73 43 74 44 75 45 76
REMARK SMILES IDX 46 77 72 78 73 79 81 80 74 81 80 82 82 83 79 84 75 85 76 86
REMARK SMILES IDX 77 87 78 88 57 89 58 90 66 91 59 92 65 93 67 94 64 95 60 96
REMARK SMILES IDX 61 97 62 98 63 99
REMARK H PARENT 17 11 8 19 87 52 55 63
REMARK Flexibility Score: inf
ROOT
ATOM      1  C   UNL A   1      34.544  31.917  27.884  1.00  0.00     0.202 C 
ENDROOT
BRANCH   1   2
ATOM      2  C   UNL A   1      34.050  30.484  27.337  1.00  0.00     0.261 C 
BRANCH   2   3
ATOM      3  O   UNL A   1      32.626  30.233  27.024  1.00  0.00    -0.462 OA
BRANCH   3   4
ATOM      4  C   UNL A   1      32.330  29.322  26.026  1.00  0.00     0.328 C 
ATOM      5  O   UNL A   1      32.418  29.613  24.832  1.00  0.00    -0.250 OA
BRANCH   4   6
ATOM      6  C   UNL A   1      32.097  27.798  26.486  1.00  0.00     0.189 C 
ATOM      7  C   UNL A   1      33.378  26.978  26.294  1.00  0.00     0.043 C 
BRANCH   6   8
ATOM      8  N   UNL A   1      30.976  26.998  25.985  1.00  0.00    -0.339 N 
ATOM      9  C   UNL A   1      30.681  26.229  24.874  1.00  0.00     0.254 C 
ATOM     10  O   UNL A   1      29.472  25.933  24.867  1.00  0.00    -0.269 OA
ATOM     11  H   UNL A   1      30.220  27.013  26.615  1.00  0.00     0.164 HD
BRANCH   9  12
ATOM     12  C   UNL A   1      31.524  25.644  23.722  1.00  0.00     0.063 A 
ATOM     13  C   UNL A   1      32.348  24.497  23.556  1.00  0.00     0.051 A 
ATOM     14  C   UNL A   1      32.965  24.232  22.288  1.00  0.00     0.027 A 
ATOM     15  C   UNL A   1      32.753  25.021  21.168  1.00  0.00     0.002 A 
ATOM     16  C   UNL A   1      31.394  26.450  22.543  1.00  0.00     0.016 A 
ATOM     17  C   UNL A   1      31.967  26.143  21.298  1.00  0.00     0.001 A 
BRANCH  13  18
ATOM     18  N   UNL A   1      32.452  23.381  24.418  1.00  0.00    -0.352 N 
ATOM     19  H   UNL A   1      32.062  22.528  24.123  1.00  0.00     0.167 HD
BRANCH  18  20
ATOM     20  C   UNL A   1      33.098  23.427  25.704  1.00  0.00     0.077 A 
ATOM     21  C   UNL A   1      35.943  21.433  25.608  1.00  0.00     0.046 C 
ATOM     22  C   UNL A   1      34.950  22.202  26.421  1.00  0.00    -0.030 A 
ATOM     23  C   UNL A   1      34.240  21.754  27.543  1.00  0.00     0.006 A 
ATOM     24  C   UNL A   1      34.477  23.312  25.772  1.00  0.00     0.069 A 
ATOM     25  C   UNL A   1      32.969  22.261  27.814  1.00  0.00     0.023 A 
ATOM     26  Cl  UNL A   1      35.595  24.329  24.931  1.00  0.00    -0.082 Cl
ATOM     27  C   UNL A   1      32.363  23.037  26.835  1.00  0.00     0.066 A 
ATOM     28  Cl  UNL A   1      30.681  23.386  26.947  1.00  0.00    -0.082 Cl
ENDBRANCH  18  20
ENDBRANCH  13  18
ENDBRANCH   9  12
ENDBRANCH   6   8
ENDBRANCH   4   6
ENDBRANCH   3   4
ENDBRANCH   2   3
ENDBRANCH   1   2
BRANCH   1  29
ATOM     29  O   UNL A   1      33.654  33.036  27.969  1.00  0.00    -0.374 OA
BRANCH  29  30
ATOM     30  C   UNL A   1      34.213  34.367  28.085  1.00  0.00     0.202 C 
BRANCH  30  31
ATOM     31  C   UNL A   1      33.589  35.327  29.133  1.00  0.00     0.261 C 
BRANCH  31  32
ATOM     32  O   UNL A   1      33.294  34.581  30.311  1.00  0.00    -0.460 OA
BRANCH  32  33
ATOM     33  C   UNL A   1      33.112  35.267  31.446  1.00  0.00     0.338 C 
ATOM     34  O   UNL A   1      32.158  35.975  31.762  1.00  0.00    -0.246 OA
BRANCH  33  35
ATOM     35  C   UNL A   1      34.175  34.815  32.344  1.00  0.00     0.060 A 
ATOM     36  C   UNL A   1      35.448  35.347  32.111  1.00  0.00     0.016 A 
ATOM     37  C   UNL A   1      33.979  33.827  33.305  1.00  0.00     0.016 A 
ATOM     38  C   UNL A   1      36.548  34.888  32.813  1.00  0.00     0.010 A 
ATOM     39  C   UNL A   1      35.099  33.320  33.977  1.00  0.00     0.010 A 
ATOM     40  C   UNL A   1      36.390  33.808  33.683  1.00  0.00    -0.014 A 
BRANCH  40  41
ATOM     41  C   UNL A   1      37.600  32.991  33.952  1.00  0.00     0.031 A 
ATOM     42  C   UNL A   1      38.377  33.290  35.211  1.00  0.00     0.074 A 
ATOM     43  C   UNL A   1      37.926  31.923  33.206  1.00  0.00     0.049 A 
ATOM     44  N   UNL A   1      39.471  32.736  35.666  1.00  0.00    -0.248 NA
ATOM     45  C   UNL A   1      37.836  34.351  36.077  1.00  0.00     0.031 C 
ATOM     46  C   UNL A   1      37.191  31.442  32.039  1.00  0.00     0.029 A 
ATOM     47  N   UNL A   1      38.969  31.039  33.338  1.00  0.00    -0.354 N 
ATOM     48  C   UNL A   1      39.760  33.394  36.856  1.00  0.00     0.074 A 
ATOM     49  C   UNL A   1      38.741  34.405  37.039  1.00  0.00     0.031 C 
ATOM     50  C   UNL A   1      37.818  30.358  31.550  1.00  0.00     0.029 A 
ATOM     51  C   UNL A   1      39.021  30.094  32.342  1.00  0.00     0.049 A 
ATOM     52  H   UNL A   1      39.618  31.080  34.076  1.00  0.00     0.167 HD
ATOM     53  C   UNL A   1      40.779  33.178  37.723  1.00  0.00     0.034 A 
ATOM     54  C   UNL A   1      39.949  29.151  32.080  1.00  0.00     0.034 A 
ATOM     55  C   UNL A   1      41.794  32.169  37.541  1.00  0.00     0.049 A 
ATOM     56  C   UNL A   1      41.146  29.005  32.994  1.00  0.00     0.074 A 
ATOM     57  C   UNL A   1      42.878  31.886  38.355  1.00  0.00     0.029 A 
ATOM     58  N   UNL A   1      41.861  31.285  36.473  1.00  0.00    -0.354 N 
ATOM     59  N   UNL A   1      41.441  29.664  34.092  1.00  0.00    -0.248 NA
ATOM     60  C   UNL A   1      42.132  27.977  32.632  1.00  0.00     0.031 C 
ATOM     61  C   UNL A   1      43.640  30.886  37.742  1.00  0.00     0.029 A 
ATOM     62  C   UNL A   1      42.984  30.478  36.592  1.00  0.00     0.049 A 
ATOM     63  H   UNL A   1      41.207  31.237  35.738  1.00  0.00     0.167 HD
ATOM     64  C   UNL A   1      42.624  29.099  34.569  1.00  0.00     0.074 A 
ATOM     65  C   UNL A   1      42.980  28.042  33.648  1.00  0.00     0.031 C 
ATOM     66  C   UNL A   1      43.346  29.423  35.674  1.00  0.00     0.034 A 
BRANCH  53  67
ATOM     67  C   UNL A   1      40.884  34.104  38.910  1.00  0.00     0.023 A 
ATOM     68  C   UNL A   1      40.196  33.861  40.111  1.00  0.00     0.031 A 
ATOM     69  C   UNL A   1      41.667  35.268  38.821  1.00  0.00     0.131 A 
ATOM     70  C   UNL A   1      40.256  34.802  41.151  1.00  0.00     0.055 A 
ATOM     71  C   UNL A   1      41.789  36.157  39.889  1.00  0.00     0.041 A 
ATOM     72  F   UNL A   1      42.323  35.566  37.688  1.00  0.00    -0.206 F 
ATOM     73  C   UNL A   1      41.069  35.934  41.059  1.00  0.00     0.022 A 
BRANCH  70  74
ATOM     74  S   UNL A   1      39.144  34.600  42.570  1.00  0.00     0.124 S 
ATOM     75  O   UNL A   1      38.852  35.988  42.919  1.00  0.00    -0.237 OA
ATOM     76  O   UNL A   1      38.039  33.839  41.999  1.00  0.00    -0.237 OA
ATOM     77  O   UNL A   1      39.960  33.878  43.546  1.00  0.00    -0.744 OA
ENDBRANCH  70  74
ENDBRANCH  53  67
BRANCH  54  78
ATOM     78  C   UNL A   1      39.836  28.300  30.859  1.00  0.00     0.023 A 
ATOM     79  C   UNL A   1      40.494  28.641  29.667  1.00  0.00     0.031 A 
ATOM     80  C   UNL A   1      38.994  27.174  30.850  1.00  0.00     0.131 A 
ATOM     81  C   UNL A   1      40.256  27.895  28.501  1.00  0.00     0.055 A 
ATOM     82  C   UNL A   1      38.808  26.400  29.703  1.00  0.00     0.041 A 
ATOM     83  F   UNL A   1      38.333  26.809  31.960  1.00  0.00    -0.206 F 
ATOM     84  C   UNL A   1      39.430  26.769  28.515  1.00  0.00     0.022 A 
BRANCH  81  85
ATOM     85  S   UNL A   1      40.965  28.477  26.936  1.00  0.00     0.124 S 
ATOM     86  O   UNL A   1      42.205  29.100  27.385  1.00  0.00    -0.237 OA
ATOM     87  O   UNL A   1      41.106  27.233  26.186  1.00  0.00    -0.237 OA
ATOM     88  O   UNL A   1      39.951  29.398  26.426  1.00  0.00    -0.744 OA
ENDBRANCH  81  85
ENDBRANCH  54  78
BRANCH  66  89
ATOM     89  C   UNL A   1      44.559  28.574  35.989  1.00  0.00     0.023 A 
ATOM     90  C   UNL A   1      44.480  27.416  36.784  1.00  0.00     0.031 A 
ATOM     91  C   UNL A   1      45.826  28.947  35.500  1.00  0.00     0.131 A 
ATOM     92  C   UNL A   1      45.650  26.715  37.122  1.00  0.00     0.055 A 
ATOM     93  C   UNL A   1      46.975  28.208  35.784  1.00  0.00     0.041 A 
ATOM     94  F   UNL A   1      45.969  30.043  34.738  1.00  0.00    -0.206 F 
ATOM     95  C   UNL A   1      46.895  27.094  36.613  1.00  0.00     0.022 A 
BRANCH  92  96
ATOM     96  S   UNL A   1      45.543  25.367  38.333  1.00  0.00     0.124 S 
ATOM     97  O   UNL A   1      44.631  24.437  37.674  1.00  0.00    -0.237 OA
ATOM     98  O   UNL A   1      46.932  24.932  38.439  1.00  0.00    -0.237 OA
ATOM     99  O   UNL A   1      45.005  26.018  39.526  1.00  0.00    -0.744 OA
ENDBRANCH  92  96
ENDBRANCH  66  89
ENDBRANCH  40  41
ENDBRANCH  33  35
ENDBRANCH  32  33
ENDBRANCH  31  32
ENDBRANCH  30  31
ENDBRANCH  29  30
ENDBRANCH   1  29
TORSDOF 21
ENDMDL
