MODEL 1
REMARK VINA RESULT:     -12.0      0.000      0.000
REMARK SMILES Cc1c(CC(=O)N[C@@H](CCO)C(=O)OCCOCCOC(=O)c2ccc(-c3c4nc(c(-c5cc(S(=O)(=O)[O-])ccc5F)c5ccc([nH]5)c(-c5cc(S(=O)(=O)[O-])ccc5F)c5nc(c(-c6cc(S(=O)(=O)[O-])ccc6F)c6ccc3[nH]6)C=C5)C=C4)cc2)cc(-c2ccc(S(C)(=O)=O)cc2)n1-c1ccc(F)cc1
REMARK SMILES IDX 16 1 15 2 14 3 12 4 13 5 8 6 7 7 5 8 6 9 4 11 3 12 1 13 2 14
REMARK SMILES IDX 98 15 86 16 87 17 99 18 100 19 105 20 101 21 104 22 102 23
REMARK SMILES IDX 103 24 88 25 89 26 97 27 90 28 96 29 91 30 92 31 93 32 94 33
REMARK SMILES IDX 95 34 9 35 10 36 11 37 17 39 18 40 19 41 20 42 21 43 22 44
REMARK SMILES IDX 23 45 24 46 85 47 25 48 84 49 26 50 27 51 28 52 78 53 29 54
REMARK SMILES IDX 83 55 77 56 79 57 30 58 82 59 76 60 75 61 31 63 63 64 43 65
REMARK SMILES IDX 62 66 44 67 47 68 61 69 80 70 45 71 46 72 60 74 81 75 48 76
REMARK SMILES IDX 32 77 33 78 41 79 34 80 40 81 42 82 39 83 35 84 36 85 37 86
REMARK SMILES IDX 38 87 64 88 65 89 73 90 66 91 72 92 74 93 71 94 67 95 68 96
REMARK SMILES IDX 69 97 70 98 49 99 50 100 58 101 51 102 57 103 59 104 56 105
REMARK SMILES IDX 52 106 53 107 54 108 55 109
REMARK H PARENT 7 10 11 38 79 62 47 73
REMARK Flexibility Score: inf
ROOT
ATOM      1  C   UNL A   1      37.420  22.087  25.016  1.00  0.00     0.202 C 
ENDROOT
BRANCH   1   2
ATOM      2  C   UNL A   1      36.075  22.054  25.761  1.00  0.00     0.261 C 
BRANCH   2   3
ATOM      3  O   UNL A   1      35.376  20.826  25.504  1.00  0.00    -0.462 OA
BRANCH   3   4
ATOM      4  C   UNL A   1      34.083  20.778  25.927  1.00  0.00     0.328 C 
ATOM      5  O   UNL A   1      33.721  20.720  27.097  1.00  0.00    -0.250 OA
BRANCH   4   6
ATOM      6  C   UNL A   1      33.101  20.687  24.747  1.00  0.00     0.194 C 
BRANCH   6   7
ATOM      7  N   UNL A   1      33.448  21.464  23.548  1.00  0.00    -0.342 N 
ATOM      8  C   UNL A   1      32.697  22.360  22.840  1.00  0.00     0.225 C 
ATOM      9  O   UNL A   1      33.226  22.910  21.870  1.00  0.00    -0.275 OA
ATOM     10  H   UNL A   1      34.357  21.315  23.204  1.00  0.00     0.164 HD
BRANCH   8  11
ATOM     11  C   UNL A   1      31.284  22.728  23.268  1.00  0.00     0.137 C 
BRANCH  11  12
ATOM     12  C   UNL A   1      31.165  24.125  23.796  1.00  0.00    -0.017 A 
ATOM     13  C   UNL A   1      33.009  24.122  25.611  1.00  0.00     0.065 C 
ATOM     14  C   UNL A   1      31.956  24.746  24.753  1.00  0.00     0.024 A 
ATOM     15  N   UNL A   1      31.582  26.084  24.824  1.00  0.00    -0.314 N 
ATOM     16  C   UNL A   1      30.201  25.077  23.379  1.00  0.00     0.033 A 
ATOM     17  C   UNL A   1      30.518  26.296  23.947  1.00  0.00     0.053 A 
BRANCH  15  18
ATOM     18  C   UNL A   1      32.198  27.090  25.617  1.00  0.00     0.046 A 
ATOM     19  C   UNL A   1      33.521  27.467  25.345  1.00  0.00     0.029 A 
ATOM     20  C   UNL A   1      31.504  27.651  26.697  1.00  0.00     0.029 A 
ATOM     21  C   UNL A   1      34.148  28.409  26.158  1.00  0.00     0.041 A 
ATOM     22  C   UNL A   1      32.148  28.578  27.517  1.00  0.00     0.041 A 
ATOM     23  C   UNL A   1      33.462  28.948  27.239  1.00  0.00     0.123 A 
ATOM     24  F   UNL A   1      34.079  29.833  28.032  1.00  0.00    -0.207 F 
ENDBRANCH  15  18
BRANCH  17  25
ATOM     25  C   UNL A   1      29.978  27.602  23.555  1.00  0.00    -0.001 A 
ATOM     26  C   UNL A   1      30.821  28.582  23.007  1.00  0.00     0.011 A 
ATOM     27  C   UNL A   1      28.606  27.861  23.660  1.00  0.00     0.011 A 
ATOM     28  C   UNL A   1      30.308  29.812  22.590  1.00  0.00     0.021 A 
ATOM     29  C   UNL A   1      28.084  29.092  23.250  1.00  0.00     0.021 A 
ATOM     30  C   UNL A   1      28.941  30.063  22.724  1.00  0.00     0.067 A 
BRANCH  30  31
ATOM     31  S   UNL A   1      28.283  31.615  22.165  1.00  0.00     0.175 S 
ATOM     32  C   UNL A   1      27.941  31.352  20.445  1.00  0.00     0.163 C 
ATOM     33  O   UNL A   1      27.012  31.809  22.852  1.00  0.00    -0.224 OA
ATOM     34  O   UNL A   1      29.333  32.604  22.252  1.00  0.00    -0.224 OA
ENDBRANCH  30  31
ENDBRANCH  17  25
ENDBRANCH  11  12
ENDBRANCH   8  11
ENDBRANCH   6   7
BRANCH   6  35
ATOM     35  C   UNL A   1      32.866  19.221  24.365  1.00  0.00     0.065 C 
BRANCH  35  36
ATOM     36  C   UNL A   1      34.126  18.354  24.381  1.00  0.00     0.159 C 
BRANCH  36  37
ATOM     37  O   UNL A   1      34.115  17.448  25.471  1.00  0.00    -0.396 OA
ATOM     38  H   UNL A   1      34.034  16.541  25.136  1.00  0.00     0.210 HD
ENDBRANCH  36  37
ENDBRANCH  35  36
ENDBRANCH   6  35
ENDBRANCH   4   6
ENDBRANCH   3   4
ENDBRANCH   2   3
ENDBRANCH   1   2
BRANCH   1  39
ATOM     39  O   UNL A   1      38.456  21.303  25.602  1.00  0.00    -0.374 OA
BRANCH  39  40
ATOM     40  C   UNL A   1      39.379  21.984  26.470  1.00  0.00     0.202 C 
BRANCH  40  41
ATOM     41  C   UNL A   1      40.623  21.211  27.023  1.00  0.00     0.261 C 
BRANCH  41  42
ATOM     42  O   UNL A   1      41.722  21.926  27.743  1.00  0.00    -0.460 OA
BRANCH  42  43
ATOM     43  C   UNL A   1      42.000  23.222  27.323  1.00  0.00     0.338 C 
ATOM     44  O   UNL A   1      42.457  23.426  26.203  1.00  0.00    -0.246 OA
BRANCH  43  45
ATOM     45  C   UNL A   1      41.651  24.446  28.247  1.00  0.00     0.060 A 
ATOM     46  C   UNL A   1      40.324  24.860  28.348  1.00  0.00     0.016 A 
ATOM     47  C   UNL A   1      42.549  25.413  28.762  1.00  0.00     0.016 A 
ATOM     48  C   UNL A   1      39.930  26.123  28.979  1.00  0.00     0.010 A 
ATOM     49  C   UNL A   1      42.138  26.750  29.345  1.00  0.00     0.010 A 
ATOM     50  C   UNL A   1      40.798  27.177  29.486  1.00  0.00    -0.014 A 
BRANCH  50  51
ATOM     51  C   UNL A   1      40.125  28.755  29.650  1.00  0.00     0.031 A 
ATOM     52  C   UNL A   1      41.329  29.572  29.315  1.00  0.00     0.074 A 
ATOM     53  C   UNL A   1      39.021  29.575  30.057  1.00  0.00     0.049 A 
ATOM     54  N   UNL A   1      42.431  29.372  29.983  1.00  0.00    -0.248 NA
ATOM     55  C   UNL A   1      41.516  30.270  28.041  1.00  0.00     0.031 C 
ATOM     56  C   UNL A   1      37.747  29.156  30.686  1.00  0.00     0.029 A 
ATOM     57  N   UNL A   1      38.745  31.029  30.027  1.00  0.00    -0.354 N 
ATOM     58  C   UNL A   1      43.371  30.205  29.436  1.00  0.00     0.074 A 
ATOM     59  C   UNL A   1      42.830  30.513  28.115  1.00  0.00     0.031 C 
ATOM     60  C   UNL A   1      36.846  30.184  30.831  1.00  0.00     0.029 A 
ATOM     61  C   UNL A   1      37.375  31.480  30.379  1.00  0.00     0.049 A 
ATOM     62  H   UNL A   1      39.446  31.675  29.781  1.00  0.00     0.167 HD
ATOM     63  C   UNL A   1      43.960  31.053  30.330  1.00  0.00     0.034 A 
ATOM     64  C   UNL A   1      36.728  32.753  30.401  1.00  0.00     0.034 A 
ATOM     65  C   UNL A   1      43.374  32.365  30.280  1.00  0.00     0.049 A 
ATOM     66  C   UNL A   1      37.771  33.758  30.574  1.00  0.00     0.074 A 
ATOM     67  C   UNL A   1      43.008  33.182  29.229  1.00  0.00     0.029 A 
ATOM     68  N   UNL A   1      42.657  32.785  31.381  1.00  0.00    -0.354 N 
ATOM     69  N   UNL A   1      38.257  34.023  31.744  1.00  0.00    -0.248 NA
ATOM     70  C   UNL A   1      38.256  34.593  29.484  1.00  0.00     0.031 C 
ATOM     71  C   UNL A   1      41.746  33.686  29.601  1.00  0.00     0.029 A 
ATOM     72  C   UNL A   1      41.588  33.554  30.975  1.00  0.00     0.049 A 
ATOM     73  H   UNL A   1      42.875  32.567  32.316  1.00  0.00     0.167 HD
ATOM     74  C   UNL A   1      39.469  34.547  31.431  1.00  0.00     0.074 A 
ATOM     75  C   UNL A   1      39.290  35.150  30.119  1.00  0.00     0.031 C 
ATOM     76  C   UNL A   1      40.535  33.864  31.920  1.00  0.00     0.034 A 
BRANCH  63  77
ATOM     77  C   UNL A   1      44.407  30.362  31.594  1.00  0.00     0.023 A 
ATOM     78  C   UNL A   1      44.063  30.922  32.828  1.00  0.00     0.031 A 
ATOM     79  C   UNL A   1      45.298  29.265  31.593  1.00  0.00     0.131 A 
ATOM     80  C   UNL A   1      44.663  30.437  34.003  1.00  0.00     0.055 A 
ATOM     81  C   UNL A   1      45.939  28.830  32.751  1.00  0.00     0.041 A 
ATOM     82  F   UNL A   1      45.579  28.610  30.454  1.00  0.00    -0.206 F 
ATOM     83  C   UNL A   1      45.630  29.427  33.967  1.00  0.00     0.022 A 
BRANCH  80  84
ATOM     84  S   UNL A   1      44.150  31.143  35.590  1.00  0.00     0.124 S 
ATOM     85  O   UNL A   1      42.824  30.563  35.778  1.00  0.00    -0.237 OA
ATOM     86  O   UNL A   1      45.186  30.654  36.495  1.00  0.00    -0.237 OA
ATOM     87  O   UNL A   1      44.170  32.586  35.353  1.00  0.00    -0.744 OA
ENDBRANCH  80  84
ENDBRANCH  63  77
BRANCH  64  88
ATOM     88  C   UNL A   1      35.336  33.580  30.496  1.00  0.00     0.023 A 
ATOM     89  C   UNL A   1      34.979  34.472  31.618  1.00  0.00     0.031 A 
ATOM     90  C   UNL A   1      34.592  33.843  29.339  1.00  0.00     0.131 A 
ATOM     91  C   UNL A   1      33.999  35.524  31.523  1.00  0.00     0.055 A 
ATOM     92  C   UNL A   1      33.622  34.885  29.254  1.00  0.00     0.041 A 
ATOM     93  F   UNL A   1      34.851  33.174  28.208  1.00  0.00    -0.206 F 
ATOM     94  C   UNL A   1      33.335  35.732  30.324  1.00  0.00     0.022 A 
BRANCH  91  95
ATOM     95  S   UNL A   1      33.671  36.784  32.865  1.00  0.00     0.124 S 
ATOM     96  O   UNL A   1      32.218  36.795  32.966  1.00  0.00    -0.237 OA
ATOM     97  O   UNL A   1      34.405  36.254  34.008  1.00  0.00    -0.237 OA
ATOM     98  O   UNL A   1      34.241  38.022  32.322  1.00  0.00    -0.744 OA
ENDBRANCH  91  95
ENDBRANCH  64  88
BRANCH  76  99
ATOM     99  C   UNL A   1      40.430  33.346  33.359  1.00  0.00     0.023 A 
ATOM    100  C   UNL A   1      39.818  32.132  33.784  1.00  0.00     0.031 A 
ATOM    101  C   UNL A   1      40.899  34.187  34.380  1.00  0.00     0.131 A 
ATOM    102  C   UNL A   1      39.655  31.833  35.153  1.00  0.00     0.055 A 
ATOM    103  C   UNL A   1      40.780  33.870  35.735  1.00  0.00     0.041 A 
ATOM    104  F   UNL A   1      41.477  35.359  34.075  1.00  0.00    -0.206 F 
ATOM    105  C   UNL A   1      40.141  32.700  36.128  1.00  0.00     0.022 A 
BRANCH 102 106
ATOM    106  S   UNL A   1      38.719  30.356  35.687  1.00  0.00     0.124 S 
ATOM    107  O   UNL A   1      38.132  29.854  34.451  1.00  0.00    -0.237 OA
ATOM    108  O   UNL A   1      39.759  29.520  36.282  1.00  0.00    -0.237 OA
ATOM    109  O   UNL A   1      37.752  30.897  36.643  1.00  0.00    -0.744 OA
ENDBRANCH 102 106
ENDBRANCH  76  99
ENDBRANCH  50  51
ENDBRANCH  43  45
ENDBRANCH  42  43
ENDBRANCH  41  42
ENDBRANCH  40  41
ENDBRANCH  39  40
ENDBRANCH   1  39
TORSDOF 26
ENDMDL
MODEL 2
REMARK VINA RESULT:     -11.9      1.964      2.505
REMARK SMILES Cc1c(CC(=O)N[C@@H](CCO)C(=O)OCCOCCOC(=O)c2ccc(-c3c4nc(c(-c5cc(S(=O)(=O)[O-])ccc5F)c5ccc([nH]5)c(-c5cc(S(=O)(=O)[O-])ccc5F)c5nc(c(-c6cc(S(=O)(=O)[O-])ccc6F)c6ccc3[nH]6)C=C5)C=C4)cc2)cc(-c2ccc(S(C)(=O)=O)cc2)n1-c1ccc(F)cc1
REMARK SMILES IDX 16 1 15 2 14 3 12 4 13 5 8 6 7 7 5 8 6 9 4 11 3 12 1 13 2 14
REMARK SMILES IDX 98 15 86 16 87 17 99 18 100 19 105 20 101 21 104 22 102 23
REMARK SMILES IDX 103 24 88 25 89 26 97 27 90 28 96 29 91 30 92 31 93 32 94 33
REMARK SMILES IDX 95 34 9 35 10 36 11 37 17 39 18 40 19 41 20 42 21 43 22 44
REMARK SMILES IDX 23 45 24 46 85 47 25 48 84 49 26 50 27 51 28 52 78 53 29 54
REMARK SMILES IDX 83 55 77 56 79 57 30 58 82 59 76 60 75 61 31 63 63 64 43 65
REMARK SMILES IDX 62 66 44 67 47 68 61 69 80 70 45 71 46 72 60 74 81 75 48 76
REMARK SMILES IDX 32 77 33 78 41 79 34 80 40 81 42 82 39 83 35 84 36 85 37 86
REMARK SMILES IDX 38 87 64 88 65 89 73 90 66 91 72 92 74 93 71 94 67 95 68 96
REMARK SMILES IDX 69 97 70 98 49 99 50 100 58 101 51 102 57 103 59 104 56 105
REMARK SMILES IDX 52 106 53 107 54 108 55 109
REMARK H PARENT 7 10 11 38 79 62 47 73
REMARK Flexibility Score: inf
ROOT
ATOM      1  C   UNL A   1      37.639  22.912  25.386  1.00  0.00     0.202 C 
ENDROOT
BRANCH   1   2
ATOM      2  C   UNL A   1      36.208  22.732  25.918  1.00  0.00     0.261 C 
BRANCH   2   3
ATOM      3  O   UNL A   1      35.815  21.351  25.876  1.00  0.00    -0.462 OA
BRANCH   3   4
ATOM      4  C   UNL A   1      34.525  21.090  26.224  1.00  0.00     0.328 C 
ATOM      5  O   UNL A   1      34.071  21.150  27.363  1.00  0.00    -0.250 OA
BRANCH   4   6
ATOM      6  C   UNL A   1      33.703  20.585  25.027  1.00  0.00     0.194 C 
BRANCH   6   7
ATOM      7  N   UNL A   1      33.786  21.384  23.796  1.00  0.00    -0.342 N 
ATOM      8  C   UNL A   1      32.864  22.221  23.232  1.00  0.00     0.225 C 
ATOM      9  O   UNL A   1      33.181  22.807  22.194  1.00  0.00    -0.275 OA
ATOM     10  H   UNL A   1      34.634  21.302  23.303  1.00  0.00     0.164 HD
BRANCH   8  11
ATOM     11  C   UNL A   1      31.519  22.484  23.895  1.00  0.00     0.137 C 
BRANCH  11  12
ATOM     12  C   UNL A   1      31.327  23.910  24.311  1.00  0.00    -0.017 A 
ATOM     13  C   UNL A   1      33.224  24.172  26.051  1.00  0.00     0.065 C 
ATOM     14  C   UNL A   1      32.106  24.656  25.184  1.00  0.00     0.024 A 
ATOM     15  N   UNL A   1      31.650  25.970  25.160  1.00  0.00    -0.314 N 
ATOM     16  C   UNL A   1      30.292  24.762  23.853  1.00  0.00     0.033 A 
ATOM     17  C   UNL A   1      30.547  26.042  24.307  1.00  0.00     0.053 A 
BRANCH  15  18
ATOM     18  C   UNL A   1      32.225  27.075  25.844  1.00  0.00     0.046 A 
ATOM     19  C   UNL A   1      33.484  27.549  25.451  1.00  0.00     0.029 A 
ATOM     20  C   UNL A   1      31.561  27.639  26.941  1.00  0.00     0.029 A 
ATOM     21  C   UNL A   1      34.078  28.593  26.158  1.00  0.00     0.041 A 
ATOM     22  C   UNL A   1      32.173  28.670  27.655  1.00  0.00     0.041 A 
ATOM     23  C   UNL A   1      33.423  29.136  27.257  1.00  0.00     0.123 A 
ATOM     24  F   UNL A   1      34.010  30.121  27.949  1.00  0.00    -0.207 F 
ENDBRANCH  15  18
BRANCH  17  25
ATOM     25  C   UNL A   1      29.912  27.275  23.830  1.00  0.00    -0.001 A 
ATOM     26  C   UNL A   1      30.689  28.415  23.565  1.00  0.00     0.011 A 
ATOM     27  C   UNL A   1      28.537  27.309  23.570  1.00  0.00     0.011 A 
ATOM     28  C   UNL A   1      30.099  29.579  23.069  1.00  0.00     0.021 A 
ATOM     29  C   UNL A   1      27.938  28.472  23.078  1.00  0.00     0.021 A 
ATOM     30  C   UNL A   1      28.723  29.603  22.837  1.00  0.00     0.067 A 
BRANCH  30  31
ATOM     31  S   UNL A   1      27.977  31.073  22.176  1.00  0.00     0.175 S 
ATOM     32  C   UNL A   1      29.265  32.289  22.251  1.00  0.00     0.163 C 
ATOM     33  O   UNL A   1      27.688  30.809  20.772  1.00  0.00    -0.224 OA
ATOM     34  O   UNL A   1      26.933  31.492  23.084  1.00  0.00    -0.224 OA
ENDBRANCH  30  31
ENDBRANCH  17  25
ENDBRANCH  11  12
ENDBRANCH   8  11
ENDBRANCH   6   7
BRANCH   6  35
ATOM     35  C   UNL A   1      34.053  19.124  24.722  1.00  0.00     0.065 C 
BRANCH  35  36
ATOM     36  C   UNL A   1      32.842  18.218  24.499  1.00  0.00     0.159 C 
BRANCH  36  37
ATOM     37  O   UNL A   1      32.728  17.835  23.139  1.00  0.00    -0.396 OA
ATOM     38  H   UNL A   1      31.899  17.346  23.009  1.00  0.00     0.210 HD
ENDBRANCH  36  37
ENDBRANCH  35  36
ENDBRANCH   6  35
ENDBRANCH   4   6
ENDBRANCH   3   4
ENDBRANCH   2   3
ENDBRANCH   1   2
BRANCH   1  39
ATOM     39  O   UNL A   1      38.510  21.804  25.603  1.00  0.00    -0.374 OA
BRANCH  39  40
ATOM     40  C   UNL A   1      39.732  22.065  26.316  1.00  0.00     0.202 C 
BRANCH  40  41
ATOM     41  C   UNL A   1      40.758  20.901  26.527  1.00  0.00     0.261 C 
BRANCH  41  42
ATOM     42  O   UNL A   1      42.145  21.171  27.019  1.00  0.00    -0.460 OA
BRANCH  42  43
ATOM     43  C   UNL A   1      42.889  22.101  26.302  1.00  0.00     0.338 C 
ATOM     44  O   UNL A   1      43.433  21.781  25.251  1.00  0.00    -0.246 OA
BRANCH  43  45
ATOM     45  C   UNL A   1      42.966  23.595  26.787  1.00  0.00     0.060 A 
ATOM     46  C   UNL A   1      42.403  23.938  28.014  1.00  0.00     0.016 A 
ATOM     47  C   UNL A   1      43.253  24.736  25.998  1.00  0.00     0.016 A 
ATOM     48  C   UNL A   1      42.207  25.327  28.440  1.00  0.00     0.010 A 
ATOM     49  C   UNL A   1      42.977  26.167  26.415  1.00  0.00     0.010 A 
ATOM     50  C   UNL A   1      42.437  26.539  27.668  1.00  0.00    -0.014 A 
BRANCH  50  51
ATOM     51  C   UNL A   1      41.618  27.971  28.166  1.00  0.00     0.031 A 
ATOM     52  C   UNL A   1      42.745  28.946  28.068  1.00  0.00     0.074 A 
ATOM     53  C   UNL A   1      40.437  28.575  28.711  1.00  0.00     0.049 A 
ATOM     54  N   UNL A   1      43.852  28.693  28.711  1.00  0.00    -0.248 NA
ATOM     55  C   UNL A   1      42.883  29.933  26.995  1.00  0.00     0.031 C 
ATOM     56  C   UNL A   1      39.200  27.912  29.182  1.00  0.00     0.029 A 
ATOM     57  N   UNL A   1      40.027  29.966  29.005  1.00  0.00    -0.354 N 
ATOM     58  C   UNL A   1      44.717  29.710  28.402  1.00  0.00     0.074 A 
ATOM     59  C   UNL A   1      44.168  30.267  27.169  1.00  0.00     0.031 C 
ATOM     60  C   UNL A   1      38.204  28.796  29.528  1.00  0.00     0.029 A 
ATOM     61  C   UNL A   1      38.617  30.202  29.403  1.00  0.00     0.049 A 
ATOM     62  H   UNL A   1      40.668  30.711  28.938  1.00  0.00     0.167 HD
ATOM     63  C   UNL A   1      45.213  30.376  29.486  1.00  0.00     0.034 A 
ATOM     64  C   UNL A   1      37.853  31.374  29.694  1.00  0.00     0.034 A 
ATOM     65  C   UNL A   1      44.508  31.608  29.718  1.00  0.00     0.049 A 
ATOM     66  C   UNL A   1      38.795  32.399  30.129  1.00  0.00     0.074 A 
ATOM     67  C   UNL A   1      44.081  32.610  28.870  1.00  0.00     0.029 A 
ATOM     68  N   UNL A   1      43.740  31.697  30.861  1.00  0.00    -0.354 N 
ATOM     69  N   UNL A   1      39.239  32.428  31.344  1.00  0.00    -0.248 NA
ATOM     70  C   UNL A   1      39.216  33.502  29.276  1.00  0.00     0.031 C 
ATOM     71  C   UNL A   1      42.773  32.902  29.304  1.00  0.00     0.029 A 
ATOM     72  C   UNL A   1      42.610  32.442  30.605  1.00  0.00     0.049 A 
ATOM     73  H   UNL A   1      43.965  31.288  31.728  1.00  0.00     0.167 HD
ATOM     74  C   UNL A   1      40.401  33.114  31.202  1.00  0.00     0.074 A 
ATOM     75  C   UNL A   1      40.184  33.986  30.058  1.00  0.00     0.031 C 
ATOM     76  C   UNL A   1      41.520  32.432  31.559  1.00  0.00     0.034 A 
BRANCH  63  77
ATOM     77  C   UNL A   1      45.705  29.453  30.573  1.00  0.00     0.023 A 
ATOM     78  C   UNL A   1      45.422  28.087  30.479  1.00  0.00     0.031 A 
ATOM     79  C   UNL A   1      46.295  29.923  31.769  1.00  0.00     0.131 A 
ATOM     80  C   UNL A   1      45.655  27.251  31.584  1.00  0.00     0.055 A 
ATOM     81  C   UNL A   1      46.465  29.105  32.883  1.00  0.00     0.041 A 
ATOM     82  F   UNL A   1      46.696  31.201  31.880  1.00  0.00    -0.206 F 
ATOM     83  C   UNL A   1      46.133  27.758  32.798  1.00  0.00     0.022 A 
BRANCH  80  84
ATOM     84  S   UNL A   1      45.336  25.477  31.408  1.00  0.00     0.124 S 
ATOM     85  O   UNL A   1      45.577  24.977  32.758  1.00  0.00    -0.237 OA
ATOM     86  O   UNL A   1      43.943  25.457  30.968  1.00  0.00    -0.237 OA
ATOM     87  O   UNL A   1      46.305  25.046  30.402  1.00  0.00    -0.744 OA
ENDBRANCH  80  84
ENDBRANCH  63  77
BRANCH  64  88
ATOM     88  C   UNL A   1      36.390  32.031  29.927  1.00  0.00     0.023 A 
ATOM     89  C   UNL A   1      35.873  32.453  31.246  1.00  0.00     0.031 A 
ATOM     90  C   UNL A   1      35.710  32.636  28.862  1.00  0.00     0.131 A 
ATOM     91  C   UNL A   1      34.811  33.412  31.420  1.00  0.00     0.055 A 
ATOM     92  C   UNL A   1      34.659  33.583  29.043  1.00  0.00     0.041 A 
ATOM     93  F   UNL A   1      36.110  32.421  27.602  1.00  0.00    -0.206 F 
ATOM     94  C   UNL A   1      34.220  33.985  30.305  1.00  0.00     0.022 A 
BRANCH  91  95
ATOM     95  S   UNL A   1      34.275  34.103  33.072  1.00  0.00     0.124 S 
ATOM     96  O   UNL A   1      34.282  35.543  32.851  1.00  0.00    -0.237 OA
ATOM     97  O   UNL A   1      32.975  33.479  33.290  1.00  0.00    -0.237 OA
ATOM     98  O   UNL A   1      35.315  33.635  33.995  1.00  0.00    -0.744 OA
ENDBRANCH  91  95
ENDBRANCH  64  88
BRANCH  76  99
ATOM     99  C   UNL A   1      41.444  31.589  32.836  1.00  0.00     0.023 A 
ATOM    100  C   UNL A   1      41.568  30.172  32.930  1.00  0.00     0.031 A 
ATOM    101  C   UNL A   1      41.129  32.256  34.029  1.00  0.00     0.131 A 
ATOM    102  C   UNL A   1      41.336  29.494  34.144  1.00  0.00     0.055 A 
ATOM    103  C   UNL A   1      40.944  31.591  35.243  1.00  0.00     0.041 A 
ATOM    104  F   UNL A   1      40.977  33.590  34.035  1.00  0.00    -0.206 F 
ATOM    105  C   UNL A   1      41.029  30.205  35.302  1.00  0.00     0.022 A 
BRANCH 102 106
ATOM    106  S   UNL A   1      41.332  27.667  34.215  1.00  0.00     0.124 S 
ATOM    107  O   UNL A   1      42.575  27.295  33.550  1.00  0.00    -0.237 OA
ATOM    108  O   UNL A   1      41.276  27.405  35.650  1.00  0.00    -0.237 OA
ATOM    109  O   UNL A   1      40.119  27.304  33.481  1.00  0.00    -0.744 OA
ENDBRANCH 102 106
ENDBRANCH  76  99
ENDBRANCH  50  51
ENDBRANCH  43  45
ENDBRANCH  42  43
ENDBRANCH  41  42
ENDBRANCH  40  41
ENDBRANCH  39  40
ENDBRANCH   1  39
TORSDOF 26
ENDMDL
MODEL 3
REMARK VINA RESULT:     -11.8      2.105      2.830
REMARK SMILES Cc1c(CC(=O)N[C@@H](CCO)C(=O)OCCOCCOC(=O)c2ccc(-c3c4nc(c(-c5cc(S(=O)(=O)[O-])ccc5F)c5ccc([nH]5)c(-c5cc(S(=O)(=O)[O-])ccc5F)c5nc(c(-c6cc(S(=O)(=O)[O-])ccc6F)c6ccc3[nH]6)C=C5)C=C4)cc2)cc(-c2ccc(S(C)(=O)=O)cc2)n1-c1ccc(F)cc1
REMARK SMILES IDX 16 1 15 2 14 3 12 4 13 5 8 6 7 7 5 8 6 9 4 11 3 12 1 13 2 14
REMARK SMILES IDX 98 15 86 16 87 17 99 18 100 19 105 20 101 21 104 22 102 23
REMARK SMILES IDX 103 24 88 25 89 26 97 27 90 28 96 29 91 30 92 31 93 32 94 33
REMARK SMILES IDX 95 34 9 35 10 36 11 37 17 39 18 40 19 41 20 42 21 43 22 44
REMARK SMILES IDX 23 45 24 46 85 47 25 48 84 49 26 50 27 51 28 52 78 53 29 54
REMARK SMILES IDX 83 55 77 56 79 57 30 58 82 59 76 60 75 61 31 63 63 64 43 65
REMARK SMILES IDX 62 66 44 67 47 68 61 69 80 70 45 71 46 72 60 74 81 75 48 76
REMARK SMILES IDX 32 77 33 78 41 79 34 80 40 81 42 82 39 83 35 84 36 85 37 86
REMARK SMILES IDX 38 87 64 88 65 89 73 90 66 91 72 92 74 93 71 94 67 95 68 96
REMARK SMILES IDX 69 97 70 98 49 99 50 100 58 101 51 102 57 103 59 104 56 105
REMARK SMILES IDX 52 106 53 107 54 108 55 109
REMARK H PARENT 7 10 11 38 79 62 47 73
REMARK Flexibility Score: inf
ROOT
ATOM      1  C   UNL A   1      36.317  23.112  25.549  1.00  0.00     0.202 C 
ENDROOT
BRANCH   1   2
ATOM      2  C   UNL A   1      35.526  22.183  26.485  1.00  0.00     0.261 C 
BRANCH   2   3
ATOM      3  O   UNL A   1      34.946  21.091  25.753  1.00  0.00    -0.462 OA
BRANCH   3   4
ATOM      4  C   UNL A   1      33.688  20.727  26.128  1.00  0.00     0.328 C 
ATOM      5  O   UNL A   1      33.355  20.389  27.259  1.00  0.00    -0.250 OA
BRANCH   4   6
ATOM      6  C   UNL A   1      32.730  20.671  24.927  1.00  0.00     0.194 C 
BRANCH   6   7
ATOM      7  N   UNL A   1      33.143  21.413  23.728  1.00  0.00    -0.342 N 
ATOM      8  C   UNL A   1      32.445  22.314  22.974  1.00  0.00     0.225 C 
ATOM      9  O   UNL A   1      33.024  22.830  22.014  1.00  0.00    -0.275 OA
ATOM     10  H   UNL A   1      34.061  21.234  23.422  1.00  0.00     0.164 HD
BRANCH   8  11
ATOM     11  C   UNL A   1      31.026  22.728  23.340  1.00  0.00     0.137 C 
BRANCH  11  12
ATOM     12  C   UNL A   1      30.922  24.144  23.818  1.00  0.00    -0.017 A 
ATOM     13  C   UNL A   1      32.700  24.159  25.697  1.00  0.00     0.065 C 
ATOM     14  C   UNL A   1      31.693  24.778  24.782  1.00  0.00     0.024 A 
ATOM     15  N   UNL A   1      31.349  26.126  24.797  1.00  0.00    -0.314 N 
ATOM     16  C   UNL A   1      29.997  25.103  23.336  1.00  0.00     0.033 A 
ATOM     17  C   UNL A   1      30.322  26.333  23.875  1.00  0.00     0.053 A 
BRANCH  15  18
ATOM     18  C   UNL A   1      31.961  27.143  25.578  1.00  0.00     0.046 A 
ATOM     19  C   UNL A   1      31.312  27.611  26.730  1.00  0.00     0.029 A 
ATOM     20  C   UNL A   1      33.171  27.712  25.161  1.00  0.00     0.029 A 
ATOM     21  C   UNL A   1      31.879  28.650  27.465  1.00  0.00     0.041 A 
ATOM     22  C   UNL A   1      33.720  28.765  25.893  1.00  0.00     0.041 A 
ATOM     23  C   UNL A   1      33.070  29.223  27.036  1.00  0.00     0.123 A 
ATOM     24  F   UNL A   1      33.597  30.239  27.732  1.00  0.00    -0.207 F 
ENDBRANCH  15  18
BRANCH  17  25
ATOM     25  C   UNL A   1      29.828  27.637  23.422  1.00  0.00    -0.001 A 
ATOM     26  C   UNL A   1      28.460  27.944  23.505  1.00  0.00     0.011 A 
ATOM     27  C   UNL A   1      30.722  28.614  22.967  1.00  0.00     0.011 A 
ATOM     28  C   UNL A   1      27.986  29.199  23.118  1.00  0.00     0.021 A 
ATOM     29  C   UNL A   1      30.255  29.872  22.572  1.00  0.00     0.021 A 
ATOM     30  C   UNL A   1      28.888  30.154  22.645  1.00  0.00     0.067 A 
BRANCH  30  31
ATOM     31  S   UNL A   1      28.291  31.761  22.181  1.00  0.00     0.175 S 
ATOM     32  C   UNL A   1      27.898  31.602  20.460  1.00  0.00     0.163 C 
ATOM     33  O   UNL A   1      27.047  31.978  22.909  1.00  0.00    -0.224 OA
ATOM     34  O   UNL A   1      29.389  32.695  22.291  1.00  0.00    -0.224 OA
ENDBRANCH  30  31
ENDBRANCH  17  25
ENDBRANCH  11  12
ENDBRANCH   8  11
ENDBRANCH   6   7
BRANCH   6  35
ATOM     35  C   UNL A   1      32.429  19.213  24.557  1.00  0.00     0.065 C 
BRANCH  35  36
ATOM     36  C   UNL A   1      33.032  18.762  23.227  1.00  0.00     0.159 C 
BRANCH  36  37
ATOM     37  O   UNL A   1      32.042  18.668  22.217  1.00  0.00    -0.396 OA
ATOM     38  H   UNL A   1      31.564  17.829  22.310  1.00  0.00     0.210 HD
ENDBRANCH  36  37
ENDBRANCH  35  36
ENDBRANCH   6  35
ENDBRANCH   4   6
ENDBRANCH   3   4
ENDBRANCH   2   3
ENDBRANCH   1   2
BRANCH   1  39
ATOM     39  O   UNL A   1      37.564  22.593  25.092  1.00  0.00    -0.374 OA
BRANCH  39  40
ATOM     40  C   UNL A   1      38.648  22.570  26.038  1.00  0.00     0.202 C 
BRANCH  40  41
ATOM     41  C   UNL A   1      39.556  21.298  26.130  1.00  0.00     0.261 C 
BRANCH  41  42
ATOM     42  O   UNL A   1      40.484  21.092  27.285  1.00  0.00    -0.460 OA
BRANCH  42  43
ATOM     43  C   UNL A   1      41.780  21.573  27.134  1.00  0.00     0.338 C 
ATOM     44  O   UNL A   1      42.683  20.823  26.782  1.00  0.00    -0.246 OA
BRANCH  43  45
ATOM     45  C   UNL A   1      42.082  23.105  27.329  1.00  0.00     0.060 A 
ATOM     46  C   UNL A   1      42.115  23.629  28.620  1.00  0.00     0.016 A 
ATOM     47  C   UNL A   1      42.012  24.122  26.346  1.00  0.00     0.016 A 
ATOM     48  C   UNL A   1      42.144  25.068  28.894  1.00  0.00     0.010 A 
ATOM     49  C   UNL A   1      41.966  25.608  26.641  1.00  0.00     0.010 A 
ATOM     50  C   UNL A   1      42.031  26.162  27.940  1.00  0.00    -0.014 A 
BRANCH  50  51
ATOM     51  C   UNL A   1      41.531  27.698  28.541  1.00  0.00     0.031 A 
ATOM     52  C   UNL A   1      42.697  28.523  28.108  1.00  0.00     0.074 A 
ATOM     53  C   UNL A   1      40.603  28.458  29.326  1.00  0.00     0.049 A 
ATOM     54  N   UNL A   1      43.896  28.155  28.468  1.00  0.00    -0.248 NA
ATOM     55  C   UNL A   1      42.668  29.454  26.978  1.00  0.00     0.031 C 
ATOM     56  C   UNL A   1      39.460  27.966  30.130  1.00  0.00     0.029 A 
ATOM     57  N   UNL A   1      40.439  29.897  29.630  1.00  0.00    -0.354 N 
ATOM     58  C   UNL A   1      44.762  29.048  27.894  1.00  0.00     0.074 A 
ATOM     59  C   UNL A   1      43.984  29.632  26.806  1.00  0.00     0.031 C 
ATOM     60  C   UNL A   1      38.690  28.976  30.659  1.00  0.00     0.029 A 
ATOM     61  C   UNL A   1      39.212  30.317  30.353  1.00  0.00     0.049 A 
ATOM     62  H   UNL A   1      41.121  30.555  29.362  1.00  0.00     0.167 HD
ATOM     63  C   UNL A   1      45.589  29.679  28.779  1.00  0.00     0.034 A 
ATOM     64  C   UNL A   1      38.684  31.581  30.754  1.00  0.00     0.034 A 
ATOM     65  C   UNL A   1      45.108  30.995  29.106  1.00  0.00     0.049 A 
ATOM     66  C   UNL A   1      39.814  32.494  30.880  1.00  0.00     0.074 A 
ATOM     67  C   UNL A   1      44.595  32.017  28.333  1.00  0.00     0.029 A 
ATOM     68  N   UNL A   1      44.671  31.211  30.396  1.00  0.00    -0.354 N 
ATOM     69  N   UNL A   1      40.553  32.504  31.942  1.00  0.00    -0.248 NA
ATOM     70  C   UNL A   1      40.124  33.513  29.885  1.00  0.00     0.031 C 
ATOM     71  C   UNL A   1      43.481  32.481  29.061  1.00  0.00     0.029 A 
ATOM     72  C   UNL A   1      43.604  32.082  30.386  1.00  0.00     0.049 A 
ATOM     73  H   UNL A   1      45.063  30.803  31.203  1.00  0.00     0.167 HD
ATOM     74  C   UNL A   1      41.710  33.037  31.474  1.00  0.00     0.074 A 
ATOM     75  C   UNL A   1      41.308  33.895  30.371  1.00  0.00     0.031 C 
ATOM     76  C   UNL A   1      42.799  32.234  31.581  1.00  0.00     0.034 A 
BRANCH  63  77
ATOM     77  C   UNL A   1      46.235  28.735  29.762  1.00  0.00     0.023 A 
ATOM     78  C   UNL A   1      45.427  28.062  30.684  1.00  0.00     0.031 A 
ATOM     79  C   UNL A   1      47.636  28.621  29.908  1.00  0.00     0.131 A 
ATOM     80  C   UNL A   1      46.020  27.371  31.754  1.00  0.00     0.055 A 
ATOM     81  C   UNL A   1      48.219  27.989  31.004  1.00  0.00     0.041 A 
ATOM     82  F   UNL A   1      48.466  29.147  28.991  1.00  0.00    -0.206 F 
ATOM     83  C   UNL A   1      47.406  27.367  31.944  1.00  0.00     0.022 A 
BRANCH  80  84
ATOM     84  S   UNL A   1      44.948  26.459  32.894  1.00  0.00     0.124 S 
ATOM     85  O   UNL A   1      45.319  27.018  34.190  1.00  0.00    -0.237 OA
ATOM     86  O   UNL A   1      43.615  26.815  32.414  1.00  0.00    -0.237 OA
ATOM     87  O   UNL A   1      45.325  25.063  32.686  1.00  0.00    -0.744 OA
ENDBRANCH  80  84
ENDBRANCH  63  77
BRANCH  64  88
ATOM     88  C   UNL A   1      37.411  32.420  31.306  1.00  0.00     0.023 A 
ATOM     89  C   UNL A   1      36.499  33.202  30.445  1.00  0.00     0.031 A 
ATOM     90  C   UNL A   1      36.844  32.106  32.548  1.00  0.00     0.131 A 
ATOM     91  C   UNL A   1      35.158  33.570  30.826  1.00  0.00     0.055 A 
ATOM     92  C   UNL A   1      35.517  32.475  32.917  1.00  0.00     0.041 A 
ATOM     93  F   UNL A   1      37.512  31.332  33.414  1.00  0.00    -0.206 F 
ATOM     94  C   UNL A   1      34.671  33.185  32.065  1.00  0.00     0.022 A 
BRANCH  91  95
ATOM     95  S   UNL A   1      33.926  34.388  29.684  1.00  0.00     0.124 S 
ATOM     96  O   UNL A   1      33.008  35.051  30.601  1.00  0.00    -0.237 OA
ATOM     97  O   UNL A   1      34.759  35.248  28.852  1.00  0.00    -0.237 OA
ATOM     98  O   UNL A   1      33.331  33.261  28.955  1.00  0.00    -0.744 OA
ENDBRANCH  91  95
ENDBRANCH  64  88
BRANCH  76  99
ATOM     99  C   UNL A   1      42.957  31.443  32.885  1.00  0.00     0.023 A 
ATOM    100  C   UNL A   1      42.232  30.277  33.266  1.00  0.00     0.031 A 
ATOM    101  C   UNL A   1      43.834  31.963  33.848  1.00  0.00     0.131 A 
ATOM    102  C   UNL A   1      42.364  29.721  34.556  1.00  0.00     0.055 A 
ATOM    103  C   UNL A   1      44.000  31.386  35.109  1.00  0.00     0.041 A 
ATOM    104  F   UNL A   1      44.548  33.068  33.584  1.00  0.00    -0.206 F 
ATOM    105  C   UNL A   1      43.252  30.274  35.476  1.00  0.00     0.022 A 
BRANCH 102 106
ATOM    106  S   UNL A   1      41.307  28.329  35.091  1.00  0.00     0.124 S 
ATOM    107  O   UNL A   1      40.562  28.875  36.218  1.00  0.00    -0.237 OA
ATOM    108  O   UNL A   1      40.525  28.045  33.890  1.00  0.00    -0.237 OA
ATOM    109  O   UNL A   1      42.274  27.289  35.449  1.00  0.00    -0.744 OA
ENDBRANCH 102 106
ENDBRANCH  76  99
ENDBRANCH  50  51
ENDBRANCH  43  45
ENDBRANCH  42  43
ENDBRANCH  41  42
ENDBRANCH  40  41
ENDBRANCH  39  40
ENDBRANCH   1  39
TORSDOF 26
ENDMDL
