MODEL 1
REMARK VINA RESULT:     -11.3      0.000      0.000
REMARK SMILES O=C(OCCOCCOC(=O)c1cc(-c2ccccc2)nc(Nc2nc3ccccc3s2)n1)c1ccc(-c2c3nc(c(-c4cc(S(=O)(=O)[O-])ccc4F)c4ccc([nH]4)c(-c4cc(S(=O)(=O)[O-])ccc4F)c4nc(c(-c5cc(S(=O)(=O)[O-])ccc5F)c5ccc2[nH]5)C=C4)C=C3)cc1
REMARK SMILES IDX 5 1 4 2 3 3 2 4 1 5 34 6 35 7 96 8 36 9 95 10 37 11 38 12
REMARK SMILES IDX 39 13 89 14 40 15 94 16 88 17 90 18 41 19 93 20 87 21 86 22
REMARK SMILES IDX 42 24 74 25 54 26 73 27 55 28 58 29 72 30 91 31 56 32 57 33
REMARK SMILES IDX 71 35 92 36 59 37 43 38 44 39 52 40 45 41 51 42 53 43 50 44
REMARK SMILES IDX 46 45 47 46 48 47 49 48 75 49 76 50 84 51 77 52 83 53 85 54
REMARK SMILES IDX 82 55 78 56 79 57 80 58 81 59 60 60 61 61 69 62 62 63 68 64
REMARK SMILES IDX 70 65 67 66 63 67 64 68 65 69 66 70 6 71 7 72 8 73 9 74
REMARK SMILES IDX 10 75 11 76 12 77 13 78 33 79 14 80 22 81 21 82 15 83 16 84
REMARK SMILES IDX 20 85 17 86 19 87 18 88 23 89 24 91 25 92 32 93 26 94 31 95
REMARK SMILES IDX 27 96 30 97 28 98 29 99
REMARK H PARENT 90 23 58 34 23 90
REMARK Flexibility Score: inf
ROOT
ATOM      1  C   UNL A   1      35.686  22.279  24.070  1.00  0.00     0.202 C 
ENDROOT
BRANCH   1   2
ATOM      2  C   UNL A   1      36.656  21.461  24.918  1.00  0.00     0.261 C 
BRANCH   2   3
ATOM      3  O   UNL A   1      37.367  22.314  25.827  1.00  0.00    -0.460 OA
BRANCH   3   4
ATOM      4  C   UNL A   1      38.671  22.216  26.183  1.00  0.00     0.338 C 
ATOM      5  O   UNL A   1      39.247  21.148  25.969  1.00  0.00    -0.246 OA
BRANCH   4   6
ATOM      6  C   UNL A   1      39.460  23.319  26.821  1.00  0.00     0.060 A 
ATOM      7  C   UNL A   1      40.513  23.151  27.724  1.00  0.00     0.016 A 
ATOM      8  C   UNL A   1      39.175  24.628  26.393  1.00  0.00     0.016 A 
ATOM      9  C   UNL A   1      41.254  24.222  28.198  1.00  0.00     0.010 A 
ATOM     10  C   UNL A   1      39.934  25.715  26.843  1.00  0.00     0.010 A 
ATOM     11  C   UNL A   1      40.981  25.506  27.746  1.00  0.00    -0.014 A 
BRANCH  11  12
ATOM     12  C   UNL A   1      41.778  26.610  28.307  1.00  0.00     0.031 A 
ATOM     13  C   UNL A   1      43.180  26.788  27.822  1.00  0.00     0.074 A 
ATOM     14  C   UNL A   1      41.184  27.497  29.125  1.00  0.00     0.049 A 
ATOM     15  N   UNL A   1      44.081  27.652  28.198  1.00  0.00    -0.248 NA
ATOM     16  C   UNL A   1      43.622  25.875  26.755  1.00  0.00     0.031 C 
ATOM     17  C   UNL A   1      39.773  27.459  29.524  1.00  0.00     0.029 A 
ATOM     18  N   UNL A   1      41.672  28.616  29.743  1.00  0.00    -0.354 N 
ATOM     19  C   UNL A   1      45.206  27.376  27.432  1.00  0.00     0.074 A 
ATOM     20  C   UNL A   1      44.877  26.258  26.576  1.00  0.00     0.031 C 
ATOM     21  C   UNL A   1      39.509  28.517  30.307  1.00  0.00     0.029 A 
ATOM     22  C   UNL A   1      40.744  29.261  30.528  1.00  0.00     0.049 A 
ATOM     23  H   UNL A   1      42.599  28.930  29.635  1.00  0.00     0.167 HD
ATOM     24  C   UNL A   1      46.405  28.003  27.462  1.00  0.00     0.034 A 
ATOM     25  C   UNL A   1      40.898  30.307  31.363  1.00  0.00     0.034 A 
ATOM     26  C   UNL A   1      46.686  29.102  28.351  1.00  0.00     0.049 A 
ATOM     27  C   UNL A   1      42.279  30.912  31.464  1.00  0.00     0.074 A 
ATOM     28  C   UNL A   1      47.876  29.776  28.550  1.00  0.00     0.029 A 
ATOM     29  N   UNL A   1      45.750  29.687  29.200  1.00  0.00    -0.354 N 
ATOM     30  N   UNL A   1      43.369  30.592  30.799  1.00  0.00    -0.248 NA
ATOM     31  C   UNL A   1      42.456  32.004  32.424  1.00  0.00     0.031 C 
ATOM     32  C   UNL A   1      47.676  30.721  29.561  1.00  0.00     0.029 A 
ATOM     33  C   UNL A   1      46.342  30.694  29.942  1.00  0.00     0.049 A 
ATOM     34  H   UNL A   1      44.804  29.421  29.264  1.00  0.00     0.167 HD
ATOM     35  C   UNL A   1      44.357  31.461  31.250  1.00  0.00     0.074 A 
ATOM     36  C   UNL A   1      43.724  32.332  32.222  1.00  0.00     0.031 C 
ATOM     37  C   UNL A   1      45.667  31.537  30.903  1.00  0.00     0.034 A 
BRANCH  24  38
ATOM     38  C   UNL A   1      47.495  27.435  26.590  1.00  0.00     0.023 A 
ATOM     39  C   UNL A   1      47.671  27.841  25.255  1.00  0.00     0.031 A 
ATOM     40  C   UNL A   1      48.318  26.405  27.080  1.00  0.00     0.131 A 
ATOM     41  C   UNL A   1      48.593  27.169  24.436  1.00  0.00     0.055 A 
ATOM     42  C   UNL A   1      49.286  25.793  26.282  1.00  0.00     0.041 A 
ATOM     43  F   UNL A   1      48.172  25.952  28.335  1.00  0.00    -0.206 F 
ATOM     44  C   UNL A   1      49.418  26.164  24.947  1.00  0.00     0.022 A 
BRANCH  41  45
ATOM     45  S   UNL A   1      48.594  27.522  22.657  1.00  0.00     0.124 S 
ATOM     46  O   UNL A   1      49.814  28.316  22.513  1.00  0.00    -0.237 OA
ATOM     47  O   UNL A   1      48.632  26.189  22.067  1.00  0.00    -0.237 OA
ATOM     48  O   UNL A   1      47.351  28.261  22.451  1.00  0.00    -0.744 OA
ENDBRANCH  41  45
ENDBRANCH  24  38
BRANCH  25  49
ATOM     49  C   UNL A   1      39.771  30.788  32.219  1.00  0.00     0.023 A 
ATOM     50  C   UNL A   1      39.093  31.985  31.937  1.00  0.00     0.031 A 
ATOM     51  C   UNL A   1      39.399  30.086  33.381  1.00  0.00     0.131 A 
ATOM     52  C   UNL A   1      38.122  32.469  32.831  1.00  0.00     0.055 A 
ATOM     53  C   UNL A   1      38.387  30.538  34.231  1.00  0.00     0.041 A 
ATOM     54  F   UNL A   1      40.017  28.941  33.714  1.00  0.00    -0.206 F 
ATOM     55  C   UNL A   1      37.754  31.747  33.967  1.00  0.00     0.022 A 
BRANCH  52  56
ATOM     56  S   UNL A   1      37.428  34.123  32.553  1.00  0.00     0.124 S 
ATOM     57  O   UNL A   1      37.794  34.811  33.786  1.00  0.00    -0.237 OA
ATOM     58  O   UNL A   1      38.132  34.549  31.347  1.00  0.00    -0.237 OA
ATOM     59  O   UNL A   1      36.000  33.868  32.381  1.00  0.00    -0.744 OA
ENDBRANCH  52  56
ENDBRANCH  25  49
BRANCH  37  60
ATOM     60  C   UNL A   1      46.472  32.631  31.554  1.00  0.00     0.023 A 
ATOM     61  C   UNL A   1      46.584  33.906  30.974  1.00  0.00     0.031 A 
ATOM     62  C   UNL A   1      47.139  32.387  32.766  1.00  0.00     0.131 A 
ATOM     63  C   UNL A   1      47.392  34.876  31.582  1.00  0.00     0.055 A 
ATOM     64  C   UNL A   1      47.890  33.377  33.399  1.00  0.00     0.041 A 
ATOM     65  F   UNL A   1      47.063  31.184  33.359  1.00  0.00    -0.206 F 
ATOM     66  C   UNL A   1      48.031  34.625  32.800  1.00  0.00     0.022 A 
BRANCH  63  67
ATOM     67  S   UNL A   1      47.670  36.442  30.712  1.00  0.00     0.124 S 
ATOM     68  O   UNL A   1      49.068  36.321  30.311  1.00  0.00    -0.237 OA
ATOM     69  O   UNL A   1      46.689  36.379  29.634  1.00  0.00    -0.237 OA
ATOM     70  O   UNL A   1      47.403  37.452  31.734  1.00  0.00    -0.744 OA
ENDBRANCH  63  67
ENDBRANCH  37  60
ENDBRANCH  11  12
ENDBRANCH   4   6
ENDBRANCH   3   4
ENDBRANCH   2   3
ENDBRANCH   1   2
BRANCH   1  71
ATOM     71  O   UNL A   1      34.318  21.935  24.276  1.00  0.00    -0.374 OA
BRANCH  71  72
ATOM     72  C   UNL A   1      33.360  22.562  23.428  1.00  0.00     0.202 C 
BRANCH  72  73
ATOM     73  C   UNL A   1      33.934  23.906  22.976  1.00  0.00     0.261 C 
BRANCH  73  74
ATOM     74  O   UNL A   1      32.900  24.893  23.122  1.00  0.00    -0.459 OA
BRANCH  74  75
ATOM     75  C   UNL A   1      33.205  26.111  22.588  1.00  0.00     0.357 C 
ATOM     76  O   UNL A   1      33.775  26.330  21.534  1.00  0.00    -0.244 OA
BRANCH  75  77
ATOM     77  C   UNL A   1      32.617  27.138  23.485  1.00  0.00     0.154 A 
ATOM     78  C   UNL A   1      31.624  27.938  23.001  1.00  0.00     0.065 A 
ATOM     79  N   UNL A   1      33.113  27.239  24.733  1.00  0.00    -0.206 NA
ATOM     80  C   UNL A   1      31.068  28.810  23.903  1.00  0.00     0.077 A 
ATOM     81  C   UNL A   1      32.593  28.178  25.529  1.00  0.00     0.230 A 
ATOM     82  N   UNL A   1      31.543  28.947  25.165  1.00  0.00    -0.213 NA
BRANCH  80  83
ATOM     83  C   UNL A   1      29.875  29.568  23.500  1.00  0.00     0.000 A 
ATOM     84  C   UNL A   1      28.821  28.997  22.778  1.00  0.00     0.010 A 
ATOM     85  C   UNL A   1      29.731  30.905  23.933  1.00  0.00     0.010 A 
ATOM     86  C   UNL A   1      27.650  29.726  22.535  1.00  0.00     0.001 A 
ATOM     87  C   UNL A   1      28.565  31.630  23.699  1.00  0.00     0.001 A 
ATOM     88  C   UNL A   1      27.520  31.035  23.004  1.00  0.00     0.000 A 
ENDBRANCH  80  83
BRANCH  81  89
ATOM     89  N   UNL A   1      33.062  28.326  26.831  1.00  0.00    -0.300 N 
ATOM     90  H   UNL A   1      32.691  27.718  27.510  1.00  0.00     0.172 HD
BRANCH  89  91
ATOM     91  C   UNL A   1      33.980  29.224  27.250  1.00  0.00     0.190 A 
ATOM     92  N   UNL A   1      35.255  28.983  27.473  1.00  0.00    -0.220 NA
ATOM     93  S   UNL A   1      33.536  30.885  27.421  1.00  0.00    -0.097 S 
ATOM     94  C   UNL A   1      35.915  30.134  27.890  1.00  0.00     0.084 A 
ATOM     95  C   UNL A   1      35.119  31.275  27.976  1.00  0.00     0.056 A 
ATOM     96  C   UNL A   1      37.281  30.244  28.227  1.00  0.00     0.030 A 
ATOM     97  C   UNL A   1      35.631  32.504  28.436  1.00  0.00     0.021 A 
ATOM     98  C   UNL A   1      37.801  31.456  28.690  1.00  0.00     0.002 A 
ATOM     99  C   UNL A   1      36.979  32.569  28.803  1.00  0.00     0.002 A 
ENDBRANCH  89  91
ENDBRANCH  81  89
ENDBRANCH  75  77
ENDBRANCH  74  75
ENDBRANCH  73  74
ENDBRANCH  72  73
ENDBRANCH  71  72
ENDBRANCH   1  71
TORSDOF 20
ENDMDL
MODEL 2
REMARK VINA RESULT:     -11.0      1.839      3.966
REMARK SMILES O=C(OCCOCCOC(=O)c1cc(-c2ccccc2)nc(Nc2nc3ccccc3s2)n1)c1ccc(-c2c3nc(c(-c4cc(S(=O)(=O)[O-])ccc4F)c4ccc([nH]4)c(-c4cc(S(=O)(=O)[O-])ccc4F)c4nc(c(-c5cc(S(=O)(=O)[O-])ccc5F)c5ccc2[nH]5)C=C4)C=C3)cc1
REMARK SMILES IDX 5 1 4 2 3 3 2 4 1 5 34 6 35 7 96 8 36 9 95 10 37 11 38 12
REMARK SMILES IDX 39 13 89 14 40 15 94 16 88 17 90 18 41 19 93 20 87 21 86 22
REMARK SMILES IDX 42 24 74 25 54 26 73 27 55 28 58 29 72 30 91 31 56 32 57 33
REMARK SMILES IDX 71 35 92 36 59 37 43 38 44 39 52 40 45 41 51 42 53 43 50 44
REMARK SMILES IDX 46 45 47 46 48 47 49 48 75 49 76 50 84 51 77 52 83 53 85 54
REMARK SMILES IDX 82 55 78 56 79 57 80 58 81 59 60 60 61 61 69 62 62 63 68 64
REMARK SMILES IDX 70 65 67 66 63 67 64 68 65 69 66 70 6 71 7 72 8 73 9 74
REMARK SMILES IDX 10 75 11 76 12 77 13 78 33 79 14 80 22 81 21 82 15 83 16 84
REMARK SMILES IDX 20 85 17 86 19 87 18 88 23 89 24 91 25 92 32 93 26 94 31 95
REMARK SMILES IDX 27 96 30 97 28 98 29 99
REMARK H PARENT 90 23 58 34 23 90
REMARK Flexibility Score: inf
ROOT
ATOM      1  C   UNL A   1      35.667  19.833  25.008  1.00  0.00     0.202 C 
ENDROOT
BRANCH   1   2
ATOM      2  C   UNL A   1      36.907  20.683  24.744  1.00  0.00     0.261 C 
BRANCH   2   3
ATOM      3  O   UNL A   1      37.593  20.962  25.972  1.00  0.00    -0.460 OA
BRANCH   3   4
ATOM      4  C   UNL A   1      38.923  21.163  26.133  1.00  0.00     0.338 C 
ATOM      5  O   UNL A   1      39.667  20.185  26.047  1.00  0.00    -0.246 OA
BRANCH   4   6
ATOM      6  C   UNL A   1      39.551  22.496  26.410  1.00  0.00     0.060 A 
ATOM      7  C   UNL A   1      39.100  23.726  25.925  1.00  0.00     0.016 A 
ATOM      8  C   UNL A   1      40.625  22.511  27.317  1.00  0.00     0.016 A 
ATOM      9  C   UNL A   1      39.683  24.925  26.304  1.00  0.00     0.010 A 
ATOM     10  C   UNL A   1      41.204  23.717  27.730  1.00  0.00     0.010 A 
ATOM     11  C   UNL A   1      40.724  24.929  27.222  1.00  0.00    -0.014 A 
BRANCH  11  12
ATOM     12  C   UNL A   1      41.327  26.227  27.564  1.00  0.00     0.031 A 
ATOM     13  C   UNL A   1      42.678  26.548  27.011  1.00  0.00     0.074 A 
ATOM     14  C   UNL A   1      40.597  27.131  28.241  1.00  0.00     0.049 A 
ATOM     15  N   UNL A   1      43.423  27.599  27.208  1.00  0.00    -0.248 NA
ATOM     16  C   UNL A   1      43.263  25.552  26.098  1.00  0.00     0.031 C 
ATOM     17  C   UNL A   1      39.214  26.931  28.686  1.00  0.00     0.029 A 
ATOM     18  N   UNL A   1      40.894  28.404  28.647  1.00  0.00    -0.354 N 
ATOM     19  C   UNL A   1      44.576  27.385  26.464  1.00  0.00     0.074 A 
ATOM     20  C   UNL A   1      44.435  26.099  25.818  1.00  0.00     0.031 C 
ATOM     21  C   UNL A   1      38.780  28.049  29.289  1.00  0.00     0.029 A 
ATOM     22  C   UNL A   1      39.874  29.012  29.343  1.00  0.00     0.049 A 
ATOM     23  H   UNL A   1      41.755  28.842  28.459  1.00  0.00     0.167 HD
ATOM     24  C   UNL A   1      45.654  28.196  26.350  1.00  0.00     0.034 A 
ATOM     25  C   UNL A   1      39.854  30.196  29.986  1.00  0.00     0.034 A 
ATOM     26  C   UNL A   1      45.750  29.461  27.033  1.00  0.00     0.049 A 
ATOM     27  C   UNL A   1      41.115  31.027  29.940  1.00  0.00     0.074 A 
ATOM     28  C   UNL A   1      46.812  30.345  27.078  1.00  0.00     0.029 A 
ATOM     29  N   UNL A   1      44.733  30.021  27.802  1.00  0.00    -0.354 N 
ATOM     30  N   UNL A   1      42.241  30.782  29.304  1.00  0.00    -0.248 NA
ATOM     31  C   UNL A   1      41.111  32.281  30.698  1.00  0.00     0.031 C 
ATOM     32  C   UNL A   1      46.461  31.403  27.924  1.00  0.00     0.029 A 
ATOM     33  C   UNL A   1      45.151  31.222  28.346  1.00  0.00     0.049 A 
ATOM     34  H   UNL A   1      43.845  29.618  27.940  1.00  0.00     0.167 HD
ATOM     35  C   UNL A   1      43.071  31.865  29.570  1.00  0.00     0.074 A 
ATOM     36  C   UNL A   1      42.305  32.773  30.403  1.00  0.00     0.031 C 
ATOM     37  C   UNL A   1      44.349  32.095  29.174  1.00  0.00     0.034 A 
BRANCH  24  38
ATOM     38  C   UNL A   1      46.820  27.675  25.551  1.00  0.00     0.023 A 
ATOM     39  C   UNL A   1      47.049  28.070  24.221  1.00  0.00     0.031 A 
ATOM     40  C   UNL A   1      47.666  26.697  26.104  1.00  0.00     0.131 A 
ATOM     41  C   UNL A   1      48.051  27.436  23.467  1.00  0.00     0.055 A 
ATOM     42  C   UNL A   1      48.709  26.126  25.373  1.00  0.00     0.041 A 
ATOM     43  F   UNL A   1      47.473  26.256  27.357  1.00  0.00    -0.206 F 
ATOM     44  C   UNL A   1      48.897  26.484  24.041  1.00  0.00     0.022 A 
BRANCH  41  45
ATOM     45  S   UNL A   1      48.135  27.763  21.684  1.00  0.00     0.124 S 
ATOM     46  O   UNL A   1      48.452  26.438  21.154  1.00  0.00    -0.237 OA
ATOM     47  O   UNL A   1      46.798  28.262  21.388  1.00  0.00    -0.237 OA
ATOM     48  O   UNL A   1      49.209  28.747  21.565  1.00  0.00    -0.744 OA
ENDBRANCH  41  45
ENDBRANCH  24  38
BRANCH  25  49
ATOM     49  C   UNL A   1      38.666  30.624  30.785  1.00  0.00     0.023 A 
ATOM     50  C   UNL A   1      37.760  31.581  30.300  1.00  0.00     0.031 A 
ATOM     51  C   UNL A   1      38.456  30.129  32.087  1.00  0.00     0.131 A 
ATOM     52  C   UNL A   1      36.724  32.050  31.127  1.00  0.00     0.055 A 
ATOM     53  C   UNL A   1      37.387  30.549  32.880  1.00  0.00     0.041 A 
ATOM     54  F   UNL A   1      39.294  29.221  32.614  1.00  0.00    -0.206 F 
ATOM     55  C   UNL A   1      36.523  31.530  32.407  1.00  0.00     0.022 A 
BRANCH  52  56
ATOM     56  S   UNL A   1      35.712  33.443  30.552  1.00  0.00     0.124 S 
ATOM     57  O   UNL A   1      34.383  33.053  31.008  1.00  0.00    -0.237 OA
ATOM     58  O   UNL A   1      36.324  34.570  31.248  1.00  0.00    -0.237 OA
ATOM     59  O   UNL A   1      35.903  33.427  29.104  1.00  0.00    -0.744 OA
ENDBRANCH  52  56
ENDBRANCH  25  49
BRANCH  37  60
ATOM     60  C   UNL A   1      44.962  33.401  29.606  1.00  0.00     0.023 A 
ATOM     61  C   UNL A   1      44.863  34.557  28.815  1.00  0.00     0.031 A 
ATOM     62  C   UNL A   1      45.658  33.481  30.824  1.00  0.00     0.131 A 
ATOM     63  C   UNL A   1      45.501  35.735  29.226  1.00  0.00     0.055 A 
ATOM     64  C   UNL A   1      46.236  34.674  31.258  1.00  0.00     0.041 A 
ATOM     65  F   UNL A   1      45.781  32.402  31.615  1.00  0.00    -0.206 F 
ATOM     66  C   UNL A   1      46.170  35.806  30.451  1.00  0.00     0.022 A 
BRANCH  63  67
ATOM     67  S   UNL A   1      45.518  37.152  28.095  1.00  0.00     0.124 S 
ATOM     68  O   UNL A   1      45.616  36.499  26.793  1.00  0.00    -0.237 OA
ATOM     69  O   UNL A   1      44.245  37.802  28.388  1.00  0.00    -0.237 OA
ATOM     70  O   UNL A   1      46.705  37.901  28.505  1.00  0.00    -0.744 OA
ENDBRANCH  63  67
ENDBRANCH  37  60
ENDBRANCH  11  12
ENDBRANCH   4   6
ENDBRANCH   3   4
ENDBRANCH   2   3
ENDBRANCH   1   2
BRANCH   1  71
ATOM     71  O   UNL A   1      34.564  20.578  25.520  1.00  0.00    -0.374 OA
BRANCH  71  72
ATOM     72  C   UNL A   1      33.457  20.774  24.645  1.00  0.00     0.202 C 
BRANCH  72  73
ATOM     73  C   UNL A   1      32.934  22.196  24.852  1.00  0.00     0.261 C 
BRANCH  73  74
ATOM     74  O   UNL A   1      33.797  23.087  24.126  1.00  0.00    -0.459 OA
BRANCH  74  75
ATOM     75  C   UNL A   1      34.473  23.978  24.909  1.00  0.00     0.357 C 
ATOM     76  O   UNL A   1      35.514  23.784  25.511  1.00  0.00    -0.244 OA
BRANCH  75  77
ATOM     77  C   UNL A   1      33.758  25.275  24.808  1.00  0.00     0.154 A 
ATOM     78  C   UNL A   1      34.082  26.269  25.684  1.00  0.00     0.065 A 
ATOM     79  N   UNL A   1      32.807  25.396  23.863  1.00  0.00    -0.206 NA
ATOM     80  C   UNL A   1      33.443  27.468  25.487  1.00  0.00     0.077 A 
ATOM     81  C   UNL A   1      32.153  26.559  23.791  1.00  0.00     0.230 A 
ATOM     82  N   UNL A   1      32.475  27.627  24.552  1.00  0.00    -0.213 NA
BRANCH  80  83
ATOM     83  C   UNL A   1      33.877  28.630  26.275  1.00  0.00     0.000 A 
ATOM     84  C   UNL A   1      33.023  29.694  26.590  1.00  0.00     0.010 A 
ATOM     85  C   UNL A   1      35.179  28.645  26.821  1.00  0.00     0.010 A 
ATOM     86  C   UNL A   1      33.447  30.712  27.454  1.00  0.00     0.001 A 
ATOM     87  C   UNL A   1      35.601  29.653  27.686  1.00  0.00     0.001 A 
ATOM     88  C   UNL A   1      34.729  30.684  28.007  1.00  0.00     0.000 A 
ENDBRANCH  80  83
BRANCH  81  89
ATOM     89  N   UNL A   1      31.163  26.743  22.830  1.00  0.00    -0.300 N 
ATOM     90  H   UNL A   1      31.043  26.022  22.171  1.00  0.00     0.172 HD
BRANCH  89  91
ATOM     91  C   UNL A   1      30.352  27.817  22.717  1.00  0.00     0.190 A 
ATOM     92  N   UNL A   1      30.588  28.893  21.996  1.00  0.00    -0.220 NA
ATOM     93  S   UNL A   1      28.796  27.798  23.468  1.00  0.00    -0.097 S 
ATOM     94  C   UNL A   1      29.542  29.804  22.101  1.00  0.00     0.084 A 
ATOM     95  C   UNL A   1      28.485  29.399  22.915  1.00  0.00     0.056 A 
ATOM     96  C   UNL A   1      29.460  31.065  21.474  1.00  0.00     0.030 A 
ATOM     97  C   UNL A   1      27.378  30.234  23.163  1.00  0.00     0.021 A 
ATOM     98  C   UNL A   1      28.370  31.907  21.717  1.00  0.00     0.002 A 
ATOM     99  C   UNL A   1      27.347  31.497  22.562  1.00  0.00     0.002 A 
ENDBRANCH  89  91
ENDBRANCH  81  89
ENDBRANCH  75  77
ENDBRANCH  74  75
ENDBRANCH  73  74
ENDBRANCH  72  73
ENDBRANCH  71  72
ENDBRANCH   1  71
TORSDOF 20
ENDMDL
MODEL 3
REMARK VINA RESULT:     -10.9      4.427      7.490
REMARK SMILES O=C(OCCOCCOC(=O)c1cc(-c2ccccc2)nc(Nc2nc3ccccc3s2)n1)c1ccc(-c2c3nc(c(-c4cc(S(=O)(=O)[O-])ccc4F)c4ccc([nH]4)c(-c4cc(S(=O)(=O)[O-])ccc4F)c4nc(c(-c5cc(S(=O)(=O)[O-])ccc5F)c5ccc2[nH]5)C=C4)C=C3)cc1
REMARK SMILES IDX 5 1 4 2 3 3 2 4 1 5 34 6 35 7 96 8 36 9 95 10 37 11 38 12
REMARK SMILES IDX 39 13 89 14 40 15 94 16 88 17 90 18 41 19 93 20 87 21 86 22
REMARK SMILES IDX 42 24 74 25 54 26 73 27 55 28 58 29 72 30 91 31 56 32 57 33
REMARK SMILES IDX 71 35 92 36 59 37 43 38 44 39 52 40 45 41 51 42 53 43 50 44
REMARK SMILES IDX 46 45 47 46 48 47 49 48 75 49 76 50 84 51 77 52 83 53 85 54
REMARK SMILES IDX 82 55 78 56 79 57 80 58 81 59 60 60 61 61 69 62 62 63 68 64
REMARK SMILES IDX 70 65 67 66 63 67 64 68 65 69 66 70 6 71 7 72 8 73 9 74
REMARK SMILES IDX 10 75 11 76 12 77 13 78 33 79 14 80 22 81 21 82 15 83 16 84
REMARK SMILES IDX 20 85 17 86 19 87 18 88 23 89 24 91 25 92 32 93 26 94 31 95
REMARK SMILES IDX 27 96 30 97 28 98 29 99
REMARK H PARENT 90 23 58 34 23 90
REMARK Flexibility Score: inf
ROOT
ATOM      1  C   UNL A   1      32.533  31.097  27.280  1.00  0.00     0.202 C 
ENDROOT
BRANCH   1   2
ATOM      2  C   UNL A   1      32.072  32.519  26.972  1.00  0.00     0.261 C 
BRANCH   2   3
ATOM      3  O   UNL A   1      33.119  33.457  27.258  1.00  0.00    -0.460 OA
BRANCH   3   4
ATOM      4  C   UNL A   1      33.470  33.938  28.475  1.00  0.00     0.338 C 
ATOM      5  O   UNL A   1      32.823  34.883  28.928  1.00  0.00    -0.246 OA
BRANCH   4   6
ATOM      6  C   UNL A   1      34.593  33.398  29.308  1.00  0.00     0.060 A 
ATOM      7  C   UNL A   1      34.477  32.415  30.295  1.00  0.00     0.016 A 
ATOM      8  C   UNL A   1      35.886  33.852  28.995  1.00  0.00     0.016 A 
ATOM      9  C   UNL A   1      35.582  31.903  30.957  1.00  0.00     0.010 A 
ATOM     10  C   UNL A   1      37.012  33.323  29.636  1.00  0.00     0.010 A 
ATOM     11  C   UNL A   1      36.855  32.339  30.618  1.00  0.00    -0.014 A 
BRANCH  11  12
ATOM     12  C   UNL A   1      37.989  31.785  31.375  1.00  0.00     0.031 A 
ATOM     13  C   UNL A   1      38.846  30.755  30.714  1.00  0.00     0.074 A 
ATOM     14  C   UNL A   1      38.301  32.316  32.571  1.00  0.00     0.049 A 
ATOM     15  N   UNL A   1      39.863  30.095  31.192  1.00  0.00    -0.248 NA
ATOM     16  C   UNL A   1      38.517  30.434  29.315  1.00  0.00     0.031 C 
ATOM     17  C   UNL A   1      37.588  33.427  33.210  1.00  0.00     0.029 A 
ATOM     18  N   UNL A   1      39.309  32.022  33.449  1.00  0.00    -0.354 N 
ATOM     19  C   UNL A   1      40.286  29.263  30.164  1.00  0.00     0.074 A 
ATOM     20  C   UNL A   1      39.409  29.495  29.038  1.00  0.00     0.031 C 
ATOM     21  C   UNL A   1      38.192  33.728  34.370  1.00  0.00     0.029 A 
ATOM     22  C   UNL A   1      39.282  32.786  34.594  1.00  0.00     0.049 A 
ATOM     23  H   UNL A   1      39.988  31.330  33.278  1.00  0.00     0.167 HD
ATOM     24  C   UNL A   1      41.312  28.380  30.179  1.00  0.00     0.034 A 
ATOM     25  C   UNL A   1      40.031  32.695  35.710  1.00  0.00     0.034 A 
ATOM     26  C   UNL A   1      42.144  28.174  31.337  1.00  0.00     0.049 A 
ATOM     27  C   UNL A   1      41.092  31.620  35.742  1.00  0.00     0.074 A 
ATOM     28  C   UNL A   1      43.161  27.257  31.523  1.00  0.00     0.029 A 
ATOM     29  N   UNL A   1      42.045  28.905  32.518  1.00  0.00    -0.354 N 
ATOM     30  N   UNL A   1      41.435  30.771  34.796  1.00  0.00    -0.248 NA
ATOM     31  C   UNL A   1      41.857  31.480  36.984  1.00  0.00     0.031 C 
ATOM     32  C   UNL A   1      43.631  27.391  32.834  1.00  0.00     0.029 A 
ATOM     33  C   UNL A   1      42.963  28.443  33.444  1.00  0.00     0.049 A 
ATOM     34  H   UNL A   1      41.412  29.643  32.671  1.00  0.00     0.167 HD
ATOM     35  C   UNL A   1      42.472  30.012  35.326  1.00  0.00     0.074 A 
ATOM     36  C   UNL A   1      42.712  30.521  36.663  1.00  0.00     0.031 C 
ATOM     37  C   UNL A   1      43.164  28.984  34.769  1.00  0.00     0.034 A 
BRANCH  24  38
ATOM     38  C   UNL A   1      41.495  27.524  28.951  1.00  0.00     0.023 A 
ATOM     39  C   UNL A   1      42.501  27.784  28.003  1.00  0.00     0.031 A 
ATOM     40  C   UNL A   1      40.589  26.483  28.683  1.00  0.00     0.131 A 
ATOM     41  C   UNL A   1      42.530  27.062  26.800  1.00  0.00     0.055 A 
ATOM     42  C   UNL A   1      40.671  25.717  27.519  1.00  0.00     0.041 A 
ATOM     43  F   UNL A   1      39.587  26.212  29.535  1.00  0.00    -0.206 F 
ATOM     44  C   UNL A   1      41.636  26.015  26.561  1.00  0.00     0.022 A 
BRANCH  41  45
ATOM     45  S   UNL A   1      43.654  27.607  25.484  1.00  0.00     0.124 S 
ATOM     46  O   UNL A   1      42.739  27.756  24.354  1.00  0.00    -0.237 OA
ATOM     47  O   UNL A   1      44.201  28.846  26.026  1.00  0.00    -0.237 OA
ATOM     48  O   UNL A   1      44.606  26.505  25.366  1.00  0.00    -0.744 OA
ENDBRANCH  41  45
ENDBRANCH  24  38
BRANCH  25  49
ATOM     49  C   UNL A   1      39.762  33.561  36.897  1.00  0.00     0.023 A 
ATOM     50  C   UNL A   1      40.535  34.702  37.165  1.00  0.00     0.031 A 
ATOM     51  C   UNL A   1      38.762  33.219  37.828  1.00  0.00     0.131 A 
ATOM     52  C   UNL A   1      40.334  35.424  38.355  1.00  0.00     0.055 A 
ATOM     53  C   UNL A   1      38.522  33.977  38.975  1.00  0.00     0.041 A 
ATOM     54  F   UNL A   1      37.996  32.132  37.636  1.00  0.00    -0.206 F 
ATOM     55  C   UNL A   1      39.323  35.078  39.253  1.00  0.00     0.022 A 
BRANCH  52  56
ATOM     56  S   UNL A   1      41.495  36.754  38.776  1.00  0.00     0.124 S 
ATOM     57  O   UNL A   1      42.259  36.150  39.861  1.00  0.00    -0.237 OA
ATOM     58  O   UNL A   1      42.208  36.944  37.516  1.00  0.00    -0.237 OA
ATOM     59  O   UNL A   1      40.621  37.857  39.168  1.00  0.00    -0.744 OA
ENDBRANCH  52  56
ENDBRANCH  25  49
BRANCH  37  60
ATOM     60  C   UNL A   1      44.269  28.389  35.602  1.00  0.00     0.023 A 
ATOM     61  C   UNL A   1      45.590  28.861  35.517  1.00  0.00     0.031 A 
ATOM     62  C   UNL A   1      43.992  27.334  36.487  1.00  0.00     0.131 A 
ATOM     63  C   UNL A   1      46.598  28.239  36.264  1.00  0.00     0.055 A 
ATOM     64  C   UNL A   1      44.989  26.761  37.277  1.00  0.00     0.041 A 
ATOM     65  F   UNL A   1      42.746  26.848  36.605  1.00  0.00    -0.206 F 
ATOM     66  C   UNL A   1      46.304  27.205  37.157  1.00  0.00     0.022 A 
BRANCH  63  67
ATOM     67  S   UNL A   1      48.318  28.741  35.987  1.00  0.00     0.124 S 
ATOM     68  O   UNL A   1      49.033  27.480  36.159  1.00  0.00    -0.237 OA
ATOM     69  O   UNL A   1      48.275  29.270  34.628  1.00  0.00    -0.237 OA
ATOM     70  O   UNL A   1      48.556  29.736  37.031  1.00  0.00    -0.744 OA
ENDBRANCH  63  67
ENDBRANCH  37  60
ENDBRANCH  11  12
ENDBRANCH   4   6
ENDBRANCH   3   4
ENDBRANCH   2   3
ENDBRANCH   1   2
BRANCH   1  71
ATOM     71  O   UNL A   1      33.879  30.835  26.888  1.00  0.00    -0.374 OA
BRANCH  71  72
ATOM     72  C   UNL A   1      34.431  29.581  27.278  1.00  0.00     0.202 C 
BRANCH  72  73
ATOM     73  C   UNL A   1      33.382  28.499  27.019  1.00  0.00     0.261 C 
BRANCH  73  74
ATOM     74  O   UNL A   1      33.824  27.724  25.893  1.00  0.00    -0.459 OA
BRANCH  74  75
ATOM     75  C   UNL A   1      33.621  28.322  24.683  1.00  0.00     0.357 C 
ATOM     76  O   UNL A   1      34.462  28.833  23.966  1.00  0.00    -0.244 OA
BRANCH  75  77
ATOM     77  C   UNL A   1      32.186  28.144  24.345  1.00  0.00     0.154 A 
ATOM     78  C   UNL A   1      31.456  29.241  23.994  1.00  0.00     0.065 A 
ATOM     79  N   UNL A   1      31.674  26.901  24.423  1.00  0.00    -0.206 NA
ATOM     80  C   UNL A   1      30.160  28.997  23.617  1.00  0.00     0.077 A 
ATOM     81  C   UNL A   1      30.377  26.750  24.137  1.00  0.00     0.230 A 
ATOM     82  N   UNL A   1      29.605  27.763  23.687  1.00  0.00    -0.213 NA
BRANCH  80  83
ATOM     83  C   UNL A   1      29.374  30.104  23.053  1.00  0.00     0.000 A 
ATOM     84  C   UNL A   1      29.115  31.285  23.758  1.00  0.00     0.010 A 
ATOM     85  C   UNL A   1      28.936  30.026  21.713  1.00  0.00     0.010 A 
ATOM     86  C   UNL A   1      28.476  32.361  23.128  1.00  0.00     0.001 A 
ATOM     87  C   UNL A   1      28.307  31.096  21.082  1.00  0.00     0.001 A 
ATOM     88  C   UNL A   1      28.083  32.269  21.791  1.00  0.00     0.000 A 
ENDBRANCH  80  83
BRANCH  81  89
ATOM     89  N   UNL A   1      29.793  25.488  24.195  1.00  0.00    -0.300 N 
ATOM     90  H   UNL A   1      28.810  25.453  24.230  1.00  0.00     0.172 HD
BRANCH  89  91
ATOM     91  C   UNL A   1      30.449  24.307  24.208  1.00  0.00     0.190 A 
ATOM     92  N   UNL A   1      30.844  23.628  23.151  1.00  0.00    -0.220 NA
ATOM     93  S   UNL A   1      30.947  23.620  25.713  1.00  0.00    -0.097 S 
ATOM     94  C   UNL A   1      31.494  22.457  23.524  1.00  0.00     0.084 A 
ATOM     95  C   UNL A   1      31.600  22.251  24.898  1.00  0.00     0.056 A 
ATOM     96  C   UNL A   1      32.039  21.486  22.657  1.00  0.00     0.030 A 
ATOM     97  C   UNL A   1      32.184  21.084  25.431  1.00  0.00     0.021 A 
ATOM     98  C   UNL A   1      32.616  20.321  23.171  1.00  0.00     0.002 A 
ATOM     99  C   UNL A   1      32.676  20.121  24.544  1.00  0.00     0.002 A 
ENDBRANCH  89  91
ENDBRANCH  81  89
ENDBRANCH  75  77
ENDBRANCH  74  75
ENDBRANCH  73  74
ENDBRANCH  72  73
ENDBRANCH  71  72
ENDBRANCH   1  71
TORSDOF 20
ENDMDL
