MODEL 1
REMARK VINA RESULT:     -11.8      0.000      0.000
REMARK SMILES Cc1c(-c2nn(-c3ccccc3)cc2/C=N/O)nnn1-c1ccc(C(=O)OCCOCCOC(=O)c2ccc(-c3c4nc(c(-c5cc(S(=O)(=O)[O-])ccc5F)c5ccc([nH]5)c(-c5cc(S(=O)(=O)[O-])ccc5F)c5nc(c(-c6cc(S(=O)(=O)[O-])ccc6F)c6ccc3[nH]6)C=C5)C=C4)cc2)cc1
REMARK SMILES IDX 29 1 28 2 27 3 25 4 26 5 24 6 21 7 22 8 100 9 23 10 99 11
REMARK SMILES IDX 20 12 1 13 2 14 3 15 18 16 19 17 4 18 5 19 14 20 6 21 13 22
REMARK SMILES IDX 15 23 16 24 17 25 7 27 8 28 12 29 9 30 11 31 10 32 30 33
REMARK SMILES IDX 31 34 32 35 33 36 34 37 35 38 36 39 37 40 98 41 38 42 97 43
REMARK SMILES IDX 39 44 40 45 41 46 91 47 42 48 96 49 90 50 92 51 43 52 95 53
REMARK SMILES IDX 89 54 88 55 44 57 76 58 56 59 75 60 57 61 60 62 74 63 93 64
REMARK SMILES IDX 58 65 59 66 73 68 94 69 61 70 45 71 46 72 54 73 47 74 53 75
REMARK SMILES IDX 55 76 52 77 48 78 49 79 50 80 51 81 77 82 78 83 86 84 79 85
REMARK SMILES IDX 85 86 87 87 84 88 80 89 81 90 82 91 83 92 62 93 63 94 71 95
REMARK SMILES IDX 64 96 70 97 72 98 69 99 65 100 66 101 67 102 68 103
REMARK H PARENT 17 26 92 56 60 67
REMARK Flexibility Score: inf
ROOT
ATOM      1  C   UNL A   1      37.542  20.615  24.804  1.00  0.00     0.202 C 
ENDROOT
BRANCH   1   2
ATOM      2  C   UNL A   1      36.030  20.829  24.701  1.00  0.00     0.261 C 
BRANCH   2   3
ATOM      3  O   UNL A   1      35.264  19.715  25.187  1.00  0.00    -0.460 OA
BRANCH   3   4
ATOM      4  C   UNL A   1      33.969  19.721  24.789  1.00  0.00     0.338 C 
ATOM      5  O   UNL A   1      33.381  18.843  24.179  1.00  0.00    -0.246 OA
BRANCH   4   6
ATOM      6  C   UNL A   1      33.263  20.909  25.308  1.00  0.00     0.060 A 
ATOM      7  C   UNL A   1      32.218  23.388  25.995  1.00  0.00     0.067 A 
ATOM      8  C   UNL A   1      31.835  22.799  24.787  1.00  0.00     0.029 A 
ATOM      9  C   UNL A   1      33.019  22.687  26.913  1.00  0.00     0.029 A 
ATOM     10  C   UNL A   1      32.392  21.574  24.432  1.00  0.00     0.018 A 
ATOM     11  C   UNL A   1      33.524  21.428  26.578  1.00  0.00     0.018 A 
BRANCH   7  12
ATOM     12  N   UNL A   1      31.888  24.746  26.214  1.00  0.00    -0.217 N 
ATOM     13  C   UNL A   1      33.716  25.826  24.819  1.00  0.00     0.069 C 
ATOM     14  C   UNL A   1      32.555  25.863  25.739  1.00  0.00     0.071 A 
ATOM     15  C   UNL A   1      31.791  26.910  26.214  1.00  0.00     0.137 A 
ATOM     16  N   UNL A   1      30.679  26.435  26.843  1.00  0.00    -0.128 NA
ATOM     17  N   UNL A   1      30.707  25.110  26.768  1.00  0.00    -0.061 NA
BRANCH  15  18
ATOM     18  C   UNL A   1      31.999  28.343  26.024  1.00  0.00     0.124 A 
ATOM     19  N   UNL A   1      32.742  29.075  26.866  1.00  0.00    -0.165 NA
ATOM     20  C   UNL A   1      31.426  29.121  24.991  1.00  0.00     0.044 A 
ATOM     21  N   UNL A   1      32.563  30.347  26.450  1.00  0.00    -0.240 N 
ATOM     22  C   UNL A   1      31.774  30.416  25.327  1.00  0.00     0.125 A 
BRANCH  20  23
ATOM     23  C   UNL A   1      30.647  28.758  23.835  1.00  0.00     0.166 C 
ATOM     24  N   UNL A   1      31.134  28.909  22.649  1.00  0.00    -0.097 NA
BRANCH  24  25
ATOM     25  O   UNL A   1      30.174  28.521  21.707  1.00  0.00    -0.411 OA
ATOM     26  H   UNL A   1      29.537  27.869  21.928  1.00  0.00     0.330 HD
ENDBRANCH  24  25
ENDBRANCH  20  23
BRANCH  21  27
ATOM     27  C   UNL A   1      33.126  31.433  27.160  1.00  0.00     0.065 A 
ATOM     28  C   UNL A   1      32.408  32.630  27.268  1.00  0.00     0.028 A 
ATOM     29  C   UNL A   1      34.396  31.316  27.738  1.00  0.00     0.028 A 
ATOM     30  C   UNL A   1      32.952  33.700  27.982  1.00  0.00     0.002 A 
ATOM     31  C   UNL A   1      34.956  32.411  28.400  1.00  0.00     0.002 A 
ATOM     32  C   UNL A   1      34.229  33.595  28.533  1.00  0.00     0.000 A 
ENDBRANCH  21  27
ENDBRANCH  15  18
ENDBRANCH   7  12
ENDBRANCH   4   6
ENDBRANCH   3   4
ENDBRANCH   2   3
ENDBRANCH   1   2
BRANCH   1  33
ATOM     33  O   UNL A   1      38.342  21.661  25.352  1.00  0.00    -0.374 OA
BRANCH  33  34
ATOM     34  C   UNL A   1      37.736  22.691  26.125  1.00  0.00     0.202 C 
BRANCH  34  35
ATOM     35  C   UNL A   1      38.363  24.077  26.134  1.00  0.00     0.261 C 
BRANCH  35  36
ATOM     36  O   UNL A   1      39.065  24.344  27.335  1.00  0.00    -0.460 OA
BRANCH  36  37
ATOM     37  C   UNL A   1      39.980  25.339  27.218  1.00  0.00     0.338 C 
ATOM     38  O   UNL A   1      41.073  25.273  26.693  1.00  0.00    -0.246 OA
BRANCH  37  39
ATOM     39  C   UNL A   1      39.494  26.494  27.979  1.00  0.00     0.060 A 
ATOM     40  C   UNL A   1      39.738  27.752  27.427  1.00  0.00     0.016 A 
ATOM     41  C   UNL A   1      39.155  26.317  29.327  1.00  0.00     0.016 A 
ATOM     42  C   UNL A   1      39.898  28.814  28.288  1.00  0.00     0.010 A 
ATOM     43  C   UNL A   1      39.351  27.366  30.184  1.00  0.00     0.010 A 
ATOM     44  C   UNL A   1      39.814  28.572  29.662  1.00  0.00    -0.014 A 
BRANCH  44  45
ATOM     45  C   UNL A   1      40.073  29.651  30.587  1.00  0.00     0.031 A 
ATOM     46  C   UNL A   1      38.864  30.482  30.770  1.00  0.00     0.074 A 
ATOM     47  C   UNL A   1      41.218  29.745  31.290  1.00  0.00     0.049 A 
ATOM     48  N   UNL A   1      38.611  31.621  30.218  1.00  0.00    -0.248 NA
ATOM     49  C   UNL A   1      37.682  29.843  31.380  1.00  0.00     0.031 C 
ATOM     50  C   UNL A   1      42.338  28.803  31.346  1.00  0.00     0.029 A 
ATOM     51  N   UNL A   1      41.586  30.692  32.190  1.00  0.00    -0.354 N 
ATOM     52  C   UNL A   1      37.348  31.962  30.684  1.00  0.00     0.074 A 
ATOM     53  C   UNL A   1      36.733  30.729  31.074  1.00  0.00     0.031 C 
ATOM     54  C   UNL A   1      43.137  29.115  32.397  1.00  0.00     0.029 A 
ATOM     55  C   UNL A   1      42.661  30.345  33.010  1.00  0.00     0.049 A 
ATOM     56  H   UNL A   1      41.128  31.561  32.261  1.00  0.00     0.167 HD
ATOM     57  C   UNL A   1      37.071  33.239  31.063  1.00  0.00     0.034 A 
ATOM     58  C   UNL A   1      43.060  31.000  34.140  1.00  0.00     0.034 A 
ATOM     59  C   UNL A   1      38.066  34.150  30.529  1.00  0.00     0.049 A 
ATOM     60  C   UNL A   1      42.484  32.372  34.049  1.00  0.00     0.074 A 
ATOM     61  C   UNL A   1      38.515  34.445  29.256  1.00  0.00     0.029 A 
ATOM     62  N   UNL A   1      39.052  34.595  31.385  1.00  0.00    -0.354 N 
ATOM     63  N   UNL A   1      42.842  33.233  33.132  1.00  0.00    -0.248 NA
ATOM     64  C   UNL A   1      41.153  32.584  34.605  1.00  0.00     0.031 C 
ATOM     65  C   UNL A   1      39.928  34.590  29.388  1.00  0.00     0.029 A 
ATOM     66  C   UNL A   1      40.261  34.487  30.741  1.00  0.00     0.049 A 
ATOM     67  H   UNL A   1      38.913  34.933  32.299  1.00  0.00     0.167 HD
ATOM     68  C   UNL A   1      41.658  33.810  32.693  1.00  0.00     0.074 A 
ATOM     69  C   UNL A   1      40.656  33.418  33.685  1.00  0.00     0.031 C 
ATOM     70  C   UNL A   1      41.531  34.282  31.417  1.00  0.00     0.034 A 
BRANCH  57  71
ATOM     71  C   UNL A   1      36.190  33.602  32.243  1.00  0.00     0.023 A 
ATOM     72  C   UNL A   1      35.158  34.522  31.991  1.00  0.00     0.031 A 
ATOM     73  C   UNL A   1      36.448  33.338  33.610  1.00  0.00     0.131 A 
ATOM     74  C   UNL A   1      34.533  35.212  33.042  1.00  0.00     0.055 A 
ATOM     75  C   UNL A   1      35.779  33.982  34.654  1.00  0.00     0.041 A 
ATOM     76  F   UNL A   1      37.408  32.513  34.040  1.00  0.00    -0.206 F 
ATOM     77  C   UNL A   1      34.838  34.952  34.373  1.00  0.00     0.022 A 
BRANCH  74  78
ATOM     78  S   UNL A   1      33.436  36.587  32.623  1.00  0.00     0.124 S 
ATOM     79  O   UNL A   1      34.051  37.684  33.360  1.00  0.00    -0.237 OA
ATOM     80  O   UNL A   1      33.562  36.633  31.169  1.00  0.00    -0.237 OA
ATOM     81  O   UNL A   1      32.137  36.144  33.123  1.00  0.00    -0.744 OA
ENDBRANCH  74  78
ENDBRANCH  57  71
BRANCH  58  82
ATOM     82  C   UNL A   1      43.524  30.392  35.430  1.00  0.00     0.023 A 
ATOM     83  C   UNL A   1      43.431  29.008  35.727  1.00  0.00     0.031 A 
ATOM     84  C   UNL A   1      44.313  31.165  36.313  1.00  0.00     0.131 A 
ATOM     85  C   UNL A   1      44.103  28.468  36.857  1.00  0.00     0.055 A 
ATOM     86  C   UNL A   1      44.974  30.627  37.419  1.00  0.00     0.041 A 
ATOM     87  F   UNL A   1      44.541  32.467  36.079  1.00  0.00    -0.206 F 
ATOM     88  C   UNL A   1      44.880  29.274  37.692  1.00  0.00     0.022 A 
BRANCH  85  89
ATOM     89  S   UNL A   1      44.040  26.680  37.235  1.00  0.00     0.124 S 
ATOM     90  O   UNL A   1      45.243  26.487  38.036  1.00  0.00    -0.237 OA
ATOM     91  O   UNL A   1      42.766  26.550  37.932  1.00  0.00    -0.237 OA
ATOM     92  O   UNL A   1      44.078  26.048  35.914  1.00  0.00    -0.744 OA
ENDBRANCH  85  89
ENDBRANCH  58  82
BRANCH  70  93
ATOM     93  C   UNL A   1      42.782  34.458  30.573  1.00  0.00     0.023 A 
ATOM     94  C   UNL A   1      43.215  33.590  29.541  1.00  0.00     0.031 A 
ATOM     95  C   UNL A   1      43.491  35.658  30.755  1.00  0.00     0.131 A 
ATOM     96  C   UNL A   1      44.322  33.950  28.741  1.00  0.00     0.055 A 
ATOM     97  C   UNL A   1      44.565  36.020  29.946  1.00  0.00     0.041 A 
ATOM     98  F   UNL A   1      43.116  36.530  31.706  1.00  0.00    -0.206 F 
ATOM     99  C   UNL A   1      44.987  35.166  28.936  1.00  0.00     0.022 A 
BRANCH  96 100
ATOM    100  S   UNL A   1      44.939  32.840  27.430  1.00  0.00     0.124 S 
ATOM    101  O   UNL A   1      44.263  31.579  27.709  1.00  0.00    -0.237 OA
ATOM    102  O   UNL A   1      44.528  33.531  26.210  1.00  0.00    -0.237 OA
ATOM    103  O   UNL A   1      46.386  32.817  27.656  1.00  0.00    -0.744 OA
ENDBRANCH  96 100
ENDBRANCH  70  93
ENDBRANCH  44  45
ENDBRANCH  37  39
ENDBRANCH  36  37
ENDBRANCH  35  36
ENDBRANCH  34  35
ENDBRANCH  33  34
ENDBRANCH   1  33
TORSDOF 22
ENDMDL
MODEL 2
REMARK VINA RESULT:     -11.7      4.833     10.753
REMARK SMILES Cc1c(-c2nn(-c3ccccc3)cc2/C=N/O)nnn1-c1ccc(C(=O)OCCOCCOC(=O)c2ccc(-c3c4nc(c(-c5cc(S(=O)(=O)[O-])ccc5F)c5ccc([nH]5)c(-c5cc(S(=O)(=O)[O-])ccc5F)c5nc(c(-c6cc(S(=O)(=O)[O-])ccc6F)c6ccc3[nH]6)C=C5)C=C4)cc2)cc1
REMARK SMILES IDX 29 1 28 2 27 3 25 4 26 5 24 6 21 7 22 8 100 9 23 10 99 11
REMARK SMILES IDX 20 12 1 13 2 14 3 15 18 16 19 17 4 18 5 19 14 20 6 21 13 22
REMARK SMILES IDX 15 23 16 24 17 25 7 27 8 28 12 29 9 30 11 31 10 32 30 33
REMARK SMILES IDX 31 34 32 35 33 36 34 37 35 38 36 39 37 40 98 41 38 42 97 43
REMARK SMILES IDX 39 44 40 45 41 46 91 47 42 48 96 49 90 50 92 51 43 52 95 53
REMARK SMILES IDX 89 54 88 55 44 57 76 58 56 59 75 60 57 61 60 62 74 63 93 64
REMARK SMILES IDX 58 65 59 66 73 68 94 69 61 70 45 71 46 72 54 73 47 74 53 75
REMARK SMILES IDX 55 76 52 77 48 78 49 79 50 80 51 81 77 82 78 83 86 84 79 85
REMARK SMILES IDX 85 86 87 87 84 88 80 89 81 90 82 91 83 92 62 93 63 94 71 95
REMARK SMILES IDX 64 96 70 97 72 98 69 99 65 100 66 101 67 102 68 103
REMARK H PARENT 17 26 92 56 60 67
REMARK Flexibility Score: inf
ROOT
ATOM      1  C   UNL A   1      32.119  30.642  26.804  1.00  0.00     0.202 C 
ENDROOT
BRANCH   1   2
ATOM      2  C   UNL A   1      31.422  29.751  25.772  1.00  0.00     0.261 C 
BRANCH   2   3
ATOM      3  O   UNL A   1      30.943  30.475  24.627  1.00  0.00    -0.460 OA
BRANCH   3   4
ATOM      4  C   UNL A   1      30.267  29.711  23.737  1.00  0.00     0.338 C 
ATOM      5  O   UNL A   1      29.181  29.951  23.234  1.00  0.00    -0.246 OA
BRANCH   4   6
ATOM      6  C   UNL A   1      31.079  28.555  23.309  1.00  0.00     0.060 A 
ATOM      7  C   UNL A   1      32.656  26.295  22.968  1.00  0.00     0.067 A 
ATOM      8  C   UNL A   1      31.306  26.140  23.292  1.00  0.00     0.029 A 
ATOM      9  C   UNL A   1      33.187  27.567  22.692  1.00  0.00     0.029 A 
ATOM     10  C   UNL A   1      30.530  27.278  23.498  1.00  0.00     0.018 A 
ATOM     11  C   UNL A   1      32.386  28.703  22.839  1.00  0.00     0.018 A 
BRANCH   7  12
ATOM     12  N   UNL A   1      33.500  25.163  23.049  1.00  0.00    -0.217 N 
ATOM     13  C   UNL A   1      33.579  24.911  25.577  1.00  0.00     0.069 C 
ATOM     14  C   UNL A   1      33.967  24.540  24.195  1.00  0.00     0.071 A 
ATOM     15  C   UNL A   1      34.703  23.482  23.700  1.00  0.00     0.137 A 
ATOM     16  N   UNL A   1      34.589  23.424  22.342  1.00  0.00    -0.128 NA
ATOM     17  N   UNL A   1      33.786  24.410  21.961  1.00  0.00    -0.061 NA
BRANCH  15  18
ATOM     18  C   UNL A   1      35.433  22.459  24.442  1.00  0.00     0.124 A 
ATOM     19  N   UNL A   1      36.721  22.605  24.781  1.00  0.00    -0.165 NA
ATOM     20  C   UNL A   1      34.905  21.210  24.844  1.00  0.00     0.044 A 
ATOM     21  N   UNL A   1      37.067  21.408  25.302  1.00  0.00    -0.240 N 
ATOM     22  C   UNL A   1      36.002  20.541  25.354  1.00  0.00     0.125 A 
BRANCH  20  23
ATOM     23  C   UNL A   1      33.574  20.663  24.777  1.00  0.00     0.166 C 
ATOM     24  N   UNL A   1      33.263  19.621  25.473  1.00  0.00    -0.097 NA
BRANCH  24  25
ATOM     25  O   UNL A   1      31.934  19.271  25.204  1.00  0.00    -0.411 OA
ATOM     26  H   UNL A   1      31.661  19.111  24.323  1.00  0.00     0.330 HD
ENDBRANCH  24  25
ENDBRANCH  20  23
BRANCH  21  27
ATOM     27  C   UNL A   1      38.399  21.141  25.696  1.00  0.00     0.065 A 
ATOM     28  C   UNL A   1      39.160  22.160  26.282  1.00  0.00     0.028 A 
ATOM     29  C   UNL A   1      38.956  19.873  25.488  1.00  0.00     0.028 A 
ATOM     30  C   UNL A   1      40.471  21.897  26.687  1.00  0.00     0.002 A 
ATOM     31  C   UNL A   1      40.286  19.637  25.845  1.00  0.00     0.002 A 
ATOM     32  C   UNL A   1      41.036  20.643  26.455  1.00  0.00     0.000 A 
ENDBRANCH  21  27
ENDBRANCH  15  18
ENDBRANCH   7  12
ENDBRANCH   4   6
ENDBRANCH   3   4
ENDBRANCH   2   3
ENDBRANCH   1   2
BRANCH   1  33
ATOM     33  O   UNL A   1      33.520  30.474  27.013  1.00  0.00    -0.374 OA
BRANCH  33  34
ATOM     34  C   UNL A   1      34.049  29.182  27.287  1.00  0.00     0.202 C 
BRANCH  34  35
ATOM     35  C   UNL A   1      35.558  28.999  27.359  1.00  0.00     0.261 C 
BRANCH  35  36
ATOM     36  O   UNL A   1      36.242  30.223  27.557  1.00  0.00    -0.460 OA
BRANCH  36  37
ATOM     37  C   UNL A   1      37.121  30.192  28.589  1.00  0.00     0.338 C 
ATOM     38  O   UNL A   1      37.138  30.920  29.561  1.00  0.00    -0.246 OA
BRANCH  37  39
ATOM     39  C   UNL A   1      38.167  29.217  28.265  1.00  0.00     0.060 A 
ATOM     40  C   UNL A   1      38.475  28.282  29.254  1.00  0.00     0.016 A 
ATOM     41  C   UNL A   1      39.020  29.479  27.186  1.00  0.00     0.016 A 
ATOM     42  C   UNL A   1      39.762  27.795  29.302  1.00  0.00     0.010 A 
ATOM     43  C   UNL A   1      40.309  29.024  27.257  1.00  0.00     0.010 A 
ATOM     44  C   UNL A   1      40.685  28.269  28.365  1.00  0.00    -0.014 A 
BRANCH  44  45
ATOM     45  C   UNL A   1      42.064  27.846  28.456  1.00  0.00     0.031 A 
ATOM     46  C   UNL A   1      42.281  26.609  27.676  1.00  0.00     0.074 A 
ATOM     47  C   UNL A   1      43.017  28.598  29.039  1.00  0.00     0.049 A 
ATOM     48  N   UNL A   1      42.356  25.404  28.132  1.00  0.00    -0.248 NA
ATOM     49  C   UNL A   1      42.086  26.679  26.215  1.00  0.00     0.031 C 
ATOM     50  C   UNL A   1      42.906  29.951  29.589  1.00  0.00     0.029 A 
ATOM     51  N   UNL A   1      44.340  28.329  29.184  1.00  0.00    -0.354 N 
ATOM     52  C   UNL A   1      42.529  24.614  27.004  1.00  0.00     0.074 A 
ATOM     53  C   UNL A   1      42.018  25.383  25.909  1.00  0.00     0.031 C 
ATOM     54  C   UNL A   1      44.148  30.457  29.792  1.00  0.00     0.029 A 
ATOM     55  C   UNL A   1      45.136  29.428  29.507  1.00  0.00     0.049 A 
ATOM     56  H   UNL A   1      44.711  27.425  29.071  1.00  0.00     0.167 HD
ATOM     57  C   UNL A   1      43.414  23.579  27.012  1.00  0.00     0.034 A 
ATOM     58  C   UNL A   1      46.501  29.478  29.464  1.00  0.00     0.034 A 
ATOM     59  C   UNL A   1      43.755  23.219  28.374  1.00  0.00     0.049 A 
ATOM     60  C   UNL A   1      46.968  28.064  29.505  1.00  0.00     0.074 A 
ATOM     61  C   UNL A   1      43.023  22.824  29.478  1.00  0.00     0.029 A 
ATOM     62  N   UNL A   1      44.966  23.659  28.869  1.00  0.00    -0.354 N 
ATOM     63  N   UNL A   1      46.788  27.286  30.541  1.00  0.00    -0.248 NA
ATOM     64  C   UNL A   1      47.127  27.369  28.234  1.00  0.00     0.031 C 
ATOM     65  C   UNL A   1      43.625  23.498  30.581  1.00  0.00     0.029 A 
ATOM     66  C   UNL A   1      44.754  24.181  30.122  1.00  0.00     0.049 A 
ATOM     67  H   UNL A   1      45.832  23.607  28.404  1.00  0.00     0.167 HD
ATOM     68  C   UNL A   1      46.382  26.067  30.014  1.00  0.00     0.074 A 
ATOM     69  C   UNL A   1      46.676  26.158  28.583  1.00  0.00     0.031 C 
ATOM     70  C   UNL A   1      45.568  25.226  30.720  1.00  0.00     0.034 A 
BRANCH  57  71
ATOM     71  C   UNL A   1      44.284  23.198  25.830  1.00  0.00     0.023 A 
ATOM     72  C   UNL A   1      44.179  21.871  25.380  1.00  0.00     0.031 A 
ATOM     73  C   UNL A   1      45.376  23.932  25.306  1.00  0.00     0.131 A 
ATOM     74  C   UNL A   1      45.176  21.302  24.569  1.00  0.00     0.055 A 
ATOM     75  C   UNL A   1      46.330  23.379  24.449  1.00  0.00     0.041 A 
ATOM     76  F   UNL A   1      45.650  25.198  25.640  1.00  0.00    -0.206 F 
ATOM     77  C   UNL A   1      46.253  22.045  24.103  1.00  0.00     0.022 A 
BRANCH  74  78
ATOM     78  S   UNL A   1      45.122  19.518  24.285  1.00  0.00     0.124 S 
ATOM     79  O   UNL A   1      44.666  19.458  22.901  1.00  0.00    -0.237 OA
ATOM     80  O   UNL A   1      46.510  19.136  24.526  1.00  0.00    -0.237 OA
ATOM     81  O   UNL A   1      44.163  19.048  25.282  1.00  0.00    -0.744 OA
ENDBRANCH  74  78
ENDBRANCH  57  71
BRANCH  58  82
ATOM     82  C   UNL A   1      47.356  30.609  28.974  1.00  0.00     0.023 A 
ATOM     83  C   UNL A   1      48.403  31.191  29.733  1.00  0.00     0.031 A 
ATOM     84  C   UNL A   1      47.301  30.974  27.609  1.00  0.00     0.131 A 
ATOM     85  C   UNL A   1      49.322  32.088  29.123  1.00  0.00     0.055 A 
ATOM     86  C   UNL A   1      48.210  31.852  27.014  1.00  0.00     0.041 A 
ATOM     87  F   UNL A   1      46.407  30.417  26.778  1.00  0.00    -0.206 F 
ATOM     88  C   UNL A   1      49.230  32.407  27.767  1.00  0.00     0.022 A 
BRANCH  85  89
ATOM     89  S   UNL A   1      50.709  32.815  30.067  1.00  0.00     0.124 S 
ATOM     90  O   UNL A   1      51.453  33.523  29.033  1.00  0.00    -0.237 OA
ATOM     91  O   UNL A   1      50.022  33.637  31.055  1.00  0.00    -0.237 OA
ATOM     92  O   UNL A   1      51.397  31.646  30.621  1.00  0.00    -0.744 OA
ENDBRANCH  85  89
ENDBRANCH  58  82
BRANCH  70  93
ATOM     93  C   UNL A   1      45.357  25.485  32.201  1.00  0.00     0.023 A 
ATOM     94  C   UNL A   1      46.199  25.041  33.249  1.00  0.00     0.031 A 
ATOM     95  C   UNL A   1      44.301  26.351  32.537  1.00  0.00     0.131 A 
ATOM     96  C   UNL A   1      45.961  25.475  34.572  1.00  0.00     0.055 A 
ATOM     97  C   UNL A   1      44.087  26.796  33.839  1.00  0.00     0.041 A 
ATOM     98  F   UNL A   1      43.479  26.820  31.584  1.00  0.00    -0.206 F 
ATOM     99  C   UNL A   1      44.915  26.358  34.863  1.00  0.00     0.022 A 
BRANCH  96 100
ATOM    100  S   UNL A   1      46.997  24.892  35.957  1.00  0.00     0.124 S 
ATOM    101  O   UNL A   1      46.038  24.693  37.037  1.00  0.00    -0.237 OA
ATOM    102  O   UNL A   1      47.606  23.683  35.410  1.00  0.00    -0.237 OA
ATOM    103  O   UNL A   1      47.932  25.999  36.172  1.00  0.00    -0.744 OA
ENDBRANCH  96 100
ENDBRANCH  70  93
ENDBRANCH  44  45
ENDBRANCH  37  39
ENDBRANCH  36  37
ENDBRANCH  35  36
ENDBRANCH  34  35
ENDBRANCH  33  34
ENDBRANCH   1  33
TORSDOF 22
ENDMDL
MODEL 3
REMARK VINA RESULT:     -11.7      3.814      9.552
REMARK SMILES Cc1c(-c2nn(-c3ccccc3)cc2/C=N/O)nnn1-c1ccc(C(=O)OCCOCCOC(=O)c2ccc(-c3c4nc(c(-c5cc(S(=O)(=O)[O-])ccc5F)c5ccc([nH]5)c(-c5cc(S(=O)(=O)[O-])ccc5F)c5nc(c(-c6cc(S(=O)(=O)[O-])ccc6F)c6ccc3[nH]6)C=C5)C=C4)cc2)cc1
REMARK SMILES IDX 29 1 28 2 27 3 25 4 26 5 24 6 21 7 22 8 100 9 23 10 99 11
REMARK SMILES IDX 20 12 1 13 2 14 3 15 18 16 19 17 4 18 5 19 14 20 6 21 13 22
REMARK SMILES IDX 15 23 16 24 17 25 7 27 8 28 12 29 9 30 11 31 10 32 30 33
REMARK SMILES IDX 31 34 32 35 33 36 34 37 35 38 36 39 37 40 98 41 38 42 97 43
REMARK SMILES IDX 39 44 40 45 41 46 91 47 42 48 96 49 90 50 92 51 43 52 95 53
REMARK SMILES IDX 89 54 88 55 44 57 76 58 56 59 75 60 57 61 60 62 74 63 93 64
REMARK SMILES IDX 58 65 59 66 73 68 94 69 61 70 45 71 46 72 54 73 47 74 53 75
REMARK SMILES IDX 55 76 52 77 48 78 49 79 50 80 51 81 77 82 78 83 86 84 79 85
REMARK SMILES IDX 85 86 87 87 84 88 80 89 81 90 82 91 83 92 62 93 63 94 71 95
REMARK SMILES IDX 64 96 70 97 72 98 69 99 65 100 66 101 67 102 68 103
REMARK H PARENT 17 26 92 56 60 67
REMARK Flexibility Score: inf
ROOT
ATOM      1  C   UNL A   1      31.384  29.555  25.681  1.00  0.00     0.202 C 
ENDROOT
BRANCH   1   2
ATOM      2  C   UNL A   1      30.899  30.439  24.531  1.00  0.00     0.261 C 
BRANCH   2   3
ATOM      3  O   UNL A   1      29.767  29.893  23.833  1.00  0.00    -0.460 OA
BRANCH   3   4
ATOM      4  C   UNL A   1      30.073  29.339  22.636  1.00  0.00     0.338 C 
ATOM      5  O   UNL A   1      29.982  29.862  21.537  1.00  0.00    -0.246 OA
BRANCH   4   6
ATOM      6  C   UNL A   1      30.687  28.008  22.812  1.00  0.00     0.060 A 
ATOM      7  C   UNL A   1      31.842  25.611  23.604  1.00  0.00     0.067 A 
ATOM      8  C   UNL A   1      30.467  25.792  23.772  1.00  0.00     0.029 A 
ATOM      9  C   UNL A   1      32.615  26.571  22.929  1.00  0.00     0.029 A 
ATOM     10  C   UNL A   1      29.901  27.010  23.407  1.00  0.00     0.018 A 
ATOM     11  C   UNL A   1      32.029  27.767  22.507  1.00  0.00     0.018 A 
BRANCH   7  12
ATOM     12  N   UNL A   1      32.456  24.506  24.238  1.00  0.00    -0.217 N 
ATOM     13  C   UNL A   1      33.009  23.125  22.178  1.00  0.00     0.069 C 
ATOM     14  C   UNL A   1      32.953  23.360  23.640  1.00  0.00     0.071 A 
ATOM     15  C   UNL A   1      33.467  22.647  24.705  1.00  0.00     0.137 A 
ATOM     16  N   UNL A   1      33.373  23.380  25.851  1.00  0.00    -0.128 NA
ATOM     17  N   UNL A   1      32.825  24.548  25.541  1.00  0.00    -0.061 NA
BRANCH  15  18
ATOM     18  C   UNL A   1      34.135  21.349  24.690  1.00  0.00     0.124 A 
ATOM     19  N   UNL A   1      33.453  20.195  24.704  1.00  0.00    -0.165 NA
ATOM     20  C   UNL A   1      35.535  21.151  24.703  1.00  0.00     0.044 A 
ATOM     21  N   UNL A   1      34.404  19.246  24.841  1.00  0.00    -0.240 N 
ATOM     22  C   UNL A   1      35.670  19.782  24.849  1.00  0.00     0.125 A 
BRANCH  20  23
ATOM     23  C   UNL A   1      36.637  22.074  24.606  1.00  0.00     0.166 C 
ATOM     24  N   UNL A   1      37.022  22.737  25.645  1.00  0.00    -0.097 NA
BRANCH  24  25
ATOM     25  O   UNL A   1      38.075  23.585  25.282  1.00  0.00    -0.411 OA
ATOM     26  H   UNL A   1      38.816  23.241  24.823  1.00  0.00     0.330 HD
ENDBRANCH  24  25
ENDBRANCH  20  23
BRANCH  21  27
ATOM     27  C   UNL A   1      34.059  17.883  24.989  1.00  0.00     0.065 A 
ATOM     28  C   UNL A   1      32.736  17.537  25.292  1.00  0.00     0.028 A 
ATOM     29  C   UNL A   1      35.035  16.888  24.848  1.00  0.00     0.028 A 
ATOM     30  C   UNL A   1      32.387  16.192  25.423  1.00  0.00     0.002 A 
ATOM     31  C   UNL A   1      34.687  15.549  25.039  1.00  0.00     0.002 A 
ATOM     32  C   UNL A   1      33.364  15.202  25.312  1.00  0.00     0.000 A 
ENDBRANCH  21  27
ENDBRANCH  15  18
ENDBRANCH   7  12
ENDBRANCH   4   6
ENDBRANCH   3   4
ENDBRANCH   2   3
ENDBRANCH   1   2
BRANCH   1  33
ATOM     33  O   UNL A   1      31.931  30.184  26.840  1.00  0.00    -0.374 OA
BRANCH  33  34
ATOM     34  C   UNL A   1      33.017  31.095  26.709  1.00  0.00     0.202 C 
BRANCH  34  35
ATOM     35  C   UNL A   1      33.931  31.334  27.901  1.00  0.00     0.261 C 
BRANCH  35  36
ATOM     36  O   UNL A   1      35.280  31.006  27.621  1.00  0.00    -0.460 OA
BRANCH  36  37
ATOM     37  C   UNL A   1      36.173  31.863  28.178  1.00  0.00     0.338 C 
ATOM     38  O   UNL A   1      36.325  33.039  27.915  1.00  0.00    -0.246 OA
BRANCH  37  39
ATOM     39  C   UNL A   1      37.053  31.090  29.059  1.00  0.00     0.060 A 
ATOM     40  C   UNL A   1      38.193  31.744  29.530  1.00  0.00     0.016 A 
ATOM     41  C   UNL A   1      36.918  29.696  29.093  1.00  0.00     0.016 A 
ATOM     42  C   UNL A   1      39.309  30.982  29.795  1.00  0.00     0.010 A 
ATOM     43  C   UNL A   1      38.039  28.945  29.321  1.00  0.00     0.010 A 
ATOM     44  C   UNL A   1      39.239  29.604  29.573  1.00  0.00    -0.014 A 
BRANCH  44  45
ATOM     45  C   UNL A   1      40.426  28.799  29.753  1.00  0.00     0.031 A 
ATOM     46  C   UNL A   1      40.749  28.661  31.189  1.00  0.00     0.074 A 
ATOM     47  C   UNL A   1      41.020  28.145  28.736  1.00  0.00     0.049 A 
ATOM     48  N   UNL A   1      41.644  29.313  31.852  1.00  0.00    -0.248 NA
ATOM     49  C   UNL A   1      39.775  27.953  32.043  1.00  0.00     0.031 C 
ATOM     50  C   UNL A   1      40.585  28.031  27.342  1.00  0.00     0.029 A 
ATOM     51  N   UNL A   1      42.123  27.354  28.765  1.00  0.00    -0.354 N 
ATOM     52  C   UNL A   1      41.524  28.844  33.153  1.00  0.00     0.074 A 
ATOM     53  C   UNL A   1      40.198  28.315  33.255  1.00  0.00     0.031 C 
ATOM     54  C   UNL A   1      41.284  27.043  26.731  1.00  0.00     0.029 A 
ATOM     55  C   UNL A   1      42.298  26.539  27.646  1.00  0.00     0.049 A 
ATOM     56  H   UNL A   1      42.755  27.355  29.520  1.00  0.00     0.167 HD
ATOM     57  C   UNL A   1      42.633  28.585  33.900  1.00  0.00     0.034 A 
ATOM     58  C   UNL A   1      43.168  25.492  27.536  1.00  0.00     0.034 A 
ATOM     59  C   UNL A   1      43.792  29.237  33.323  1.00  0.00     0.049 A 
ATOM     60  C   UNL A   1      44.200  25.700  28.590  1.00  0.00     0.074 A 
ATOM     61  C   UNL A   1      44.103  30.546  33.009  1.00  0.00     0.029 A 
ATOM     62  N   UNL A   1      44.665  28.460  32.588  1.00  0.00    -0.354 N 
ATOM     63  N   UNL A   1      45.033  26.708  28.580  1.00  0.00    -0.248 NA
ATOM     64  C   UNL A   1      43.947  25.125  29.906  1.00  0.00     0.031 C 
ATOM     65  C   UNL A   1      44.787  30.474  31.760  1.00  0.00     0.029 A 
ATOM     66  C   UNL A   1      44.958  29.129  31.424  1.00  0.00     0.049 A 
ATOM     67  H   UNL A   1      45.017  27.580  32.853  1.00  0.00     0.167 HD
ATOM     68  C   UNL A   1      45.068  27.165  29.891  1.00  0.00     0.074 A 
ATOM     69  C   UNL A   1      44.430  26.107  30.676  1.00  0.00     0.031 C 
ATOM     70  C   UNL A   1      45.323  28.476  30.177  1.00  0.00     0.034 A 
BRANCH  57  71
ATOM     71  C   UNL A   1      42.753  27.419  34.862  1.00  0.00     0.023 A 
ATOM     72  C   UNL A   1      43.549  26.341  34.440  1.00  0.00     0.031 A 
ATOM     73  C   UNL A   1      41.952  27.172  36.004  1.00  0.00     0.131 A 
ATOM     74  C   UNL A   1      43.438  25.079  35.047  1.00  0.00     0.055 A 
ATOM     75  C   UNL A   1      41.893  25.931  36.644  1.00  0.00     0.041 A 
ATOM     76  F   UNL A   1      41.114  28.069  36.532  1.00  0.00    -0.206 F 
ATOM     77  C   UNL A   1      42.613  24.864  36.145  1.00  0.00     0.022 A 
BRANCH  74  78
ATOM     78  S   UNL A   1      44.266  23.680  34.257  1.00  0.00     0.124 S 
ATOM     79  O   UNL A   1      44.602  22.852  35.410  1.00  0.00    -0.237 OA
ATOM     80  O   UNL A   1      43.217  23.172  33.379  1.00  0.00    -0.237 OA
ATOM     81  O   UNL A   1      45.401  24.302  33.579  1.00  0.00    -0.744 OA
ENDBRANCH  74  78
ENDBRANCH  57  71
BRANCH  58  82
ATOM     82  C   UNL A   1      42.918  24.164  26.886  1.00  0.00     0.023 A 
ATOM     83  C   UNL A   1      43.812  23.554  25.970  1.00  0.00     0.031 A 
ATOM     84  C   UNL A   1      41.870  23.346  27.370  1.00  0.00     0.131 A 
ATOM     85  C   UNL A   1      43.630  22.199  25.580  1.00  0.00     0.055 A 
ATOM     86  C   UNL A   1      41.700  22.014  26.986  1.00  0.00     0.041 A 
ATOM     87  F   UNL A   1      41.019  23.791  28.306  1.00  0.00    -0.206 F 
ATOM     88  C   UNL A   1      42.585  21.431  26.096  1.00  0.00     0.022 A 
BRANCH  85  89
ATOM     89  S   UNL A   1      44.796  21.375  24.437  1.00  0.00     0.124 S 
ATOM     90  O   UNL A   1      44.704  22.206  23.243  1.00  0.00    -0.237 OA
ATOM     91  O   UNL A   1      46.052  21.430  25.175  1.00  0.00    -0.237 OA
ATOM     92  O   UNL A   1      44.237  20.029  24.288  1.00  0.00    -0.744 OA
ENDBRANCH  85  89
ENDBRANCH  58  82
BRANCH  70  93
ATOM     93  C   UNL A   1      45.872  29.372  29.081  1.00  0.00     0.023 A 
ATOM     94  C   UNL A   1      45.183  30.443  28.461  1.00  0.00     0.031 A 
ATOM     95  C   UNL A   1      47.228  29.195  28.754  1.00  0.00     0.131 A 
ATOM     96  C   UNL A   1      45.866  31.285  27.555  1.00  0.00     0.055 A 
ATOM     97  C   UNL A   1      47.902  30.044  27.881  1.00  0.00     0.041 A 
ATOM     98  F   UNL A   1      47.940  28.208  29.324  1.00  0.00    -0.206 F 
ATOM     99  C   UNL A   1      47.223  31.092  27.275  1.00  0.00     0.022 A 
BRANCH  96 100
ATOM    100  S   UNL A   1      45.003  32.649  26.703  1.00  0.00     0.124 S 
ATOM    101  O   UNL A   1      45.929  33.767  26.830  1.00  0.00    -0.237 OA
ATOM    102  O   UNL A   1      44.824  32.117  25.354  1.00  0.00    -0.237 OA
ATOM    103  O   UNL A   1      43.762  32.797  27.466  1.00  0.00    -0.744 OA
ENDBRANCH  96 100
ENDBRANCH  70  93
ENDBRANCH  44  45
ENDBRANCH  37  39
ENDBRANCH  36  37
ENDBRANCH  35  36
ENDBRANCH  34  35
ENDBRANCH  33  34
ENDBRANCH   1  33
TORSDOF 22
ENDMDL
