MODEL 1
REMARK VINA RESULT:     -12.8      0.000      0.000
REMARK SMILES Cc1ccc2[nH]cc([C@@H](C(=O)OCCOCCOC(=O)c3ccc(-c4c5nc(c(-c6cc(S(=O)(=O)[O-])ccc6F)c6ccc([nH]6)c(-c6cc(S(=O)(=O)[O-])ccc6F)c6nc(c(-c7cc(S(=O)(=O)[O-])ccc7F)c7ccc4[nH]7)C=C6)C=C5)cc3)[NH+]3CCN(c4ccc(F)cc4)CC3)c2c1
REMARK SMILES IDX 16 1 15 2 14 3 13 4 12 5 10 6 11 7 9 8 8 9 1 10 2 11 3 12
REMARK SMILES IDX 98 13 4 14 97 15 5 16 6 17 7 18 84 20 85 21 96 22 86 24
REMARK SMILES IDX 95 25 87 26 88 27 89 28 94 29 90 30 93 31 91 32 92 33 17 34
REMARK SMILES IDX 18 35 19 36 20 37 21 38 22 39 83 40 23 41 82 42 24 43 25 44
REMARK SMILES IDX 26 45 76 46 27 47 81 48 75 49 77 50 28 51 80 52 74 53 73 54
REMARK SMILES IDX 29 56 61 57 41 58 60 59 42 60 45 61 59 62 78 63 43 64 44 65
REMARK SMILES IDX 58 67 79 68 46 69 30 70 31 71 39 72 32 73 38 74 40 75 37 76
REMARK SMILES IDX 33 77 34 78 35 79 36 80 62 81 63 82 71 83 64 84 70 85 72 86
REMARK SMILES IDX 69 87 65 88 66 89 67 90 68 91 47 92 48 93 56 94 49 95 55 96
REMARK SMILES IDX 57 97 54 98 50 99 51 100 52 101 53 102
REMARK H PARENT 6 19 84 23 77 55 45 66
REMARK Flexibility Score: inf
ROOT
ATOM      1  C   UNL A   1      36.863  21.451  24.165  1.00  0.00     0.202 C 
ENDROOT
BRANCH   1   2
ATOM      2  O   UNL A   1      36.162  22.644  24.505  1.00  0.00    -0.374 OA
BRANCH   2   3
ATOM      3  C   UNL A   1      35.420  22.640  25.725  1.00  0.00     0.202 C 
BRANCH   3   4
ATOM      4  C   UNL A   1      34.556  23.873  26.010  1.00  0.00     0.261 C 
BRANCH   4   5
ATOM      5  O   UNL A   1      33.539  23.652  27.013  1.00  0.00    -0.459 OA
BRANCH   5   6
ATOM      6  C   UNL A   1      32.323  24.214  26.754  1.00  0.00     0.370 C 
ATOM      7  O   UNL A   1      31.414  24.260  27.583  1.00  0.00    -0.245 OA
BRANCH   6   8
ATOM      8  C   UNL A   1      32.151  24.740  25.312  1.00  0.00     0.328 C 
BRANCH   8   9
ATOM      9  C   UNL A   1      31.650  26.151  25.106  1.00  0.00     0.046 A 
ATOM     10  C   UNL A   1      35.064  29.112  27.544  1.00  0.00     0.044 C 
ATOM     11  C   UNL A   1      33.906  28.884  26.615  1.00  0.00    -0.050 A 
ATOM     12  C   UNL A   1      33.250  29.957  26.010  1.00  0.00     0.005 A 
ATOM     13  C   UNL A   1      33.460  27.572  26.379  1.00  0.00     0.014 A 
ATOM     14  C   UNL A   1      32.124  29.758  25.204  1.00  0.00     0.027 A 
ATOM     15  C   UNL A   1      32.326  27.340  25.570  1.00  0.00     0.009 A 
ATOM     16  C   UNL A   1      31.672  28.446  25.029  1.00  0.00     0.046 A 
ATOM     17  N   UNL A   1      30.576  27.969  24.354  1.00  0.00    -0.361 N 
ATOM     18  C   UNL A   1      30.528  26.603  24.434  1.00  0.00     0.094 A 
ATOM     19  H   UNL A   1      29.919  28.530  23.880  1.00  0.00     0.166 HD
ENDBRANCH   8   9
BRANCH   8  20
ATOM     20  N   UNL A   1      31.443  23.744  24.467  1.00  0.00    -0.316 N 
ATOM     21  C   UNL A   1      32.004  23.382  23.161  1.00  0.00     0.284 C 
ATOM     22  C   UNL A   1      30.876  22.585  25.161  1.00  0.00     0.284 C 
ATOM     23  H   UNL A   1      30.664  24.353  24.215  1.00  0.00     0.349 HD
ATOM     24  C   UNL A   1      32.851  22.089  23.083  1.00  0.00     0.178 C 
ATOM     25  C   UNL A   1      31.751  21.312  25.176  1.00  0.00     0.178 C 
ATOM     26  N   UNL A   1      32.227  20.983  23.820  1.00  0.00    -0.360 N 
BRANCH  26  27
ATOM     27  C   UNL A   1      32.828  19.731  23.710  1.00  0.00     0.037 A 
ATOM     28  C   UNL A   1      33.890  19.325  24.532  1.00  0.00     0.029 A 
ATOM     29  C   UNL A   1      32.336  18.827  22.759  1.00  0.00     0.029 A 
ATOM     30  C   UNL A   1      34.457  18.055  24.395  1.00  0.00     0.041 A 
ATOM     31  C   UNL A   1      32.901  17.559  22.615  1.00  0.00     0.041 A 
ATOM     32  C   UNL A   1      33.957  17.185  23.434  1.00  0.00     0.123 A 
ATOM     33  F   UNL A   1      34.501  15.968  23.298  1.00  0.00    -0.207 F 
ENDBRANCH  26  27
ENDBRANCH   8  20
ENDBRANCH   6   8
ENDBRANCH   5   6
ENDBRANCH   4   5
ENDBRANCH   3   4
ENDBRANCH   2   3
ENDBRANCH   1   2
BRANCH   1  34
ATOM     34  C   UNL A   1      37.904  20.968  25.178  1.00  0.00     0.261 C 
BRANCH  34  35
ATOM     35  O   UNL A   1      38.908  21.972  25.408  1.00  0.00    -0.460 OA
BRANCH  35  36
ATOM     36  C   UNL A   1      39.762  21.672  26.414  1.00  0.00     0.338 C 
ATOM     37  O   UNL A   1      40.345  20.610  26.584  1.00  0.00    -0.246 OA
BRANCH  36  38
ATOM     38  C   UNL A   1      40.058  22.874  27.209  1.00  0.00     0.060 A 
ATOM     39  C   UNL A   1      39.209  23.974  27.046  1.00  0.00     0.016 A 
ATOM     40  C   UNL A   1      41.210  22.974  27.992  1.00  0.00     0.016 A 
ATOM     41  C   UNL A   1      39.547  25.203  27.607  1.00  0.00     0.010 A 
ATOM     42  C   UNL A   1      41.553  24.214  28.548  1.00  0.00     0.010 A 
ATOM     43  C   UNL A   1      40.749  25.345  28.315  1.00  0.00    -0.014 A 
BRANCH  43  44
ATOM     44  C   UNL A   1      41.229  26.717  28.625  1.00  0.00     0.031 A 
ATOM     45  C   UNL A   1      42.633  27.099  28.231  1.00  0.00     0.074 A 
ATOM     46  C   UNL A   1      40.403  27.636  29.158  1.00  0.00     0.049 A 
ATOM     47  N   UNL A   1      43.240  28.255  28.329  1.00  0.00    -0.248 NA
ATOM     48  C   UNL A   1      43.461  26.034  27.647  1.00  0.00     0.031 C 
ATOM     49  C   UNL A   1      39.012  27.397  29.540  1.00  0.00     0.029 A 
ATOM     50  N   UNL A   1      40.613  28.960  29.456  1.00  0.00    -0.354 N 
ATOM     51  C   UNL A   1      44.516  28.060  27.809  1.00  0.00     0.074 A 
ATOM     52  C   UNL A   1      44.608  26.662  27.442  1.00  0.00     0.031 C 
ATOM     53  C   UNL A   1      38.491  28.541  30.019  1.00  0.00     0.029 A 
ATOM     54  C   UNL A   1      39.516  29.583  30.001  1.00  0.00     0.049 A 
ATOM     55  H   UNL A   1      41.468  29.419  29.293  1.00  0.00     0.167 HD
ATOM     56  C   UNL A   1      45.512  28.963  27.638  1.00  0.00     0.034 A 
ATOM     57  C   UNL A   1      39.360  30.849  30.444  1.00  0.00     0.034 A 
ATOM     58  C   UNL A   1      45.415  30.351  28.023  1.00  0.00     0.049 A 
ATOM     59  C   UNL A   1      40.510  31.818  30.314  1.00  0.00     0.074 A 
ATOM     60  C   UNL A   1      46.363  31.352  27.894  1.00  0.00     0.029 A 
ATOM     61  N   UNL A   1      44.307  30.933  28.625  1.00  0.00    -0.354 N 
ATOM     62  N   UNL A   1      41.706  31.623  29.808  1.00  0.00    -0.248 NA
ATOM     63  C   UNL A   1      40.281  33.185  30.805  1.00  0.00     0.031 C 
ATOM     64  C   UNL A   1      45.855  32.517  28.478  1.00  0.00     0.029 A 
ATOM     65  C   UNL A   1      44.560  32.269  28.902  1.00  0.00     0.049 A 
ATOM     66  H   UNL A   1      43.463  30.466  28.825  1.00  0.00     0.167 HD
ATOM     67  C   UNL A   1      42.358  32.852  29.889  1.00  0.00     0.074 A 
ATOM     68  C   UNL A   1      41.418  33.782  30.479  1.00  0.00     0.031 C 
ATOM     69  C   UNL A   1      43.618  33.184  29.505  1.00  0.00     0.034 A 
BRANCH  56  70
ATOM     70  C   UNL A   1      46.812  28.457  27.057  1.00  0.00     0.023 A 
ATOM     71  C   UNL A   1      47.003  28.327  25.670  1.00  0.00     0.031 A 
ATOM     72  C   UNL A   1      47.861  28.064  27.905  1.00  0.00     0.131 A 
ATOM     73  C   UNL A   1      48.186  27.755  25.176  1.00  0.00     0.055 A 
ATOM     74  C   UNL A   1      49.066  27.566  27.406  1.00  0.00     0.041 A 
ATOM     75  F   UNL A   1      47.728  28.141  29.239  1.00  0.00    -0.206 F 
ATOM     76  C   UNL A   1      49.228  27.396  26.034  1.00  0.00     0.022 A 
BRANCH  73  77
ATOM     77  S   UNL A   1      48.287  27.353  23.410  1.00  0.00     0.124 S 
ATOM     78  O   UNL A   1      48.063  25.910  23.422  1.00  0.00    -0.237 OA
ATOM     79  O   UNL A   1      47.215  28.163  22.841  1.00  0.00    -0.237 OA
ATOM     80  O   UNL A   1      49.641  27.762  23.042  1.00  0.00    -0.744 OA
ENDBRANCH  73  77
ENDBRANCH  56  70
BRANCH  57  81
ATOM     81  C   UNL A   1      38.080  31.271  31.082  1.00  0.00     0.023 A 
ATOM     82  C   UNL A   1      37.067  31.903  30.343  1.00  0.00     0.031 A 
ATOM     83  C   UNL A   1      37.879  31.099  32.464  1.00  0.00     0.131 A 
ATOM     84  C   UNL A   1      35.919  32.380  30.997  1.00  0.00     0.055 A 
ATOM     85  C   UNL A   1      36.715  31.530  33.100  1.00  0.00     0.041 A 
ATOM     86  F   UNL A   1      38.818  30.503  33.217  1.00  0.00    -0.206 F 
ATOM     87  C   UNL A   1      35.731  32.187  32.368  1.00  0.00     0.022 A 
BRANCH  84  88
ATOM     88  S   UNL A   1      34.707  33.335  30.044  1.00  0.00     0.124 S 
ATOM     89  O   UNL A   1      35.555  34.325  29.391  1.00  0.00    -0.237 OA
ATOM     90  O   UNL A   1      34.130  32.312  29.177  1.00  0.00    -0.237 OA
ATOM     91  O   UNL A   1      33.806  33.861  31.068  1.00  0.00    -0.744 OA
ENDBRANCH  84  88
ENDBRANCH  57  81
BRANCH  69  92
ATOM     92  C   UNL A   1      44.031  34.627  29.675  1.00  0.00     0.023 A 
ATOM     93  C   UNL A   1      43.741  35.601  28.703  1.00  0.00     0.031 A 
ATOM     94  C   UNL A   1      44.743  35.029  30.819  1.00  0.00     0.131 A 
ATOM     95  C   UNL A   1      44.215  36.912  28.863  1.00  0.00     0.055 A 
ATOM     96  C   UNL A   1      45.158  36.348  31.003  1.00  0.00     0.041 A 
ATOM     97  F   UNL A   1      45.048  34.141  31.780  1.00  0.00    -0.206 F 
ATOM     98  C   UNL A   1      44.909  37.295  30.015  1.00  0.00     0.022 A 
BRANCH  95  99
ATOM     99  S   UNL A   1      44.000  38.090  27.500  1.00  0.00     0.124 S 
ATOM    100  O   UNL A   1      45.327  38.096  26.892  1.00  0.00    -0.237 OA
ATOM    101  O   UNL A   1      42.941  37.467  26.713  1.00  0.00    -0.237 OA
ATOM    102  O   UNL A   1      43.622  39.331  28.174  1.00  0.00    -0.744 OA
ENDBRANCH  95  99
ENDBRANCH  69  92
ENDBRANCH  43  44
ENDBRANCH  36  38
ENDBRANCH  35  36
ENDBRANCH  34  35
ENDBRANCH   1  34
TORSDOF 20
ENDMDL
MODEL 2
REMARK VINA RESULT:     -12.6      4.705      7.556
REMARK SMILES Cc1ccc2[nH]cc([C@@H](C(=O)OCCOCCOC(=O)c3ccc(-c4c5nc(c(-c6cc(S(=O)(=O)[O-])ccc6F)c6ccc([nH]6)c(-c6cc(S(=O)(=O)[O-])ccc6F)c6nc(c(-c7cc(S(=O)(=O)[O-])ccc7F)c7ccc4[nH]7)C=C6)C=C5)cc3)[NH+]3CCN(c4ccc(F)cc4)CC3)c2c1
REMARK SMILES IDX 16 1 15 2 14 3 13 4 12 5 10 6 11 7 9 8 8 9 1 10 2 11 3 12
REMARK SMILES IDX 98 13 4 14 97 15 5 16 6 17 7 18 84 20 85 21 96 22 86 24
REMARK SMILES IDX 95 25 87 26 88 27 89 28 94 29 90 30 93 31 91 32 92 33 17 34
REMARK SMILES IDX 18 35 19 36 20 37 21 38 22 39 83 40 23 41 82 42 24 43 25 44
REMARK SMILES IDX 26 45 76 46 27 47 81 48 75 49 77 50 28 51 80 52 74 53 73 54
REMARK SMILES IDX 29 56 61 57 41 58 60 59 42 60 45 61 59 62 78 63 43 64 44 65
REMARK SMILES IDX 58 67 79 68 46 69 30 70 31 71 39 72 32 73 38 74 40 75 37 76
REMARK SMILES IDX 33 77 34 78 35 79 36 80 62 81 63 82 71 83 64 84 70 85 72 86
REMARK SMILES IDX 69 87 65 88 66 89 67 90 68 91 47 92 48 93 56 94 49 95 55 96
REMARK SMILES IDX 57 97 54 98 50 99 51 100 52 101 53 102
REMARK H PARENT 6 19 84 23 77 55 45 66
REMARK Flexibility Score: inf
ROOT
ATOM      1  C   UNL A   1      31.528  31.034  26.848  1.00  0.00     0.202 C 
ENDROOT
BRANCH   1   2
ATOM      2  O   UNL A   1      32.177  30.394  25.754  1.00  0.00    -0.374 OA
BRANCH   2   3
ATOM      3  C   UNL A   1      33.310  29.576  26.054  1.00  0.00     0.202 C 
BRANCH   3   4
ATOM      4  C   UNL A   1      33.130  28.529  27.158  1.00  0.00     0.261 C 
BRANCH   4   5
ATOM      5  O   UNL A   1      32.989  27.179  26.662  1.00  0.00    -0.459 OA
BRANCH   5   6
ATOM      6  C   UNL A   1      31.800  26.898  26.052  1.00  0.00     0.370 C 
ATOM      7  O   UNL A   1      30.722  26.903  26.648  1.00  0.00    -0.245 OA
BRANCH   6   8
ATOM      8  C   UNL A   1      31.917  26.510  24.561  1.00  0.00     0.328 C 
BRANCH   8   9
ATOM      9  C   UNL A   1      31.691  27.574  23.513  1.00  0.00     0.046 A 
ATOM     10  C   UNL A   1      26.605  28.276  23.446  1.00  0.00     0.044 C 
ATOM     11  C   UNL A   1      28.015  28.648  23.091  1.00  0.00    -0.050 A 
ATOM     12  C   UNL A   1      28.284  29.746  22.272  1.00  0.00     0.005 A 
ATOM     13  C   UNL A   1      29.077  27.858  23.566  1.00  0.00     0.014 A 
ATOM     14  C   UNL A   1      29.589  30.053  21.874  1.00  0.00     0.027 A 
ATOM     15  C   UNL A   1      30.405  28.144  23.182  1.00  0.00     0.009 A 
ATOM     16  C   UNL A   1      30.620  29.219  22.320  1.00  0.00     0.046 A 
ATOM     17  N   UNL A   1      31.963  29.244  22.042  1.00  0.00    -0.361 N 
ATOM     18  C   UNL A   1      32.605  28.236  22.712  1.00  0.00     0.094 A 
ATOM     19  H   UNL A   1      32.403  29.894  21.446  1.00  0.00     0.166 HD
ENDBRANCH   8   9
BRANCH   8  20
ATOM     20  N   UNL A   1      31.175  25.254  24.282  1.00  0.00    -0.316 N 
ATOM     21  C   UNL A   1      31.437  24.527  23.035  1.00  0.00     0.284 C 
ATOM     22  C   UNL A   1      30.979  24.345  25.415  1.00  0.00     0.284 C 
ATOM     23  H   UNL A   1      30.276  25.700  24.097  1.00  0.00     0.349 HD
ATOM     24  C   UNL A   1      32.419  23.333  23.099  1.00  0.00     0.178 C 
ATOM     25  C   UNL A   1      32.008  23.201  25.550  1.00  0.00     0.178 C 
ATOM     26  N   UNL A   1      32.171  22.485  24.272  1.00  0.00    -0.360 N 
BRANCH  26  27
ATOM     27  C   UNL A   1      32.905  21.304  24.364  1.00  0.00     0.037 A 
ATOM     28  C   UNL A   1      32.357  20.046  24.071  1.00  0.00     0.029 A 
ATOM     29  C   UNL A   1      34.254  21.375  24.738  1.00  0.00     0.029 A 
ATOM     30  C   UNL A   1      33.132  18.888  24.167  1.00  0.00     0.041 A 
ATOM     31  C   UNL A   1      35.031  20.220  24.839  1.00  0.00     0.041 A 
ATOM     32  C   UNL A   1      34.462  18.987  24.553  1.00  0.00     0.123 A 
ATOM     33  F   UNL A   1      35.207  17.877  24.649  1.00  0.00    -0.207 F 
ENDBRANCH  26  27
ENDBRANCH   8  20
ENDBRANCH   6   8
ENDBRANCH   5   6
ENDBRANCH   4   5
ENDBRANCH   3   4
ENDBRANCH   2   3
ENDBRANCH   1   2
BRANCH   1  34
ATOM     34  C   UNL A   1      31.505  32.564  26.818  1.00  0.00     0.261 C 
BRANCH  34  35
ATOM     35  O   UNL A   1      32.832  33.099  26.670  1.00  0.00    -0.460 OA
BRANCH  35  36
ATOM     36  C   UNL A   1      33.360  33.579  27.820  1.00  0.00     0.338 C 
ATOM     37  O   UNL A   1      32.835  34.375  28.587  1.00  0.00    -0.246 OA
BRANCH  36  38
ATOM     38  C   UNL A   1      34.609  32.872  28.145  1.00  0.00     0.060 A 
ATOM     39  C   UNL A   1      34.496  31.562  28.624  1.00  0.00     0.016 A 
ATOM     40  C   UNL A   1      35.849  33.514  28.111  1.00  0.00     0.016 A 
ATOM     41  C   UNL A   1      35.613  30.912  29.141  1.00  0.00     0.010 A 
ATOM     42  C   UNL A   1      36.970  32.860  28.641  1.00  0.00     0.010 A 
ATOM     43  C   UNL A   1      36.846  31.576  29.205  1.00  0.00    -0.014 A 
BRANCH  43  44
ATOM     44  C   UNL A   1      37.926  30.985  30.037  1.00  0.00     0.031 A 
ATOM     45  C   UNL A   1      38.852  29.974  29.410  1.00  0.00     0.074 A 
ATOM     46  C   UNL A   1      38.141  31.408  31.296  1.00  0.00     0.049 A 
ATOM     47  N   UNL A   1      39.907  29.386  29.914  1.00  0.00    -0.248 NA
ATOM     48  C   UNL A   1      38.547  29.579  28.027  1.00  0.00     0.031 C 
ATOM     49  C   UNL A   1      37.340  32.411  31.995  1.00  0.00     0.029 A 
ATOM     50  N   UNL A   1      39.108  31.055  32.204  1.00  0.00    -0.354 N 
ATOM     51  C   UNL A   1      40.398  28.559  28.908  1.00  0.00     0.074 A 
ATOM     52  C   UNL A   1      39.496  28.689  27.783  1.00  0.00     0.031 C 
ATOM     53  C   UNL A   1      37.852  32.596  33.225  1.00  0.00     0.029 A 
ATOM     54  C   UNL A   1      39.000  31.708  33.408  1.00  0.00     0.049 A 
ATOM     55  H   UNL A   1      39.813  30.396  32.010  1.00  0.00     0.167 HD
ATOM     56  C   UNL A   1      41.505  27.776  28.915  1.00  0.00     0.034 A 
ATOM     57  C   UNL A   1      39.737  31.597  34.533  1.00  0.00     0.034 A 
ATOM     58  C   UNL A   1      42.388  27.641  30.049  1.00  0.00     0.049 A 
ATOM     59  C   UNL A   1      40.921  30.661  34.544  1.00  0.00     0.074 A 
ATOM     60  C   UNL A   1      43.537  26.878  30.164  1.00  0.00     0.029 A 
ATOM     61  N   UNL A   1      42.214  28.277  31.272  1.00  0.00    -0.354 N 
ATOM     62  N   UNL A   1      41.382  29.896  33.581  1.00  0.00    -0.248 NA
ATOM     63  C   UNL A   1      41.694  30.585  35.792  1.00  0.00     0.031 C 
ATOM     64  C   UNL A   1      44.017  26.998  31.473  1.00  0.00     0.029 A 
ATOM     65  C   UNL A   1      43.214  27.898  32.156  1.00  0.00     0.049 A 
ATOM     66  H   UNL A   1      41.486  28.906  31.482  1.00  0.00     0.167 HD
ATOM     67  C   UNL A   1      42.517  29.275  34.099  1.00  0.00     0.074 A 
ATOM     68  C   UNL A   1      42.677  29.766  35.452  1.00  0.00     0.031 C 
ATOM     69  C   UNL A   1      43.356  28.384  33.509  1.00  0.00     0.034 A 
BRANCH  56  70
ATOM     70  C   UNL A   1      41.786  26.965  27.673  1.00  0.00     0.023 A 
ATOM     71  C   UNL A   1      41.487  25.593  27.599  1.00  0.00     0.031 A 
ATOM     72  C   UNL A   1      42.396  27.565  26.558  1.00  0.00     0.131 A 
ATOM     73  C   UNL A   1      41.860  24.854  26.466  1.00  0.00     0.055 A 
ATOM     74  C   UNL A   1      42.696  26.841  25.402  1.00  0.00     0.041 A 
ATOM     75  F   UNL A   1      42.728  28.867  26.577  1.00  0.00    -0.206 F 
ATOM     76  C   UNL A   1      42.441  25.474  25.357  1.00  0.00     0.022 A 
BRANCH  73  77
ATOM     77  S   UNL A   1      41.707  23.047  26.516  1.00  0.00     0.124 S 
ATOM     78  O   UNL A   1      42.164  22.750  27.872  1.00  0.00    -0.237 OA
ATOM     79  O   UNL A   1      40.286  22.843  26.260  1.00  0.00    -0.237 OA
ATOM     80  O   UNL A   1      42.605  22.597  25.453  1.00  0.00    -0.744 OA
ENDBRANCH  73  77
ENDBRANCH  56  70
BRANCH  57  81
ATOM     81  C   UNL A   1      39.365  32.363  35.756  1.00  0.00     0.023 A 
ATOM     82  C   UNL A   1      38.582  31.790  36.771  1.00  0.00     0.031 A 
ATOM     83  C   UNL A   1      39.745  33.711  35.898  1.00  0.00     0.131 A 
ATOM     84  C   UNL A   1      38.166  32.574  37.859  1.00  0.00     0.055 A 
ATOM     85  C   UNL A   1      39.370  34.471  37.007  1.00  0.00     0.041 A 
ATOM     86  F   UNL A   1      40.493  34.308  34.956  1.00  0.00    -0.206 F 
ATOM     87  C   UNL A   1      38.564  33.907  37.990  1.00  0.00     0.022 A 
BRANCH  84  88
ATOM     88  S   UNL A   1      37.020  31.850  39.066  1.00  0.00     0.124 S 
ATOM     89  O   UNL A   1      35.823  32.657  38.861  1.00  0.00    -0.237 OA
ATOM     90  O   UNL A   1      36.945  30.464  38.617  1.00  0.00    -0.237 OA
ATOM     91  O   UNL A   1      37.700  32.052  40.344  1.00  0.00    -0.744 OA
ENDBRANCH  84  88
ENDBRANCH  57  81
BRANCH  69  92
ATOM     92  C   UNL A   1      44.545  27.921  34.316  1.00  0.00     0.023 A 
ATOM     93  C   UNL A   1      44.477  26.800  35.163  1.00  0.00     0.031 A 
ATOM     94  C   UNL A   1      45.761  28.625  34.251  1.00  0.00     0.131 A 
ATOM     95  C   UNL A   1      45.581  26.455  35.957  1.00  0.00     0.055 A 
ATOM     96  C   UNL A   1      46.876  28.240  34.997  1.00  0.00     0.041 A 
ATOM     97  F   UNL A   1      45.884  29.704  33.460  1.00  0.00    -0.206 F 
ATOM     98  C   UNL A   1      46.785  27.159  35.868  1.00  0.00     0.022 A 
BRANCH  95  99
ATOM     99  S   UNL A   1      45.393  25.133  37.185  1.00  0.00     0.124 S 
ATOM    100  O   UNL A   1      46.488  24.234  36.834  1.00  0.00    -0.237 OA
ATOM    101  O   UNL A   1      45.539  25.853  38.445  1.00  0.00    -0.237 OA
ATOM    102  O   UNL A   1      44.053  24.609  36.922  1.00  0.00    -0.744 OA
ENDBRANCH  95  99
ENDBRANCH  69  92
ENDBRANCH  43  44
ENDBRANCH  36  38
ENDBRANCH  35  36
ENDBRANCH  34  35
ENDBRANCH   1  34
TORSDOF 20
ENDMDL
MODEL 3
REMARK VINA RESULT:     -12.5      1.178      7.239
REMARK SMILES Cc1ccc2[nH]cc([C@@H](C(=O)OCCOCCOC(=O)c3ccc(-c4c5nc(c(-c6cc(S(=O)(=O)[O-])ccc6F)c6ccc([nH]6)c(-c6cc(S(=O)(=O)[O-])ccc6F)c6nc(c(-c7cc(S(=O)(=O)[O-])ccc7F)c7ccc4[nH]7)C=C6)C=C5)cc3)[NH+]3CCN(c4ccc(F)cc4)CC3)c2c1
REMARK SMILES IDX 16 1 15 2 14 3 13 4 12 5 10 6 11 7 9 8 8 9 1 10 2 11 3 12
REMARK SMILES IDX 98 13 4 14 97 15 5 16 6 17 7 18 84 20 85 21 96 22 86 24
REMARK SMILES IDX 95 25 87 26 88 27 89 28 94 29 90 30 93 31 91 32 92 33 17 34
REMARK SMILES IDX 18 35 19 36 20 37 21 38 22 39 83 40 23 41 82 42 24 43 25 44
REMARK SMILES IDX 26 45 76 46 27 47 81 48 75 49 77 50 28 51 80 52 74 53 73 54
REMARK SMILES IDX 29 56 61 57 41 58 60 59 42 60 45 61 59 62 78 63 43 64 44 65
REMARK SMILES IDX 58 67 79 68 46 69 30 70 31 71 39 72 32 73 38 74 40 75 37 76
REMARK SMILES IDX 33 77 34 78 35 79 36 80 62 81 63 82 71 83 64 84 70 85 72 86
REMARK SMILES IDX 69 87 65 88 66 89 67 90 68 91 47 92 48 93 56 94 49 95 55 96
REMARK SMILES IDX 57 97 54 98 50 99 51 100 52 101 53 102
REMARK H PARENT 6 19 84 23 77 55 45 66
REMARK Flexibility Score: inf
ROOT
ATOM      1  C   UNL A   1      37.069  21.701  24.025  1.00  0.00     0.202 C 
ENDROOT
BRANCH   1   2
ATOM      2  O   UNL A   1      36.551  22.810  24.754  1.00  0.00    -0.374 OA
BRANCH   2   3
ATOM      3  C   UNL A   1      35.312  22.620  25.439  1.00  0.00     0.202 C 
BRANCH   3   4
ATOM      4  C   UNL A   1      34.534  23.884  25.819  1.00  0.00     0.261 C 
BRANCH   4   5
ATOM      5  O   UNL A   1      33.562  23.675  26.868  1.00  0.00    -0.459 OA
BRANCH   5   6
ATOM      6  C   UNL A   1      32.347  24.265  26.671  1.00  0.00     0.370 C 
ATOM      7  O   UNL A   1      31.510  24.394  27.565  1.00  0.00    -0.245 OA
BRANCH   6   8
ATOM      8  C   UNL A   1      32.075  24.709  25.216  1.00  0.00     0.328 C 
BRANCH   8   9
ATOM      9  C   UNL A   1      31.543  26.102  24.967  1.00  0.00     0.046 A 
ATOM     10  C   UNL A   1      34.739  29.192  27.535  1.00  0.00     0.044 C 
ATOM     11  C   UNL A   1      33.638  28.919  26.552  1.00  0.00    -0.050 A 
ATOM     12  C   UNL A   1      32.981  29.965  25.901  1.00  0.00     0.005 A 
ATOM     13  C   UNL A   1      33.243  27.592  26.311  1.00  0.00     0.014 A 
ATOM     14  C   UNL A   1      31.903  29.723  25.042  1.00  0.00     0.027 A 
ATOM     15  C   UNL A   1      32.159  27.316  25.449  1.00  0.00     0.009 A 
ATOM     16  C   UNL A   1      31.500  28.395  24.862  1.00  0.00     0.046 A 
ATOM     17  N   UNL A   1      30.454  27.878  24.139  1.00  0.00    -0.361 N 
ATOM     18  C   UNL A   1      30.444  26.511  24.234  1.00  0.00     0.094 A 
ATOM     19  H   UNL A   1      29.806  28.413  23.625  1.00  0.00     0.166 HD
ENDBRANCH   8   9
BRANCH   8  20
ATOM     20  N   UNL A   1      31.327  23.662  24.475  1.00  0.00    -0.316 N 
ATOM     21  C   UNL A   1      31.789  23.256  23.143  1.00  0.00     0.284 C 
ATOM     22  C   UNL A   1      30.849  22.520  25.260  1.00  0.00     0.284 C 
ATOM     23  H   UNL A   1      30.514  24.241  24.263  1.00  0.00     0.349 HD
ATOM     24  C   UNL A   1      32.660  21.980  23.049  1.00  0.00     0.178 C 
ATOM     25  C   UNL A   1      31.756  21.270  25.255  1.00  0.00     0.178 C 
ATOM     26  N   UNL A   1      32.128  20.894  23.880  1.00  0.00    -0.360 N 
BRANCH  26  27
ATOM     27  C   UNL A   1      32.752  19.652  23.772  1.00  0.00     0.037 A 
ATOM     28  C   UNL A   1      32.316  18.659  22.881  1.00  0.00     0.029 A 
ATOM     29  C   UNL A   1      33.877  19.391  24.565  1.00  0.00     0.029 A 
ATOM     30  C   UNL A   1      32.978  17.432  22.798  1.00  0.00     0.041 A 
ATOM     31  C   UNL A   1      34.539  18.165  24.489  1.00  0.00     0.041 A 
ATOM     32  C   UNL A   1      34.082  17.196  23.606  1.00  0.00     0.123 A 
ATOM     33  F   UNL A   1      34.717  16.018  23.531  1.00  0.00    -0.207 F 
ENDBRANCH  26  27
ENDBRANCH   8  20
ENDBRANCH   6   8
ENDBRANCH   5   6
ENDBRANCH   4   5
ENDBRANCH   3   4
ENDBRANCH   2   3
ENDBRANCH   1   2
BRANCH   1  34
ATOM     34  C   UNL A   1      37.827  20.652  24.842  1.00  0.00     0.261 C 
BRANCH  34  35
ATOM     35  O   UNL A   1      38.179  21.160  26.140  1.00  0.00    -0.460 OA
BRANCH  35  36
ATOM     36  C   UNL A   1      39.510  21.168  26.383  1.00  0.00     0.338 C 
ATOM     37  O   UNL A   1      40.316  20.306  26.059  1.00  0.00    -0.246 OA
BRANCH  36  38
ATOM     38  C   UNL A   1      39.921  22.465  26.945  1.00  0.00     0.060 A 
ATOM     39  C   UNL A   1      39.359  23.614  26.377  1.00  0.00     0.016 A 
ATOM     40  C   UNL A   1      40.926  22.565  27.908  1.00  0.00     0.016 A 
ATOM     41  C   UNL A   1      39.854  24.870  26.717  1.00  0.00     0.010 A 
ATOM     42  C   UNL A   1      41.428  23.831  28.242  1.00  0.00     0.010 A 
ATOM     43  C   UNL A   1      40.928  24.985  27.610  1.00  0.00    -0.014 A 
BRANCH  43  44
ATOM     44  C   UNL A   1      41.630  26.291  27.710  1.00  0.00     0.031 A 
ATOM     45  C   UNL A   1      40.971  27.411  28.473  1.00  0.00     0.074 A 
ATOM     46  C   UNL A   1      42.871  26.450  27.214  1.00  0.00     0.049 A 
ATOM     47  N   UNL A   1      41.425  28.605  28.757  1.00  0.00    -0.248 NA
ATOM     48  C   UNL A   1      39.619  27.144  28.987  1.00  0.00     0.031 C 
ATOM     49  C   UNL A   1      43.628  25.427  26.494  1.00  0.00     0.029 A 
ATOM     50  N   UNL A   1      43.717  27.530  27.255  1.00  0.00    -0.354 N 
ATOM     51  C   UNL A   1      40.421  29.229  29.492  1.00  0.00     0.074 A 
ATOM     52  C   UNL A   1      39.317  28.295  29.567  1.00  0.00     0.031 C 
ATOM     53  C   UNL A   1      44.831  25.929  26.163  1.00  0.00     0.029 A 
ATOM     54  C   UNL A   1      44.919  27.314  26.625  1.00  0.00     0.049 A 
ATOM     55  H   UNL A   1      43.484  28.380  27.694  1.00  0.00     0.167 HD
ATOM     56  C   UNL A   1      40.424  30.458  30.063  1.00  0.00     0.034 A 
ATOM     57  C   UNL A   1      45.969  28.141  26.436  1.00  0.00     0.034 A 
ATOM     58  C   UNL A   1      41.524  31.388  29.967  1.00  0.00     0.049 A 
ATOM     59  C   UNL A   1      45.919  29.534  27.016  1.00  0.00     0.074 A 
ATOM     60  C   UNL A   1      41.632  32.657  30.509  1.00  0.00     0.029 A 
ATOM     61  N   UNL A   1      42.704  31.154  29.273  1.00  0.00    -0.354 N 
ATOM     62  N   UNL A   1      44.969  30.105  27.720  1.00  0.00    -0.248 NA
ATOM     63  C   UNL A   1      47.092  30.389  26.786  1.00  0.00     0.031 C 
ATOM     64  C   UNL A   1      42.844  33.214  30.086  1.00  0.00     0.029 A 
ATOM     65  C   UNL A   1      43.530  32.266  29.345  1.00  0.00     0.049 A 
ATOM     66  H   UNL A   1      42.923  30.319  28.799  1.00  0.00     0.167 HD
ATOM     67  C   UNL A   1      45.446  31.373  28.045  1.00  0.00     0.074 A 
ATOM     68  C   UNL A   1      46.772  31.476  27.471  1.00  0.00     0.031 C 
ATOM     69  C   UNL A   1      44.846  32.363  28.757  1.00  0.00     0.034 A 
BRANCH  56  70
ATOM     70  C   UNL A   1      39.172  30.883  30.796  1.00  0.00     0.023 A 
ATOM     71  C   UNL A   1      38.131  31.571  30.147  1.00  0.00     0.031 A 
ATOM     72  C   UNL A   1      39.036  30.628  32.171  1.00  0.00     0.131 A 
ATOM     73  C   UNL A   1      37.034  32.039  30.887  1.00  0.00     0.055 A 
ATOM     74  C   UNL A   1      37.906  31.029  32.887  1.00  0.00     0.041 A 
ATOM     75  F   UNL A   1      40.008  29.996  32.850  1.00  0.00    -0.206 F 
ATOM     76  C   UNL A   1      36.903  31.752  32.248  1.00  0.00     0.022 A 
BRANCH  73  77
ATOM     77  S   UNL A   1      35.850  33.151  30.078  1.00  0.00     0.124 S 
ATOM     78  O   UNL A   1      35.608  34.138  31.128  1.00  0.00    -0.237 OA
ATOM     79  O   UNL A   1      36.601  33.622  28.920  1.00  0.00    -0.237 OA
ATOM     80  O   UNL A   1      34.715  32.282  29.776  1.00  0.00    -0.744 OA
ENDBRANCH  73  77
ENDBRANCH  56  70
BRANCH  57  81
ATOM     81  C   UNL A   1      47.145  27.695  25.636  1.00  0.00     0.023 A 
ATOM     82  C   UNL A   1      47.253  27.984  24.267  1.00  0.00     0.031 A 
ATOM     83  C   UNL A   1      48.157  26.915  26.227  1.00  0.00     0.131 A 
ATOM     84  C   UNL A   1      48.324  27.460  23.524  1.00  0.00     0.055 A 
ATOM     85  C   UNL A   1      49.245  26.439  25.495  1.00  0.00     0.041 A 
ATOM     86  F   UNL A   1      48.102  26.608  27.533  1.00  0.00    -0.206 F 
ATOM     87  C   UNL A   1      49.326  26.699  24.131  1.00  0.00     0.022 A 
BRANCH  84  88
ATOM     88  S   UNL A   1      48.344  27.715  21.727  1.00  0.00     0.124 S 
ATOM     89  O   UNL A   1      49.469  28.629  21.569  1.00  0.00    -0.237 OA
ATOM     90  O   UNL A   1      48.546  26.356  21.232  1.00  0.00    -0.237 OA
ATOM     91  O   UNL A   1      47.029  28.287  21.450  1.00  0.00    -0.744 OA
ENDBRANCH  84  88
ENDBRANCH  57  81
BRANCH  69  92
ATOM     92  C   UNL A   1      45.644  33.623  28.990  1.00  0.00     0.023 A 
ATOM     93  C   UNL A   1      45.624  34.694  28.077  1.00  0.00     0.031 A 
ATOM     94  C   UNL A   1      46.454  33.746  30.133  1.00  0.00     0.131 A 
ATOM     95  C   UNL A   1      46.445  35.811  28.292  1.00  0.00     0.055 A 
ATOM     96  C   UNL A   1      47.222  34.887  30.372  1.00  0.00     0.041 A 
ATOM     97  F   UNL A   1      46.513  32.755  31.038  1.00  0.00    -0.206 F 
ATOM     98  C   UNL A   1      47.232  35.921  29.442  1.00  0.00     0.022 A 
BRANCH  95  99
ATOM     99  S   UNL A   1      46.548  37.078  26.998  1.00  0.00     0.124 S 
ATOM    100  O   UNL A   1      46.765  36.273  25.800  1.00  0.00    -0.237 OA
ATOM    101  O   UNL A   1      45.248  37.734  27.098  1.00  0.00    -0.237 OA
ATOM    102  O   UNL A   1      47.688  37.897  27.409  1.00  0.00    -0.744 OA
ENDBRANCH  95  99
ENDBRANCH  69  92
ENDBRANCH  43  44
ENDBRANCH  36  38
ENDBRANCH  35  36
ENDBRANCH  34  35
ENDBRANCH   1  34
TORSDOF 20
ENDMDL
