MODEL 1
REMARK VINA RESULT:     -11.4      0.000      0.000
REMARK SMILES O=C(OCCOCCOC(=O)c1ccc(-c2c3nc(c(-c4cc(S(=O)(=O)[O-])ccc4F)c4ccc([nH]4)c(-c4cc(S(=O)(=O)[O-])ccc4F)c4nc(c(-c5cc(S(=O)(=O)[O-])ccc5F)c5ccc2[nH]5)C=C4)C=C3)cc1)C1=Cc2c(ccc(Cl)c2Cl)O[C@H]1C(F)(F)F
REMARK SMILES IDX 7 1 6 2 5 3 4 4 3 5 2 6 1 7 75 8 76 9 86 10 77 11 85 12
REMARK SMILES IDX 78 13 83 14 79 15 81 16 84 17 80 18 82 19 87 20 88 21 89 22
REMARK SMILES IDX 90 23 8 24 9 25 10 26 11 27 12 28 13 29 74 30 14 31 73 32
REMARK SMILES IDX 15 33 16 34 17 35 67 36 18 37 72 38 66 39 68 40 19 41 71 42
REMARK SMILES IDX 65 43 64 44 20 46 52 47 32 48 51 49 33 50 36 51 50 52 69 53
REMARK SMILES IDX 34 54 35 55 49 57 70 58 37 59 21 60 22 61 30 62 23 63 29 64
REMARK SMILES IDX 31 65 28 66 24 67 25 68 26 69 27 70 53 71 54 72 62 73 55 74
REMARK SMILES IDX 61 75 63 76 60 77 56 78 57 79 58 80 59 81 38 82 39 83 47 84
REMARK SMILES IDX 40 85 46 86 48 87 45 88 41 89 42 90 43 91 44 92
REMARK H PARENT 68 45 36 56
REMARK Flexibility Score: inf
ROOT
ATOM      1  C   UNL A   1      31.018  29.311  24.248  1.00  0.00     0.202 C 
ENDROOT
BRANCH   1   2
ATOM      2  O   UNL A   1      30.350  28.102  23.897  1.00  0.00    -0.374 OA
BRANCH   2   3
ATOM      3  C   UNL A   1      30.649  27.662  22.573  1.00  0.00     0.202 C 
BRANCH   3   4
ATOM      4  C   UNL A   1      32.149  27.432  22.374  1.00  0.00     0.261 C 
BRANCH   4   5
ATOM      5  O   UNL A   1      32.630  26.225  22.994  1.00  0.00    -0.460 OA
BRANCH   5   6
ATOM      6  C   UNL A   1      33.385  26.124  24.110  1.00  0.00     0.338 C 
ATOM      7  O   UNL A   1      33.989  27.117  24.515  1.00  0.00    -0.246 OA
BRANCH   6   8
ATOM      8  C   UNL A   1      33.408  24.907  24.959  1.00  0.00     0.087 C 
ATOM      9  C   UNL A   1      34.470  24.452  25.631  1.00  0.00     0.029 C 
ATOM     10  C   UNL A   1      32.164  24.051  24.844  1.00  0.00     0.316 C 
ATOM     11  C   UNL A   1      34.729  23.021  25.466  1.00  0.00     0.037 A 
ATOM     12  O   UNL A   1      32.341  22.666  25.285  1.00  0.00    -0.475 OA
ATOM     13  C   UNL A   1      33.625  22.187  25.280  1.00  0.00     0.129 A 
ATOM     14  C   UNL A   1      36.035  22.494  25.378  1.00  0.00     0.070 A 
ATOM     15  C   UNL A   1      33.809  20.823  25.087  1.00  0.00     0.049 A 
ATOM     16  C   UNL A   1      36.214  21.129  25.144  1.00  0.00     0.060 A 
ATOM     17  Cl  UNL A   1      37.414  23.535  25.468  1.00  0.00    -0.082 Cl
ATOM     18  C   UNL A   1      35.102  20.296  25.011  1.00  0.00     0.026 A 
ATOM     19  Cl  UNL A   1      37.781  20.414  24.981  1.00  0.00    -0.083 Cl
BRANCH  10  20
ATOM     20  C   UNL A   1      30.983  24.696  25.617  1.00  0.00     0.430 C 
ATOM     21  F   UNL A   1      30.306  23.824  26.403  1.00  0.00    -0.167 F 
ATOM     22  F   UNL A   1      31.411  25.706  26.415  1.00  0.00    -0.167 F 
ATOM     23  F   UNL A   1      30.061  25.230  24.776  1.00  0.00    -0.167 F 
ENDBRANCH  10  20
ENDBRANCH   6   8
ENDBRANCH   5   6
ENDBRANCH   4   5
ENDBRANCH   3   4
ENDBRANCH   2   3
ENDBRANCH   1   2
BRANCH   1  24
ATOM     24  C   UNL A   1      31.675  29.264  25.632  1.00  0.00     0.261 C 
BRANCH  24  25
ATOM     25  O   UNL A   1      32.888  30.042  25.678  1.00  0.00    -0.460 OA
BRANCH  25  26
ATOM     26  C   UNL A   1      32.962  30.992  26.649  1.00  0.00     0.338 C 
ATOM     27  O   UNL A   1      32.103  31.823  26.908  1.00  0.00    -0.246 OA
BRANCH  26  28
ATOM     28  C   UNL A   1      34.202  30.819  27.463  1.00  0.00     0.060 A 
ATOM     29  C   UNL A   1      34.996  31.945  27.732  1.00  0.00     0.016 A 
ATOM     30  C   UNL A   1      34.575  29.582  27.999  1.00  0.00     0.016 A 
ATOM     31  C   UNL A   1      36.134  31.843  28.548  1.00  0.00     0.010 A 
ATOM     32  C   UNL A   1      35.716  29.479  28.806  1.00  0.00     0.010 A 
ATOM     33  C   UNL A   1      36.506  30.606  29.090  1.00  0.00    -0.014 A 
BRANCH  33  34
ATOM     34  C   UNL A   1      37.796  30.419  29.812  1.00  0.00     0.031 A 
ATOM     35  C   UNL A   1      38.811  29.483  29.217  1.00  0.00     0.074 A 
ATOM     36  C   UNL A   1      38.037  30.991  31.010  1.00  0.00     0.049 A 
ATOM     37  N   UNL A   1      39.928  29.033  29.727  1.00  0.00    -0.248 NA
ATOM     38  C   UNL A   1      38.514  28.978  27.868  1.00  0.00     0.031 C 
ATOM     39  C   UNL A   1      37.162  31.947  31.681  1.00  0.00     0.029 A 
ATOM     40  N   UNL A   1      39.085  30.826  31.889  1.00  0.00    -0.354 N 
ATOM     41  C   UNL A   1      40.461  28.178  28.770  1.00  0.00     0.074 A 
ATOM     42  C   UNL A   1      39.538  28.164  27.655  1.00  0.00     0.031 C 
ATOM     43  C   UNL A   1      37.694  32.264  32.877  1.00  0.00     0.029 A 
ATOM     44  C   UNL A   1      38.923  31.495  33.083  1.00  0.00     0.049 A 
ATOM     45  H   UNL A   1      39.878  30.279  31.682  1.00  0.00     0.167 HD
ATOM     46  C   UNL A   1      41.611  27.462  28.819  1.00  0.00     0.034 A 
ATOM     47  C   UNL A   1      39.652  31.458  34.222  1.00  0.00     0.034 A 
ATOM     48  C   UNL A   1      42.513  27.459  29.941  1.00  0.00     0.049 A 
ATOM     49  C   UNL A   1      40.878  30.566  34.288  1.00  0.00     0.074 A 
ATOM     50  C   UNL A   1      43.722  26.795  30.066  1.00  0.00     0.029 A 
ATOM     51  N   UNL A   1      42.298  28.120  31.141  1.00  0.00    -0.354 N 
ATOM     52  N   UNL A   1      41.398  29.802  33.354  1.00  0.00    -0.248 NA
ATOM     53  C   UNL A   1      41.613  30.526  35.562  1.00  0.00     0.031 C 
ATOM     54  C   UNL A   1      44.187  26.977  31.371  1.00  0.00     0.029 A 
ATOM     55  C   UNL A   1      43.321  27.831  32.031  1.00  0.00     0.049 A 
ATOM     56  H   UNL A   1      41.531  28.707  31.332  1.00  0.00     0.167 HD
ATOM     57  C   UNL A   1      42.532  29.221  33.922  1.00  0.00     0.074 A 
ATOM     58  C   UNL A   1      42.632  29.733  35.271  1.00  0.00     0.031 C 
ATOM     59  C   UNL A   1      43.413  28.344  33.378  1.00  0.00     0.034 A 
BRANCH  46  60
ATOM     60  C   UNL A   1      41.917  26.564  27.649  1.00  0.00     0.023 A 
ATOM     61  C   UNL A   1      41.575  25.202  27.648  1.00  0.00     0.031 A 
ATOM     62  C   UNL A   1      42.578  27.082  26.521  1.00  0.00     0.131 A 
ATOM     63  C   UNL A   1      41.946  24.391  26.566  1.00  0.00     0.055 A 
ATOM     64  C   UNL A   1      42.876  26.287  25.414  1.00  0.00     0.041 A 
ATOM     65  F   UNL A   1      42.953  28.371  26.480  1.00  0.00    -0.206 F 
ATOM     66  C   UNL A   1      42.570  24.931  25.437  1.00  0.00     0.022 A 
BRANCH  63  67
ATOM     67  S   UNL A   1      41.721  22.599  26.709  1.00  0.00     0.124 S 
ATOM     68  O   UNL A   1      42.683  22.263  27.756  1.00  0.00    -0.237 OA
ATOM     69  O   UNL A   1      40.313  22.485  27.075  1.00  0.00    -0.237 OA
ATOM     70  O   UNL A   1      42.061  22.102  25.377  1.00  0.00    -0.744 OA
ENDBRANCH  63  67
ENDBRANCH  46  60
BRANCH  47  71
ATOM     71  C   UNL A   1      39.223  32.214  35.443  1.00  0.00     0.023 A 
ATOM     72  C   UNL A   1      38.600  31.567  36.524  1.00  0.00     0.031 A 
ATOM     73  C   UNL A   1      39.323  33.617  35.494  1.00  0.00     0.131 A 
ATOM     74  C   UNL A   1      38.043  32.323  37.571  1.00  0.00     0.055 A 
ATOM     75  C   UNL A   1      38.830  34.358  36.571  1.00  0.00     0.041 A 
ATOM     76  F   UNL A   1      39.891  34.297  34.485  1.00  0.00    -0.206 F 
ATOM     77  C   UNL A   1      38.168  33.713  37.609  1.00  0.00     0.022 A 
BRANCH  74  78
ATOM     78  S   UNL A   1      37.028  31.475  38.817  1.00  0.00     0.124 S 
ATOM     79  O   UNL A   1      36.869  30.154  38.219  1.00  0.00    -0.237 OA
ATOM     80  O   UNL A   1      37.879  31.546  40.000  1.00  0.00    -0.237 OA
ATOM     81  O   UNL A   1      35.813  32.284  38.876  1.00  0.00    -0.744 OA
ENDBRANCH  74  78
ENDBRANCH  47  71
BRANCH  59  82
ATOM     82  C   UNL A   1      44.594  27.912  34.218  1.00  0.00     0.023 A 
ATOM     83  C   UNL A   1      44.561  26.749  35.006  1.00  0.00     0.031 A 
ATOM     84  C   UNL A   1      45.783  28.663  34.201  1.00  0.00     0.131 A 
ATOM     85  C   UNL A   1      45.683  26.388  35.770  1.00  0.00     0.055 A 
ATOM     86  C   UNL A   1      46.915  28.268  34.915  1.00  0.00     0.041 A 
ATOM     87  F   UNL A   1      45.872  29.786  33.470  1.00  0.00    -0.206 F 
ATOM     88  C   UNL A   1      46.866  27.130  35.712  1.00  0.00     0.022 A 
BRANCH  85  89
ATOM     89  S   UNL A   1      45.560  24.969  36.894  1.00  0.00     0.124 S 
ATOM     90  O   UNL A   1      44.158  25.018  37.293  1.00  0.00    -0.237 OA
ATOM     91  O   UNL A   1      45.940  23.853  36.034  1.00  0.00    -0.237 OA
ATOM     92  O   UNL A   1      46.518  25.286  37.953  1.00  0.00    -0.744 OA
ENDBRANCH  85  89
ENDBRANCH  59  82
ENDBRANCH  33  34
ENDBRANCH  26  28
ENDBRANCH  25  26
ENDBRANCH  24  25
ENDBRANCH   1  24
TORSDOF 18
ENDMDL
MODEL 2
REMARK VINA RESULT:     -11.1      1.831      2.200
REMARK SMILES O=C(OCCOCCOC(=O)c1ccc(-c2c3nc(c(-c4cc(S(=O)(=O)[O-])ccc4F)c4ccc([nH]4)c(-c4cc(S(=O)(=O)[O-])ccc4F)c4nc(c(-c5cc(S(=O)(=O)[O-])ccc5F)c5ccc2[nH]5)C=C4)C=C3)cc1)C1=Cc2c(ccc(Cl)c2Cl)O[C@H]1C(F)(F)F
REMARK SMILES IDX 7 1 6 2 5 3 4 4 3 5 2 6 1 7 75 8 76 9 86 10 77 11 85 12
REMARK SMILES IDX 78 13 83 14 79 15 81 16 84 17 80 18 82 19 87 20 88 21 89 22
REMARK SMILES IDX 90 23 8 24 9 25 10 26 11 27 12 28 13 29 74 30 14 31 73 32
REMARK SMILES IDX 15 33 16 34 17 35 67 36 18 37 72 38 66 39 68 40 19 41 71 42
REMARK SMILES IDX 65 43 64 44 20 46 52 47 32 48 51 49 33 50 36 51 50 52 69 53
REMARK SMILES IDX 34 54 35 55 49 57 70 58 37 59 21 60 22 61 30 62 23 63 29 64
REMARK SMILES IDX 31 65 28 66 24 67 25 68 26 69 27 70 53 71 54 72 62 73 55 74
REMARK SMILES IDX 61 75 63 76 60 77 56 78 57 79 58 80 59 81 38 82 39 83 47 84
REMARK SMILES IDX 40 85 46 86 48 87 45 88 41 89 42 90 43 91 44 92
REMARK H PARENT 68 45 36 56
REMARK Flexibility Score: inf
ROOT
ATOM      1  C   UNL A   1      31.518  29.270  23.787  1.00  0.00     0.202 C 
ENDROOT
BRANCH   1   2
ATOM      2  O   UNL A   1      30.353  28.507  23.485  1.00  0.00    -0.374 OA
BRANCH   2   3
ATOM      3  C   UNL A   1      30.648  27.261  22.853  1.00  0.00     0.202 C 
BRANCH   3   4
ATOM      4  C   UNL A   1      32.136  27.131  22.519  1.00  0.00     0.261 C 
BRANCH   4   5
ATOM      5  O   UNL A   1      32.752  25.964  23.095  1.00  0.00    -0.460 OA
BRANCH   5   6
ATOM      6  C   UNL A   1      33.469  25.898  24.238  1.00  0.00     0.338 C 
ATOM      7  O   UNL A   1      34.018  26.917  24.659  1.00  0.00    -0.246 OA
BRANCH   6   8
ATOM      8  C   UNL A   1      33.510  24.686  25.094  1.00  0.00     0.087 C 
ATOM      9  C   UNL A   1      34.612  24.159  25.637  1.00  0.00     0.029 C 
ATOM     10  C   UNL A   1      32.204  23.921  25.143  1.00  0.00     0.316 C 
ATOM     11  C   UNL A   1      34.747  22.713  25.462  1.00  0.00     0.037 A 
ATOM     12  O   UNL A   1      32.336  22.529  25.577  1.00  0.00    -0.475 OA
ATOM     13  C   UNL A   1      33.572  21.960  25.423  1.00  0.00     0.129 A 
ATOM     14  C   UNL A   1      35.992  22.094  25.223  1.00  0.00     0.070 A 
ATOM     15  C   UNL A   1      33.634  20.585  25.226  1.00  0.00     0.049 A 
ATOM     16  C   UNL A   1      36.044  20.718  24.987  1.00  0.00     0.060 A 
ATOM     17  Cl  UNL A   1      37.441  23.034  25.131  1.00  0.00    -0.082 Cl
ATOM     18  C   UNL A   1      34.868  19.967  25.001  1.00  0.00     0.026 A 
ATOM     19  Cl  UNL A   1      37.525  19.892  24.644  1.00  0.00    -0.083 Cl
BRANCH  10  20
ATOM     20  C   UNL A   1      31.175  24.653  26.045  1.00  0.00     0.430 C 
ATOM     21  F   UNL A   1      30.499  23.827  26.880  1.00  0.00    -0.167 F 
ATOM     22  F   UNL A   1      31.777  25.595  26.813  1.00  0.00    -0.167 F 
ATOM     23  F   UNL A   1      30.229  25.295  25.313  1.00  0.00    -0.167 F 
ENDBRANCH  10  20
ENDBRANCH   6   8
ENDBRANCH   5   6
ENDBRANCH   4   5
ENDBRANCH   3   4
ENDBRANCH   2   3
ENDBRANCH   1   2
BRANCH   1  24
ATOM     24  C   UNL A   1      31.509  29.860  25.202  1.00  0.00     0.261 C 
BRANCH  24  25
ATOM     25  O   UNL A   1      32.842  30.119  25.685  1.00  0.00    -0.460 OA
BRANCH  25  26
ATOM     26  C   UNL A   1      32.955  31.012  26.705  1.00  0.00     0.338 C 
ATOM     27  O   UNL A   1      32.090  31.796  27.073  1.00  0.00    -0.246 OA
BRANCH  26  28
ATOM     28  C   UNL A   1      34.254  30.836  27.421  1.00  0.00     0.060 A 
ATOM     29  C   UNL A   1      34.678  29.535  27.738  1.00  0.00     0.016 A 
ATOM     30  C   UNL A   1      35.077  31.918  27.748  1.00  0.00     0.016 A 
ATOM     31  C   UNL A   1      35.922  29.316  28.352  1.00  0.00     0.010 A 
ATOM     32  C   UNL A   1      36.315  31.699  28.368  1.00  0.00     0.010 A 
ATOM     33  C   UNL A   1      36.751  30.399  28.675  1.00  0.00    -0.014 A 
BRANCH  33  34
ATOM     34  C   UNL A   1      37.993  30.225  29.479  1.00  0.00     0.031 A 
ATOM     35  C   UNL A   1      39.040  29.274  28.968  1.00  0.00     0.074 A 
ATOM     36  C   UNL A   1      38.162  30.822  30.677  1.00  0.00     0.049 A 
ATOM     37  N   UNL A   1      40.121  28.833  29.555  1.00  0.00    -0.248 NA
ATOM     38  C   UNL A   1      38.825  28.740  27.614  1.00  0.00     0.031 C 
ATOM     39  C   UNL A   1      37.251  31.794  31.273  1.00  0.00     0.029 A 
ATOM     40  N   UNL A   1      39.154  30.674  31.622  1.00  0.00    -0.354 N 
ATOM     41  C   UNL A   1      40.710  27.957  28.651  1.00  0.00     0.074 A 
ATOM     42  C   UNL A   1      39.857  27.921  27.482  1.00  0.00     0.031 C 
ATOM     43  C   UNL A   1      37.708  32.135  32.492  1.00  0.00     0.029 A 
ATOM     44  C   UNL A   1      38.920  31.369  32.789  1.00  0.00     0.049 A 
ATOM     45  H   UNL A   1      39.956  30.121  31.476  1.00  0.00     0.167 HD
ATOM     46  C   UNL A   1      41.852  27.240  28.786  1.00  0.00     0.034 A 
ATOM     47  C   UNL A   1      39.577  31.355  33.972  1.00  0.00     0.034 A 
ATOM     48  C   UNL A   1      42.684  27.259  29.961  1.00  0.00     0.049 A 
ATOM     49  C   UNL A   1      40.794  30.462  34.132  1.00  0.00     0.074 A 
ATOM     50  C   UNL A   1      43.880  26.595  30.174  1.00  0.00     0.029 A 
ATOM     51  N   UNL A   1      42.397  27.947  31.132  1.00  0.00    -0.354 N 
ATOM     52  N   UNL A   1      41.368  29.677  33.249  1.00  0.00    -0.248 NA
ATOM     53  C   UNL A   1      41.449  30.448  35.450  1.00  0.00     0.031 C 
ATOM     54  C   UNL A   1      44.265  26.804  31.502  1.00  0.00     0.029 A 
ATOM     55  C   UNL A   1      43.363  27.675  32.089  1.00  0.00     0.049 A 
ATOM     56  H   UNL A   1      41.622  28.538  31.262  1.00  0.00     0.167 HD
ATOM     57  C   UNL A   1      42.464  29.106  33.898  1.00  0.00     0.074 A 
ATOM     58  C   UNL A   1      42.482  29.647  35.239  1.00  0.00     0.031 C 
ATOM     59  C   UNL A   1      43.373  28.216  33.427  1.00  0.00     0.034 A 
BRANCH  46  60
ATOM     60  C   UNL A   1      42.227  26.316  27.657  1.00  0.00     0.023 A 
ATOM     61  C   UNL A   1      41.766  24.991  27.596  1.00  0.00     0.031 A 
ATOM     62  C   UNL A   1      43.075  26.771  26.630  1.00  0.00     0.131 A 
ATOM     63  C   UNL A   1      42.202  24.149  26.563  1.00  0.00     0.055 A 
ATOM     64  C   UNL A   1      43.442  25.951  25.563  1.00  0.00     0.041 A 
ATOM     65  F   UNL A   1      43.567  28.020  26.653  1.00  0.00    -0.206 F 
ATOM     66  C   UNL A   1      43.015  24.628  25.531  1.00  0.00     0.022 A 
BRANCH  63  67
ATOM     67  S   UNL A   1      41.799  22.384  26.656  1.00  0.00     0.124 S 
ATOM     68  O   UNL A   1      40.342  22.419  26.760  1.00  0.00    -0.237 OA
ATOM     69  O   UNL A   1      42.338  21.870  25.402  1.00  0.00    -0.237 OA
ATOM     70  O   UNL A   1      42.491  21.937  27.863  1.00  0.00    -0.744 OA
ENDBRANCH  63  67
ENDBRANCH  46  60
BRANCH  47  71
ATOM     71  C   UNL A   1      39.077  32.138  35.147  1.00  0.00     0.023 A 
ATOM     72  C   UNL A   1      39.524  33.447  35.400  1.00  0.00     0.031 A 
ATOM     73  C   UNL A   1      38.233  31.542  36.103  1.00  0.00     0.131 A 
ATOM     74  C   UNL A   1      39.183  34.087  36.604  1.00  0.00     0.055 A 
ATOM     75  C   UNL A   1      37.841  32.210  37.266  1.00  0.00     0.041 A 
ATOM     76  F   UNL A   1      37.787  30.288  35.931  1.00  0.00    -0.206 F 
ATOM     77  C   UNL A   1      38.332  33.484  37.531  1.00  0.00     0.022 A 
BRANCH  74  78
ATOM     78  S   UNL A   1      39.981  35.669  37.009  1.00  0.00     0.124 S 
ATOM     79  O   UNL A   1      39.676  36.464  35.825  1.00  0.00    -0.237 OA
ATOM     80  O   UNL A   1      39.290  36.051  38.235  1.00  0.00    -0.237 OA
ATOM     81  O   UNL A   1      41.387  35.309  37.174  1.00  0.00    -0.744 OA
ENDBRANCH  74  78
ENDBRANCH  47  71
BRANCH  59  82
ATOM     82  C   UNL A   1      44.499  27.800  34.348  1.00  0.00     0.023 A 
ATOM     83  C   UNL A   1      45.699  28.527  34.431  1.00  0.00     0.031 A 
ATOM     84  C   UNL A   1      44.350  26.676  35.180  1.00  0.00     0.131 A 
ATOM     85  C   UNL A   1      46.716  28.102  35.302  1.00  0.00     0.055 A 
ATOM     86  C   UNL A   1      45.340  26.292  36.086  1.00  0.00     0.041 A 
ATOM     87  F   UNL A   1      43.227  25.940  35.141  1.00  0.00    -0.206 F 
ATOM     88  C   UNL A   1      46.534  27.002  36.145  1.00  0.00     0.022 A 
BRANCH  85  89
ATOM     89  S   UNL A   1      48.310  28.967  35.278  1.00  0.00     0.124 S 
ATOM     90  O   UNL A   1      49.036  28.239  34.243  1.00  0.00    -0.237 OA
ATOM     91  O   UNL A   1      47.921  30.333  34.941  1.00  0.00    -0.237 OA
ATOM     92  O   UNL A   1      48.820  28.789  36.636  1.00  0.00    -0.744 OA
ENDBRANCH  85  89
ENDBRANCH  59  82
ENDBRANCH  33  34
ENDBRANCH  26  28
ENDBRANCH  25  26
ENDBRANCH  24  25
ENDBRANCH   1  24
TORSDOF 18
ENDMDL
MODEL 3
REMARK VINA RESULT:     -11.1      1.966      2.386
REMARK SMILES O=C(OCCOCCOC(=O)c1ccc(-c2c3nc(c(-c4cc(S(=O)(=O)[O-])ccc4F)c4ccc([nH]4)c(-c4cc(S(=O)(=O)[O-])ccc4F)c4nc(c(-c5cc(S(=O)(=O)[O-])ccc5F)c5ccc2[nH]5)C=C4)C=C3)cc1)C1=Cc2c(ccc(Cl)c2Cl)O[C@H]1C(F)(F)F
REMARK SMILES IDX 7 1 6 2 5 3 4 4 3 5 2 6 1 7 75 8 76 9 86 10 77 11 85 12
REMARK SMILES IDX 78 13 83 14 79 15 81 16 84 17 80 18 82 19 87 20 88 21 89 22
REMARK SMILES IDX 90 23 8 24 9 25 10 26 11 27 12 28 13 29 74 30 14 31 73 32
REMARK SMILES IDX 15 33 16 34 17 35 67 36 18 37 72 38 66 39 68 40 19 41 71 42
REMARK SMILES IDX 65 43 64 44 20 46 52 47 32 48 51 49 33 50 36 51 50 52 69 53
REMARK SMILES IDX 34 54 35 55 49 57 70 58 37 59 21 60 22 61 30 62 23 63 29 64
REMARK SMILES IDX 31 65 28 66 24 67 25 68 26 69 27 70 53 71 54 72 62 73 55 74
REMARK SMILES IDX 61 75 63 76 60 77 56 78 57 79 58 80 59 81 38 82 39 83 47 84
REMARK SMILES IDX 40 85 46 86 48 87 45 88 41 89 42 90 43 91 44 92
REMARK H PARENT 68 45 36 56
REMARK Flexibility Score: inf
ROOT
ATOM      1  C   UNL A   1      31.434  29.157  24.229  1.00  0.00     0.202 C 
ENDROOT
BRANCH   1   2
ATOM      2  O   UNL A   1      30.175  29.152  23.563  1.00  0.00    -0.374 OA
BRANCH   2   3
ATOM      3  C   UNL A   1      30.172  28.357  22.377  1.00  0.00     0.202 C 
BRANCH   3   4
ATOM      4  C   UNL A   1      31.375  27.413  22.322  1.00  0.00     0.261 C 
BRANCH   4   5
ATOM      5  O   UNL A   1      31.022  26.026  22.478  1.00  0.00    -0.460 OA
BRANCH   5   6
ATOM      6  C   UNL A   1      31.115  25.280  23.600  1.00  0.00     0.338 C 
ATOM      7  O   UNL A   1      30.159  25.246  24.376  1.00  0.00    -0.246 OA
BRANCH   6   8
ATOM      8  C   UNL A   1      32.261  24.378  23.875  1.00  0.00     0.087 C 
ATOM      9  C   UNL A   1      32.632  23.344  23.113  1.00  0.00     0.029 C 
ATOM     10  C   UNL A   1      32.883  24.570  25.242  1.00  0.00     0.316 C 
ATOM     11  C   UNL A   1      32.882  22.103  23.847  1.00  0.00     0.037 A 
ATOM     12  O   UNL A   1      33.675  23.431  25.710  1.00  0.00    -0.475 OA
ATOM     13  C   UNL A   1      33.386  22.217  25.144  1.00  0.00     0.129 A 
ATOM     14  C   UNL A   1      32.528  20.838  23.335  1.00  0.00     0.070 A 
ATOM     15  C   UNL A   1      33.614  21.075  25.904  1.00  0.00     0.049 A 
ATOM     16  C   UNL A   1      32.723  19.697  24.118  1.00  0.00     0.060 A 
ATOM     17  Cl  UNL A   1      31.775  20.693  21.784  1.00  0.00    -0.082 Cl
ATOM     18  C   UNL A   1      33.275  19.818  25.393  1.00  0.00     0.026 A 
ATOM     19  Cl  UNL A   1      32.277  18.116  23.578  1.00  0.00    -0.083 Cl
BRANCH  10  20
ATOM     20  C   UNL A   1      33.752  25.855  25.272  1.00  0.00     0.430 C 
ATOM     21  F   UNL A   1      33.971  26.393  24.047  1.00  0.00    -0.167 F 
ATOM     22  F   UNL A   1      33.179  26.818  26.035  1.00  0.00    -0.167 F 
ATOM     23  F   UNL A   1      34.981  25.621  25.799  1.00  0.00    -0.167 F 
ENDBRANCH  10  20
ENDBRANCH   6   8
ENDBRANCH   5   6
ENDBRANCH   4   5
ENDBRANCH   3   4
ENDBRANCH   2   3
ENDBRANCH   1   2
BRANCH   1  24
ATOM     24  C   UNL A   1      31.487  30.115  25.425  1.00  0.00     0.261 C 
BRANCH  24  25
ATOM     25  O   UNL A   1      32.774  30.097  26.072  1.00  0.00    -0.460 OA
BRANCH  25  26
ATOM     26  C   UNL A   1      33.046  31.134  26.910  1.00  0.00     0.338 C 
ATOM     27  O   UNL A   1      32.304  32.075  27.152  1.00  0.00    -0.246 OA
BRANCH  26  28
ATOM     28  C   UNL A   1      34.347  30.919  27.611  1.00  0.00     0.060 A 
ATOM     29  C   UNL A   1      34.705  29.614  27.986  1.00  0.00     0.016 A 
ATOM     30  C   UNL A   1      35.237  31.967  27.869  1.00  0.00     0.016 A 
ATOM     31  C   UNL A   1      35.947  29.354  28.588  1.00  0.00     0.010 A 
ATOM     32  C   UNL A   1      36.473  31.708  28.477  1.00  0.00     0.010 A 
ATOM     33  C   UNL A   1      36.841  30.402  28.841  1.00  0.00    -0.014 A 
BRANCH  33  34
ATOM     34  C   UNL A   1      38.088  30.198  29.632  1.00  0.00     0.031 A 
ATOM     35  C   UNL A   1      39.094  29.204  29.121  1.00  0.00     0.074 A 
ATOM     36  C   UNL A   1      38.294  30.806  30.818  1.00  0.00     0.049 A 
ATOM     37  N   UNL A   1      40.168  28.735  29.701  1.00  0.00    -0.248 NA
ATOM     38  C   UNL A   1      38.842  28.658  27.778  1.00  0.00     0.031 C 
ATOM     39  C   UNL A   1      37.425  31.819  31.411  1.00  0.00     0.029 A 
ATOM     40  N   UNL A   1      39.293  30.639  31.752  1.00  0.00    -0.354 N 
ATOM     41  C   UNL A   1      40.714  27.825  28.802  1.00  0.00     0.074 A 
ATOM     42  C   UNL A   1      39.844  27.801  27.646  1.00  0.00     0.031 C 
ATOM     43  C   UNL A   1      37.911  32.162  32.618  1.00  0.00     0.029 A 
ATOM     44  C   UNL A   1      39.100  31.358  32.911  1.00  0.00     0.049 A 
ATOM     45  H   UNL A   1      40.073  30.056  31.604  1.00  0.00     0.167 HD
ATOM     46  C   UNL A   1      41.832  27.072  28.933  1.00  0.00     0.034 A 
ATOM     47  C   UNL A   1      39.772  31.340  34.085  1.00  0.00     0.034 A 
ATOM     48  C   UNL A   1      42.680  27.080  30.097  1.00  0.00     0.049 A 
ATOM     49  C   UNL A   1      40.960  30.408  34.242  1.00  0.00     0.074 A 
ATOM     50  C   UNL A   1      43.856  26.378  30.304  1.00  0.00     0.029 A 
ATOM     51  N   UNL A   1      42.434  27.794  31.260  1.00  0.00    -0.354 N 
ATOM     52  N   UNL A   1      41.494  29.590  33.364  1.00  0.00    -0.248 NA
ATOM     53  C   UNL A   1      41.632  30.391  35.552  1.00  0.00     0.031 C 
ATOM     54  C   UNL A   1      44.267  26.594  31.623  1.00  0.00     0.029 A 
ATOM     55  C   UNL A   1      43.402  27.504  32.208  1.00  0.00     0.049 A 
ATOM     56  H   UNL A   1      41.681  28.414  31.392  1.00  0.00     0.167 HD
ATOM     57  C   UNL A   1      42.578  28.992  34.007  1.00  0.00     0.074 A 
ATOM     58  C   UNL A   1      42.634  29.551  35.339  1.00  0.00     0.031 C 
ATOM     59  C   UNL A   1      43.450  28.064  33.538  1.00  0.00     0.034 A 
BRANCH  46  60
ATOM     60  C   UNL A   1      42.160  26.119  27.813  1.00  0.00     0.023 A 
ATOM     61  C   UNL A   1      41.707  24.789  27.813  1.00  0.00     0.031 A 
ATOM     62  C   UNL A   1      42.952  26.550  26.734  1.00  0.00     0.131 A 
ATOM     63  C   UNL A   1      42.099  23.921  26.784  1.00  0.00     0.055 A 
ATOM     64  C   UNL A   1      43.274  25.702  25.674  1.00  0.00     0.041 A 
ATOM     65  F   UNL A   1      43.434  27.802  26.698  1.00  0.00    -0.206 F 
ATOM     66  C   UNL A   1      42.857  24.376  25.701  1.00  0.00     0.022 A 
BRANCH  63  67
ATOM     67  S   UNL A   1      41.716  22.157  26.947  1.00  0.00     0.124 S 
ATOM     68  O   UNL A   1      40.936  21.911  25.736  1.00  0.00    -0.237 OA
ATOM     69  O   UNL A   1      43.041  21.548  26.987  1.00  0.00    -0.237 OA
ATOM     70  O   UNL A   1      40.958  22.084  28.194  1.00  0.00    -0.744 OA
ENDBRANCH  63  67
ENDBRANCH  46  60
BRANCH  47  71
ATOM     71  C   UNL A   1      39.315  32.157  35.255  1.00  0.00     0.023 A 
ATOM     72  C   UNL A   1      39.850  33.432  35.512  1.00  0.00     0.031 A 
ATOM     73  C   UNL A   1      38.422  31.623  36.202  1.00  0.00     0.131 A 
ATOM     74  C   UNL A   1      39.542  34.096  36.712  1.00  0.00     0.055 A 
ATOM     75  C   UNL A   1      38.065  32.318  37.360  1.00  0.00     0.041 A 
ATOM     76  F   UNL A   1      37.890  30.403  36.025  1.00  0.00    -0.206 F 
ATOM     77  C   UNL A   1      38.641  33.554  37.630  1.00  0.00     0.022 A 
BRANCH  74  78
ATOM     78  S   UNL A   1      40.444  35.618  37.125  1.00  0.00     0.124 S 
ATOM     79  O   UNL A   1      39.649  36.628  36.436  1.00  0.00    -0.237 OA
ATOM     80  O   UNL A   1      40.371  35.628  38.582  1.00  0.00    -0.237 OA
ATOM     81  O   UNL A   1      41.776  35.386  36.570  1.00  0.00    -0.744 OA
ENDBRANCH  74  78
ENDBRANCH  47  71
BRANCH  59  82
ATOM     82  C   UNL A   1      44.573  27.624  34.450  1.00  0.00     0.023 A 
ATOM     83  C   UNL A   1      44.463  26.489  35.273  1.00  0.00     0.031 A 
ATOM     84  C   UNL A   1      45.787  28.334  34.468  1.00  0.00     0.131 A 
ATOM     85  C   UNL A   1      45.534  26.119  36.103  1.00  0.00     0.055 A 
ATOM     86  C   UNL A   1      46.869  27.928  35.250  1.00  0.00     0.041 A 
ATOM     87  F   UNL A   1      45.950  29.429  33.705  1.00  0.00    -0.206 F 
ATOM     88  C   UNL A   1      46.743  26.820  36.080  1.00  0.00     0.022 A 
BRANCH  85  89
ATOM     89  S   UNL A   1      45.308  24.745  37.266  1.00  0.00     0.124 S 
ATOM     90  O   UNL A   1      44.034  25.081  37.891  1.00  0.00    -0.237 OA
ATOM     91  O   UNL A   1      45.297  23.584  36.381  1.00  0.00    -0.237 OA
ATOM     92  O   UNL A   1      46.474  24.841  38.142  1.00  0.00    -0.744 OA
ENDBRANCH  85  89
ENDBRANCH  59  82
ENDBRANCH  33  34
ENDBRANCH  26  28
ENDBRANCH  25  26
ENDBRANCH  24  25
ENDBRANCH   1  24
TORSDOF 18
ENDMDL
