MODEL 1
REMARK VINA RESULT:     -10.8      0.000      0.000
REMARK SMILES N#C/C(=C\c1ccc(Oc2ccccc2)cc1Cl)C(=O)OCCOCCOC(=O)c1ccc(-c2c3nc(c(-c4cc(S(=O)(=O)[O-])ccc4F)c4ccc([nH]4)c(-c4cc(S(=O)(=O)[O-])ccc4F)c4nc(c(-c5cc(S(=O)(=O)[O-])ccc5F)c5ccc2[nH]5)C=C4)C=C3)cc1
REMARK SMILES IDX 24 1 23 2 22 3 21 4 19 5 20 6 3 7 4 8 2 9 1 10 5 11 6 12
REMARK SMILES IDX 17 13 7 14 16 15 18 16 8 17 9 18 10 19 11 20 15 21 12 22
REMARK SMILES IDX 14 23 13 24 25 25 26 26 27 27 28 28 29 29 30 30 31 31 92 32
REMARK SMILES IDX 32 33 91 34 33 35 34 36 35 37 85 38 36 39 90 40 84 41 86 42
REMARK SMILES IDX 37 43 89 44 83 45 82 46 38 48 70 49 50 50 69 51 51 52 54 53
REMARK SMILES IDX 68 54 87 55 52 56 53 57 67 59 88 60 55 61 39 62 40 63 48 64
REMARK SMILES IDX 41 65 47 66 49 67 46 68 42 69 43 70 44 71 45 72 71 73 72 74
REMARK SMILES IDX 80 75 73 76 79 77 81 78 78 79 74 80 75 81 76 82 77 83 56 84
REMARK SMILES IDX 57 85 65 86 58 87 64 88 66 89 63 90 59 91 60 92 61 93 62 94
REMARK H PARENT 86 47 54 58
REMARK Flexibility Score: inf
ROOT
ATOM      1  O   UNL A   1      31.580  30.671  26.665  1.00  0.00    -0.374 OA
ENDROOT
BRANCH   1   2
ATOM      2  C   UNL A   1      31.507  29.777  25.555  1.00  0.00     0.202 C 
BRANCH   2   3
ATOM      3  C   UNL A   1      31.604  28.276  25.833  1.00  0.00     0.261 C 
BRANCH   3   4
ATOM      4  O   UNL A   1      32.520  27.639  24.929  1.00  0.00    -0.459 OA
BRANCH   4   5
ATOM      5  C   UNL A   1      33.644  27.172  25.522  1.00  0.00     0.348 C 
ATOM      6  O   UNL A   1      34.337  27.775  26.330  1.00  0.00    -0.245 OA
BRANCH   5   7
ATOM      7  C   UNL A   1      33.901  25.761  25.174  1.00  0.00     0.138 C 
ATOM      8  C   UNL A   1      33.862  24.772  26.092  1.00  0.00     0.036 C 
BRANCH   7   9
ATOM      9  C   UNL A   1      33.816  25.468  23.685  1.00  0.00     0.107 C 
ATOM     10  N   UNL A   1      33.745  25.226  22.449  1.00  0.00    -0.192 NA
ENDBRANCH   7   9
BRANCH   8  11
ATOM     11  C   UNL A   1      33.587  23.369  25.700  1.00  0.00    -0.005 A 
ATOM     12  C   UNL A   1      32.243  22.964  25.743  1.00  0.00     0.013 A 
ATOM     13  C   UNL A   1      34.530  22.482  25.153  1.00  0.00     0.052 A 
ATOM     14  C   UNL A   1      31.848  21.741  25.194  1.00  0.00     0.048 A 
ATOM     15  C   UNL A   1      34.119  21.286  24.547  1.00  0.00     0.068 A 
ATOM     16  Cl  UNL A   1      36.226  22.826  25.182  1.00  0.00    -0.084 Cl
ATOM     17  C   UNL A   1      32.776  20.906  24.567  1.00  0.00     0.128 A 
BRANCH  17  18
ATOM     18  O   UNL A   1      32.232  19.769  24.007  1.00  0.00    -0.457 OA
BRANCH  18  19
ATOM     19  C   UNL A   1      32.790  18.542  24.263  1.00  0.00     0.127 A 
ATOM     20  C   UNL A   1      33.405  17.876  23.201  1.00  0.00     0.047 A 
ATOM     21  C   UNL A   1      32.659  17.912  25.502  1.00  0.00     0.047 A 
ATOM     22  C   UNL A   1      33.953  16.607  23.398  1.00  0.00     0.004 A 
ATOM     23  C   UNL A   1      33.231  16.656  25.705  1.00  0.00     0.004 A 
ATOM     24  C   UNL A   1      33.880  16.006  24.655  1.00  0.00     0.000 A 
ENDBRANCH  18  19
ENDBRANCH  17  18
ENDBRANCH   8  11
ENDBRANCH   5   7
ENDBRANCH   4   5
ENDBRANCH   3   4
ENDBRANCH   2   3
ENDBRANCH   1   2
BRANCH   1  25
ATOM     25  C   UNL A   1      32.415  31.820  26.587  1.00  0.00     0.202 C 
BRANCH  25  26
ATOM     26  C   UNL A   1      31.982  33.123  27.274  1.00  0.00     0.261 C 
BRANCH  26  27
ATOM     27  O   UNL A   1      33.031  34.091  27.425  1.00  0.00    -0.460 OA
BRANCH  27  28
ATOM     28  C   UNL A   1      33.388  34.315  28.717  1.00  0.00     0.338 C 
ATOM     29  O   UNL A   1      32.747  34.934  29.556  1.00  0.00    -0.246 OA
BRANCH  28  30
ATOM     30  C   UNL A   1      34.597  33.546  29.059  1.00  0.00     0.060 A 
ATOM     31  C   UNL A   1      34.423  32.351  29.770  1.00  0.00     0.016 A 
ATOM     32  C   UNL A   1      35.876  34.028  28.781  1.00  0.00     0.016 A 
ATOM     33  C   UNL A   1      35.529  31.650  30.241  1.00  0.00     0.010 A 
ATOM     34  C   UNL A   1      36.988  33.332  29.268  1.00  0.00     0.010 A 
ATOM     35  C   UNL A   1      36.818  32.159  30.028  1.00  0.00    -0.014 A 
BRANCH  35  36
ATOM     36  C   UNL A   1      37.965  31.542  30.738  1.00  0.00     0.031 A 
ATOM     37  C   UNL A   1      38.781  30.497  30.026  1.00  0.00     0.074 A 
ATOM     38  C   UNL A   1      38.296  31.937  31.981  1.00  0.00     0.049 A 
ATOM     39  N   UNL A   1      39.810  29.813  30.456  1.00  0.00    -0.248 NA
ATOM     40  C   UNL A   1      38.380  30.182  28.646  1.00  0.00     0.031 C 
ATOM     41  C   UNL A   1      37.610  32.977  32.745  1.00  0.00     0.029 A 
ATOM     42  N   UNL A   1      39.295  31.507  32.817  1.00  0.00    -0.354 N 
ATOM     43  C   UNL A   1      40.177  28.982  29.403  1.00  0.00     0.074 A 
ATOM     44  C   UNL A   1      39.239  29.227  28.326  1.00  0.00     0.031 C 
ATOM     45  C   UNL A   1      38.206  33.099  33.945  1.00  0.00     0.029 A 
ATOM     46  C   UNL A   1      39.290  32.124  34.046  1.00  0.00     0.049 A 
ATOM     47  H   UNL A   1      39.953  30.821  32.562  1.00  0.00     0.167 HD
ATOM     48  C   UNL A   1      41.205  28.099  29.338  1.00  0.00     0.034 A 
ATOM     49  C   UNL A   1      40.058  31.909  35.133  1.00  0.00     0.034 A 
ATOM     50  C   UNL A   1      42.128  27.863  30.421  1.00  0.00     0.049 A 
ATOM     51  C   UNL A   1      41.141  30.858  35.066  1.00  0.00     0.074 A 
ATOM     52  C   UNL A   1      43.221  27.016  30.452  1.00  0.00     0.029 A 
ATOM     53  N   UNL A   1      42.058  28.466  31.670  1.00  0.00    -0.354 N 
ATOM     54  N   UNL A   1      41.489  30.091  34.058  1.00  0.00    -0.248 NA
ATOM     55  C   UNL A   1      41.939  30.650  36.282  1.00  0.00     0.031 C 
ATOM     56  C   UNL A   1      43.767  27.050  31.741  1.00  0.00     0.029 A 
ATOM     57  C   UNL A   1      43.063  27.979  32.492  1.00  0.00     0.049 A 
ATOM     58  H   UNL A   1      41.393  29.142  31.934  1.00  0.00     0.167 HD
ATOM     59  C   UNL A   1      42.569  29.335  34.511  1.00  0.00     0.074 A 
ATOM     60  C   UNL A   1      42.819  29.747  35.876  1.00  0.00     0.031 C 
ATOM     61  C   UNL A   1      43.294  28.393  33.855  1.00  0.00     0.034 A 
BRANCH  48  62
ATOM     62  C   UNL A   1      41.343  27.284  28.075  1.00  0.00     0.023 A 
ATOM     63  C   UNL A   1      40.969  25.931  28.019  1.00  0.00     0.031 A 
ATOM     64  C   UNL A   1      41.879  27.870  26.915  1.00  0.00     0.131 A 
ATOM     65  C   UNL A   1      41.196  25.191  26.847  1.00  0.00     0.055 A 
ATOM     66  C   UNL A   1      42.034  27.148  25.730  1.00  0.00     0.041 A 
ATOM     67  F   UNL A   1      42.275  29.152  26.917  1.00  0.00    -0.206 F 
ATOM     68  C   UNL A   1      41.703  25.796  25.695  1.00  0.00     0.022 A 
BRANCH  65  69
ATOM     69  S   UNL A   1      40.939  23.396  26.889  1.00  0.00     0.124 S 
ATOM     70  O   UNL A   1      41.978  22.927  25.975  1.00  0.00    -0.237 OA
ATOM     71  O   UNL A   1      41.139  23.082  28.299  1.00  0.00    -0.237 OA
ATOM     72  O   UNL A   1      39.571  23.233  26.401  1.00  0.00    -0.744 OA
ENDBRANCH  65  69
ENDBRANCH  48  62
BRANCH  49  73
ATOM     73  C   UNL A   1      39.817  32.665  36.395  1.00  0.00     0.023 A 
ATOM     74  C   UNL A   1      38.877  32.220  37.339  1.00  0.00     0.031 A 
ATOM     75  C   UNL A   1      40.476  33.882  36.644  1.00  0.00     0.131 A 
ATOM     76  C   UNL A   1      38.585  33.010  38.461  1.00  0.00     0.055 A 
ATOM     77  C   UNL A   1      40.220  34.639  37.789  1.00  0.00     0.041 A 
ATOM     78  F   UNL A   1      41.383  34.353  35.775  1.00  0.00    -0.206 F 
ATOM     79  C   UNL A   1      39.259  34.211  38.698  1.00  0.00     0.022 A 
BRANCH  76  80
ATOM     80  S   UNL A   1      37.241  32.492  39.564  1.00  0.00     0.124 S 
ATOM     81  O   UNL A   1      36.073  32.660  38.706  1.00  0.00    -0.237 OA
ATOM     82  O   UNL A   1      37.619  31.117  39.872  1.00  0.00    -0.237 OA
ATOM     83  O   UNL A   1      37.337  33.429  40.681  1.00  0.00    -0.744 OA
ENDBRANCH  76  80
ENDBRANCH  49  73
BRANCH  61  84
ATOM     84  C   UNL A   1      44.458  27.783  34.599  1.00  0.00     0.023 A 
ATOM     85  C   UNL A   1      44.353  26.541  35.248  1.00  0.00     0.031 A 
ATOM     86  C   UNL A   1      45.686  28.464  34.666  1.00  0.00     0.131 A 
ATOM     87  C   UNL A   1      45.441  26.043  35.983  1.00  0.00     0.055 A 
ATOM     88  C   UNL A   1      46.783  27.937  35.349  1.00  0.00     0.041 A 
ATOM     89  F   UNL A   1      45.840  29.655  34.065  1.00  0.00    -0.206 F 
ATOM     90  C   UNL A   1      46.660  26.725  36.023  1.00  0.00     0.022 A 
BRANCH  87  91
ATOM     91  S   UNL A   1      45.215  24.532  36.960  1.00  0.00     0.124 S 
ATOM     92  O   UNL A   1      44.950  25.068  38.291  1.00  0.00    -0.237 OA
ATOM     93  O   UNL A   1      44.083  23.895  36.294  1.00  0.00    -0.237 OA
ATOM     94  O   UNL A   1      46.490  23.834  36.814  1.00  0.00    -0.744 OA
ENDBRANCH  87  91
ENDBRANCH  61  84
ENDBRANCH  35  36
ENDBRANCH  28  30
ENDBRANCH  27  28
ENDBRANCH  26  27
ENDBRANCH  25  26
ENDBRANCH   1  25
TORSDOF 21
ENDMDL
MODEL 2
REMARK VINA RESULT:     -10.6      2.004      7.647
REMARK SMILES N#C/C(=C\c1ccc(Oc2ccccc2)cc1Cl)C(=O)OCCOCCOC(=O)c1ccc(-c2c3nc(c(-c4cc(S(=O)(=O)[O-])ccc4F)c4ccc([nH]4)c(-c4cc(S(=O)(=O)[O-])ccc4F)c4nc(c(-c5cc(S(=O)(=O)[O-])ccc5F)c5ccc2[nH]5)C=C4)C=C3)cc1
REMARK SMILES IDX 24 1 23 2 22 3 21 4 19 5 20 6 3 7 4 8 2 9 1 10 5 11 6 12
REMARK SMILES IDX 17 13 7 14 16 15 18 16 8 17 9 18 10 19 11 20 15 21 12 22
REMARK SMILES IDX 14 23 13 24 25 25 26 26 27 27 28 28 29 29 30 30 31 31 92 32
REMARK SMILES IDX 32 33 91 34 33 35 34 36 35 37 85 38 36 39 90 40 84 41 86 42
REMARK SMILES IDX 37 43 89 44 83 45 82 46 38 48 70 49 50 50 69 51 51 52 54 53
REMARK SMILES IDX 68 54 87 55 52 56 53 57 67 59 88 60 55 61 39 62 40 63 48 64
REMARK SMILES IDX 41 65 47 66 49 67 46 68 42 69 43 70 44 71 45 72 71 73 72 74
REMARK SMILES IDX 80 75 73 76 79 77 81 78 78 79 74 80 75 81 76 82 77 83 56 84
REMARK SMILES IDX 57 85 65 86 58 87 64 88 66 89 63 90 59 91 60 92 61 93 62 94
REMARK H PARENT 86 47 54 58
REMARK Flexibility Score: inf
ROOT
ATOM      1  O   UNL A   1      32.291  30.830  26.444  1.00  0.00    -0.374 OA
ENDROOT
BRANCH   1   2
ATOM      2  C   UNL A   1      31.960  29.526  26.921  1.00  0.00     0.202 C 
BRANCH   2   3
ATOM      3  C   UNL A   1      31.882  28.387  25.902  1.00  0.00     0.261 C 
BRANCH   3   4
ATOM      4  O   UNL A   1      33.128  27.676  25.824  1.00  0.00    -0.459 OA
BRANCH   4   5
ATOM      5  C   UNL A   1      33.561  27.462  24.559  1.00  0.00     0.348 C 
ATOM      6  O   UNL A   1      33.818  28.324  23.730  1.00  0.00    -0.245 OA
BRANCH   5   7
ATOM      7  C   UNL A   1      33.819  26.032  24.304  1.00  0.00     0.138 C 
ATOM      8  C   UNL A   1      33.809  25.109  25.288  1.00  0.00     0.036 C 
BRANCH   7   9
ATOM      9  C   UNL A   1      33.699  25.636  22.841  1.00  0.00     0.107 C 
ATOM     10  N   UNL A   1      33.600  25.309  21.627  1.00  0.00    -0.192 NA
ENDBRANCH   7   9
BRANCH   8  11
ATOM     11  C   UNL A   1      33.535  23.681  25.001  1.00  0.00    -0.005 A 
ATOM     12  C   UNL A   1      32.206  23.258  25.169  1.00  0.00     0.013 A 
ATOM     13  C   UNL A   1      34.452  22.777  24.438  1.00  0.00     0.052 A 
ATOM     14  C   UNL A   1      31.796  21.997  24.724  1.00  0.00     0.048 A 
ATOM     15  C   UNL A   1      34.022  21.540  23.937  1.00  0.00     0.068 A 
ATOM     16  Cl  UNL A   1      36.139  23.148  24.321  1.00  0.00    -0.084 Cl
ATOM     17  C   UNL A   1      32.692  21.141  24.079  1.00  0.00     0.128 A 
BRANCH  17  18
ATOM     18  O   UNL A   1      32.131  19.964  23.629  1.00  0.00    -0.457 OA
BRANCH  18  19
ATOM     19  C   UNL A   1      32.668  18.759  24.005  1.00  0.00     0.127 A 
ATOM     20  C   UNL A   1      33.196  17.944  23.001  1.00  0.00     0.047 A 
ATOM     21  C   UNL A   1      32.597  18.293  25.318  1.00  0.00     0.047 A 
ATOM     22  C   UNL A   1      33.718  16.691  23.324  1.00  0.00     0.004 A 
ATOM     23  C   UNL A   1      33.145  17.052  25.645  1.00  0.00     0.004 A 
ATOM     24  C   UNL A   1      33.707  16.253  24.649  1.00  0.00     0.000 A 
ENDBRANCH  18  19
ENDBRANCH  17  18
ENDBRANCH   8  11
ENDBRANCH   5   7
ENDBRANCH   4   5
ENDBRANCH   3   4
ENDBRANCH   2   3
ENDBRANCH   1   2
BRANCH   1  25
ATOM     25  C   UNL A   1      31.364  31.896  26.616  1.00  0.00     0.202 C 
BRANCH  25  26
ATOM     26  C   UNL A   1      31.859  33.259  27.120  1.00  0.00     0.261 C 
BRANCH  26  27
ATOM     27  O   UNL A   1      33.235  33.278  27.527  1.00  0.00    -0.460 OA
BRANCH  27  28
ATOM     28  C   UNL A   1      33.509  34.196  28.491  1.00  0.00     0.338 C 
ATOM     29  O   UNL A   1      32.889  35.227  28.716  1.00  0.00    -0.246 OA
BRANCH  28  30
ATOM     30  C   UNL A   1      34.568  33.703  29.387  1.00  0.00     0.060 A 
ATOM     31  C   UNL A   1      35.872  34.164  29.162  1.00  0.00     0.016 A 
ATOM     32  C   UNL A   1      34.314  32.737  30.361  1.00  0.00     0.016 A 
ATOM     33  C   UNL A   1      36.936  33.632  29.884  1.00  0.00     0.010 A 
ATOM     34  C   UNL A   1      35.386  32.191  31.076  1.00  0.00     0.010 A 
ATOM     35  C   UNL A   1      36.704  32.612  30.817  1.00  0.00    -0.014 A 
BRANCH  35  36
ATOM     36  C   UNL A   1      37.860  31.887  31.398  1.00  0.00     0.031 A 
ATOM     37  C   UNL A   1      38.369  32.301  32.753  1.00  0.00     0.074 A 
ATOM     38  C   UNL A   1      38.420  30.852  30.746  1.00  0.00     0.049 A 
ATOM     39  N   UNL A   1      39.373  31.825  33.443  1.00  0.00    -0.248 NA
ATOM     40  C   UNL A   1      37.648  33.399  33.414  1.00  0.00     0.031 C 
ATOM     41  C   UNL A   1      37.977  30.331  29.454  1.00  0.00     0.029 A 
ATOM     42  N   UNL A   1      39.484  30.055  31.084  1.00  0.00    -0.354 N 
ATOM     43  C   UNL A   1      39.411  32.569  34.617  1.00  0.00     0.074 A 
ATOM     44  C   UNL A   1      38.346  33.547  34.530  1.00  0.00     0.031 C 
ATOM     45  C   UNL A   1      38.770  29.302  29.104  1.00  0.00     0.029 A 
ATOM     46  C   UNL A   1      39.797  29.117  30.128  1.00  0.00     0.049 A 
ATOM     47  H   UNL A   1      39.978  30.146  31.930  1.00  0.00     0.167 HD
ATOM     48  C   UNL A   1      40.252  32.442  35.674  1.00  0.00     0.034 A 
ATOM     49  C   UNL A   1      40.808  28.227  30.077  1.00  0.00     0.034 A 
ATOM     50  C   UNL A   1      41.310  31.465  35.744  1.00  0.00     0.049 A 
ATOM     51  C   UNL A   1      41.785  28.165  31.228  1.00  0.00     0.074 A 
ATOM     52  C   UNL A   1      42.199  31.231  36.777  1.00  0.00     0.029 A 
ATOM     53  N   UNL A   1      41.631  30.568  34.734  1.00  0.00    -0.354 N 
ATOM     54  N   UNL A   1      41.799  28.862  32.340  1.00  0.00    -0.248 NA
ATOM     55  C   UNL A   1      42.880  27.190  31.116  1.00  0.00     0.031 C 
ATOM     56  C   UNL A   1      43.103  30.245  36.364  1.00  0.00     0.029 A 
ATOM     57  C   UNL A   1      42.730  29.808  35.102  1.00  0.00     0.049 A 
ATOM     58  H   UNL A   1      41.149  30.484  33.880  1.00  0.00     0.167 HD
ATOM     59  C   UNL A   1      42.882  28.384  33.075  1.00  0.00     0.074 A 
ATOM     60  C   UNL A   1      43.489  27.334  32.283  1.00  0.00     0.031 C 
ATOM     61  C   UNL A   1      43.330  28.770  34.297  1.00  0.00     0.034 A 
BRANCH  48  62
ATOM     62  C   UNL A   1      40.094  33.426  36.808  1.00  0.00     0.023 A 
ATOM     63  C   UNL A   1      40.962  34.520  36.970  1.00  0.00     0.031 A 
ATOM     64  C   UNL A   1      39.071  33.250  37.756  1.00  0.00     0.131 A 
ATOM     65  C   UNL A   1      40.829  35.358  38.088  1.00  0.00     0.055 A 
ATOM     66  C   UNL A   1      38.898  34.130  38.825  1.00  0.00     0.041 A 
ATOM     67  F   UNL A   1      38.228  32.210  37.665  1.00  0.00    -0.206 F 
ATOM     68  C   UNL A   1      39.789  35.185  39.004  1.00  0.00     0.022 A 
BRANCH  65  69
ATOM     69  S   UNL A   1      42.113  36.601  38.401  1.00  0.00     0.124 S 
ATOM     70  O   UNL A   1      42.462  37.014  37.044  1.00  0.00    -0.237 OA
ATOM     71  O   UNL A   1      41.407  37.587  39.208  1.00  0.00    -0.237 OA
ATOM     72  O   UNL A   1      43.154  35.849  39.102  1.00  0.00    -0.744 OA
ENDBRANCH  65  69
ENDBRANCH  48  62
BRANCH  49  73
ATOM     73  C   UNL A   1      40.987  27.346  28.887  1.00  0.00     0.023 A 
ATOM     74  C   UNL A   1      41.968  27.622  27.921  1.00  0.00     0.031 A 
ATOM     75  C   UNL A   1      40.130  26.253  28.665  1.00  0.00     0.131 A 
ATOM     76  C   UNL A   1      42.037  26.846  26.754  1.00  0.00     0.055 A 
ATOM     77  C   UNL A   1      40.237  25.452  27.526  1.00  0.00     0.041 A 
ATOM     78  F   UNL A   1      39.175  25.945  29.555  1.00  0.00    -0.206 F 
ATOM     79  C   UNL A   1      41.186  25.756  26.556  1.00  0.00     0.022 A 
BRANCH  76  80
ATOM     80  S   UNL A   1      43.198  27.340  25.450  1.00  0.00     0.124 S 
ATOM     81  O   UNL A   1      44.185  28.102  26.206  1.00  0.00    -0.237 OA
ATOM     82  O   UNL A   1      43.639  26.048  24.936  1.00  0.00    -0.237 OA
ATOM     83  O   UNL A   1      42.369  28.123  24.535  1.00  0.00    -0.744 OA
ENDBRANCH  76  80
ENDBRANCH  49  73
BRANCH  61  84
ATOM     84  C   UNL A   1      44.505  28.014  34.867  1.00  0.00     0.023 A 
ATOM     85  C   UNL A   1      44.334  26.920  35.733  1.00  0.00     0.031 A 
ATOM     86  C   UNL A   1      45.818  28.405  34.546  1.00  0.00     0.131 A 
ATOM     87  C   UNL A   1      45.457  26.289  36.291  1.00  0.00     0.055 A 
ATOM     88  C   UNL A   1      46.930  27.737  35.057  1.00  0.00     0.041 A 
ATOM     89  F   UNL A   1      46.038  29.445  33.725  1.00  0.00    -0.206 F 
ATOM     90  C   UNL A   1      46.753  26.680  35.945  1.00  0.00     0.022 A 
BRANCH  87  91
ATOM     91  S   UNL A   1      45.201  25.003  37.545  1.00  0.00     0.124 S 
ATOM     92  O   UNL A   1      46.208  25.349  38.543  1.00  0.00    -0.237 OA
ATOM     93  O   UNL A   1      43.813  25.223  37.938  1.00  0.00    -0.237 OA
ATOM     94  O   UNL A   1      45.449  23.760  36.818  1.00  0.00    -0.744 OA
ENDBRANCH  87  91
ENDBRANCH  61  84
ENDBRANCH  35  36
ENDBRANCH  28  30
ENDBRANCH  27  28
ENDBRANCH  26  27
ENDBRANCH  25  26
ENDBRANCH   1  25
TORSDOF 21
ENDMDL
MODEL 3
REMARK VINA RESULT:     -10.6      1.593      7.547
REMARK SMILES N#C/C(=C\c1ccc(Oc2ccccc2)cc1Cl)C(=O)OCCOCCOC(=O)c1ccc(-c2c3nc(c(-c4cc(S(=O)(=O)[O-])ccc4F)c4ccc([nH]4)c(-c4cc(S(=O)(=O)[O-])ccc4F)c4nc(c(-c5cc(S(=O)(=O)[O-])ccc5F)c5ccc2[nH]5)C=C4)C=C3)cc1
REMARK SMILES IDX 24 1 23 2 22 3 21 4 19 5 20 6 3 7 4 8 2 9 1 10 5 11 6 12
REMARK SMILES IDX 17 13 7 14 16 15 18 16 8 17 9 18 10 19 11 20 15 21 12 22
REMARK SMILES IDX 14 23 13 24 25 25 26 26 27 27 28 28 29 29 30 30 31 31 92 32
REMARK SMILES IDX 32 33 91 34 33 35 34 36 35 37 85 38 36 39 90 40 84 41 86 42
REMARK SMILES IDX 37 43 89 44 83 45 82 46 38 48 70 49 50 50 69 51 51 52 54 53
REMARK SMILES IDX 68 54 87 55 52 56 53 57 67 59 88 60 55 61 39 62 40 63 48 64
REMARK SMILES IDX 41 65 47 66 49 67 46 68 42 69 43 70 44 71 45 72 71 73 72 74
REMARK SMILES IDX 80 75 73 76 79 77 81 78 78 79 74 80 75 81 76 82 77 83 56 84
REMARK SMILES IDX 57 85 65 86 58 87 64 88 66 89 63 90 59 91 60 92 61 93 62 94
REMARK H PARENT 86 47 54 58
REMARK Flexibility Score: inf
ROOT
ATOM      1  O   UNL A   1      31.396  30.796  25.737  1.00  0.00    -0.374 OA
ENDROOT
BRANCH   1   2
ATOM      2  C   UNL A   1      32.676  30.240  26.036  1.00  0.00     0.202 C 
BRANCH   2   3
ATOM      3  C   UNL A   1      32.736  29.052  26.998  1.00  0.00     0.261 C 
BRANCH   3   4
ATOM      4  O   UNL A   1      33.122  27.850  26.312  1.00  0.00    -0.459 OA
BRANCH   4   5
ATOM      5  C   UNL A   1      32.227  26.840  26.423  1.00  0.00     0.348 C 
ATOM      6  O   UNL A   1      31.071  26.941  26.810  1.00  0.00    -0.245 OA
BRANCH   5   7
ATOM      7  C   UNL A   1      32.766  25.570  25.898  1.00  0.00     0.138 C 
ATOM      8  C   UNL A   1      32.906  24.472  26.669  1.00  0.00     0.036 C 
BRANCH   7   9
ATOM      9  C   UNL A   1      32.772  25.484  24.380  1.00  0.00     0.107 C 
ATOM     10  N   UNL A   1      32.777  25.413  23.121  1.00  0.00    -0.192 NA
ENDBRANCH   7   9
BRANCH   8  11
ATOM     11  C   UNL A   1      32.924  23.113  26.076  1.00  0.00    -0.005 A 
ATOM     12  C   UNL A   1      31.673  22.543  25.791  1.00  0.00     0.013 A 
ATOM     13  C   UNL A   1      34.076  22.434  25.644  1.00  0.00     0.052 A 
ATOM     14  C   UNL A   1      31.577  21.368  25.040  1.00  0.00     0.048 A 
ATOM     15  C   UNL A   1      33.972  21.291  24.837  1.00  0.00     0.068 A 
ATOM     16  Cl  UNL A   1      35.664  22.977  26.066  1.00  0.00    -0.084 Cl
ATOM     17  C   UNL A   1      32.722  20.749  24.533  1.00  0.00     0.128 A 
BRANCH  17  18
ATOM     18  O   UNL A   1      32.472  19.642  23.749  1.00  0.00    -0.457 OA
BRANCH  18  19
ATOM     19  C   UNL A   1      32.908  18.404  24.149  1.00  0.00     0.127 A 
ATOM     20  C   UNL A   1      33.469  17.571  23.178  1.00  0.00     0.047 A 
ATOM     21  C   UNL A   1      32.705  17.929  25.445  1.00  0.00     0.047 A 
ATOM     22  C   UNL A   1      33.892  16.287  23.522  1.00  0.00     0.004 A 
ATOM     23  C   UNL A   1      33.154  16.656  25.796  1.00  0.00     0.004 A 
ATOM     24  C   UNL A   1      33.750  15.836  24.836  1.00  0.00     0.000 A 
ENDBRANCH  18  19
ENDBRANCH  17  18
ENDBRANCH   8  11
ENDBRANCH   5   7
ENDBRANCH   4   5
ENDBRANCH   3   4
ENDBRANCH   2   3
ENDBRANCH   1   2
BRANCH   1  25
ATOM     25  C   UNL A   1      30.954  31.954  26.435  1.00  0.00     0.202 C 
BRANCH  25  26
ATOM     26  C   UNL A   1      31.941  33.097  26.715  1.00  0.00     0.261 C 
BRANCH  26  27
ATOM     27  O   UNL A   1      32.746  32.911  27.889  1.00  0.00    -0.460 OA
BRANCH  27  28
ATOM     28  C   UNL A   1      33.839  33.717  27.936  1.00  0.00     0.338 C 
ATOM     29  O   UNL A   1      33.852  34.938  27.861  1.00  0.00    -0.246 OA
BRANCH  28  30
ATOM     30  C   UNL A   1      35.040  32.937  28.284  1.00  0.00     0.060 A 
ATOM     31  C   UNL A   1      34.848  31.639  28.773  1.00  0.00     0.016 A 
ATOM     32  C   UNL A   1      36.318  33.494  28.227  1.00  0.00     0.016 A 
ATOM     33  C   UNL A   1      35.930  30.903  29.246  1.00  0.00     0.010 A 
ATOM     34  C   UNL A   1      37.404  32.760  28.717  1.00  0.00     0.010 A 
ATOM     35  C   UNL A   1      37.209  31.475  29.259  1.00  0.00    -0.014 A 
BRANCH  35  36
ATOM     36  C   UNL A   1      38.304  30.784  29.984  1.00  0.00     0.031 A 
ATOM     37  C   UNL A   1      38.495  31.068  31.450  1.00  0.00     0.074 A 
ATOM     38  C   UNL A   1      39.088  29.891  29.354  1.00  0.00     0.049 A 
ATOM     39  N   UNL A   1      39.394  30.597  32.276  1.00  0.00    -0.248 NA
ATOM     40  C   UNL A   1      37.545  32.010  32.062  1.00  0.00     0.031 C 
ATOM     41  C   UNL A   1      38.960  29.499  27.951  1.00  0.00     0.029 A 
ATOM     42  N   UNL A   1      40.148  29.152  29.816  1.00  0.00    -0.354 N 
ATOM     43  C   UNL A   1      39.123  31.189  33.505  1.00  0.00     0.074 A 
ATOM     44  C   UNL A   1      37.995  32.076  33.306  1.00  0.00     0.031 C 
ATOM     45  C   UNL A   1      39.913  28.594  27.664  1.00  0.00     0.029 A 
ATOM     46  C   UNL A   1      40.738  28.371  28.850  1.00  0.00     0.049 A 
ATOM     47  H   UNL A   1      40.456  29.178  30.749  1.00  0.00     0.167 HD
ATOM     48  C   UNL A   1      39.754  31.004  34.691  1.00  0.00     0.034 A 
ATOM     49  C   UNL A   1      41.830  27.584  28.913  1.00  0.00     0.034 A 
ATOM     50  C   UNL A   1      40.879  30.120  34.872  1.00  0.00     0.049 A 
ATOM     51  C   UNL A   1      42.569  27.463  30.225  1.00  0.00     0.074 A 
ATOM     52  C   UNL A   1      41.573  29.835  36.034  1.00  0.00     0.029 A 
ATOM     53  N   UNL A   1      41.484  29.387  33.860  1.00  0.00    -0.354 N 
ATOM     54  N   UNL A   1      42.293  28.014  31.384  1.00  0.00    -0.248 NA
ATOM     55  C   UNL A   1      43.764  26.607  30.236  1.00  0.00     0.031 C 
ATOM     56  C   UNL A   1      42.641  28.990  35.712  1.00  0.00     0.029 A 
ATOM     57  C   UNL A   1      42.568  28.683  34.362  1.00  0.00     0.049 A 
ATOM     58  H   UNL A   1      41.187  29.369  32.921  1.00  0.00     0.167 HD
ATOM     59  C   UNL A   1      43.260  27.542  32.270  1.00  0.00     0.074 A 
ATOM     60  C   UNL A   1      44.118  26.655  31.512  1.00  0.00     0.031 C 
ATOM     61  C   UNL A   1      43.420  27.809  33.591  1.00  0.00     0.034 A 
BRANCH  48  62
ATOM     62  C   UNL A   1      39.276  31.821  35.867  1.00  0.00     0.023 A 
ATOM     63  C   UNL A   1      38.520  31.256  36.908  1.00  0.00     0.031 A 
ATOM     64  C   UNL A   1      39.565  33.196  35.933  1.00  0.00     0.131 A 
ATOM     65  C   UNL A   1      38.024  32.073  37.936  1.00  0.00     0.055 A 
ATOM     66  C   UNL A   1      39.132  33.990  36.997  1.00  0.00     0.041 A 
ATOM     67  F   UNL A   1      40.262  33.795  34.956  1.00  0.00    -0.206 F 
ATOM     68  C   UNL A   1      38.345  33.431  38.001  1.00  0.00     0.022 A 
BRANCH  65  69
ATOM     69  S   UNL A   1      36.847  31.364  39.120  1.00  0.00     0.124 S 
ATOM     70  O   UNL A   1      35.828  32.408  39.186  1.00  0.00    -0.237 OA
ATOM     71  O   UNL A   1      36.450  30.124  38.464  1.00  0.00    -0.237 OA
ATOM     72  O   UNL A   1      37.641  31.200  40.337  1.00  0.00    -0.744 OA
ENDBRANCH  65  69
ENDBRANCH  48  62
BRANCH  49  73
ATOM     73  C   UNL A   1      42.329  26.877  27.698  1.00  0.00     0.023 A 
ATOM     74  C   UNL A   1      42.029  25.524  27.470  1.00  0.00     0.031 A 
ATOM     75  C   UNL A   1      43.172  27.529  26.780  1.00  0.00     0.131 A 
ATOM     76  C   UNL A   1      42.607  24.854  26.382  1.00  0.00     0.055 A 
ATOM     77  C   UNL A   1      43.703  26.871  25.669  1.00  0.00     0.041 A 
ATOM     78  F   UNL A   1      43.492  28.821  26.950  1.00  0.00    -0.206 F 
ATOM     79  C   UNL A   1      43.432  25.521  25.473  1.00  0.00     0.022 A 
BRANCH  76  80
ATOM     80  S   UNL A   1      42.338  23.067  26.221  1.00  0.00     0.124 S 
ATOM     81  O   UNL A   1      42.730  22.833  24.835  1.00  0.00    -0.237 OA
ATOM     82  O   UNL A   1      43.235  22.534  27.241  1.00  0.00    -0.237 OA
ATOM     83  O   UNL A   1      40.913  22.910  26.503  1.00  0.00    -0.744 OA
ENDBRANCH  76  80
ENDBRANCH  49  73
BRANCH  61  84
ATOM     84  C   UNL A   1      44.539  27.092  34.306  1.00  0.00     0.023 A 
ATOM     85  C   UNL A   1      45.824  27.651  34.420  1.00  0.00     0.031 A 
ATOM     86  C   UNL A   1      44.317  25.823  34.870  1.00  0.00     0.131 A 
ATOM     87  C   UNL A   1      46.852  26.919  35.035  1.00  0.00     0.055 A 
ATOM     88  C   UNL A   1      45.326  25.126  35.533  1.00  0.00     0.041 A 
ATOM     89  F   UNL A   1      43.108  25.243  34.789  1.00  0.00    -0.206 F 
ATOM     90  C   UNL A   1      46.606  25.667  35.607  1.00  0.00     0.022 A 
BRANCH  87  91
ATOM     91  S   UNL A   1      48.538  27.586  35.003  1.00  0.00     0.124 S 
ATOM     92  O   UNL A   1      49.343  26.385  35.194  1.00  0.00    -0.237 OA
ATOM     93  O   UNL A   1      48.607  28.195  33.678  1.00  0.00    -0.237 OA
ATOM     94  O   UNL A   1      48.556  28.530  36.118  1.00  0.00    -0.744 OA
ENDBRANCH  87  91
ENDBRANCH  61  84
ENDBRANCH  35  36
ENDBRANCH  28  30
ENDBRANCH  27  28
ENDBRANCH  26  27
ENDBRANCH  25  26
ENDBRANCH   1  25
TORSDOF 21
ENDMDL
