MODEL 1
REMARK VINA RESULT:      -8.6      0.000      0.000
REMARK SMILES CCCCCNC(=O)Oc1cccc(-c2ccc([C@@H](C)C(=O)OCCOCCOC(=O)c3ccc(-c4c5nc(c(-c6cc(S(=O)(=O)[O-])ccc6F)c6ccc([nH]6)c(-c6cc(S(=O)(=O)[O-])ccc6F)c6nc(c(-c7cc(S(=O)(=O)[O-])ccc7F)c7ccc4[nH]7)C=C6)C=C5)cc3)cc2F)c1
REMARK SMILES IDX 24 1 23 2 21 3 22 4 19 5 20 6 18 7 15 8 16 9 96 10 17 11
REMARK SMILES IDX 95 12 97 13 14 14 10 15 11 16 98 17 12 18 13 19 9 20 7 21
REMARK SMILES IDX 6 22 8 24 5 25 4 26 3 27 2 28 1 29 25 30 26 31 27 32 28 33
REMARK SMILES IDX 29 34 30 35 31 36 32 37 33 38 94 39 34 40 93 41 35 42 36 43
REMARK SMILES IDX 37 44 87 45 38 46 92 47 86 48 88 49 39 50 91 51 85 52 84 53
REMARK SMILES IDX 40 55 72 56 52 57 71 58 53 59 56 60 70 61 89 62 54 63 55 64
REMARK SMILES IDX 69 66 90 67 57 68 41 69 42 70 50 71 43 72 49 73 51 74 48 75
REMARK SMILES IDX 44 76 45 77 46 78 47 79 73 80 74 81 82 82 75 83 81 84 83 85
REMARK SMILES IDX 80 86 76 87 77 88 78 89 79 90 58 91 59 92 67 93 60 94 66 95
REMARK SMILES IDX 68 96 65 97 61 98 62 99 63 100 64 101
REMARK H PARENT 6 23 88 54 56 65
REMARK Flexibility Score: inf
ROOT
ATOM      1  C   UNL A   1      42.868  18.914  25.392  1.00  0.00     0.261 C 
ENDROOT
BRANCH   1   2
ATOM      2  O   UNL A   1      44.056  18.342  24.815  1.00  0.00    -0.463 OA
BRANCH   2   3
ATOM      3  C   UNL A   1      44.722  19.126  23.929  1.00  0.00     0.313 C 
ATOM      4  O   UNL A   1      44.370  19.322  22.769  1.00  0.00    -0.252 OA
BRANCH   3   5
ATOM      5  C   UNL A   1      46.000  19.736  24.486  1.00  0.00     0.126 C 
ATOM      6  C   UNL A   1      46.588  18.801  25.538  1.00  0.00     0.025 C 
BRANCH   5   7
ATOM      7  C   UNL A   1      45.955  21.184  24.963  1.00  0.00    -0.031 A 
ATOM      8  C   UNL A   1      46.056  23.896  25.859  1.00  0.00     0.018 A 
ATOM      9  C   UNL A   1      45.366  22.913  26.586  1.00  0.00     0.012 A 
ATOM     10  C   UNL A   1      46.674  23.493  24.669  1.00  0.00     0.131 A 
ATOM     11  C   UNL A   1      45.316  21.578  26.147  1.00  0.00     0.005 A 
ATOM     12  C   UNL A   1      46.627  22.170  24.224  1.00  0.00     0.044 A 
ATOM     13  F   UNL A   1      47.357  24.379  23.926  1.00  0.00    -0.206 F 
BRANCH   8  14
ATOM     14  C   UNL A   1      46.140  25.287  26.333  1.00  0.00    -0.012 A 
ATOM     15  C   UNL A   1      45.527  27.632  26.139  1.00  0.00     0.133 A 
ATOM     16  C   UNL A   1      46.352  27.965  27.210  1.00  0.00     0.047 A 
ATOM     17  C   UNL A   1      45.433  26.314  25.687  1.00  0.00     0.056 A 
ATOM     18  C   UNL A   1      47.063  26.961  27.861  1.00  0.00     0.004 A 
ATOM     19  C   UNL A   1      46.953  25.633  27.428  1.00  0.00     0.009 A 
BRANCH  15  20
ATOM     20  O   UNL A   1      44.883  28.689  25.475  1.00  0.00    -0.410 OA
BRANCH  20  21
ATOM     21  C   UNL A   1      43.506  28.784  25.602  1.00  0.00     0.412 C 
ATOM     22  N   UNL A   1      43.104  29.667  26.562  1.00  0.00    -0.321 N 
ATOM     23  H   UNL A   1      42.133  29.770  26.685  1.00  0.00     0.167 HD
ATOM     24  O   UNL A   1      42.675  28.157  24.943  1.00  0.00    -0.224 OA
BRANCH  22  25
ATOM     25  C   UNL A   1      43.951  30.471  27.420  1.00  0.00     0.119 C 
BRANCH  25  26
ATOM     26  C   UNL A   1      43.942  31.946  27.018  1.00  0.00     0.021 C 
BRANCH  26  27
ATOM     27  C   UNL A   1      44.215  32.934  28.160  1.00  0.00     0.002 C 
BRANCH  27  28
ATOM     28  C   UNL A   1      45.568  33.647  28.114  1.00  0.00    -0.003 C 
ATOM     29  C   UNL A   1      46.468  33.172  26.984  1.00  0.00     0.004 C 
ENDBRANCH  27  28
ENDBRANCH  26  27
ENDBRANCH  25  26
ENDBRANCH  22  25
ENDBRANCH  20  21
ENDBRANCH  15  20
ENDBRANCH   8  14
ENDBRANCH   5   7
ENDBRANCH   3   5
ENDBRANCH   2   3
ENDBRANCH   1   2
BRANCH   1  30
ATOM     30  C   UNL A   1      42.769  18.616  26.891  1.00  0.00     0.202 C 
BRANCH  30  31
ATOM     31  O   UNL A   1      41.839  19.402  27.637  1.00  0.00    -0.374 OA
BRANCH  31  32
ATOM     32  C   UNL A   1      40.991  20.288  26.909  1.00  0.00     0.202 C 
BRANCH  32  33
ATOM     33  C   UNL A   1      40.858  21.728  27.424  1.00  0.00     0.261 C 
BRANCH  33  34
ATOM     34  O   UNL A   1      40.659  22.684  26.369  1.00  0.00    -0.460 OA
BRANCH  34  35
ATOM     35  C   UNL A   1      39.453  23.307  26.399  1.00  0.00     0.338 C 
ATOM     36  O   UNL A   1      38.381  22.842  26.049  1.00  0.00    -0.246 OA
BRANCH  35  37
ATOM     37  C   UNL A   1      39.561  24.585  27.131  1.00  0.00     0.060 A 
ATOM     38  C   UNL A   1      40.221  25.638  26.485  1.00  0.00     0.016 A 
ATOM     39  C   UNL A   1      39.101  24.736  28.441  1.00  0.00     0.016 A 
ATOM     40  C   UNL A   1      40.474  26.828  27.162  1.00  0.00     0.010 A 
ATOM     41  C   UNL A   1      39.361  25.932  29.123  1.00  0.00     0.010 A 
ATOM     42  C   UNL A   1      40.081  26.969  28.499  1.00  0.00    -0.014 A 
BRANCH  42  43
ATOM     43  C   UNL A   1      40.566  28.139  29.277  1.00  0.00     0.031 A 
ATOM     44  C   UNL A   1      39.581  29.201  29.685  1.00  0.00     0.074 A 
ATOM     45  C   UNL A   1      41.852  28.228  29.661  1.00  0.00     0.049 A 
ATOM     46  N   UNL A   1      39.781  30.313  30.345  1.00  0.00    -0.248 NA
ATOM     47  C   UNL A   1      38.180  28.977  29.293  1.00  0.00     0.031 C 
ATOM     48  C   UNL A   1      42.888  27.235  29.375  1.00  0.00     0.029 A 
ATOM     49  N   UNL A   1      42.508  29.200  30.375  1.00  0.00    -0.354 N 
ATOM     50  C   UNL A   1      38.536  30.925  30.445  1.00  0.00     0.074 A 
ATOM     51  C   UNL A   1      37.596  30.077  29.741  1.00  0.00     0.031 C 
ATOM     52  C   UNL A   1      44.050  27.653  29.905  1.00  0.00     0.029 A 
ATOM     53  C   UNL A   1      43.853  28.960  30.530  1.00  0.00     0.049 A 
ATOM     54  H   UNL A   1      42.057  29.995  30.741  1.00  0.00     0.167 HD
ATOM     55  C   UNL A   1      38.206  32.082  31.073  1.00  0.00     0.034 A 
ATOM     56  C   UNL A   1      44.819  29.718  31.087  1.00  0.00     0.034 A 
ATOM     57  C   UNL A   1      39.157  32.921  31.761  1.00  0.00     0.049 A 
ATOM     58  C   UNL A   1      44.445  31.050  31.696  1.00  0.00     0.074 A 
ATOM     59  C   UNL A   1      38.929  34.105  32.440  1.00  0.00     0.029 A 
ATOM     60  N   UNL A   1      40.522  32.676  31.845  1.00  0.00    -0.354 N 
ATOM     61  N   UNL A   1      43.263  31.616  31.787  1.00  0.00    -0.248 NA
ATOM     62  C   UNL A   1      45.536  31.839  32.285  1.00  0.00     0.031 C 
ATOM     63  C   UNL A   1      40.161  34.613  32.866  1.00  0.00     0.029 A 
ATOM     64  C   UNL A   1      41.151  33.704  32.530  1.00  0.00     0.049 A 
ATOM     65  H   UNL A   1      40.976  31.886  31.473  1.00  0.00     0.167 HD
ATOM     66  C   UNL A   1      43.467  32.813  32.471  1.00  0.00     0.074 A 
ATOM     67  C   UNL A   1      44.881  32.879  32.780  1.00  0.00     0.031 C 
ATOM     68  C   UNL A   1      42.566  33.767  32.821  1.00  0.00     0.034 A 
BRANCH  55  69
ATOM     69  C   UNL A   1      36.764  32.529  30.988  1.00  0.00     0.023 A 
ATOM     70  C   UNL A   1      36.208  33.025  29.795  1.00  0.00     0.031 A 
ATOM     71  C   UNL A   1      35.943  32.490  32.129  1.00  0.00     0.131 A 
ATOM     72  C   UNL A   1      34.896  33.526  29.790  1.00  0.00     0.055 A 
ATOM     73  C   UNL A   1      34.614  32.914  32.097  1.00  0.00     0.041 A 
ATOM     74  F   UNL A   1      36.425  32.049  33.302  1.00  0.00    -0.206 F 
ATOM     75  C   UNL A   1      34.088  33.450  30.926  1.00  0.00     0.022 A 
BRANCH  72  76
ATOM     76  S   UNL A   1      34.311  34.411  28.319  1.00  0.00     0.124 S 
ATOM     77  O   UNL A   1      35.342  34.074  27.340  1.00  0.00    -0.237 OA
ATOM     78  O   UNL A   1      32.998  33.817  28.094  1.00  0.00    -0.237 OA
ATOM     79  O   UNL A   1      34.299  35.810  28.743  1.00  0.00    -0.744 OA
ENDBRANCH  72  76
ENDBRANCH  55  69
BRANCH  56  80
ATOM     80  C   UNL A   1      46.242  29.269  31.061  1.00  0.00     0.023 A 
ATOM     81  C   UNL A   1      46.718  28.299  31.954  1.00  0.00     0.031 A 
ATOM     82  C   UNL A   1      47.161  29.853  30.170  1.00  0.00     0.131 A 
ATOM     83  C   UNL A   1      48.083  27.970  31.969  1.00  0.00     0.055 A 
ATOM     84  C   UNL A   1      48.507  29.483  30.150  1.00  0.00     0.041 A 
ATOM     85  F   UNL A   1      46.761  30.789  29.296  1.00  0.00    -0.206 F 
ATOM     86  C   UNL A   1      48.978  28.546  31.063  1.00  0.00     0.022 A 
BRANCH  83  87
ATOM     87  S   UNL A   1      48.693  26.840  33.250  1.00  0.00     0.124 S 
ATOM     88  O   UNL A   1      49.767  27.624  33.850  1.00  0.00    -0.237 OA
ATOM     89  O   UNL A   1      47.504  26.644  34.072  1.00  0.00    -0.237 OA
ATOM     90  O   UNL A   1      49.124  25.667  32.491  1.00  0.00    -0.744 OA
ENDBRANCH  83  87
ENDBRANCH  56  80
BRANCH  68  91
ATOM     91  C   UNL A   1      43.080  34.943  33.619  1.00  0.00     0.023 A 
ATOM     92  C   UNL A   1      43.141  34.918  35.023  1.00  0.00     0.031 A 
ATOM     93  C   UNL A   1      43.506  36.110  32.961  1.00  0.00     0.131 A 
ATOM     94  C   UNL A   1      43.565  36.058  35.725  1.00  0.00     0.055 A 
ATOM     95  C   UNL A   1      43.986  37.218  33.662  1.00  0.00     0.041 A 
ATOM     96  F   UNL A   1      43.467  36.194  31.621  1.00  0.00    -0.206 F 
ATOM     97  C   UNL A   1      44.004  37.200  35.053  1.00  0.00     0.022 A 
BRANCH  94  98
ATOM     98  S   UNL A   1      43.442  36.064  37.536  1.00  0.00     0.124 S 
ATOM     99  O   UNL A   1      42.542  34.941  37.783  1.00  0.00    -0.237 OA
ATOM    100  O   UNL A   1      44.830  35.870  37.943  1.00  0.00    -0.237 OA
ATOM    101  O   UNL A   1      42.887  37.382  37.838  1.00  0.00    -0.744 OA
ENDBRANCH  94  98
ENDBRANCH  68  91
ENDBRANCH  42  43
ENDBRANCH  35  37
ENDBRANCH  34  35
ENDBRANCH  33  34
ENDBRANCH  32  33
ENDBRANCH  31  32
ENDBRANCH  30  31
ENDBRANCH   1  30
TORSDOF 25
ENDMDL
MODEL 2
REMARK VINA RESULT:      -8.5      1.835      7.417
REMARK SMILES CCCCCNC(=O)Oc1cccc(-c2ccc([C@@H](C)C(=O)OCCOCCOC(=O)c3ccc(-c4c5nc(c(-c6cc(S(=O)(=O)[O-])ccc6F)c6ccc([nH]6)c(-c6cc(S(=O)(=O)[O-])ccc6F)c6nc(c(-c7cc(S(=O)(=O)[O-])ccc7F)c7ccc4[nH]7)C=C6)C=C5)cc3)cc2F)c1
REMARK SMILES IDX 24 1 23 2 21 3 22 4 19 5 20 6 18 7 15 8 16 9 96 10 17 11
REMARK SMILES IDX 95 12 97 13 14 14 10 15 11 16 98 17 12 18 13 19 9 20 7 21
REMARK SMILES IDX 6 22 8 24 5 25 4 26 3 27 2 28 1 29 25 30 26 31 27 32 28 33
REMARK SMILES IDX 29 34 30 35 31 36 32 37 33 38 94 39 34 40 93 41 35 42 36 43
REMARK SMILES IDX 37 44 87 45 38 46 92 47 86 48 88 49 39 50 91 51 85 52 84 53
REMARK SMILES IDX 40 55 72 56 52 57 71 58 53 59 56 60 70 61 89 62 54 63 55 64
REMARK SMILES IDX 69 66 90 67 57 68 41 69 42 70 50 71 43 72 49 73 51 74 48 75
REMARK SMILES IDX 44 76 45 77 46 78 47 79 73 80 74 81 82 82 75 83 81 84 83 85
REMARK SMILES IDX 80 86 76 87 77 88 78 89 79 90 58 91 59 92 67 93 60 94 66 95
REMARK SMILES IDX 68 96 65 97 61 98 62 99 63 100 64 101
REMARK H PARENT 6 23 88 54 56 65
REMARK Flexibility Score: inf
ROOT
ATOM      1  C   UNL A   1      42.903  18.934  25.398  1.00  0.00     0.261 C 
ENDROOT
BRANCH   1   2
ATOM      2  O   UNL A   1      44.167  18.492  24.870  1.00  0.00    -0.463 OA
BRANCH   2   3
ATOM      3  C   UNL A   1      44.757  19.319  23.970  1.00  0.00     0.313 C 
ATOM      4  O   UNL A   1      44.359  19.499  22.822  1.00  0.00    -0.252 OA
BRANCH   3   5
ATOM      5  C   UNL A   1      46.010  20.004  24.493  1.00  0.00     0.126 C 
ATOM      6  C   UNL A   1      46.734  19.066  25.455  1.00  0.00     0.025 C 
BRANCH   5   7
ATOM      7  C   UNL A   1      45.875  21.414  25.058  1.00  0.00    -0.031 A 
ATOM      8  C   UNL A   1      45.805  24.065  26.124  1.00  0.00     0.018 A 
ATOM      9  C   UNL A   1      45.145  23.004  26.764  1.00  0.00     0.012 A 
ATOM     10  C   UNL A   1      46.480  23.771  24.933  1.00  0.00     0.131 A 
ATOM     11  C   UNL A   1      45.179  21.700  26.242  1.00  0.00     0.005 A 
ATOM     12  C   UNL A   1      46.517  22.478  24.406  1.00  0.00     0.044 A 
ATOM     13  F   UNL A   1      47.139  24.736  24.271  1.00  0.00    -0.206 F 
BRANCH   8  14
ATOM     14  C   UNL A   1      45.802  25.426  26.686  1.00  0.00    -0.012 A 
ATOM     15  C   UNL A   1      45.180  27.773  26.551  1.00  0.00     0.133 A 
ATOM     16  C   UNL A   1      45.848  28.047  27.741  1.00  0.00     0.047 A 
ATOM     17  C   UNL A   1      45.170  26.484  26.013  1.00  0.00     0.056 A 
ATOM     18  C   UNL A   1      46.483  27.012  28.420  1.00  0.00     0.004 A 
ATOM     19  C   UNL A   1      46.455  25.712  27.899  1.00  0.00     0.009 A 
BRANCH  15  20
ATOM     20  O   UNL A   1      44.612  28.862  25.870  1.00  0.00    -0.410 OA
BRANCH  20  21
ATOM     21  C   UNL A   1      43.639  29.596  26.529  1.00  0.00     0.412 C 
ATOM     22  N   UNL A   1      44.006  30.885  26.787  1.00  0.00    -0.321 N 
ATOM     23  H   UNL A   1      43.343  31.446  27.251  1.00  0.00     0.167 HD
ATOM     24  O   UNL A   1      42.532  29.180  26.876  1.00  0.00    -0.224 OA
BRANCH  22  25
ATOM     25  C   UNL A   1      45.265  31.520  26.452  1.00  0.00     0.119 C 
BRANCH  25  26
ATOM     26  C   UNL A   1      45.072  32.955  25.959  1.00  0.00     0.021 C 
BRANCH  26  27
ATOM     27  C   UNL A   1      44.980  34.015  27.064  1.00  0.00     0.002 C 
BRANCH  27  28
ATOM     28  C   UNL A   1      43.615  34.686  27.230  1.00  0.00    -0.003 C 
ATOM     29  C   UNL A   1      42.987  35.122  25.915  1.00  0.00     0.004 C 
ENDBRANCH  27  28
ENDBRANCH  26  27
ENDBRANCH  25  26
ENDBRANCH  22  25
ENDBRANCH  20  21
ENDBRANCH  15  20
ENDBRANCH   8  14
ENDBRANCH   5   7
ENDBRANCH   3   5
ENDBRANCH   2   3
ENDBRANCH   1   2
BRANCH   1  30
ATOM     30  C   UNL A   1      42.797  18.672  26.903  1.00  0.00     0.202 C 
BRANCH  30  31
ATOM     31  O   UNL A   1      41.845  19.455  27.621  1.00  0.00    -0.374 OA
BRANCH  31  32
ATOM     32  C   UNL A   1      41.099  20.424  26.886  1.00  0.00     0.202 C 
BRANCH  32  33
ATOM     33  C   UNL A   1      41.024  21.847  27.456  1.00  0.00     0.261 C 
BRANCH  33  34
ATOM     34  O   UNL A   1      40.810  22.845  26.445  1.00  0.00    -0.460 OA
BRANCH  34  35
ATOM     35  C   UNL A   1      39.567  23.392  26.451  1.00  0.00     0.338 C 
ATOM     36  O   UNL A   1      38.533  22.860  26.084  1.00  0.00    -0.246 OA
BRANCH  35  37
ATOM     37  C   UNL A   1      39.582  24.676  27.180  1.00  0.00     0.060 A 
ATOM     38  C   UNL A   1      40.287  25.736  26.593  1.00  0.00     0.016 A 
ATOM     39  C   UNL A   1      38.993  24.828  28.437  1.00  0.00     0.016 A 
ATOM     40  C   UNL A   1      40.452  26.934  27.282  1.00  0.00     0.010 A 
ATOM     41  C   UNL A   1      39.166  26.033  29.131  1.00  0.00     0.010 A 
ATOM     42  C   UNL A   1      39.927  27.078  28.573  1.00  0.00    -0.014 A 
BRANCH  42  43
ATOM     43  C   UNL A   1      40.315  28.260  29.385  1.00  0.00     0.031 A 
ATOM     44  C   UNL A   1      41.658  28.267  30.065  1.00  0.00     0.074 A 
ATOM     45  C   UNL A   1      39.509  29.333  29.473  1.00  0.00     0.049 A 
ATOM     46  N   UNL A   1      42.195  29.176  30.838  1.00  0.00    -0.248 NA
ATOM     47  C   UNL A   1      42.507  27.086  29.844  1.00  0.00     0.031 C 
ATOM     48  C   UNL A   1      38.210  29.468  28.813  1.00  0.00     0.029 A 
ATOM     49  N   UNL A   1      39.663  30.516  30.153  1.00  0.00    -0.354 N 
ATOM     50  C   UNL A   1      43.444  28.678  31.199  1.00  0.00     0.074 A 
ATOM     51  C   UNL A   1      43.562  27.368  30.593  1.00  0.00     0.031 C 
ATOM     52  C   UNL A   1      37.685  30.665  29.126  1.00  0.00     0.029 A 
ATOM     53  C   UNL A   1      38.586  31.363  30.040  1.00  0.00     0.049 A 
ATOM     54  H   UNL A   1      40.470  30.736  30.673  1.00  0.00     0.167 HD
ATOM     55  C   UNL A   1      44.404  29.262  31.959  1.00  0.00     0.034 A 
ATOM     56  C   UNL A   1      38.344  32.553  30.627  1.00  0.00     0.034 A 
ATOM     57  C   UNL A   1      44.265  30.564  32.565  1.00  0.00     0.049 A 
ATOM     58  C   UNL A   1      39.388  33.143  31.547  1.00  0.00     0.074 A 
ATOM     59  C   UNL A   1      45.179  31.255  33.342  1.00  0.00     0.029 A 
ATOM     60  N   UNL A   1      43.135  31.368  32.478  1.00  0.00    -0.354 N 
ATOM     61  N   UNL A   1      40.565  32.663  31.879  1.00  0.00    -0.248 NA
ATOM     62  C   UNL A   1      39.071  34.437  32.165  1.00  0.00     0.031 C 
ATOM     63  C   UNL A   1      44.575  32.436  33.786  1.00  0.00     0.029 A 
ATOM     64  C   UNL A   1      43.315  32.528  33.218  1.00  0.00     0.049 A 
ATOM     65  H   UNL A   1      42.325  31.147  31.965  1.00  0.00     0.167 HD
ATOM     66  C   UNL A   1      41.140  33.615  32.719  1.00  0.00     0.074 A 
ATOM     67  C   UNL A   1      40.186  34.699  32.831  1.00  0.00     0.031 C 
ATOM     68  C   UNL A   1      42.350  33.598  33.335  1.00  0.00     0.034 A 
BRANCH  55  69
ATOM     69  C   UNL A   1      45.661  28.465  32.220  1.00  0.00     0.023 A 
ATOM     70  C   UNL A   1      45.723  27.481  33.223  1.00  0.00     0.031 A 
ATOM     71  C   UNL A   1      46.827  28.718  31.475  1.00  0.00     0.131 A 
ATOM     72  C   UNL A   1      46.941  26.839  33.500  1.00  0.00     0.055 A 
ATOM     73  C   UNL A   1      48.013  28.018  31.700  1.00  0.00     0.041 A 
ATOM     74  F   UNL A   1      46.836  29.662  30.520  1.00  0.00    -0.206 F 
ATOM     75  C   UNL A   1      48.079  27.083  32.728  1.00  0.00     0.022 A 
BRANCH  72  76
ATOM     76  S   UNL A   1      47.054  25.790  34.975  1.00  0.00     0.124 S 
ATOM     77  O   UNL A   1      48.394  25.225  34.836  1.00  0.00    -0.237 OA
ATOM     78  O   UNL A   1      46.873  26.748  36.059  1.00  0.00    -0.237 OA
ATOM     79  O   UNL A   1      45.962  24.833  34.799  1.00  0.00    -0.744 OA
ENDBRANCH  72  76
ENDBRANCH  55  69
BRANCH  56  80
ATOM     80  C   UNL A   1      37.045  33.254  30.406  1.00  0.00     0.023 A 
ATOM     81  C   UNL A   1      36.174  33.530  31.470  1.00  0.00     0.031 A 
ATOM     82  C   UNL A   1      36.634  33.609  29.109  1.00  0.00     0.131 A 
ATOM     83  C   UNL A   1      34.917  34.102  31.216  1.00  0.00     0.055 A 
ATOM     84  C   UNL A   1      35.407  34.228  28.867  1.00  0.00     0.041 A 
ATOM     85  F   UNL A   1      37.427  33.365  28.053  1.00  0.00    -0.206 F 
ATOM     86  C   UNL A   1      34.534  34.466  29.922  1.00  0.00     0.022 A 
BRANCH  83  87
ATOM     87  S   UNL A   1      33.749  34.285  32.591  1.00  0.00     0.124 S 
ATOM     88  O   UNL A   1      32.615  34.926  31.935  1.00  0.00    -0.237 OA
ATOM     89  O   UNL A   1      33.553  32.900  33.008  1.00  0.00    -0.237 OA
ATOM     90  O   UNL A   1      34.475  35.123  33.545  1.00  0.00    -0.744 OA
ENDBRANCH  83  87
ENDBRANCH  56  80
BRANCH  68  91
ATOM     91  C   UNL A   1      42.728  34.814  34.149  1.00  0.00     0.023 A 
ATOM     92  C   UNL A   1      43.356  35.931  33.570  1.00  0.00     0.031 A 
ATOM     93  C   UNL A   1      42.462  34.850  35.529  1.00  0.00     0.131 A 
ATOM     94  C   UNL A   1      43.747  37.011  34.377  1.00  0.00     0.055 A 
ATOM     95  C   UNL A   1      42.795  35.953  36.316  1.00  0.00     0.041 A 
ATOM     96  F   UNL A   1      41.867  33.811  36.139  1.00  0.00    -0.206 F 
ATOM     97  C   UNL A   1      43.455  37.037  35.742  1.00  0.00     0.022 A 
BRANCH  94  98
ATOM     98  S   UNL A   1      44.731  38.343  33.637  1.00  0.00     0.124 S 
ATOM     99  O   UNL A   1      46.095  37.877  33.868  1.00  0.00    -0.237 OA
ATOM    100  O   UNL A   1      44.281  38.330  32.249  1.00  0.00    -0.237 OA
ATOM    101  O   UNL A   1      44.341  39.525  34.403  1.00  0.00    -0.744 OA
ENDBRANCH  94  98
ENDBRANCH  68  91
ENDBRANCH  42  43
ENDBRANCH  35  37
ENDBRANCH  34  35
ENDBRANCH  33  34
ENDBRANCH  32  33
ENDBRANCH  31  32
ENDBRANCH  30  31
ENDBRANCH   1  30
TORSDOF 25
ENDMDL
MODEL 3
REMARK VINA RESULT:      -8.4      5.387     12.706
REMARK SMILES CCCCCNC(=O)Oc1cccc(-c2ccc([C@@H](C)C(=O)OCCOCCOC(=O)c3ccc(-c4c5nc(c(-c6cc(S(=O)(=O)[O-])ccc6F)c6ccc([nH]6)c(-c6cc(S(=O)(=O)[O-])ccc6F)c6nc(c(-c7cc(S(=O)(=O)[O-])ccc7F)c7ccc4[nH]7)C=C6)C=C5)cc3)cc2F)c1
REMARK SMILES IDX 24 1 23 2 21 3 22 4 19 5 20 6 18 7 15 8 16 9 96 10 17 11
REMARK SMILES IDX 95 12 97 13 14 14 10 15 11 16 98 17 12 18 13 19 9 20 7 21
REMARK SMILES IDX 6 22 8 24 5 25 4 26 3 27 2 28 1 29 25 30 26 31 27 32 28 33
REMARK SMILES IDX 29 34 30 35 31 36 32 37 33 38 94 39 34 40 93 41 35 42 36 43
REMARK SMILES IDX 37 44 87 45 38 46 92 47 86 48 88 49 39 50 91 51 85 52 84 53
REMARK SMILES IDX 40 55 72 56 52 57 71 58 53 59 56 60 70 61 89 62 54 63 55 64
REMARK SMILES IDX 69 66 90 67 57 68 41 69 42 70 50 71 43 72 49 73 51 74 48 75
REMARK SMILES IDX 44 76 45 77 46 78 47 79 73 80 74 81 82 82 75 83 81 84 83 85
REMARK SMILES IDX 80 86 76 87 77 88 78 89 79 90 58 91 59 92 67 93 60 94 66 95
REMARK SMILES IDX 68 96 65 97 61 98 62 99 63 100 64 101
REMARK H PARENT 6 23 88 54 56 65
REMARK Flexibility Score: inf
ROOT
ATOM      1  C   UNL A   1      37.306  33.872  30.496  1.00  0.00     0.261 C 
ENDROOT
BRANCH   1   2
ATOM      2  O   UNL A   1      35.897  34.080  30.704  1.00  0.00    -0.463 OA
BRANCH   2   3
ATOM      3  C   UNL A   1      35.072  33.157  30.145  1.00  0.00     0.313 C 
ATOM      4  O   UNL A   1      34.352  32.392  30.780  1.00  0.00    -0.252 OA
BRANCH   3   5
ATOM      5  C   UNL A   1      35.133  33.117  28.626  1.00  0.00     0.126 C 
ATOM      6  C   UNL A   1      34.732  34.479  28.068  1.00  0.00     0.025 C 
BRANCH   5   7
ATOM      7  C   UNL A   1      34.426  31.970  27.910  1.00  0.00    -0.031 A 
ATOM      8  C   UNL A   1      32.966  29.837  26.692  1.00  0.00     0.018 A 
ATOM      9  C   UNL A   1      34.285  29.656  27.138  1.00  0.00     0.012 A 
ATOM     10  C   UNL A   1      32.407  31.111  26.852  1.00  0.00     0.131 A 
ATOM     11  C   UNL A   1      35.005  30.705  27.738  1.00  0.00     0.005 A 
ATOM     12  C   UNL A   1      33.115  32.158  27.444  1.00  0.00     0.044 A 
ATOM     13  F   UNL A   1      31.148  31.353  26.454  1.00  0.00    -0.206 F 
BRANCH   8  14
ATOM     14  C   UNL A   1      32.197  28.732  26.095  1.00  0.00    -0.012 A 
ATOM     15  C   UNL A   1      31.398  26.436  26.147  1.00  0.00     0.133 A 
ATOM     16  C   UNL A   1      30.770  26.598  24.915  1.00  0.00     0.047 A 
ATOM     17  C   UNL A   1      32.122  27.481  26.727  1.00  0.00     0.056 A 
ATOM     18  C   UNL A   1      30.836  27.831  24.273  1.00  0.00     0.004 A 
ATOM     19  C   UNL A   1      31.539  28.889  24.861  1.00  0.00     0.009 A 
BRANCH  15  20
ATOM     20  O   UNL A   1      31.358  25.156  26.723  1.00  0.00    -0.410 OA
BRANCH  20  21
ATOM     21  C   UNL A   1      30.188  24.426  26.588  1.00  0.00     0.412 C 
ATOM     22  N   UNL A   1      30.377  23.179  26.067  1.00  0.00    -0.321 N 
ATOM     23  H   UNL A   1      29.572  22.623  25.956  1.00  0.00     0.167 HD
ATOM     24  O   UNL A   1      29.058  24.813  26.890  1.00  0.00    -0.224 OA
BRANCH  22  25
ATOM     25  C   UNL A   1      31.633  22.584  25.658  1.00  0.00     0.119 C 
BRANCH  25  26
ATOM     26  C   UNL A   1      31.759  22.495  24.136  1.00  0.00     0.021 C 
BRANCH  26  27
ATOM     27  C   UNL A   1      33.004  21.757  23.628  1.00  0.00     0.002 C 
BRANCH  27  28
ATOM     28  C   UNL A   1      34.202  21.742  24.580  1.00  0.00    -0.003 C 
ATOM     29  C   UNL A   1      34.641  20.343  24.984  1.00  0.00     0.004 C 
ENDBRANCH  27  28
ENDBRANCH  26  27
ENDBRANCH  25  26
ENDBRANCH  22  25
ENDBRANCH  20  21
ENDBRANCH  15  20
ENDBRANCH   8  14
ENDBRANCH   5   7
ENDBRANCH   3   5
ENDBRANCH   2   3
ENDBRANCH   1   2
BRANCH   1  30
ATOM     30  C   UNL A   1      38.117  34.197  31.754  1.00  0.00     0.202 C 
BRANCH  30  31
ATOM     31  O   UNL A   1      37.372  34.440  32.946  1.00  0.00    -0.374 OA
BRANCH  31  32
ATOM     32  C   UNL A   1      37.383  33.426  33.950  1.00  0.00     0.202 C 
BRANCH  32  33
ATOM     33  C   UNL A   1      36.516  32.182  33.713  1.00  0.00     0.261 C 
BRANCH  33  34
ATOM     34  O   UNL A   1      37.278  30.964  33.690  1.00  0.00    -0.460 OA
BRANCH  34  35
ATOM     35  C   UNL A   1      37.255  30.310  32.500  1.00  0.00     0.338 C 
ATOM     36  O   UNL A   1      36.289  29.784  31.974  1.00  0.00    -0.246 OA
BRANCH  35  37
ATOM     37  C   UNL A   1      38.536  30.503  31.791  1.00  0.00     0.060 A 
ATOM     38  C   UNL A   1      39.675  30.719  32.578  1.00  0.00     0.016 A 
ATOM     39  C   UNL A   1      38.618  30.550  30.398  1.00  0.00     0.016 A 
ATOM     40  C   UNL A   1      40.891  31.036  31.977  1.00  0.00     0.010 A 
ATOM     41  C   UNL A   1      39.841  30.875  29.796  1.00  0.00     0.010 A 
ATOM     42  C   UNL A   1      40.974  31.156  30.584  1.00  0.00    -0.014 A 
BRANCH  42  43
ATOM     43  C   UNL A   1      42.205  31.727  29.978  1.00  0.00     0.031 A 
ATOM     44  C   UNL A   1      43.305  30.794  29.547  1.00  0.00     0.074 A 
ATOM     45  C   UNL A   1      42.320  33.050  29.764  1.00  0.00     0.049 A 
ATOM     46  N   UNL A   1      44.469  31.068  29.018  1.00  0.00    -0.248 NA
ATOM     47  C   UNL A   1      43.055  29.357  29.743  1.00  0.00     0.031 C 
ATOM     48  C   UNL A   1      41.299  34.048  30.086  1.00  0.00     0.029 A 
ATOM     49  N   UNL A   1      43.347  33.784  29.225  1.00  0.00    -0.354 N 
ATOM     50  C   UNL A   1      45.095  29.841  28.820  1.00  0.00     0.074 A 
ATOM     51  C   UNL A   1      44.194  28.827  29.326  1.00  0.00     0.031 C 
ATOM     52  C   UNL A   1      41.755  35.265  29.742  1.00  0.00     0.029 A 
ATOM     53  C   UNL A   1      43.114  35.139  29.216  1.00  0.00     0.049 A 
ATOM     54  H   UNL A   1      44.174  33.377  28.878  1.00  0.00     0.167 HD
ATOM     55  C   UNL A   1      46.304  29.585  28.262  1.00  0.00     0.034 A 
ATOM     56  C   UNL A   1      43.913  36.162  28.851  1.00  0.00     0.034 A 
ATOM     57  C   UNL A   1      47.195  30.609  27.772  1.00  0.00     0.049 A 
ATOM     58  C   UNL A   1      45.295  35.859  28.320  1.00  0.00     0.074 A 
ATOM     59  C   UNL A   1      48.437  30.460  27.178  1.00  0.00     0.029 A 
ATOM     60  N   UNL A   1      46.951  31.976  27.835  1.00  0.00    -0.354 N 
ATOM     61  N   UNL A   1      45.874  34.695  28.135  1.00  0.00    -0.248 NA
ATOM     62  C   UNL A   1      46.127  37.010  27.942  1.00  0.00     0.031 C 
ATOM     63  C   UNL A   1      48.973  31.733  26.953  1.00  0.00     0.029 A 
ATOM     64  C   UNL A   1      48.032  32.679  27.326  1.00  0.00     0.049 A 
ATOM     65  H   UNL A   1      46.128  32.385  28.188  1.00  0.00     0.167 HD
ATOM     66  C   UNL A   1      47.126  34.975  27.590  1.00  0.00     0.074 A 
ATOM     67  C   UNL A   1      47.210  36.415  27.464  1.00  0.00     0.031 C 
ATOM     68  C   UNL A   1      48.112  34.119  27.218  1.00  0.00     0.034 A 
BRANCH  55  69
ATOM     69  C   UNL A   1      46.751  28.142  28.208  1.00  0.00     0.023 A 
ATOM     70  C   UNL A   1      46.440  27.307  27.120  1.00  0.00     0.031 A 
ATOM     71  C   UNL A   1      47.474  27.585  29.278  1.00  0.00     0.131 A 
ATOM     72  C   UNL A   1      46.787  25.946  27.160  1.00  0.00     0.055 A 
ATOM     73  C   UNL A   1      47.886  26.252  29.275  1.00  0.00     0.041 A 
ATOM     74  F   UNL A   1      47.780  28.326  30.355  1.00  0.00    -0.206 F 
ATOM     75  C   UNL A   1      47.529  25.420  28.219  1.00  0.00     0.022 A 
BRANCH  72  76
ATOM     76  S   UNL A   1      46.126  24.844  25.880  1.00  0.00     0.124 S 
ATOM     77  O   UNL A   1      46.694  23.557  26.274  1.00  0.00    -0.237 OA
ATOM     78  O   UNL A   1      44.685  24.987  26.053  1.00  0.00    -0.237 OA
ATOM     79  O   UNL A   1      46.664  25.399  24.639  1.00  0.00    -0.744 OA
ENDBRANCH  72  76
ENDBRANCH  55  69
BRANCH  56  80
ATOM     80  C   UNL A   1      43.455  37.573  29.012  1.00  0.00     0.023 A 
ATOM     81  C   UNL A   1      42.669  38.202  28.035  1.00  0.00     0.031 A 
ATOM     82  C   UNL A   1      43.849  38.331  30.129  1.00  0.00     0.131 A 
ATOM     83  C   UNL A   1      42.338  39.560  28.170  1.00  0.00     0.055 A 
ATOM     84  C   UNL A   1      43.471  39.666  30.287  1.00  0.00     0.041 A 
ATOM     85  F   UNL A   1      44.605  37.781  31.093  1.00  0.00    -0.206 F 
ATOM     86  C   UNL A   1      42.722  40.292  29.297  1.00  0.00     0.022 A 
BRANCH  83  87
ATOM     87  S   UNL A   1      41.469  40.384  26.808  1.00  0.00     0.124 S 
ATOM     88  O   UNL A   1      40.397  41.076  27.514  1.00  0.00    -0.237 OA
ATOM     89  O   UNL A   1      42.519  41.228  26.246  1.00  0.00    -0.237 OA
ATOM     90  O   UNL A   1      41.042  39.275  25.956  1.00  0.00    -0.744 OA
ENDBRANCH  83  87
ENDBRANCH  56  80
BRANCH  68  91
ATOM     91  C   UNL A   1      49.351  34.720  26.596  1.00  0.00     0.023 A 
ATOM     92  C   UNL A   1      50.537  34.905  27.328  1.00  0.00     0.031 A 
ATOM     93  C   UNL A   1      49.339  35.124  25.249  1.00  0.00     0.131 A 
ATOM     94  C   UNL A   1      51.641  35.527  26.726  1.00  0.00     0.055 A 
ATOM     95  C   UNL A   1      50.461  35.685  24.637  1.00  0.00     0.041 A 
ATOM     96  F   UNL A   1      48.233  34.976  24.500  1.00  0.00    -0.206 F 
ATOM     97  C   UNL A   1      51.617  35.902  25.381  1.00  0.00     0.022 A 
BRANCH  94  98
ATOM     98  S   UNL A   1      53.082  35.932  27.752  1.00  0.00     0.124 S 
ATOM     99  O   UNL A   1      53.325  37.327  27.398  1.00  0.00    -0.237 OA
ATOM    100  O   UNL A   1      52.582  35.694  29.102  1.00  0.00    -0.237 OA
ATOM    101  O   UNL A   1      54.104  34.990  27.296  1.00  0.00    -0.744 OA
ENDBRANCH  94  98
ENDBRANCH  68  91
ENDBRANCH  42  43
ENDBRANCH  35  37
ENDBRANCH  34  35
ENDBRANCH  33  34
ENDBRANCH  32  33
ENDBRANCH  31  32
ENDBRANCH  30  31
ENDBRANCH   1  30
TORSDOF 25
ENDMDL
