MODEL 1
REMARK VINA RESULT:     -11.3      0.000      0.000
REMARK SMILES Cc1cc(C(=O)N[C@@H]2C(=O)N3C(C(=O)OCCOCCOC(=O)c4ccc(-c5c6nc(c(-c7cc(S(=O)(=O)[O-])ccc7F)c7ccc([nH]7)c(-c7cc(S(=O)(=O)[O-])ccc7F)c7nc(c(-c8cc(S(=O)(=O)[O-])ccc8F)c8ccc5[nH]8)C=C7)C=C6)cc4)=C(CSc4nnc(C)s4)CS[C@H]23)n(C)n1
REMARK SMILES IDX 18 1 17 2 16 3 15 4 13 5 14 6 12 7 8 8 9 9 98 10 10 11 11 12
REMARK SMILES IDX 97 13 96 14 87 15 7 16 5 17 6 18 4 20 1 21 2 22 3 23 101 24
REMARK SMILES IDX 99 25 100 26 88 27 89 28 90 29 91 30 95 31 92 32 93 33 94 34
REMARK SMILES IDX 19 35 20 36 21 37 22 38 23 39 24 40 25 41 86 42 26 43 85 44
REMARK SMILES IDX 27 45 28 46 29 47 79 48 30 49 84 50 78 51 80 52 31 53 83 54
REMARK SMILES IDX 77 55 76 56 32 58 64 59 44 60 63 61 45 62 48 63 62 64 81 65
REMARK SMILES IDX 46 66 47 67 61 69 82 70 49 71 33 72 34 73 42 74 35 75 41 76
REMARK SMILES IDX 43 77 40 78 36 79 37 80 38 81 39 82 65 83 66 84 74 85 67 86
REMARK SMILES IDX 73 87 75 88 72 89 68 90 69 91 70 92 71 93 50 94 51 95 59 96
REMARK SMILES IDX 52 97 58 98 60 99 57 100 53 101 54 102 55 103 56 104
REMARK H PARENT 7 19 80 57 48 68
REMARK Flexibility Score: inf
ROOT
ATOM      1  O   UNL A   1      37.289  21.848  25.228  1.00  0.00    -0.374 OA
ENDROOT
BRANCH   1   2
ATOM      2  C   UNL A   1      36.807  22.754  24.238  1.00  0.00     0.202 C 
BRANCH   2   3
ATOM      3  C   UNL A   1      35.326  22.685  23.875  1.00  0.00     0.261 C 
BRANCH   3   4
ATOM      4  O   UNL A   1      34.968  23.781  23.017  1.00  0.00    -0.459 OA
BRANCH   4   5
ATOM      5  C   UNL A   1      33.736  23.701  22.476  1.00  0.00     0.355 C 
ATOM      6  O   UNL A   1      33.469  23.265  21.361  1.00  0.00    -0.244 OA
BRANCH   5   7
ATOM      7  C   UNL A   1      32.650  24.183  23.390  1.00  0.00     0.132 C 
ATOM      8  C   UNL A   1      32.541  27.548  23.915  1.00  0.00     0.206 C 
ATOM      9  C   UNL A   1      32.581  26.616  22.666  1.00  0.00     0.253 C 
ATOM     10  C   UNL A   1      32.288  26.225  24.700  1.00  0.00     0.181 C 
ATOM     11  O   UNL A   1      32.590  26.752  21.469  1.00  0.00    -0.272 OA
ATOM     12  N   UNL A   1      32.586  25.538  23.483  1.00  0.00    -0.289 N 
ATOM     13  S   UNL A   1      30.598  25.765  25.131  1.00  0.00    -0.129 SA
ATOM     14  C   UNL A   1      31.061  24.028  25.362  1.00  0.00     0.106 C 
ATOM     15  C   UNL A   1      31.889  23.424  24.222  1.00  0.00    -0.019 C 
BRANCH   8  16
ATOM     16  N   UNL A   1      31.543  28.637  24.039  1.00  0.00    -0.336 N 
ATOM     17  C   UNL A   1      31.509  29.640  24.995  1.00  0.00     0.270 C 
ATOM     18  O   UNL A   1      30.603  30.469  24.924  1.00  0.00    -0.268 OA
ATOM     19  H   UNL A   1      30.825  28.650  23.366  1.00  0.00     0.164 HD
BRANCH  17  20
ATOM     20  C   UNL A   1      32.490  29.618  26.064  1.00  0.00     0.126 A 
ATOM     21  C   UNL A   1      35.907  29.471  27.319  1.00  0.00     0.069 C 
ATOM     22  C   UNL A   1      34.436  29.497  27.124  1.00  0.00     0.060 A 
ATOM     23  C   UNL A   1      33.696  30.288  26.220  1.00  0.00     0.059 A 
ATOM     24  N   UNL A   1      33.641  28.646  27.770  1.00  0.00    -0.178 NA
ATOM     25  N   UNL A   1      32.433  28.822  27.188  1.00  0.00    -0.263 N 
ATOM     26  C   UNL A   1      31.300  28.159  27.788  1.00  0.00     0.174 C 
ENDBRANCH  17  20
ENDBRANCH   8  16
BRANCH  15  27
ATOM     27  C   UNL A   1      31.816  21.916  24.231  1.00  0.00     0.111 C 
BRANCH  27  28
ATOM     28  S   UNL A   1      32.533  21.078  25.665  1.00  0.00    -0.089 SA
BRANCH  28  29
ATOM     29  C   UNL A   1      32.889  19.425  25.233  1.00  0.00     0.174 A 
ATOM     30  N   UNL A   1      32.070  18.412  25.391  1.00  0.00    -0.132 NA
ATOM     31  S   UNL A   1      34.344  18.981  24.436  1.00  0.00    -0.091 S 
ATOM     32  N   UNL A   1      32.497  17.265  24.749  1.00  0.00    -0.143 NA
ATOM     33  C   UNL A   1      33.629  17.460  24.110  1.00  0.00     0.115 A 
ATOM     34  C   UNL A   1      34.255  16.510  23.157  1.00  0.00     0.081 C 
ENDBRANCH  28  29
ENDBRANCH  27  28
ENDBRANCH  15  27
ENDBRANCH   5   7
ENDBRANCH   4   5
ENDBRANCH   3   4
ENDBRANCH   2   3
ENDBRANCH   1   2
BRANCH   1  35
ATOM     35  C   UNL A   1      37.573  20.507  24.836  1.00  0.00     0.202 C 
BRANCH  35  36
ATOM     36  C   UNL A   1      38.852  19.838  25.358  1.00  0.00     0.261 C 
BRANCH  36  37
ATOM     37  O   UNL A   1      39.330  20.366  26.602  1.00  0.00    -0.460 OA
BRANCH  37  38
ATOM     38  C   UNL A   1      40.661  20.642  26.627  1.00  0.00     0.338 C 
ATOM     39  O   UNL A   1      41.569  19.930  26.239  1.00  0.00    -0.246 OA
BRANCH  38  40
ATOM     40  C   UNL A   1      40.849  22.038  27.062  1.00  0.00     0.060 A 
ATOM     41  C   UNL A   1      40.219  23.065  26.353  1.00  0.00     0.016 A 
ATOM     42  C   UNL A   1      41.677  22.335  28.140  1.00  0.00     0.016 A 
ATOM     43  C   UNL A   1      40.437  24.394  26.716  1.00  0.00     0.010 A 
ATOM     44  C   UNL A   1      41.853  23.659  28.539  1.00  0.00     0.010 A 
ATOM     45  C   UNL A   1      41.275  24.702  27.797  1.00  0.00    -0.014 A 
BRANCH  45  46
ATOM     46  C   UNL A   1      41.701  26.103  28.047  1.00  0.00     0.031 A 
ATOM     47  C   UNL A   1      43.068  26.538  27.581  1.00  0.00     0.074 A 
ATOM     48  C   UNL A   1      40.887  26.976  28.669  1.00  0.00     0.049 A 
ATOM     49  N   UNL A   1      43.679  27.682  27.745  1.00  0.00    -0.248 NA
ATOM     50  C   UNL A   1      43.861  25.534  26.852  1.00  0.00     0.031 C 
ATOM     51  C   UNL A   1      39.538  26.678  29.149  1.00  0.00     0.029 A 
ATOM     52  N   UNL A   1      41.079  28.293  29.005  1.00  0.00    -0.354 N 
ATOM     53  C   UNL A   1      44.931  27.529  27.157  1.00  0.00     0.074 A 
ATOM     54  C   UNL A   1      45.014  26.162  26.693  1.00  0.00     0.031 C 
ATOM     55  C   UNL A   1      39.019  27.785  29.706  1.00  0.00     0.029 A 
ATOM     56  C   UNL A   1      40.013  28.854  29.670  1.00  0.00     0.049 A 
ATOM     57  H   UNL A   1      41.902  28.789  28.792  1.00  0.00     0.167 HD
ATOM     58  C   UNL A   1      45.913  28.451  26.996  1.00  0.00     0.034 A 
ATOM     59  C   UNL A   1      39.867  30.084  30.204  1.00  0.00     0.034 A 
ATOM     60  C   UNL A   1      45.809  29.813  27.457  1.00  0.00     0.049 A 
ATOM     61  C   UNL A   1      41.000  31.075  30.076  1.00  0.00     0.074 A 
ATOM     62  C   UNL A   1      46.724  30.841  27.318  1.00  0.00     0.029 A 
ATOM     63  N   UNL A   1      44.727  30.336  28.156  1.00  0.00    -0.354 N 
ATOM     64  N   UNL A   1      42.170  30.924  29.497  1.00  0.00    -0.248 NA
ATOM     65  C   UNL A   1      40.790  32.403  30.668  1.00  0.00     0.031 C 
ATOM     66  C   UNL A   1      46.236  31.956  28.007  1.00  0.00     0.029 A 
ATOM     67  C   UNL A   1      44.972  31.658  28.491  1.00  0.00     0.049 A 
ATOM     68  H   UNL A   1      43.907  29.839  28.381  1.00  0.00     0.167 HD
ATOM     69  C   UNL A   1      42.818  32.152  29.625  1.00  0.00     0.074 A 
ATOM     70  C   UNL A   1      41.903  33.032  30.323  1.00  0.00     0.031 C 
ATOM     71  C   UNL A   1      44.054  32.522  29.197  1.00  0.00     0.034 A 
BRANCH  58  72
ATOM     72  C   UNL A   1      47.194  27.997  26.332  1.00  0.00     0.023 A 
ATOM     73  C   UNL A   1      47.404  28.141  24.949  1.00  0.00     0.031 A 
ATOM     74  C   UNL A   1      48.205  27.379  27.088  1.00  0.00     0.131 A 
ATOM     75  C   UNL A   1      48.553  27.597  24.355  1.00  0.00     0.055 A 
ATOM     76  C   UNL A   1      49.390  26.924  26.504  1.00  0.00     0.041 A 
ATOM     77  F   UNL A   1      48.054  27.188  28.408  1.00  0.00    -0.206 F 
ATOM     78  C   UNL A   1      49.562  27.017  25.127  1.00  0.00     0.022 A 
BRANCH  75  79
ATOM     79  S   UNL A   1      48.633  27.510  22.544  1.00  0.00     0.124 S 
ATOM     80  O   UNL A   1      47.426  28.241  22.163  1.00  0.00    -0.237 OA
ATOM     81  O   UNL A   1      49.899  28.171  22.253  1.00  0.00    -0.237 OA
ATOM     82  O   UNL A   1      48.597  26.076  22.268  1.00  0.00    -0.744 OA
ENDBRANCH  75  79
ENDBRANCH  58  72
BRANCH  59  83
ATOM     83  C   UNL A   1      38.615  30.448  30.929  1.00  0.00     0.023 A 
ATOM     84  C   UNL A   1      37.640  31.261  30.330  1.00  0.00     0.031 A 
ATOM     85  C   UNL A   1      38.396  30.026  32.253  1.00  0.00     0.131 A 
ATOM     86  C   UNL A   1      36.514  31.663  31.068  1.00  0.00     0.055 A 
ATOM     87  C   UNL A   1      37.246  30.379  32.962  1.00  0.00     0.041 A 
ATOM     88  F   UNL A   1      39.296  29.249  32.876  1.00  0.00    -0.206 F 
ATOM     89  C   UNL A   1      36.302  31.214  32.372  1.00  0.00     0.022 A 
BRANCH  86  90
ATOM     90  S   UNL A   1      35.372  32.862  30.326  1.00  0.00     0.124 S 
ATOM     91  O   UNL A   1      34.747  33.445  31.507  1.00  0.00    -0.237 OA
ATOM     92  O   UNL A   1      36.283  33.729  29.586  1.00  0.00    -0.237 OA
ATOM     93  O   UNL A   1      34.498  32.032  29.500  1.00  0.00    -0.744 OA
ENDBRANCH  86  90
ENDBRANCH  59  83
BRANCH  71  94
ATOM     94  C   UNL A   1      44.466  33.957  29.428  1.00  0.00     0.023 A 
ATOM     95  C   UNL A   1      44.141  34.980  28.520  1.00  0.00     0.031 A 
ATOM     96  C   UNL A   1      45.196  34.306  30.579  1.00  0.00     0.131 A 
ATOM     97  C   UNL A   1      44.597  36.287  28.746  1.00  0.00     0.055 A 
ATOM     98  C   UNL A   1      45.584  35.621  30.836  1.00  0.00     0.041 A 
ATOM     99  F   UNL A   1      45.538  33.370  31.481  1.00  0.00    -0.206 F 
ATOM    100  C   UNL A   1      45.299  36.618  29.909  1.00  0.00     0.022 A 
BRANCH  97 101
ATOM    101  S   UNL A   1      44.356  37.530  27.448  1.00  0.00     0.124 S 
ATOM    102  O   UNL A   1      44.175  38.750  28.228  1.00  0.00    -0.237 OA
ATOM    103  O   UNL A   1      45.600  37.437  26.692  1.00  0.00    -0.237 OA
ATOM    104  O   UNL A   1      43.164  37.062  26.743  1.00  0.00    -0.744 OA
ENDBRANCH  97 101
ENDBRANCH  71  94
ENDBRANCH  45  46
ENDBRANCH  38  40
ENDBRANCH  37  38
ENDBRANCH  36  37
ENDBRANCH  35  36
ENDBRANCH   1  35
TORSDOF 22
ENDMDL
MODEL 2
REMARK VINA RESULT:     -10.6      5.293      9.345
REMARK SMILES Cc1cc(C(=O)N[C@@H]2C(=O)N3C(C(=O)OCCOCCOC(=O)c4ccc(-c5c6nc(c(-c7cc(S(=O)(=O)[O-])ccc7F)c7ccc([nH]7)c(-c7cc(S(=O)(=O)[O-])ccc7F)c7nc(c(-c8cc(S(=O)(=O)[O-])ccc8F)c8ccc5[nH]8)C=C7)C=C6)cc4)=C(CSc4nnc(C)s4)CS[C@H]23)n(C)n1
REMARK SMILES IDX 18 1 17 2 16 3 15 4 13 5 14 6 12 7 8 8 9 9 98 10 10 11 11 12
REMARK SMILES IDX 97 13 96 14 87 15 7 16 5 17 6 18 4 20 1 21 2 22 3 23 101 24
REMARK SMILES IDX 99 25 100 26 88 27 89 28 90 29 91 30 95 31 92 32 93 33 94 34
REMARK SMILES IDX 19 35 20 36 21 37 22 38 23 39 24 40 25 41 86 42 26 43 85 44
REMARK SMILES IDX 27 45 28 46 29 47 79 48 30 49 84 50 78 51 80 52 31 53 83 54
REMARK SMILES IDX 77 55 76 56 32 58 64 59 44 60 63 61 45 62 48 63 62 64 81 65
REMARK SMILES IDX 46 66 47 67 61 69 82 70 49 71 33 72 34 73 42 74 35 75 41 76
REMARK SMILES IDX 43 77 40 78 36 79 37 80 38 81 39 82 65 83 66 84 74 85 67 86
REMARK SMILES IDX 73 87 75 88 72 89 68 90 69 91 70 92 71 93 50 94 51 95 59 96
REMARK SMILES IDX 52 97 58 98 60 99 57 100 53 101 54 102 55 103 56 104
REMARK H PARENT 7 19 80 57 48 68
REMARK Flexibility Score: inf
ROOT
ATOM      1  O   UNL A   1      31.624  31.432  26.219  1.00  0.00    -0.374 OA
ENDROOT
BRANCH   1   2
ATOM      2  C   UNL A   1      31.818  30.035  26.012  1.00  0.00     0.202 C 
BRANCH   2   3
ATOM      3  C   UNL A   1      31.706  29.117  27.227  1.00  0.00     0.261 C 
BRANCH   3   4
ATOM      4  O   UNL A   1      31.375  27.779  26.815  1.00  0.00    -0.459 OA
BRANCH   4   5
ATOM      5  C   UNL A   1      32.275  27.198  25.998  1.00  0.00     0.355 C 
ATOM      6  O   UNL A   1      33.488  27.375  26.023  1.00  0.00    -0.244 OA
BRANCH   5   7
ATOM      7  C   UNL A   1      31.661  26.245  25.016  1.00  0.00     0.132 C 
ATOM      8  C   UNL A   1      32.647  22.995  25.291  1.00  0.00     0.206 C 
ATOM      9  C   UNL A   1      32.081  24.073  26.264  1.00  0.00     0.253 C 
ATOM     10  C   UNL A   1      32.258  24.018  24.181  1.00  0.00     0.181 C 
ATOM     11  O   UNL A   1      31.800  24.140  27.434  1.00  0.00    -0.272 OA
ATOM     12  N   UNL A   1      32.007  24.949  25.235  1.00  0.00    -0.289 N 
ATOM     13  S   UNL A   1      30.692  23.818  23.308  1.00  0.00    -0.129 SA
ATOM     14  C   UNL A   1      30.695  25.551  22.775  1.00  0.00     0.106 C 
ATOM     15  C   UNL A   1      30.975  26.568  23.888  1.00  0.00    -0.019 C 
BRANCH   8  16
ATOM     16  N   UNL A   1      32.067  21.632  25.222  1.00  0.00    -0.336 N 
ATOM     17  C   UNL A   1      32.740  20.426  25.345  1.00  0.00     0.270 C 
ATOM     18  O   UNL A   1      32.080  19.392  25.275  1.00  0.00    -0.268 OA
ATOM     19  H   UNL A   1      31.096  21.578  25.073  1.00  0.00     0.164 HD
BRANCH  17  20
ATOM     20  C   UNL A   1      34.185  20.445  25.477  1.00  0.00     0.126 A 
ATOM     21  C   UNL A   1      37.421  22.118  25.415  1.00  0.00     0.069 C 
ATOM     22  C   UNL A   1      36.285  21.165  25.468  1.00  0.00     0.060 A 
ATOM     23  C   UNL A   1      35.041  21.334  26.112  1.00  0.00     0.059 A 
ATOM     24  N   UNL A   1      36.312  20.023  24.783  1.00  0.00    -0.178 NA
ATOM     25  N   UNL A   1      35.054  19.541  24.902  1.00  0.00    -0.263 N 
ATOM     26  C   UNL A   1      34.800  18.209  24.408  1.00  0.00     0.174 C 
ENDBRANCH  17  20
ENDBRANCH   8  16
BRANCH  15  27
ATOM     27  C   UNL A   1      30.488  27.945  23.507  1.00  0.00     0.111 C 
BRANCH  27  28
ATOM     28  S   UNL A   1      28.744  28.092  23.054  1.00  0.00    -0.089 SA
BRANCH  28  29
ATOM     29  C   UNL A   1      28.319  29.784  22.985  1.00  0.00     0.174 A 
ATOM     30  N   UNL A   1      27.263  30.319  23.551  1.00  0.00    -0.132 NA
ATOM     31  S   UNL A   1      29.335  30.952  22.242  1.00  0.00    -0.091 S 
ATOM     32  N   UNL A   1      27.291  31.701  23.550  1.00  0.00    -0.143 NA
ATOM     33  C   UNL A   1      28.387  32.164  22.992  1.00  0.00     0.115 A 
ATOM     34  C   UNL A   1      28.832  33.580  23.010  1.00  0.00     0.081 C 
ENDBRANCH  28  29
ENDBRANCH  27  28
ENDBRANCH  15  27
ENDBRANCH   5   7
ENDBRANCH   4   5
ENDBRANCH   3   4
ENDBRANCH   2   3
ENDBRANCH   1   2
BRANCH   1  35
ATOM     35  C   UNL A   1      32.274  32.048  27.328  1.00  0.00     0.202 C 
BRANCH  35  36
ATOM     36  C   UNL A   1      32.278  33.580  27.427  1.00  0.00     0.261 C 
BRANCH  36  37
ATOM     37  O   UNL A   1      32.490  34.087  28.752  1.00  0.00    -0.460 OA
BRANCH  37  38
ATOM     38  C   UNL A   1      33.583  34.883  28.885  1.00  0.00     0.338 C 
ATOM     39  O   UNL A   1      33.640  36.090  28.735  1.00  0.00    -0.246 OA
BRANCH  38  40
ATOM     40  C   UNL A   1      34.699  34.074  29.408  1.00  0.00     0.060 A 
ATOM     41  C   UNL A   1      34.426  33.018  30.282  1.00  0.00     0.016 A 
ATOM     42  C   UNL A   1      36.014  34.383  29.070  1.00  0.00     0.016 A 
ATOM     43  C   UNL A   1      35.477  32.283  30.833  1.00  0.00     0.010 A 
ATOM     44  C   UNL A   1      37.062  33.616  29.575  1.00  0.00     0.010 A 
ATOM     45  C   UNL A   1      36.803  32.592  30.502  1.00  0.00    -0.014 A 
BRANCH  45  46
ATOM     46  C   UNL A   1      37.931  31.981  31.252  1.00  0.00     0.031 A 
ATOM     47  C   UNL A   1      38.673  30.827  30.629  1.00  0.00     0.074 A 
ATOM     48  C   UNL A   1      38.295  32.448  32.461  1.00  0.00     0.049 A 
ATOM     49  N   UNL A   1      39.641  30.095  31.119  1.00  0.00    -0.248 NA
ATOM     50  C   UNL A   1      38.248  30.428  29.277  1.00  0.00     0.031 C 
ATOM     51  C   UNL A   1      37.665  33.569  33.158  1.00  0.00     0.029 A 
ATOM     52  N   UNL A   1      39.283  32.034  33.318  1.00  0.00    -0.354 N 
ATOM     53  C   UNL A   1      39.925  29.143  30.145  1.00  0.00     0.074 A 
ATOM     54  C   UNL A   1      38.984  29.349  29.067  1.00  0.00     0.031 C 
ATOM     55  C   UNL A   1      38.292  33.762  34.331  1.00  0.00     0.029 A 
ATOM     56  C   UNL A   1      39.332  32.749  34.493  1.00  0.00     0.049 A 
ATOM     57  H   UNL A   1      39.899  31.295  33.113  1.00  0.00     0.167 HD
ATOM     58  C   UNL A   1      40.898  28.198  30.139  1.00  0.00     0.034 A 
ATOM     59  C   UNL A   1      40.114  32.590  35.580  1.00  0.00     0.034 A 
ATOM     60  C   UNL A   1      41.835  28.014  31.219  1.00  0.00     0.049 A 
ATOM     61  C   UNL A   1      41.145  31.487  35.583  1.00  0.00     0.074 A 
ATOM     62  C   UNL A   1      42.883  27.114  31.307  1.00  0.00     0.029 A 
ATOM     63  N   UNL A   1      41.831  28.735  32.407  1.00  0.00    -0.354 N 
ATOM     64  N   UNL A   1      41.419  30.608  34.645  1.00  0.00    -0.248 NA
ATOM     65  C   UNL A   1      41.976  31.359  36.787  1.00  0.00     0.031 C 
ATOM     66  C   UNL A   1      43.454  27.232  32.578  1.00  0.00     0.029 A 
ATOM     67  C   UNL A   1      42.831  28.272  33.248  1.00  0.00     0.049 A 
ATOM     68  H   UNL A   1      41.209  29.468  32.620  1.00  0.00     0.167 HD
ATOM     69  C   UNL A   1      42.480  29.848  35.136  1.00  0.00     0.074 A 
ATOM     70  C   UNL A   1      42.801  30.382  36.443  1.00  0.00     0.031 C 
ATOM     71  C   UNL A   1      43.134  28.808  34.556  1.00  0.00     0.034 A 
BRANCH  58  72
ATOM     72  C   UNL A   1      40.964  27.272  28.945  1.00  0.00     0.023 A 
ATOM     73  C   UNL A   1      41.916  27.443  27.924  1.00  0.00     0.031 A 
ATOM     74  C   UNL A   1      40.037  26.225  28.807  1.00  0.00     0.131 A 
ATOM     75  C   UNL A   1      41.865  26.638  26.776  1.00  0.00     0.055 A 
ATOM     76  C   UNL A   1      40.052  25.365  27.707  1.00  0.00     0.041 A 
ATOM     77  F   UNL A   1      39.086  26.025  29.734  1.00  0.00    -0.206 F 
ATOM     78  C   UNL A   1      40.959  25.581  26.674  1.00  0.00     0.022 A 
BRANCH  75  79
ATOM     79  S   UNL A   1      42.889  27.098  25.351  1.00  0.00     0.124 S 
ATOM     80  O   UNL A   1      44.168  27.393  25.992  1.00  0.00    -0.237 OA
ATOM     81  O   UNL A   1      42.847  25.893  24.531  1.00  0.00    -0.237 OA
ATOM     82  O   UNL A   1      42.197  28.258  24.793  1.00  0.00    -0.744 OA
ENDBRANCH  75  79
ENDBRANCH  58  72
BRANCH  59  83
ATOM     83  C   UNL A   1      39.943  33.477  36.768  1.00  0.00     0.023 A 
ATOM     84  C   UNL A   1      40.911  34.437  37.103  1.00  0.00     0.031 A 
ATOM     85  C   UNL A   1      38.828  33.345  37.616  1.00  0.00     0.131 A 
ATOM     86  C   UNL A   1      40.770  35.195  38.277  1.00  0.00     0.055 A 
ATOM     87  C   UNL A   1      38.662  34.143  38.750  1.00  0.00     0.041 A 
ATOM     88  F   UNL A   1      37.872  32.442  37.346  1.00  0.00    -0.206 F 
ATOM     89  C   UNL A   1      39.645  35.066  39.093  1.00  0.00     0.022 A 
BRANCH  86  90
ATOM     90  S   UNL A   1      42.129  36.289  38.773  1.00  0.00     0.124 S 
ATOM     91  O   UNL A   1      41.634  36.821  40.038  1.00  0.00    -0.237 OA
ATOM     92  O   UNL A   1      43.250  35.358  38.861  1.00  0.00    -0.237 OA
ATOM     93  O   UNL A   1      42.207  37.252  37.676  1.00  0.00    -0.744 OA
ENDBRANCH  86  90
ENDBRANCH  59  83
BRANCH  71  94
ATOM     94  C   UNL A   1      44.299  28.214  35.313  1.00  0.00     0.023 A 
ATOM     95  C   UNL A   1      45.618  28.662  35.120  1.00  0.00     0.031 A 
ATOM     96  C   UNL A   1      44.084  27.181  36.243  1.00  0.00     0.131 A 
ATOM     97  C   UNL A   1      46.674  28.038  35.801  1.00  0.00     0.055 A 
ATOM     98  C   UNL A   1      45.130  26.615  36.972  1.00  0.00     0.041 A 
ATOM     99  F   UNL A   1      42.846  26.710  36.467  1.00  0.00    -0.206 F 
ATOM    100  C   UNL A   1      46.437  27.032  36.741  1.00  0.00     0.022 A 
BRANCH  97 101
ATOM    101  S   UNL A   1      48.376  28.486  35.362  1.00  0.00     0.124 S 
ATOM    102  O   UNL A   1      49.145  27.440  36.028  1.00  0.00    -0.237 OA
ATOM    103  O   UNL A   1      48.349  28.426  33.904  1.00  0.00    -0.237 OA
ATOM    104  O   UNL A   1      48.534  29.826  35.925  1.00  0.00    -0.744 OA
ENDBRANCH  97 101
ENDBRANCH  71  94
ENDBRANCH  45  46
ENDBRANCH  38  40
ENDBRANCH  37  38
ENDBRANCH  36  37
ENDBRANCH  35  36
ENDBRANCH   1  35
TORSDOF 22
ENDMDL
MODEL 3
REMARK VINA RESULT:     -10.6      5.009      9.245
REMARK SMILES Cc1cc(C(=O)N[C@@H]2C(=O)N3C(C(=O)OCCOCCOC(=O)c4ccc(-c5c6nc(c(-c7cc(S(=O)(=O)[O-])ccc7F)c7ccc([nH]7)c(-c7cc(S(=O)(=O)[O-])ccc7F)c7nc(c(-c8cc(S(=O)(=O)[O-])ccc8F)c8ccc5[nH]8)C=C7)C=C6)cc4)=C(CSc4nnc(C)s4)CS[C@H]23)n(C)n1
REMARK SMILES IDX 18 1 17 2 16 3 15 4 13 5 14 6 12 7 8 8 9 9 98 10 10 11 11 12
REMARK SMILES IDX 97 13 96 14 87 15 7 16 5 17 6 18 4 20 1 21 2 22 3 23 101 24
REMARK SMILES IDX 99 25 100 26 88 27 89 28 90 29 91 30 95 31 92 32 93 33 94 34
REMARK SMILES IDX 19 35 20 36 21 37 22 38 23 39 24 40 25 41 86 42 26 43 85 44
REMARK SMILES IDX 27 45 28 46 29 47 79 48 30 49 84 50 78 51 80 52 31 53 83 54
REMARK SMILES IDX 77 55 76 56 32 58 64 59 44 60 63 61 45 62 48 63 62 64 81 65
REMARK SMILES IDX 46 66 47 67 61 69 82 70 49 71 33 72 34 73 42 74 35 75 41 76
REMARK SMILES IDX 43 77 40 78 36 79 37 80 38 81 39 82 65 83 66 84 74 85 67 86
REMARK SMILES IDX 73 87 75 88 72 89 68 90 69 91 70 92 71 93 50 94 51 95 59 96
REMARK SMILES IDX 52 97 58 98 60 99 57 100 53 101 54 102 55 103 56 104
REMARK H PARENT 7 19 80 57 48 68
REMARK Flexibility Score: inf
ROOT
ATOM      1  O   UNL A   1      31.510  31.285  26.142  1.00  0.00    -0.374 OA
ENDROOT
BRANCH   1   2
ATOM      2  C   UNL A   1      31.621  29.875  25.961  1.00  0.00     0.202 C 
BRANCH   2   3
ATOM      3  C   UNL A   1      31.849  29.016  27.203  1.00  0.00     0.261 C 
BRANCH   3   4
ATOM      4  O   UNL A   1      31.918  27.625  26.845  1.00  0.00    -0.459 OA
BRANCH   4   5
ATOM      5  C   UNL A   1      33.097  27.230  26.325  1.00  0.00     0.355 C 
ATOM      6  O   UNL A   1      34.207  27.536  26.748  1.00  0.00    -0.244 OA
BRANCH   5   7
ATOM      7  C   UNL A   1      32.952  26.320  25.143  1.00  0.00     0.132 C 
ATOM      8  C   UNL A   1      32.841  22.987  25.845  1.00  0.00     0.206 C 
ATOM      9  C   UNL A   1      32.085  24.256  26.343  1.00  0.00     0.253 C 
ATOM     10  C   UNL A   1      33.395  23.941  24.743  1.00  0.00     0.181 C 
ATOM     11  O   UNL A   1      31.213  24.504  27.138  1.00  0.00    -0.272 OA
ATOM     12  N   UNL A   1      32.808  25.012  25.485  1.00  0.00    -0.289 N 
ATOM     13  S   UNL A   1      32.604  23.966  23.122  1.00  0.00    -0.129 SA
ATOM     14  C   UNL A   1      33.301  25.594  22.736  1.00  0.00     0.106 C 
ATOM     15  C   UNL A   1      33.122  26.649  23.835  1.00  0.00    -0.019 C 
BRANCH   8  16
ATOM     16  N   UNL A   1      32.112  21.769  25.417  1.00  0.00    -0.336 N 
ATOM     17  C   UNL A   1      32.643  20.507  25.197  1.00  0.00     0.270 C 
ATOM     18  O   UNL A   1      31.871  19.613  24.856  1.00  0.00    -0.268 OA
ATOM     19  H   UNL A   1      31.143  21.867  25.273  1.00  0.00     0.164 HD
BRANCH  17  20
ATOM     20  C   UNL A   1      34.079  20.326  25.307  1.00  0.00     0.126 A 
ATOM     21  C   UNL A   1      37.519  21.498  25.056  1.00  0.00     0.069 C 
ATOM     22  C   UNL A   1      36.259  20.729  25.207  1.00  0.00     0.060 A 
ATOM     23  C   UNL A   1      35.070  21.132  25.850  1.00  0.00     0.059 A 
ATOM     24  N   UNL A   1      36.104  19.541  24.625  1.00  0.00    -0.178 NA
ATOM     25  N   UNL A   1      34.792  19.260  24.801  1.00  0.00    -0.263 N 
ATOM     26  C   UNL A   1      34.337  17.942  24.430  1.00  0.00     0.174 C 
ENDBRANCH  17  20
ENDBRANCH   8  16
BRANCH  15  27
ATOM     27  C   UNL A   1      33.265  28.046  23.282  1.00  0.00     0.111 C 
BRANCH  27  28
ATOM     28  S   UNL A   1      32.286  28.441  21.813  1.00  0.00    -0.089 SA
BRANCH  28  29
ATOM     29  C   UNL A   1      30.673  28.884  22.311  1.00  0.00     0.174 A 
ATOM     30  N   UNL A   1      30.021  29.945  21.896  1.00  0.00    -0.132 NA
ATOM     31  S   UNL A   1      29.724  27.882  23.332  1.00  0.00    -0.091 S 
ATOM     32  N   UNL A   1      28.685  29.932  22.250  1.00  0.00    -0.143 NA
ATOM     33  C   UNL A   1      28.370  28.842  22.913  1.00  0.00     0.115 A 
ATOM     34  C   UNL A   1      26.992  28.413  23.260  1.00  0.00     0.081 C 
ENDBRANCH  28  29
ENDBRANCH  27  28
ENDBRANCH  15  27
ENDBRANCH   5   7
ENDBRANCH   4   5
ENDBRANCH   3   4
ENDBRANCH   2   3
ENDBRANCH   1   2
BRANCH   1  35
ATOM     35  C   UNL A   1      32.264  31.893  27.188  1.00  0.00     0.202 C 
BRANCH  35  36
ATOM     36  C   UNL A   1      32.428  33.420  27.191  1.00  0.00     0.261 C 
BRANCH  36  37
ATOM     37  O   UNL A   1      32.393  34.015  28.496  1.00  0.00    -0.460 OA
BRANCH  37  38
ATOM     38  C   UNL A   1      33.444  34.829  28.775  1.00  0.00     0.338 C 
ATOM     39  O   UNL A   1      33.455  36.047  28.775  1.00  0.00    -0.246 OA
BRANCH  38  40
ATOM     40  C   UNL A   1      34.571  34.005  29.247  1.00  0.00     0.060 A 
ATOM     41  C   UNL A   1      34.322  32.946  30.126  1.00  0.00     0.016 A 
ATOM     42  C   UNL A   1      35.874  34.301  28.857  1.00  0.00     0.016 A 
ATOM     43  C   UNL A   1      35.386  32.197  30.629  1.00  0.00     0.010 A 
ATOM     44  C   UNL A   1      36.933  33.518  29.314  1.00  0.00     0.010 A 
ATOM     45  C   UNL A   1      36.701  32.492  30.245  1.00  0.00    -0.014 A 
BRANCH  45  46
ATOM     46  C   UNL A   1      37.852  31.864  30.945  1.00  0.00     0.031 A 
ATOM     47  C   UNL A   1      38.670  30.833  30.209  1.00  0.00     0.074 A 
ATOM     48  C   UNL A   1      38.169  32.208  32.207  1.00  0.00     0.049 A 
ATOM     49  N   UNL A   1      39.672  30.107  30.633  1.00  0.00    -0.248 NA
ATOM     50  C   UNL A   1      38.290  30.571  28.812  1.00  0.00     0.031 C 
ATOM     51  C   UNL A   1      37.463  33.203  33.013  1.00  0.00     0.029 A 
ATOM     52  N   UNL A   1      39.167  31.754  33.032  1.00  0.00    -0.354 N 
ATOM     53  C   UNL A   1      40.027  29.291  29.563  1.00  0.00     0.074 A 
ATOM     54  C   UNL A   1      39.092  29.566  28.496  1.00  0.00     0.031 C 
ATOM     55  C   UNL A   1      38.059  33.294  34.214  1.00  0.00     0.029 A 
ATOM     56  C   UNL A   1      39.155  32.331  34.281  1.00  0.00     0.049 A 
ATOM     57  H   UNL A   1      39.828  31.080  32.757  1.00  0.00     0.167 HD
ATOM     58  C   UNL A   1      41.054  28.411  29.470  1.00  0.00     0.034 A 
ATOM     59  C   UNL A   1      39.929  32.092  35.360  1.00  0.00     0.034 A 
ATOM     60  C   UNL A   1      41.984  28.156  30.542  1.00  0.00     0.049 A 
ATOM     61  C   UNL A   1      41.024  31.056  35.259  1.00  0.00     0.074 A 
ATOM     62  C   UNL A   1      43.081  27.314  30.548  1.00  0.00     0.029 A 
ATOM     63  N   UNL A   1      41.919  28.734  31.804  1.00  0.00    -0.354 N 
ATOM     64  N   UNL A   1      41.363  30.309  34.233  1.00  0.00    -0.248 NA
ATOM     65  C   UNL A   1      41.842  30.837  36.459  1.00  0.00     0.031 C 
ATOM     66  C   UNL A   1      43.626  27.316  31.837  1.00  0.00     0.029 A 
ATOM     67  C   UNL A   1      42.932  28.234  32.608  1.00  0.00     0.049 A 
ATOM     68  H   UNL A   1      41.252  29.401  32.087  1.00  0.00     0.167 HD
ATOM     69  C   UNL A   1      42.459  29.559  34.657  1.00  0.00     0.074 A 
ATOM     70  C   UNL A   1      42.729  29.955  36.023  1.00  0.00     0.031 C 
ATOM     71  C   UNL A   1      43.183  28.632  33.975  1.00  0.00     0.034 A 
BRANCH  58  72
ATOM     72  C   UNL A   1      41.193  27.635  28.180  1.00  0.00     0.023 A 
ATOM     73  C   UNL A   1      40.849  26.274  28.090  1.00  0.00     0.031 A 
ATOM     74  C   UNL A   1      41.712  28.256  27.031  1.00  0.00     0.131 A 
ATOM     75  C   UNL A   1      41.108  25.562  26.909  1.00  0.00     0.055 A 
ATOM     76  C   UNL A   1      41.878  27.565  25.828  1.00  0.00     0.041 A 
ATOM     77  F   UNL A   1      42.084  29.546  27.058  1.00  0.00    -0.206 F 
ATOM     78  C   UNL A   1      41.591  26.205  25.768  1.00  0.00     0.022 A 
BRANCH  75  79
ATOM     79  S   UNL A   1      40.960  23.754  26.938  1.00  0.00     0.124 S 
ATOM     80  O   UNL A   1      41.407  23.446  28.296  1.00  0.00    -0.237 OA
ATOM     81  O   UNL A   1      39.542  23.549  26.671  1.00  0.00    -0.237 OA
ATOM     82  O   UNL A   1      41.867  23.319  25.878  1.00  0.00    -0.744 OA
ENDBRANCH  75  79
ENDBRANCH  58  72
BRANCH  59  83
ATOM     83  C   UNL A   1      39.688  32.824  36.638  1.00  0.00     0.023 A 
ATOM     84  C   UNL A   1      38.753  32.359  37.577  1.00  0.00     0.031 A 
ATOM     85  C   UNL A   1      40.357  34.030  36.918  1.00  0.00     0.131 A 
ATOM     86  C   UNL A   1      38.480  33.116  38.728  1.00  0.00     0.055 A 
ATOM     87  C   UNL A   1      40.126  34.748  38.093  1.00  0.00     0.041 A 
ATOM     88  F   UNL A   1      41.259  34.523  36.055  1.00  0.00    -0.206 F 
ATOM     89  C   UNL A   1      39.172  34.297  39.000  1.00  0.00     0.022 A 
BRANCH  86  90
ATOM     90  S   UNL A   1      37.136  32.580  39.821  1.00  0.00     0.124 S 
ATOM     91  O   UNL A   1      37.539  31.214  40.137  1.00  0.00    -0.237 OA
ATOM     92  O   UNL A   1      37.229  33.545  40.911  1.00  0.00    -0.237 OA
ATOM     93  O   UNL A   1      35.946  32.703  38.981  1.00  0.00    -0.744 OA
ENDBRANCH  86  90
ENDBRANCH  59  83
BRANCH  71  94
ATOM     94  C   UNL A   1      44.370  28.022  34.684  1.00  0.00     0.023 A 
ATOM     95  C   UNL A   1      44.288  26.778  35.335  1.00  0.00     0.031 A 
ATOM     96  C   UNL A   1      45.603  28.698  34.707  1.00  0.00     0.131 A 
ATOM     97  C   UNL A   1      45.400  26.280  36.031  1.00  0.00     0.055 A 
ATOM     98  C   UNL A   1      46.725  28.163  35.339  1.00  0.00     0.041 A 
ATOM     99  F   UNL A   1      45.740  29.891  34.105  1.00  0.00    -0.206 F 
ATOM    100  C   UNL A   1      46.624  26.954  36.019  1.00  0.00     0.022 A 
BRANCH  97 101
ATOM    101  S   UNL A   1      45.195  24.790  37.045  1.00  0.00     0.124 S 
ATOM    102  O   UNL A   1      44.198  24.043  36.286  1.00  0.00    -0.237 OA
ATOM    103  O   UNL A   1      46.542  24.228  37.051  1.00  0.00    -0.237 OA
ATOM    104  O   UNL A   1      44.734  25.311  38.331  1.00  0.00    -0.744 OA
ENDBRANCH  97 101
ENDBRANCH  71  94
ENDBRANCH  45  46
ENDBRANCH  38  40
ENDBRANCH  37  38
ENDBRANCH  36  37
ENDBRANCH  35  36
ENDBRANCH   1  35
TORSDOF 22
ENDMDL
