MODEL 1
REMARK VINA RESULT:     -11.0      0.000      0.000
REMARK SMILES CC(=O)C1=C(C(=O)OCCOCCOC(=O)c2ccc(-c3c4nc(c(-c5cc(S(=O)(=O)[O-])ccc5F)c5ccc([nH]5)c(-c5cc(S(=O)(=O)[O-])ccc5F)c5nc(c(-c6cc(S(=O)(=O)[O-])ccc6F)c6ccc3[nH]6)C=C5)C=C4)cc2)S[C@H]2CCCCC2=N1
REMARK SMILES IDX 12 1 11 2 10 3 9 4 8 5 6 6 7 7 5 8 4 9 87 10 80 11 86 12
REMARK SMILES IDX 81 13 85 14 82 15 84 16 83 17 2 18 1 19 3 20 13 21 14 22
REMARK SMILES IDX 15 23 16 24 17 25 18 26 79 27 19 28 78 29 20 30 21 31 22 32
REMARK SMILES IDX 72 33 23 34 77 35 71 36 73 37 24 38 76 39 70 40 69 41 25 43
REMARK SMILES IDX 57 44 37 45 56 46 38 47 41 48 55 49 74 50 39 51 40 52 54 54
REMARK SMILES IDX 75 55 42 56 26 57 27 58 35 59 28 60 34 61 36 62 33 63 29 64
REMARK SMILES IDX 30 65 31 66 32 67 58 68 59 69 67 70 60 71 66 72 68 73 65 74
REMARK SMILES IDX 61 75 62 76 63 77 64 78 43 79 44 80 52 81 45 82 51 83 53 84
REMARK SMILES IDX 50 85 46 86 47 87 48 88 49 89
REMARK H PARENT 73 42 41 53
REMARK Flexibility Score: inf
ROOT
ATOM      1  C   UNL A   1      35.478  20.187  25.003  1.00  0.00     0.202 C 
ENDROOT
BRANCH   1   2
ATOM      2  O   UNL A   1      34.544  21.245  24.824  1.00  0.00    -0.374 OA
BRANCH   2   3
ATOM      3  C   UNL A   1      33.160  20.958  25.039  1.00  0.00     0.202 C 
BRANCH   3   4
ATOM      4  C   UNL A   1      32.162  21.645  24.104  1.00  0.00     0.261 C 
BRANCH   4   5
ATOM      5  O   UNL A   1      31.526  22.742  24.779  1.00  0.00    -0.459 OA
BRANCH   5   6
ATOM      6  C   UNL A   1      31.123  23.782  24.004  1.00  0.00     0.347 C 
ATOM      7  O   UNL A   1      30.276  23.720  23.127  1.00  0.00    -0.245 OA
BRANCH   6   8
ATOM      8  C   UNL A   1      31.756  25.053  24.474  1.00  0.00     0.123 C 
ATOM      9  C   UNL A   1      32.734  25.661  23.773  1.00  0.00     0.127 C 
ATOM     10  N   UNL A   1      33.448  26.778  24.162  1.00  0.00    -0.251 NA
ATOM     11  S   UNL A   1      31.188  25.706  25.985  1.00  0.00    -0.107 SA
ATOM     12  C   UNL A   1      33.007  27.562  25.099  1.00  0.00     0.032 C 
ATOM     13  C   UNL A   1      31.645  27.454  25.772  1.00  0.00     0.097 C 
ATOM     14  C   UNL A   1      33.860  28.784  25.385  1.00  0.00     0.053 C 
ATOM     15  C   UNL A   1      31.566  28.119  27.153  1.00  0.00     0.021 C 
ATOM     16  C   UNL A   1      33.796  29.189  26.844  1.00  0.00     0.006 C 
ATOM     17  C   UNL A   1      32.350  29.423  27.253  1.00  0.00     0.002 C 
BRANCH   9  18
ATOM     18  C   UNL A   1      33.177  25.085  22.447  1.00  0.00     0.179 C 
ATOM     19  C   UNL A   1      32.544  25.652  21.201  1.00  0.00     0.095 C 
ATOM     20  O   UNL A   1      34.082  24.254  22.390  1.00  0.00    -0.293 OA
ENDBRANCH   9  18
ENDBRANCH   6   8
ENDBRANCH   5   6
ENDBRANCH   4   5
ENDBRANCH   3   4
ENDBRANCH   2   3
ENDBRANCH   1   2
BRANCH   1  21
ATOM     21  C   UNL A   1      36.969  20.457  24.770  1.00  0.00     0.261 C 
BRANCH  21  22
ATOM     22  O   UNL A   1      37.520  21.424  25.660  1.00  0.00    -0.460 OA
BRANCH  22  23
ATOM     23  C   UNL A   1      38.810  21.166  25.997  1.00  0.00     0.338 C 
ATOM     24  O   UNL A   1      39.449  20.161  25.751  1.00  0.00    -0.246 OA
BRANCH  23  25
ATOM     25  C   UNL A   1      39.399  22.385  26.574  1.00  0.00     0.060 A 
ATOM     26  C   UNL A   1      38.907  23.616  26.126  1.00  0.00     0.016 A 
ATOM     27  C   UNL A   1      40.432  22.315  27.510  1.00  0.00     0.016 A 
ATOM     28  C   UNL A   1      39.486  24.795  26.582  1.00  0.00     0.010 A 
ATOM     29  C   UNL A   1      41.014  23.499  27.963  1.00  0.00     0.010 A 
ATOM     30  C   UNL A   1      40.565  24.738  27.472  1.00  0.00    -0.014 A 
BRANCH  30  31
ATOM     31  C   UNL A   1      41.335  25.967  27.763  1.00  0.00     0.031 A 
ATOM     32  C   UNL A   1      40.654  27.078  28.511  1.00  0.00     0.074 A 
ATOM     33  C   UNL A   1      42.620  26.070  27.383  1.00  0.00     0.049 A 
ATOM     34  N   UNL A   1      41.100  28.266  28.820  1.00  0.00    -0.248 NA
ATOM     35  C   UNL A   1      39.278  26.812  28.961  1.00  0.00     0.031 C 
ATOM     36  C   UNL A   1      43.379  25.029  26.690  1.00  0.00     0.029 A 
ATOM     37  N   UNL A   1      43.508  27.104  27.516  1.00  0.00    -0.354 N 
ATOM     38  C   UNL A   1      40.060  28.894  29.496  1.00  0.00     0.074 A 
ATOM     39  C   UNL A   1      38.945  27.971  29.507  1.00  0.00     0.031 C 
ATOM     40  C   UNL A   1      44.621  25.483  26.453  1.00  0.00     0.029 A 
ATOM     41  C   UNL A   1      44.728  26.859  26.932  1.00  0.00     0.049 A 
ATOM     42  H   UNL A   1      43.294  27.943  27.986  1.00  0.00     0.167 HD
ATOM     43  C   UNL A   1      40.046  30.124  30.064  1.00  0.00     0.034 A 
ATOM     44  C   UNL A   1      45.795  27.669  26.778  1.00  0.00     0.034 A 
ATOM     45  C   UNL A   1      41.170  31.027  30.024  1.00  0.00     0.049 A 
ATOM     46  C   UNL A   1      45.725  29.068  27.340  1.00  0.00     0.074 A 
ATOM     47  C   UNL A   1      41.278  32.294  30.567  1.00  0.00     0.029 A 
ATOM     48  N   UNL A   1      42.379  30.763  29.391  1.00  0.00    -0.354 N 
ATOM     49  N   UNL A   1      44.739  29.653  27.984  1.00  0.00    -0.248 NA
ATOM     50  C   UNL A   1      46.912  29.912  27.164  1.00  0.00     0.031 C 
ATOM     51  C   UNL A   1      42.517  32.825  30.196  1.00  0.00     0.029 A 
ATOM     52  C   UNL A   1      43.224  31.856  29.500  1.00  0.00     0.049 A 
ATOM     53  H   UNL A   1      42.602  29.920  28.933  1.00  0.00     0.167 HD
ATOM     54  C   UNL A   1      45.205  30.922  28.320  1.00  0.00     0.074 A 
ATOM     55  C   UNL A   1      46.561  31.008  27.821  1.00  0.00     0.031 C 
ATOM     56  C   UNL A   1      44.572  31.924  28.986  1.00  0.00     0.034 A 
BRANCH  43  57
ATOM     57  C   UNL A   1      38.762  30.572  30.723  1.00  0.00     0.023 A 
ATOM     58  C   UNL A   1      37.726  31.181  29.994  1.00  0.00     0.031 A 
ATOM     59  C   UNL A   1      38.586  30.418  32.110  1.00  0.00     0.131 A 
ATOM     60  C   UNL A   1      36.597  31.680  30.662  1.00  0.00     0.055 A 
ATOM     61  C   UNL A   1      37.422  30.838  32.756  1.00  0.00     0.041 A 
ATOM     62  F   UNL A   1      39.551  29.870  32.866  1.00  0.00    -0.206 F 
ATOM     63  C   UNL A   1      36.426  31.487  32.034  1.00  0.00     0.022 A 
BRANCH  60  64
ATOM     64  S   UNL A   1      35.433  32.719  29.739  1.00  0.00     0.124 S 
ATOM     65  O   UNL A   1      34.277  32.734  30.634  1.00  0.00    -0.237 OA
ATOM     66  O   UNL A   1      36.161  33.975  29.614  1.00  0.00    -0.237 OA
ATOM     67  O   UNL A   1      35.233  31.984  28.491  1.00  0.00    -0.744 OA
ENDBRANCH  60  64
ENDBRANCH  43  57
BRANCH  44  68
ATOM     68  C   UNL A   1      46.999  27.200  26.031  1.00  0.00     0.023 A 
ATOM     69  C   UNL A   1      48.054  26.552  26.689  1.00  0.00     0.031 A 
ATOM     70  C   UNL A   1      47.133  27.443  24.652  1.00  0.00     0.131 A 
ATOM     71  C   UNL A   1      49.219  26.215  25.980  1.00  0.00     0.055 A 
ATOM     72  C   UNL A   1      48.266  27.051  23.938  1.00  0.00     0.041 A 
ATOM     73  F   UNL A   1      46.155  28.063  23.972  1.00  0.00    -0.206 F 
ATOM     74  C   UNL A   1      49.325  26.445  24.607  1.00  0.00     0.022 A 
BRANCH  71  75
ATOM     75  S   UNL A   1      50.638  25.566  26.904  1.00  0.00     0.124 S 
ATOM     76  O   UNL A   1      50.036  24.453  27.627  1.00  0.00    -0.237 OA
ATOM     77  O   UNL A   1      51.560  25.210  25.829  1.00  0.00    -0.237 OA
ATOM     78  O   UNL A   1      51.053  26.699  27.728  1.00  0.00    -0.744 OA
ENDBRANCH  71  75
ENDBRANCH  44  68
BRANCH  56  79
ATOM     79  C   UNL A   1      45.369  33.179  29.254  1.00  0.00     0.023 A 
ATOM     80  C   UNL A   1      45.342  34.278  28.378  1.00  0.00     0.031 A 
ATOM     81  C   UNL A   1      46.172  33.271  30.405  1.00  0.00     0.131 A 
ATOM     82  C   UNL A   1      46.151  35.395  28.633  1.00  0.00     0.055 A 
ATOM     83  C   UNL A   1      46.919  34.414  30.692  1.00  0.00     0.041 A 
ATOM     84  F   UNL A   1      46.239  32.251  31.276  1.00  0.00    -0.206 F 
ATOM     85  C   UNL A   1      46.923  35.478  29.796  1.00  0.00     0.022 A 
BRANCH  82  86
ATOM     86  S   UNL A   1      46.265  36.693  27.373  1.00  0.00     0.124 S 
ATOM     87  O   UNL A   1      46.325  37.901  28.189  1.00  0.00    -0.237 OA
ATOM     88  O   UNL A   1      47.494  36.339  26.670  1.00  0.00    -0.237 OA
ATOM     89  O   UNL A   1      45.037  36.528  26.598  1.00  0.00    -0.744 OA
ENDBRANCH  82  86
ENDBRANCH  56  79
ENDBRANCH  30  31
ENDBRANCH  23  25
ENDBRANCH  22  23
ENDBRANCH  21  22
ENDBRANCH   1  21
TORSDOF 18
ENDMDL
MODEL 2
REMARK VINA RESULT:     -11.0      1.940      2.224
REMARK SMILES CC(=O)C1=C(C(=O)OCCOCCOC(=O)c2ccc(-c3c4nc(c(-c5cc(S(=O)(=O)[O-])ccc5F)c5ccc([nH]5)c(-c5cc(S(=O)(=O)[O-])ccc5F)c5nc(c(-c6cc(S(=O)(=O)[O-])ccc6F)c6ccc3[nH]6)C=C5)C=C4)cc2)S[C@H]2CCCCC2=N1
REMARK SMILES IDX 12 1 11 2 10 3 9 4 8 5 6 6 7 7 5 8 4 9 87 10 80 11 86 12
REMARK SMILES IDX 81 13 85 14 82 15 84 16 83 17 2 18 1 19 3 20 13 21 14 22
REMARK SMILES IDX 15 23 16 24 17 25 18 26 79 27 19 28 78 29 20 30 21 31 22 32
REMARK SMILES IDX 72 33 23 34 77 35 71 36 73 37 24 38 76 39 70 40 69 41 25 43
REMARK SMILES IDX 57 44 37 45 56 46 38 47 41 48 55 49 74 50 39 51 40 52 54 54
REMARK SMILES IDX 75 55 42 56 26 57 27 58 35 59 28 60 34 61 36 62 33 63 29 64
REMARK SMILES IDX 30 65 31 66 32 67 58 68 59 69 67 70 60 71 66 72 68 73 65 74
REMARK SMILES IDX 61 75 62 76 63 77 64 78 43 79 44 80 52 81 45 82 51 83 53 84
REMARK SMILES IDX 50 85 46 86 47 87 48 88 49 89
REMARK H PARENT 73 42 41 53
REMARK Flexibility Score: inf
ROOT
ATOM      1  C   UNL A   1      36.041  19.909  24.999  1.00  0.00     0.202 C 
ENDROOT
BRANCH   1   2
ATOM      2  O   UNL A   1      35.076  20.914  24.709  1.00  0.00    -0.374 OA
BRANCH   2   3
ATOM      3  C   UNL A   1      33.698  20.535  24.702  1.00  0.00     0.202 C 
BRANCH   3   4
ATOM      4  C   UNL A   1      32.733  21.466  23.965  1.00  0.00     0.261 C 
BRANCH   4   5
ATOM      5  O   UNL A   1      32.520  22.664  24.728  1.00  0.00    -0.459 OA
BRANCH   5   6
ATOM      6  C   UNL A   1      31.673  23.582  24.194  1.00  0.00     0.347 C 
ATOM      7  O   UNL A   1      30.653  23.323  23.576  1.00  0.00    -0.245 OA
BRANCH   6   8
ATOM      8  C   UNL A   1      32.086  24.962  24.598  1.00  0.00     0.123 C 
ATOM      9  C   UNL A   1      32.892  25.716  23.824  1.00  0.00     0.127 C 
ATOM     10  N   UNL A   1      33.407  26.958  24.145  1.00  0.00    -0.251 NA
ATOM     11  S   UNL A   1      31.494  25.546  26.127  1.00  0.00    -0.107 SA
ATOM     12  C   UNL A   1      32.884  27.676  25.092  1.00  0.00     0.032 C 
ATOM     13  C   UNL A   1      31.606  27.342  25.851  1.00  0.00     0.097 C 
ATOM     14  C   UNL A   1      33.510  29.043  25.298  1.00  0.00     0.053 C 
ATOM     15  C   UNL A   1      31.485  28.024  27.220  1.00  0.00     0.021 C 
ATOM     16  C   UNL A   1      33.456  29.475  26.750  1.00  0.00     0.006 C 
ATOM     17  C   UNL A   1      32.019  29.452  27.244  1.00  0.00     0.002 C 
BRANCH   9  18
ATOM     18  C   UNL A   1      33.356  25.190  22.486  1.00  0.00     0.179 C 
ATOM     19  C   UNL A   1      32.551  25.580  21.271  1.00  0.00     0.095 C 
ATOM     20  O   UNL A   1      34.400  24.547  22.387  1.00  0.00    -0.293 OA
ENDBRANCH   9  18
ENDBRANCH   6   8
ENDBRANCH   5   6
ENDBRANCH   4   5
ENDBRANCH   3   4
ENDBRANCH   2   3
ENDBRANCH   1   2
BRANCH   1  21
ATOM     21  C   UNL A   1      37.520  20.181  24.699  1.00  0.00     0.261 C 
BRANCH  21  22
ATOM     22  O   UNL A   1      38.038  21.325  25.372  1.00  0.00    -0.460 OA
BRANCH  22  23
ATOM     23  C   UNL A   1      39.158  21.060  26.092  1.00  0.00     0.338 C 
ATOM     24  O   UNL A   1      39.739  19.996  26.185  1.00  0.00    -0.246 OA
BRANCH  23  25
ATOM     25  C   UNL A   1      39.687  22.326  26.624  1.00  0.00     0.060 A 
ATOM     26  C   UNL A   1      39.145  23.515  26.125  1.00  0.00     0.016 A 
ATOM     27  C   UNL A   1      40.713  22.339  27.571  1.00  0.00     0.016 A 
ATOM     28  C   UNL A   1      39.667  24.735  26.538  1.00  0.00     0.010 A 
ATOM     29  C   UNL A   1      41.238  23.564  27.981  1.00  0.00     0.010 A 
ATOM     30  C   UNL A   1      40.739  24.762  27.438  1.00  0.00    -0.014 A 
BRANCH  30  31
ATOM     31  C   UNL A   1      41.451  26.034  27.687  1.00  0.00     0.031 A 
ATOM     32  C   UNL A   1      40.750  27.105  28.474  1.00  0.00     0.074 A 
ATOM     33  C   UNL A   1      42.703  26.213  27.233  1.00  0.00     0.049 A 
ATOM     34  N   UNL A   1      41.142  28.318  28.759  1.00  0.00    -0.248 NA
ATOM     35  C   UNL A   1      39.420  26.760  29.002  1.00  0.00     0.031 C 
ATOM     36  C   UNL A   1      43.481  25.217  26.496  1.00  0.00     0.029 A 
ATOM     37  N   UNL A   1      43.535  27.297  27.317  1.00  0.00    -0.354 N 
ATOM     38  C   UNL A   1      40.107  28.885  29.495  1.00  0.00     0.074 A 
ATOM     39  C   UNL A   1      39.051  27.898  29.568  1.00  0.00     0.031 C 
ATOM     40  C   UNL A   1      44.678  25.743  26.189  1.00  0.00     0.029 A 
ATOM     41  C   UNL A   1      44.732  27.123  26.664  1.00  0.00     0.049 A 
ATOM     42  H   UNL A   1      43.299  28.123  27.800  1.00  0.00     0.167 HD
ATOM     43  C   UNL A   1      40.053  30.112  30.064  1.00  0.00     0.034 A 
ATOM     44  C   UNL A   1      45.738  27.994  26.449  1.00  0.00     0.034 A 
ATOM     45  C   UNL A   1      41.118  31.080  29.961  1.00  0.00     0.049 A 
ATOM     46  C   UNL A   1      45.619  29.388  27.018  1.00  0.00     0.074 A 
ATOM     47  C   UNL A   1      41.182  32.353  30.500  1.00  0.00     0.029 A 
ATOM     48  N   UNL A   1      42.302  30.886  29.260  1.00  0.00    -0.354 N 
ATOM     49  N   UNL A   1      44.639  29.915  27.718  1.00  0.00    -0.248 NA
ATOM     50  C   UNL A   1      46.742  30.300  26.775  1.00  0.00     0.031 C 
ATOM     51  C   UNL A   1      42.365  32.955  30.059  1.00  0.00     0.029 A 
ATOM     52  C   UNL A   1      43.086  32.027  29.322  1.00  0.00     0.049 A 
ATOM     53  H   UNL A   1      42.548  30.057  28.788  1.00  0.00     0.167 HD
ATOM     54  C   UNL A   1      45.047  31.210  28.029  1.00  0.00     0.074 A 
ATOM     55  C   UNL A   1      46.365  31.375  27.452  1.00  0.00     0.031 C 
ATOM     56  C   UNL A   1      44.397  32.174  28.731  1.00  0.00     0.034 A 
BRANCH  43  57
ATOM     57  C   UNL A   1      38.786  30.485  30.797  1.00  0.00     0.023 A 
ATOM     58  C   UNL A   1      37.702  31.097  30.143  1.00  0.00     0.031 A 
ATOM     59  C   UNL A   1      38.672  30.255  32.180  1.00  0.00     0.131 A 
ATOM     60  C   UNL A   1      36.588  31.525  30.881  1.00  0.00     0.055 A 
ATOM     61  C   UNL A   1      37.524  30.604  32.893  1.00  0.00     0.041 A 
ATOM     62  F   UNL A   1      39.683  29.700  32.867  1.00  0.00    -0.206 F 
ATOM     63  C   UNL A   1      36.480  31.258  32.247  1.00  0.00     0.022 A 
BRANCH  60  64
ATOM     64  S   UNL A   1      35.355  32.572  30.060  1.00  0.00     0.124 S 
ATOM     65  O   UNL A   1      34.983  31.746  28.914  1.00  0.00    -0.237 OA
ATOM     66  O   UNL A   1      34.337  32.730  31.092  1.00  0.00    -0.237 OA
ATOM     67  O   UNL A   1      36.102  33.784  29.728  1.00  0.00    -0.744 OA
ENDBRANCH  60  64
ENDBRANCH  43  57
BRANCH  44  68
ATOM     68  C   UNL A   1      46.923  27.596  25.634  1.00  0.00     0.023 A 
ATOM     69  C   UNL A   1      47.036  27.968  24.287  1.00  0.00     0.031 A 
ATOM     70  C   UNL A   1      47.936  26.788  26.181  1.00  0.00     0.131 A 
ATOM     71  C   UNL A   1      48.110  27.492  23.517  1.00  0.00     0.055 A 
ATOM     72  C   UNL A   1      49.034  26.368  25.429  1.00  0.00     0.041 A 
ATOM     73  F   UNL A   1      47.878  26.397  27.465  1.00  0.00    -0.206 F 
ATOM     74  C   UNL A   1      49.118  26.708  24.083  1.00  0.00     0.022 A 
BRANCH  71  75
ATOM     75  S   UNL A   1      48.113  27.826  21.735  1.00  0.00     0.124 S 
ATOM     76  O   UNL A   1      48.301  26.489  21.184  1.00  0.00    -0.237 OA
ATOM     77  O   UNL A   1      46.796  28.423  21.538  1.00  0.00    -0.237 OA
ATOM     78  O   UNL A   1      49.242  28.739  21.563  1.00  0.00    -0.744 OA
ENDBRANCH  71  75
ENDBRANCH  44  68
BRANCH  56  79
ATOM     79  C   UNL A   1      45.132  33.474  28.955  1.00  0.00     0.023 A 
ATOM     80  C   UNL A   1      45.958  33.679  30.074  1.00  0.00     0.031 A 
ATOM     81  C   UNL A   1      44.997  34.527  28.032  1.00  0.00     0.131 A 
ATOM     82  C   UNL A   1      46.566  34.926  30.274  1.00  0.00     0.055 A 
ATOM     83  C   UNL A   1      45.663  35.741  28.198  1.00  0.00     0.041 A 
ATOM     84  F   UNL A   1      44.219  34.389  26.946  1.00  0.00    -0.206 F 
ATOM     85  C   UNL A   1      46.441  35.952  29.333  1.00  0.00     0.022 A 
BRANCH  82  86
ATOM     86  S   UNL A   1      47.437  35.229  31.835  1.00  0.00     0.124 S 
ATOM     87  O   UNL A   1      47.446  36.687  31.898  1.00  0.00    -0.237 OA
ATOM     88  O   UNL A   1      46.582  34.554  32.806  1.00  0.00    -0.237 OA
ATOM     89  O   UNL A   1      48.744  34.610  31.624  1.00  0.00    -0.744 OA
ENDBRANCH  82  86
ENDBRANCH  56  79
ENDBRANCH  30  31
ENDBRANCH  23  25
ENDBRANCH  22  23
ENDBRANCH  21  22
ENDBRANCH   1  21
TORSDOF 18
ENDMDL
MODEL 3
REMARK VINA RESULT:     -10.8      1.605      7.807
REMARK SMILES CC(=O)C1=C(C(=O)OCCOCCOC(=O)c2ccc(-c3c4nc(c(-c5cc(S(=O)(=O)[O-])ccc5F)c5ccc([nH]5)c(-c5cc(S(=O)(=O)[O-])ccc5F)c5nc(c(-c6cc(S(=O)(=O)[O-])ccc6F)c6ccc3[nH]6)C=C5)C=C4)cc2)S[C@H]2CCCCC2=N1
REMARK SMILES IDX 12 1 11 2 10 3 9 4 8 5 6 6 7 7 5 8 4 9 87 10 80 11 86 12
REMARK SMILES IDX 81 13 85 14 82 15 84 16 83 17 2 18 1 19 3 20 13 21 14 22
REMARK SMILES IDX 15 23 16 24 17 25 18 26 79 27 19 28 78 29 20 30 21 31 22 32
REMARK SMILES IDX 72 33 23 34 77 35 71 36 73 37 24 38 76 39 70 40 69 41 25 43
REMARK SMILES IDX 57 44 37 45 56 46 38 47 41 48 55 49 74 50 39 51 40 52 54 54
REMARK SMILES IDX 75 55 42 56 26 57 27 58 35 59 28 60 34 61 36 62 33 63 29 64
REMARK SMILES IDX 30 65 31 66 32 67 58 68 59 69 67 70 60 71 66 72 68 73 65 74
REMARK SMILES IDX 61 75 62 76 63 77 64 78 43 79 44 80 52 81 45 82 51 83 53 84
REMARK SMILES IDX 50 85 46 86 47 87 48 88 49 89
REMARK H PARENT 73 42 41 53
REMARK Flexibility Score: inf
ROOT
ATOM      1  C   UNL A   1      36.908  20.402  24.681  1.00  0.00     0.202 C 
ENDROOT
BRANCH   1   2
ATOM      2  O   UNL A   1      35.736  20.648  25.450  1.00  0.00    -0.374 OA
BRANCH   2   3
ATOM      3  C   UNL A   1      34.480  20.237  24.904  1.00  0.00     0.202 C 
BRANCH   3   4
ATOM      4  C   UNL A   1      33.228  20.629  25.691  1.00  0.00     0.261 C 
BRANCH   4   5
ATOM      5  O   UNL A   1      33.184  22.052  25.876  1.00  0.00    -0.459 OA
BRANCH   5   6
ATOM      6  C   UNL A   1      32.506  22.767  24.941  1.00  0.00     0.347 C 
ATOM      7  O   UNL A   1      31.744  22.297  24.112  1.00  0.00    -0.245 OA
BRANCH   6   8
ATOM      8  C   UNL A   1      32.710  24.233  25.163  1.00  0.00     0.123 C 
ATOM      9  C   UNL A   1      33.536  24.960  24.384  1.00  0.00     0.127 C 
ATOM     10  N   UNL A   1      33.866  26.291  24.560  1.00  0.00    -0.251 NA
ATOM     11  S   UNL A   1      31.845  24.957  26.489  1.00  0.00    -0.107 SA
ATOM     12  C   UNL A   1      33.139  27.069  25.303  1.00  0.00     0.032 C 
ATOM     13  C   UNL A   1      31.807  26.691  25.939  1.00  0.00     0.097 C 
ATOM     14  C   UNL A   1      33.582  28.519  25.361  1.00  0.00     0.053 C 
ATOM     15  C   UNL A   1      31.418  27.547  27.152  1.00  0.00     0.021 C 
ATOM     16  C   UNL A   1      33.274  29.150  26.704  1.00  0.00     0.006 C 
ATOM     17  C   UNL A   1      31.790  29.019  27.010  1.00  0.00     0.002 C 
BRANCH   9  18
ATOM     18  C   UNL A   1      34.241  24.305  23.219  1.00  0.00     0.179 C 
ATOM     19  C   UNL A   1      35.530  23.577  23.512  1.00  0.00     0.095 C 
ATOM     20  O   UNL A   1      33.732  24.290  22.100  1.00  0.00    -0.293 OA
ENDBRANCH   9  18
ENDBRANCH   6   8
ENDBRANCH   5   6
ENDBRANCH   4   5
ENDBRANCH   3   4
ENDBRANCH   2   3
ENDBRANCH   1   2
BRANCH   1  21
ATOM     21  C   UNL A   1      38.201  19.993  25.396  1.00  0.00     0.261 C 
BRANCH  21  22
ATOM     22  O   UNL A   1      39.179  21.028  25.444  1.00  0.00    -0.460 OA
BRANCH  22  23
ATOM     23  C   UNL A   1      40.015  20.924  26.509  1.00  0.00     0.338 C 
ATOM     24  O   UNL A   1      40.571  19.922  26.913  1.00  0.00    -0.246 OA
BRANCH  23  25
ATOM     25  C   UNL A   1      40.298  22.275  27.019  1.00  0.00     0.060 A 
ATOM     26  C   UNL A   1      39.567  23.339  26.478  1.00  0.00     0.016 A 
ATOM     27  C   UNL A   1      41.283  22.491  27.984  1.00  0.00     0.016 A 
ATOM     28  C   UNL A   1      39.854  24.640  26.871  1.00  0.00     0.010 A 
ATOM     29  C   UNL A   1      41.572  23.798  28.374  1.00  0.00     0.010 A 
ATOM     30  C   UNL A   1      40.883  24.877  27.790  1.00  0.00    -0.014 A 
BRANCH  30  31
ATOM     31  C   UNL A   1      41.352  26.260  28.020  1.00  0.00     0.031 A 
ATOM     32  C   UNL A   1      42.744  26.624  27.589  1.00  0.00     0.074 A 
ATOM     33  C   UNL A   1      40.539  27.169  28.584  1.00  0.00     0.049 A 
ATOM     34  N   UNL A   1      43.395  27.746  27.745  1.00  0.00    -0.248 NA
ATOM     35  C   UNL A   1      43.507  25.574  26.896  1.00  0.00     0.031 C 
ATOM     36  C   UNL A   1      39.158  26.921  28.997  1.00  0.00     0.029 A 
ATOM     37  N   UNL A   1      40.760  28.480  28.914  1.00  0.00    -0.354 N 
ATOM     38  C   UNL A   1      44.647  27.537  27.176  1.00  0.00     0.074 A 
ATOM     39  C   UNL A   1      44.678  26.166  26.716  1.00  0.00     0.031 C 
ATOM     40  C   UNL A   1      38.657  28.046  29.534  1.00  0.00     0.029 A 
ATOM     41  C   UNL A   1      39.694  29.075  29.545  1.00  0.00     0.049 A 
ATOM     42  H   UNL A   1      41.602  28.951  28.718  1.00  0.00     0.167 HD
ATOM     43  C   UNL A   1      45.668  28.417  27.042  1.00  0.00     0.034 A 
ATOM     44  C   UNL A   1      39.586  30.300  30.097  1.00  0.00     0.034 A 
ATOM     45  C   UNL A   1      45.612  29.775  27.524  1.00  0.00     0.049 A 
ATOM     46  C   UNL A   1      40.769  31.235  30.015  1.00  0.00     0.074 A 
ATOM     47  C   UNL A   1      46.578  30.761  27.441  1.00  0.00     0.029 A 
ATOM     48  N   UNL A   1      44.530  30.336  28.193  1.00  0.00    -0.354 N 
ATOM     49  N   UNL A   1      41.947  31.032  29.469  1.00  0.00    -0.248 NA
ATOM     50  C   UNL A   1      40.605  32.564  30.614  1.00  0.00     0.031 C 
ATOM     51  C   UNL A   1      46.115  31.887  28.128  1.00  0.00     0.029 A 
ATOM     52  C   UNL A   1      44.820  31.640  28.560  1.00  0.00     0.049 A 
ATOM     53  H   UNL A   1      43.681  29.872  28.379  1.00  0.00     0.167 HD
ATOM     54  C   UNL A   1      42.651  32.224  29.629  1.00  0.00     0.074 A 
ATOM     55  C   UNL A   1      41.759  33.140  30.308  1.00  0.00     0.031 C 
ATOM     56  C   UNL A   1      43.917  32.536  29.245  1.00  0.00     0.034 A 
BRANCH  43  57
ATOM     57  C   UNL A   1      46.939  27.915  26.396  1.00  0.00     0.023 A 
ATOM     58  C   UNL A   1      47.188  28.080  25.022  1.00  0.00     0.031 A 
ATOM     59  C   UNL A   1      47.901  27.230  27.160  1.00  0.00     0.131 A 
ATOM     60  C   UNL A   1      48.329  27.504  24.443  1.00  0.00     0.055 A 
ATOM     61  C   UNL A   1      49.076  26.736  26.593  1.00  0.00     0.041 A 
ATOM     62  F   UNL A   1      47.707  27.016  28.471  1.00  0.00    -0.206 F 
ATOM     63  C   UNL A   1      49.289  26.857  25.224  1.00  0.00     0.022 A 
BRANCH  60  64
ATOM     64  S   UNL A   1      48.463  27.477  22.634  1.00  0.00     0.124 S 
ATOM     65  O   UNL A   1      47.224  28.143  22.238  1.00  0.00    -0.237 OA
ATOM     66  O   UNL A   1      49.693  28.222  22.397  1.00  0.00    -0.237 OA
ATOM     67  O   UNL A   1      48.524  26.052  22.316  1.00  0.00    -0.744 OA
ENDBRANCH  60  64
ENDBRANCH  43  57
BRANCH  44  68
ATOM     68  C   UNL A   1      38.337  30.703  30.806  1.00  0.00     0.023 A 
ATOM     69  C   UNL A   1      37.303  31.372  30.134  1.00  0.00     0.031 A 
ATOM     70  C   UNL A   1      38.182  30.470  32.185  1.00  0.00     0.131 A 
ATOM     71  C   UNL A   1      36.185  31.830  30.849  1.00  0.00     0.055 A 
ATOM     72  C   UNL A   1      37.041  30.872  32.880  1.00  0.00     0.041 A 
ATOM     73  F   UNL A   1      39.141  29.837  32.880  1.00  0.00    -0.206 F 
ATOM     74  C   UNL A   1      36.040  31.571  32.214  1.00  0.00     0.022 A 
BRANCH  71  75
ATOM     75  S   UNL A   1      34.970  32.866  29.988  1.00  0.00     0.124 S 
ATOM     76  O   UNL A   1      35.808  33.947  29.483  1.00  0.00    -0.237 OA
ATOM     77  O   UNL A   1      34.442  31.942  28.989  1.00  0.00    -0.237 OA
ATOM     78  O   UNL A   1      34.033  33.240  31.045  1.00  0.00    -0.744 OA
ENDBRANCH  71  75
ENDBRANCH  44  68
BRANCH  56  79
ATOM     79  C   UNL A   1      44.385  33.947  29.510  1.00  0.00     0.023 A 
ATOM     80  C   UNL A   1      44.267  34.963  28.545  1.00  0.00     0.031 A 
ATOM     81  C   UNL A   1      44.963  34.277  30.749  1.00  0.00     0.131 A 
ATOM     82  C   UNL A   1      44.778  36.241  28.811  1.00  0.00     0.055 A 
ATOM     83  C   UNL A   1      45.404  35.569  31.035  1.00  0.00     0.041 A 
ATOM     84  F   UNL A   1      45.104  33.347  31.707  1.00  0.00    -0.206 F 
ATOM     85  C   UNL A   1      45.326  36.557  30.057  1.00  0.00     0.022 A 
BRANCH  82  86
ATOM     86  S   UNL A   1      44.814  37.460  27.469  1.00  0.00     0.124 S 
ATOM     87  O   UNL A   1      45.310  38.649  28.155  1.00  0.00    -0.237 OA
ATOM     88  O   UNL A   1      45.732  36.846  26.515  1.00  0.00    -0.237 OA
ATOM     89  O   UNL A   1      43.422  37.532  27.033  1.00  0.00    -0.744 OA
ENDBRANCH  82  86
ENDBRANCH  56  79
ENDBRANCH  30  31
ENDBRANCH  23  25
ENDBRANCH  22  23
ENDBRANCH  21  22
ENDBRANCH   1  21
TORSDOF 18
ENDMDL
