MODEL 1
REMARK VINA RESULT:     -11.9      0.000      0.000
REMARK SMILES Cc1ccc(Nc2c(Cl)cccc2Cl)c(CC(=O)OCCOCCOC(=O)c2ccc(-c3c4nc(c(-c5cc(S(=O)(=O)[O-])ccc5F)c5ccc([nH]5)c(-c5cc(S(=O)(=O)[O-])ccc5F)c5nc(c(-c6cc(S(=O)(=O)[O-])ccc6F)c6ccc3[nH]6)C=C5)C=C4)cc2)c1
REMARK SMILES IDX 22 1 21 2 20 3 19 4 17 5 18 6 16 7 15 8 1 9 2 10 3 11 91 12
REMARK SMILES IDX 4 13 5 14 6 15 7 17 8 18 13 19 9 20 10 21 12 22 14 23 11 24
REMARK SMILES IDX 23 25 24 26 25 27 26 28 27 29 28 30 29 31 90 32 30 33 89 34
REMARK SMILES IDX 31 35 32 36 33 37 83 38 34 39 88 40 82 41 84 42 35 43 87 44
REMARK SMILES IDX 81 45 80 46 36 48 68 49 48 50 67 51 49 52 52 53 66 54 85 55
REMARK SMILES IDX 50 56 51 57 65 59 86 60 53 61 37 62 38 63 46 64 39 65 45 66
REMARK SMILES IDX 47 67 44 68 40 69 41 70 42 71 43 72 69 73 70 74 78 75 71 76
REMARK SMILES IDX 77 77 79 78 76 79 72 80 73 81 74 82 75 83 54 84 55 85 63 86
REMARK SMILES IDX 56 87 62 88 64 89 61 90 57 91 58 92 59 93 60 94
REMARK H PARENT 6 16 84 47 52 58
REMARK Flexibility Score: inf
ROOT
ATOM      1  O   UNL A   1      41.459  19.584  25.480  1.00  0.00    -0.374 OA
ENDROOT
BRANCH   1   2
ATOM      2  C   UNL A   1      40.257  19.784  26.204  1.00  0.00     0.202 C 
BRANCH   2   3
ATOM      3  C   UNL A   1      39.686  21.136  25.822  1.00  0.00     0.261 C 
BRANCH   3   4
ATOM      4  O   UNL A   1      38.341  21.066  25.377  1.00  0.00    -0.463 OA
BRANCH   4   5
ATOM      5  C   UNL A   1      37.618  22.215  25.260  1.00  0.00     0.310 C 
ATOM      6  O   UNL A   1      37.779  23.264  25.867  1.00  0.00    -0.252 OA
BRANCH   5   7
ATOM      7  C   UNL A   1      36.514  22.012  24.235  1.00  0.00     0.160 C 
BRANCH   7   8
ATOM      8  C   UNL A   1      35.184  21.835  24.950  1.00  0.00    -0.013 A 
ATOM      9  C   UNL A   1      32.957  18.733  25.181  1.00  0.00     0.044 C 
ATOM     10  C   UNL A   1      33.419  20.159  25.274  1.00  0.00    -0.051 A 
ATOM     11  C   UNL A   1      32.505  21.195  25.420  1.00  0.00     0.005 A 
ATOM     12  C   UNL A   1      34.764  20.485  25.115  1.00  0.00     0.009 A 
ATOM     13  C   UNL A   1      32.922  22.530  25.337  1.00  0.00     0.026 A 
ATOM     14  C   UNL A   1      34.257  22.891  25.068  1.00  0.00     0.042 A 
BRANCH  14  15
ATOM     15  N   UNL A   1      34.634  24.254  24.874  1.00  0.00    -0.353 N 
ATOM     16  H   UNL A   1      35.445  24.548  25.349  1.00  0.00     0.167 HD
BRANCH  15  17
ATOM     17  C   UNL A   1      33.984  25.240  24.079  1.00  0.00     0.076 A 
ATOM     18  C   UNL A   1      33.652  25.022  22.729  1.00  0.00     0.066 A 
ATOM     19  C   UNL A   1      33.816  26.557  24.558  1.00  0.00     0.066 A 
ATOM     20  Cl  UNL A   1      33.423  23.424  22.094  1.00  0.00    -0.082 Cl
ATOM     21  C   UNL A   1      33.410  26.091  21.858  1.00  0.00     0.023 A 
ATOM     22  C   UNL A   1      33.625  27.634  23.682  1.00  0.00     0.023 A 
ATOM     23  Cl  UNL A   1      33.713  26.896  26.251  1.00  0.00    -0.082 Cl
ATOM     24  C   UNL A   1      33.465  27.401  22.321  1.00  0.00     0.003 A 
ENDBRANCH  15  17
ENDBRANCH  14  15
ENDBRANCH   7   8
ENDBRANCH   5   7
ENDBRANCH   4   5
ENDBRANCH   3   4
ENDBRANCH   2   3
ENDBRANCH   1   2
BRANCH   1  25
ATOM     25  C   UNL A   1      42.448  18.866  26.182  1.00  0.00     0.202 C 
BRANCH  25  26
ATOM     26  C   UNL A   1      43.758  18.878  25.399  1.00  0.00     0.261 C 
BRANCH  26  27
ATOM     27  O   UNL A   1      43.907  20.084  24.613  1.00  0.00    -0.460 OA
BRANCH  27  28
ATOM     28  C   UNL A   1      44.708  21.031  25.174  1.00  0.00     0.338 C 
ATOM     29  O   UNL A   1      45.886  20.854  25.470  1.00  0.00    -0.246 OA
BRANCH  28  30
ATOM     30  C   UNL A   1      43.971  22.301  25.390  1.00  0.00     0.060 A 
ATOM     31  C   UNL A   1      44.235  23.402  24.556  1.00  0.00     0.016 A 
ATOM     32  C   UNL A   1      43.267  22.466  26.581  1.00  0.00     0.016 A 
ATOM     33  C   UNL A   1      43.968  24.695  25.012  1.00  0.00     0.010 A 
ATOM     34  C   UNL A   1      43.129  23.744  27.078  1.00  0.00     0.010 A 
ATOM     35  C   UNL A   1      43.515  24.862  26.318  1.00  0.00    -0.014 A 
BRANCH  35  36
ATOM     36  C   UNL A   1      43.518  26.122  27.058  1.00  0.00     0.031 A 
ATOM     37  C   UNL A   1      42.269  26.892  27.167  1.00  0.00     0.074 A 
ATOM     38  C   UNL A   1      44.553  26.423  27.876  1.00  0.00     0.049 A 
ATOM     39  N   UNL A   1      42.187  28.025  27.761  1.00  0.00    -0.248 NA
ATOM     40  C   UNL A   1      41.001  26.488  26.561  1.00  0.00     0.031 C 
ATOM     41  C   UNL A   1      44.552  27.232  29.099  1.00  0.00     0.029 A 
ATOM     42  N   UNL A   1      45.878  26.055  27.754  1.00  0.00    -0.354 N 
ATOM     43  C   UNL A   1      40.862  28.298  27.956  1.00  0.00     0.074 A 
ATOM     44  C   UNL A   1      40.169  27.405  27.064  1.00  0.00     0.031 C 
ATOM     45  C   UNL A   1      45.819  27.474  29.478  1.00  0.00     0.029 A 
ATOM     46  C   UNL A   1      46.685  26.972  28.426  1.00  0.00     0.049 A 
ATOM     47  H   UNL A   1      46.205  25.264  27.264  1.00  0.00     0.167 HD
ATOM     48  C   UNL A   1      40.534  29.165  28.951  1.00  0.00     0.034 A 
ATOM     49  C   UNL A   1      47.656  27.664  27.768  1.00  0.00     0.034 A 
ATOM     50  C   UNL A   1      41.735  29.852  29.461  1.00  0.00     0.049 A 
ATOM     51  C   UNL A   1      47.188  29.109  27.603  1.00  0.00     0.074 A 
ATOM     52  C   UNL A   1      42.456  29.848  30.641  1.00  0.00     0.029 A 
ATOM     53  N   UNL A   1      42.539  30.513  28.541  1.00  0.00    -0.354 N 
ATOM     54  N   UNL A   1      46.055  29.551  28.088  1.00  0.00    -0.248 NA
ATOM     55  C   UNL A   1      47.900  30.159  26.884  1.00  0.00     0.031 C 
ATOM     56  C   UNL A   1      43.737  30.443  30.375  1.00  0.00     0.029 A 
ATOM     57  C   UNL A   1      43.770  30.859  29.054  1.00  0.00     0.049 A 
ATOM     58  H   UNL A   1      42.258  30.712  27.619  1.00  0.00     0.167 HD
ATOM     59  C   UNL A   1      45.847  30.855  27.768  1.00  0.00     0.074 A 
ATOM     60  C   UNL A   1      47.025  31.183  26.967  1.00  0.00     0.031 C 
ATOM     61  C   UNL A   1      44.730  31.539  28.181  1.00  0.00     0.034 A 
BRANCH  48  62
ATOM     62  C   UNL A   1      39.159  29.325  29.554  1.00  0.00     0.023 A 
ATOM     63  C   UNL A   1      38.297  30.286  28.992  1.00  0.00     0.031 A 
ATOM     64  C   UNL A   1      38.664  28.673  30.707  1.00  0.00     0.131 A 
ATOM     65  C   UNL A   1      37.034  30.560  29.553  1.00  0.00     0.055 A 
ATOM     66  C   UNL A   1      37.384  28.904  31.230  1.00  0.00     0.041 A 
ATOM     67  F   UNL A   1      39.398  27.819  31.428  1.00  0.00    -0.206 F 
ATOM     68  C   UNL A   1      36.564  29.859  30.658  1.00  0.00     0.022 A 
BRANCH  65  69
ATOM     69  S   UNL A   1      36.036  31.894  28.844  1.00  0.00     0.124 S 
ATOM     70  O   UNL A   1      37.039  32.919  28.579  1.00  0.00    -0.237 OA
ATOM     71  O   UNL A   1      35.442  31.250  27.679  1.00  0.00    -0.237 OA
ATOM     72  O   UNL A   1      35.094  32.217  29.916  1.00  0.00    -0.744 OA
ENDBRANCH  65  69
ENDBRANCH  48  62
BRANCH  49  73
ATOM     73  C   UNL A   1      48.368  26.751  26.803  1.00  0.00     0.023 A 
ATOM     74  C   UNL A   1      48.019  26.919  25.431  1.00  0.00     0.031 A 
ATOM     75  C   UNL A   1      49.657  26.269  27.084  1.00  0.00     0.131 A 
ATOM     76  C   UNL A   1      48.994  26.810  24.422  1.00  0.00     0.055 A 
ATOM     77  C   UNL A   1      50.620  26.143  26.068  1.00  0.00     0.041 A 
ATOM     78  F   UNL A   1      50.075  26.149  28.351  1.00  0.00    -0.206 F 
ATOM     79  C   UNL A   1      50.308  26.466  24.744  1.00  0.00     0.022 A 
BRANCH  76  80
ATOM     80  S   UNL A   1      48.613  27.403  22.733  1.00  0.00     0.124 S 
ATOM     81  O   UNL A   1      47.310  28.027  22.915  1.00  0.00    -0.237 OA
ATOM     82  O   UNL A   1      49.721  28.312  22.450  1.00  0.00    -0.237 OA
ATOM     83  O   UNL A   1      48.622  26.178  21.935  1.00  0.00    -0.744 OA
ENDBRANCH  76  80
ENDBRANCH  49  73
BRANCH  61  84
ATOM     84  C   UNL A   1      44.446  32.951  27.743  1.00  0.00     0.023 A 
ATOM     85  C   UNL A   1      44.501  34.005  28.656  1.00  0.00     0.031 A 
ATOM     86  C   UNL A   1      44.126  33.300  26.410  1.00  0.00     0.131 A 
ATOM     87  C   UNL A   1      44.457  35.332  28.213  1.00  0.00     0.055 A 
ATOM     88  C   UNL A   1      43.937  34.619  25.998  1.00  0.00     0.041 A 
ATOM     89  F   UNL A   1      44.044  32.392  25.428  1.00  0.00    -0.206 F 
ATOM     90  C   UNL A   1      44.149  35.652  26.894  1.00  0.00     0.022 A 
BRANCH  87  91
ATOM     91  S   UNL A   1      45.001  36.609  29.368  1.00  0.00     0.124 S 
ATOM     92  O   UNL A   1      44.233  36.304  30.571  1.00  0.00    -0.237 OA
ATOM     93  O   UNL A   1      46.435  36.332  29.450  1.00  0.00    -0.237 OA
ATOM     94  O   UNL A   1      44.645  37.855  28.695  1.00  0.00    -0.744 OA
ENDBRANCH  87  91
ENDBRANCH  61  84
ENDBRANCH  35  36
ENDBRANCH  28  30
ENDBRANCH  27  28
ENDBRANCH  26  27
ENDBRANCH  25  26
ENDBRANCH   1  25
TORSDOF 20
ENDMDL
MODEL 2
REMARK VINA RESULT:     -11.7      4.371      9.912
REMARK SMILES Cc1ccc(Nc2c(Cl)cccc2Cl)c(CC(=O)OCCOCCOC(=O)c2ccc(-c3c4nc(c(-c5cc(S(=O)(=O)[O-])ccc5F)c5ccc([nH]5)c(-c5cc(S(=O)(=O)[O-])ccc5F)c5nc(c(-c6cc(S(=O)(=O)[O-])ccc6F)c6ccc3[nH]6)C=C5)C=C4)cc2)c1
REMARK SMILES IDX 22 1 21 2 20 3 19 4 17 5 18 6 16 7 15 8 1 9 2 10 3 11 91 12
REMARK SMILES IDX 4 13 5 14 6 15 7 17 8 18 13 19 9 20 10 21 12 22 14 23 11 24
REMARK SMILES IDX 23 25 24 26 25 27 26 28 27 29 28 30 29 31 90 32 30 33 89 34
REMARK SMILES IDX 31 35 32 36 33 37 83 38 34 39 88 40 82 41 84 42 35 43 87 44
REMARK SMILES IDX 81 45 80 46 36 48 68 49 48 50 67 51 49 52 52 53 66 54 85 55
REMARK SMILES IDX 50 56 51 57 65 59 86 60 53 61 37 62 38 63 46 64 39 65 45 66
REMARK SMILES IDX 47 67 44 68 40 69 41 70 42 71 43 72 69 73 70 74 78 75 71 76
REMARK SMILES IDX 77 77 79 78 76 79 72 80 73 81 74 82 75 83 54 84 55 85 63 86
REMARK SMILES IDX 56 87 62 88 64 89 61 90 57 91 58 92 59 93 60 94
REMARK H PARENT 6 16 84 47 52 58
REMARK Flexibility Score: inf
ROOT
ATOM      1  O   UNL A   1      33.096  29.395  25.664  1.00  0.00    -0.374 OA
ENDROOT
BRANCH   1   2
ATOM      2  C   UNL A   1      33.745  28.141  25.528  1.00  0.00     0.202 C 
BRANCH   2   3
ATOM      3  C   UNL A   1      32.686  27.060  25.433  1.00  0.00     0.261 C 
BRANCH   3   4
ATOM      4  O   UNL A   1      32.730  26.143  26.513  1.00  0.00    -0.463 OA
BRANCH   4   5
ATOM      5  C   UNL A   1      32.467  24.826  26.278  1.00  0.00     0.310 C 
ATOM      6  O   UNL A   1      31.677  24.105  26.870  1.00  0.00    -0.252 OA
BRANCH   5   7
ATOM      7  C   UNL A   1      33.341  24.336  25.135  1.00  0.00     0.160 C 
BRANCH   7   8
ATOM      8  C   UNL A   1      34.373  23.355  25.669  1.00  0.00    -0.013 A 
ATOM      9  C   UNL A   1      38.187  23.638  25.708  1.00  0.00     0.044 C 
ATOM     10  C   UNL A   1      36.806  23.058  25.811  1.00  0.00    -0.051 A 
ATOM     11  C   UNL A   1      36.609  21.683  25.795  1.00  0.00     0.005 A 
ATOM     12  C   UNL A   1      35.684  23.885  25.824  1.00  0.00     0.009 A 
ATOM     13  C   UNL A   1      35.314  21.150  25.721  1.00  0.00     0.026 A 
ATOM     14  C   UNL A   1      34.166  21.960  25.623  1.00  0.00     0.042 A 
BRANCH  14  15
ATOM     15  N   UNL A   1      32.870  21.393  25.433  1.00  0.00    -0.353 N 
ATOM     16  H   UNL A   1      32.192  21.634  26.105  1.00  0.00     0.167 HD
BRANCH  15  17
ATOM     17  C   UNL A   1      32.436  20.522  24.393  1.00  0.00     0.076 A 
ATOM     18  C   UNL A   1      32.570  19.124  24.475  1.00  0.00     0.066 A 
ATOM     19  C   UNL A   1      32.026  21.038  23.145  1.00  0.00     0.066 A 
ATOM     20  Cl  UNL A   1      32.676  18.307  26.002  1.00  0.00    -0.082 Cl
ATOM     21  C   UNL A   1      32.539  18.322  23.328  1.00  0.00     0.023 A 
ATOM     22  C   UNL A   1      32.045  20.249  21.987  1.00  0.00     0.023 A 
ATOM     23  Cl  UNL A   1      31.363  22.629  22.998  1.00  0.00    -0.082 Cl
ATOM     24  C   UNL A   1      32.346  18.894  22.075  1.00  0.00     0.003 A 
ENDBRANCH  15  17
ENDBRANCH  14  15
ENDBRANCH   7   8
ENDBRANCH   5   7
ENDBRANCH   4   5
ENDBRANCH   3   4
ENDBRANCH   2   3
ENDBRANCH   1   2
BRANCH   1  25
ATOM     25  C   UNL A   1      32.706  29.707  26.982  1.00  0.00     0.202 C 
BRANCH  25  26
ATOM     26  C   UNL A   1      33.000  31.175  27.279  1.00  0.00     0.261 C 
BRANCH  26  27
ATOM     27  O   UNL A   1      34.422  31.441  27.335  1.00  0.00    -0.460 OA
BRANCH  27  28
ATOM     28  C   UNL A   1      34.963  31.370  28.582  1.00  0.00     0.338 C 
ATOM     29  O   UNL A   1      34.711  32.154  29.492  1.00  0.00    -0.246 OA
BRANCH  28  30
ATOM     30  C   UNL A   1      35.904  30.228  28.696  1.00  0.00     0.060 A 
ATOM     31  C   UNL A   1      36.202  29.704  29.967  1.00  0.00     0.016 A 
ATOM     32  C   UNL A   1      36.691  29.902  27.592  1.00  0.00     0.016 A 
ATOM     33  C   UNL A   1      37.400  29.015  30.167  1.00  0.00     0.010 A 
ATOM     34  C   UNL A   1      37.928  29.340  27.824  1.00  0.00     0.010 A 
ATOM     35  C   UNL A   1      38.307  28.932  29.115  1.00  0.00    -0.014 A 
BRANCH  35  36
ATOM     36  C   UNL A   1      39.717  28.567  29.241  1.00  0.00     0.031 A 
ATOM     37  C   UNL A   1      40.133  27.193  28.913  1.00  0.00     0.074 A 
ATOM     38  C   UNL A   1      40.657  29.532  29.357  1.00  0.00     0.049 A 
ATOM     39  N   UNL A   1      41.338  26.774  29.033  1.00  0.00    -0.248 NA
ATOM     40  C   UNL A   1      39.216  26.141  28.478  1.00  0.00     0.031 C 
ATOM     41  C   UNL A   1      42.056  29.509  28.919  1.00  0.00     0.029 A 
ATOM     42  N   UNL A   1      40.538  30.780  29.937  1.00  0.00    -0.354 N 
ATOM     43  C   UNL A   1      41.435  25.590  28.356  1.00  0.00     0.074 A 
ATOM     44  C   UNL A   1      40.074  25.163  28.166  1.00  0.00     0.031 C 
ATOM     45  C   UNL A   1      42.704  30.570  29.429  1.00  0.00     0.029 A 
ATOM     46  C   UNL A   1      41.793  31.228  30.349  1.00  0.00     0.049 A 
ATOM     47  H   UNL A   1      39.695  31.278  30.044  1.00  0.00     0.167 HD
ATOM     48  C   UNL A   1      42.669  25.201  27.937  1.00  0.00     0.034 A 
ATOM     49  C   UNL A   1      42.031  31.537  31.655  1.00  0.00     0.034 A 
ATOM     50  C   UNL A   1      43.717  26.039  28.548  1.00  0.00     0.049 A 
ATOM     51  C   UNL A   1      42.895  30.431  32.259  1.00  0.00     0.074 A 
ATOM     52  C   UNL A   1      44.620  26.986  28.098  1.00  0.00     0.029 A 
ATOM     53  N   UNL A   1      43.730  26.148  29.932  1.00  0.00    -0.354 N 
ATOM     54  N   UNL A   1      43.341  29.415  31.565  1.00  0.00    -0.248 NA
ATOM     55  C   UNL A   1      43.309  30.340  33.654  1.00  0.00     0.031 C 
ATOM     56  C   UNL A   1      45.101  27.711  29.241  1.00  0.00     0.029 A 
ATOM     57  C   UNL A   1      44.536  27.169  30.385  1.00  0.00     0.049 A 
ATOM     58  H   UNL A   1      43.216  25.555  30.528  1.00  0.00     0.167 HD
ATOM     59  C   UNL A   1      44.044  28.548  32.341  1.00  0.00     0.074 A 
ATOM     60  C   UNL A   1      43.958  29.157  33.666  1.00  0.00     0.031 C 
ATOM     61  C   UNL A   1      44.621  27.413  31.827  1.00  0.00     0.034 A 
BRANCH  48  62
ATOM     62  C   UNL A   1      42.946  24.144  26.894  1.00  0.00     0.023 A 
ATOM     63  C   UNL A   1      42.305  22.898  27.027  1.00  0.00     0.031 A 
ATOM     64  C   UNL A   1      43.871  24.235  25.828  1.00  0.00     0.131 A 
ATOM     65  C   UNL A   1      42.579  21.831  26.149  1.00  0.00     0.055 A 
ATOM     66  C   UNL A   1      44.101  23.192  24.920  1.00  0.00     0.041 A 
ATOM     67  F   UNL A   1      44.648  25.306  25.632  1.00  0.00    -0.206 F 
ATOM     68  C   UNL A   1      43.459  21.978  25.082  1.00  0.00     0.022 A 
BRANCH  65  69
ATOM     69  S   UNL A   1      41.805  20.224  26.460  1.00  0.00     0.124 S 
ATOM     70  O   UNL A   1      42.189  19.465  25.275  1.00  0.00    -0.237 OA
ATOM     71  O   UNL A   1      42.423  19.822  27.717  1.00  0.00    -0.237 OA
ATOM     72  O   UNL A   1      40.381  20.547  26.550  1.00  0.00    -0.744 OA
ENDBRANCH  65  69
ENDBRANCH  48  62
BRANCH  49  73
ATOM     73  C   UNL A   1      40.851  32.279  32.226  1.00  0.00     0.023 A 
ATOM     74  C   UNL A   1      40.007  31.516  33.086  1.00  0.00     0.031 A 
ATOM     75  C   UNL A   1      40.908  33.665  32.446  1.00  0.00     0.131 A 
ATOM     76  C   UNL A   1      39.430  32.099  34.230  1.00  0.00     0.055 A 
ATOM     77  C   UNL A   1      40.312  34.243  33.581  1.00  0.00     0.041 A 
ATOM     78  F   UNL A   1      41.730  34.434  31.719  1.00  0.00    -0.206 F 
ATOM     79  C   UNL A   1      39.620  33.454  34.505  1.00  0.00     0.022 A 
BRANCH  76  80
ATOM     80  S   UNL A   1      38.682  31.024  35.509  1.00  0.00     0.124 S 
ATOM     81  O   UNL A   1      38.283  29.858  34.733  1.00  0.00    -0.237 OA
ATOM     82  O   UNL A   1      39.783  30.819  36.446  1.00  0.00    -0.237 OA
ATOM     83  O   UNL A   1      37.588  31.838  36.037  1.00  0.00    -0.744 OA
ENDBRANCH  76  80
ENDBRANCH  49  73
BRANCH  61  84
ATOM     84  C   UNL A   1      45.312  26.399  32.699  1.00  0.00     0.023 A 
ATOM     85  C   UNL A   1      44.585  25.618  33.598  1.00  0.00     0.031 A 
ATOM     86  C   UNL A   1      46.707  26.165  32.659  1.00  0.00     0.131 A 
ATOM     87  C   UNL A   1      45.185  24.531  34.243  1.00  0.00     0.055 A 
ATOM     88  C   UNL A   1      47.329  25.172  33.418  1.00  0.00     0.041 A 
ATOM     89  F   UNL A   1      47.528  26.836  31.840  1.00  0.00    -0.206 F 
ATOM     90  C   UNL A   1      46.559  24.315  34.183  1.00  0.00     0.022 A 
BRANCH  87  91
ATOM     91  S   UNL A   1      44.093  23.311  35.001  1.00  0.00     0.124 S 
ATOM     92  O   UNL A   1      44.253  22.150  34.130  1.00  0.00    -0.237 OA
ATOM     93  O   UNL A   1      44.683  23.183  36.333  1.00  0.00    -0.237 OA
ATOM     94  O   UNL A   1      42.781  23.950  34.960  1.00  0.00    -0.744 OA
ENDBRANCH  87  91
ENDBRANCH  61  84
ENDBRANCH  35  36
ENDBRANCH  28  30
ENDBRANCH  27  28
ENDBRANCH  26  27
ENDBRANCH  25  26
ENDBRANCH   1  25
TORSDOF 20
ENDMDL
MODEL 3
REMARK VINA RESULT:     -11.4      2.901      4.323
REMARK SMILES Cc1ccc(Nc2c(Cl)cccc2Cl)c(CC(=O)OCCOCCOC(=O)c2ccc(-c3c4nc(c(-c5cc(S(=O)(=O)[O-])ccc5F)c5ccc([nH]5)c(-c5cc(S(=O)(=O)[O-])ccc5F)c5nc(c(-c6cc(S(=O)(=O)[O-])ccc6F)c6ccc3[nH]6)C=C5)C=C4)cc2)c1
REMARK SMILES IDX 22 1 21 2 20 3 19 4 17 5 18 6 16 7 15 8 1 9 2 10 3 11 91 12
REMARK SMILES IDX 4 13 5 14 6 15 7 17 8 18 13 19 9 20 10 21 12 22 14 23 11 24
REMARK SMILES IDX 23 25 24 26 25 27 26 28 27 29 28 30 29 31 90 32 30 33 89 34
REMARK SMILES IDX 31 35 32 36 33 37 83 38 34 39 88 40 82 41 84 42 35 43 87 44
REMARK SMILES IDX 81 45 80 46 36 48 68 49 48 50 67 51 49 52 52 53 66 54 85 55
REMARK SMILES IDX 50 56 51 57 65 59 86 60 53 61 37 62 38 63 46 64 39 65 45 66
REMARK SMILES IDX 47 67 44 68 40 69 41 70 42 71 43 72 69 73 70 74 78 75 71 76
REMARK SMILES IDX 77 77 79 78 76 79 72 80 73 81 74 82 75 83 54 84 55 85 63 86
REMARK SMILES IDX 56 87 62 88 64 89 61 90 57 91 58 92 59 93 60 94
REMARK H PARENT 6 16 84 47 52 58
REMARK Flexibility Score: inf
ROOT
ATOM      1  O   UNL A   1      36.569  21.147  25.531  1.00  0.00    -0.374 OA
ENDROOT
BRANCH   1   2
ATOM      2  C   UNL A   1      35.357  20.572  25.073  1.00  0.00     0.202 C 
BRANCH   2   3
ATOM      3  C   UNL A   1      34.445  21.689  24.601  1.00  0.00     0.261 C 
BRANCH   3   4
ATOM      4  O   UNL A   1      35.086  22.953  24.567  1.00  0.00    -0.463 OA
BRANCH   4   5
ATOM      5  C   UNL A   1      34.353  24.064  24.274  1.00  0.00     0.310 C 
ATOM      6  O   UNL A   1      33.764  24.316  23.233  1.00  0.00    -0.252 OA
BRANCH   5   7
ATOM      7  C   UNL A   1      34.374  25.008  25.465  1.00  0.00     0.160 C 
BRANCH   7   8
ATOM      8  C   UNL A   1      32.953  25.240  25.953  1.00  0.00    -0.013 A 
ATOM      9  C   UNL A   1      30.223  22.684  26.756  1.00  0.00     0.044 C 
ATOM     10  C   UNL A   1      30.903  23.992  26.473  1.00  0.00    -0.051 A 
ATOM     11  C   UNL A   1      30.166  25.116  26.120  1.00  0.00     0.005 A 
ATOM     12  C   UNL A   1      32.294  24.086  26.459  1.00  0.00     0.009 A 
ATOM     13  C   UNL A   1      30.810  26.285  25.694  1.00  0.00     0.026 A 
ATOM     14  C   UNL A   1      32.210  26.375  25.565  1.00  0.00     0.042 A 
BRANCH  14  15
ATOM     15  N   UNL A   1      32.833  27.537  25.019  1.00  0.00    -0.353 N 
ATOM     16  H   UNL A   1      33.495  27.377  24.308  1.00  0.00     0.167 HD
BRANCH  15  17
ATOM     17  C   UNL A   1      32.617  28.899  25.375  1.00  0.00     0.076 A 
ATOM     18  C   UNL A   1      33.281  29.511  26.454  1.00  0.00     0.066 A 
ATOM     19  C   UNL A   1      31.578  29.645  24.777  1.00  0.00     0.066 A 
ATOM     20  Cl  UNL A   1      34.805  28.923  27.038  1.00  0.00    -0.082 Cl
ATOM     21  C   UNL A   1      32.780  30.674  27.051  1.00  0.00     0.023 A 
ATOM     22  C   UNL A   1      31.042  30.780  25.400  1.00  0.00     0.023 A 
ATOM     23  Cl  UNL A   1      30.996  29.273  23.191  1.00  0.00    -0.082 Cl
ATOM     24  C   UNL A   1      31.620  31.269  26.566  1.00  0.00     0.003 A 
ENDBRANCH  15  17
ENDBRANCH  14  15
ENDBRANCH   7   8
ENDBRANCH   5   7
ENDBRANCH   4   5
ENDBRANCH   3   4
ENDBRANCH   2   3
ENDBRANCH   1   2
BRANCH   1  25
ATOM     25  C   UNL A   1      37.723  20.659  24.886  1.00  0.00     0.202 C 
BRANCH  25  26
ATOM     26  C   UNL A   1      38.967  21.028  25.691  1.00  0.00     0.261 C 
BRANCH  26  27
ATOM     27  O   UNL A   1      38.835  22.322  26.327  1.00  0.00    -0.460 OA
BRANCH  27  28
ATOM     28  C   UNL A   1      40.009  22.987  26.507  1.00  0.00     0.338 C 
ATOM     29  O   UNL A   1      41.116  22.457  26.482  1.00  0.00    -0.246 OA
BRANCH  28  30
ATOM     30  C   UNL A   1      39.778  24.433  26.746  1.00  0.00     0.060 A 
ATOM     31  C   UNL A   1      40.623  25.377  26.136  1.00  0.00     0.016 A 
ATOM     32  C   UNL A   1      38.932  24.807  27.790  1.00  0.00     0.016 A 
ATOM     33  C   UNL A   1      40.766  26.646  26.703  1.00  0.00     0.010 A 
ATOM     34  C   UNL A   1      39.176  26.009  28.419  1.00  0.00     0.010 A 
ATOM     35  C   UNL A   1      40.121  26.916  27.907  1.00  0.00    -0.014 A 
BRANCH  35  36
ATOM     36  C   UNL A   1      40.428  28.033  28.798  1.00  0.00     0.031 A 
ATOM     37  C   UNL A   1      39.484  29.160  28.884  1.00  0.00     0.074 A 
ATOM     38  C   UNL A   1      41.387  27.901  29.741  1.00  0.00     0.049 A 
ATOM     39  N   UNL A   1      39.691  30.198  29.607  1.00  0.00    -0.248 NA
ATOM     40  C   UNL A   1      38.245  29.253  28.115  1.00  0.00     0.031 C 
ATOM     41  C   UNL A   1      41.484  28.553  31.051  1.00  0.00     0.029 A 
ATOM     42  N   UNL A   1      42.531  27.128  29.699  1.00  0.00    -0.354 N 
ATOM     43  C   UNL A   1      38.507  30.876  29.708  1.00  0.00     0.074 A 
ATOM     44  C   UNL A   1      37.689  30.345  28.649  1.00  0.00     0.031 C 
ATOM     45  C   UNL A   1      42.701  28.328  31.576  1.00  0.00     0.029 A 
ATOM     46  C   UNL A   1      43.493  27.664  30.556  1.00  0.00     0.049 A 
ATOM     47  H   UNL A   1      42.650  26.321  29.147  1.00  0.00     0.167 HD
ATOM     48  C   UNL A   1      38.346  31.711  30.769  1.00  0.00     0.034 A 
ATOM     49  C   UNL A   1      44.711  28.051  30.085  1.00  0.00     0.034 A 
ATOM     50  C   UNL A   1      39.625  31.914  31.474  1.00  0.00     0.049 A 
ATOM     51  C   UNL A   1      44.752  29.578  30.061  1.00  0.00     0.074 A 
ATOM     52  C   UNL A   1      40.147  31.566  32.707  1.00  0.00     0.029 A 
ATOM     53  N   UNL A   1      40.710  32.350  30.725  1.00  0.00    -0.354 N 
ATOM     54  N   UNL A   1      43.766  30.325  30.488  1.00  0.00    -0.248 NA
ATOM     55  C   UNL A   1      45.848  30.393  29.551  1.00  0.00     0.031 C 
ATOM     56  C   UNL A   1      41.573  31.726  32.641  1.00  0.00     0.029 A 
ATOM     57  C   UNL A   1      41.910  32.223  31.392  1.00  0.00     0.049 A 
ATOM     58  H   UNL A   1      40.630  32.713  29.813  1.00  0.00     0.167 HD
ATOM     59  C   UNL A   1      44.027  31.647  30.318  1.00  0.00     0.074 A 
ATOM     60  C   UNL A   1      45.341  31.637  29.680  1.00  0.00     0.031 C 
ATOM     61  C   UNL A   1      43.142  32.622  30.706  1.00  0.00     0.034 A 
BRANCH  48  62
ATOM     62  C   UNL A   1      37.026  32.262  31.256  1.00  0.00     0.023 A 
ATOM     63  C   UNL A   1      36.238  32.991  30.345  1.00  0.00     0.031 A 
ATOM     64  C   UNL A   1      36.528  32.210  32.578  1.00  0.00     0.131 A 
ATOM     65  C   UNL A   1      35.039  33.614  30.745  1.00  0.00     0.055 A 
ATOM     66  C   UNL A   1      35.307  32.782  32.961  1.00  0.00     0.041 A 
ATOM     67  F   UNL A   1      37.209  31.659  33.588  1.00  0.00    -0.206 F 
ATOM     68  C   UNL A   1      34.558  33.497  32.044  1.00  0.00     0.022 A 
BRANCH  65  69
ATOM     69  S   UNL A   1      34.145  34.634  29.545  1.00  0.00     0.124 S 
ATOM     70  O   UNL A   1      33.588  35.684  30.391  1.00  0.00    -0.237 OA
ATOM     71  O   UNL A   1      35.205  35.033  28.627  1.00  0.00    -0.237 OA
ATOM     72  O   UNL A   1      33.160  33.709  28.983  1.00  0.00    -0.744 OA
ENDBRANCH  65  69
ENDBRANCH  48  62
BRANCH  49  73
ATOM     73  C   UNL A   1      45.215  27.044  29.084  1.00  0.00     0.023 A 
ATOM     74  C   UNL A   1      45.003  27.382  27.715  1.00  0.00     0.031 A 
ATOM     75  C   UNL A   1      46.315  26.221  29.379  1.00  0.00     0.131 A 
ATOM     76  C   UNL A   1      45.973  27.081  26.741  1.00  0.00     0.055 A 
ATOM     77  C   UNL A   1      47.270  25.908  28.396  1.00  0.00     0.041 A 
ATOM     78  F   UNL A   1      46.612  25.917  30.650  1.00  0.00    -0.206 F 
ATOM     79  C   UNL A   1      47.130  26.383  27.089  1.00  0.00     0.022 A 
BRANCH  76  80
ATOM     80  S   UNL A   1      45.859  27.857  25.087  1.00  0.00     0.124 S 
ATOM     81  O   UNL A   1      44.420  27.972  24.901  1.00  0.00    -0.237 OA
ATOM     82  O   UNL A   1      46.580  29.114  25.267  1.00  0.00    -0.237 OA
ATOM     83  O   UNL A   1      46.535  26.896  24.216  1.00  0.00    -0.744 OA
ENDBRANCH  76  80
ENDBRANCH  49  73
BRANCH  61  84
ATOM     84  C   UNL A   1      43.381  34.082  30.426  1.00  0.00     0.023 A 
ATOM     85  C   UNL A   1      43.422  34.559  29.115  1.00  0.00     0.031 A 
ATOM     86  C   UNL A   1      43.564  35.047  31.444  1.00  0.00     0.131 A 
ATOM     87  C   UNL A   1      43.423  35.934  28.859  1.00  0.00     0.055 A 
ATOM     88  C   UNL A   1      43.711  36.409  31.178  1.00  0.00     0.041 A 
ATOM     89  F   UNL A   1      43.542  34.733  32.747  1.00  0.00    -0.206 F 
ATOM     90  C   UNL A   1      43.595  36.867  29.878  1.00  0.00     0.022 A 
BRANCH  87  91
ATOM     91  S   UNL A   1      43.003  36.465  27.186  1.00  0.00     0.124 S 
ATOM     92  O   UNL A   1      41.793  37.255  27.392  1.00  0.00    -0.237 OA
ATOM     93  O   UNL A   1      44.196  37.227  26.817  1.00  0.00    -0.237 OA
ATOM     94  O   UNL A   1      42.818  35.210  26.462  1.00  0.00    -0.744 OA
ENDBRANCH  87  91
ENDBRANCH  61  84
ENDBRANCH  35  36
ENDBRANCH  28  30
ENDBRANCH  27  28
ENDBRANCH  26  27
ENDBRANCH  25  26
ENDBRANCH   1  25
TORSDOF 20
ENDMDL
