MODEL 1
REMARK VINA RESULT:     -11.8      0.000      0.000
REMARK SMILES O=C(OCCOCCOC(=O)[C@H]1CN(C(=O)C[C@H]2NC(=O)c3ccccc32)C[C@@H]1c1ccc(F)cc1)c1ccc(-c2c3nc(c(-c4cc(S(=O)(=O)[O-])ccc4F)c4ccc([nH]4)c(-c4cc(S(=O)(=O)[O-])ccc4F)c4nc(c(-c5cc(S(=O)(=O)[O-])ccc5F)c5ccc2[nH]5)C=C4)C=C3)cc1
REMARK SMILES IDX 6 1 5 2 4 3 3 4 2 5 1 6 37 7 38 8 99 9 39 10 98 11 40 12
REMARK SMILES IDX 41 13 42 14 92 15 43 16 97 17 91 18 93 19 44 20 96 21 90 22
REMARK SMILES IDX 89 23 45 25 77 26 57 27 76 28 58 29 61 30 75 31 94 32 59 33
REMARK SMILES IDX 60 34 74 36 95 37 62 38 46 39 47 40 55 41 48 42 54 43 56 44
REMARK SMILES IDX 53 45 49 46 50 47 51 48 52 49 78 50 79 51 87 52 80 53 86 54
REMARK SMILES IDX 88 55 85 56 81 57 82 58 83 59 84 60 63 61 64 62 72 63 65 64
REMARK SMILES IDX 71 65 73 66 70 67 66 68 67 69 68 70 69 71 7 72 8 73 9 74
REMARK SMILES IDX 10 75 11 76 12 77 13 78 29 79 14 80 28 81 30 82 31 83 36 84
REMARK SMILES IDX 32 85 35 86 33 87 34 88 15 89 16 90 17 91 18 92 19 93 27 94
REMARK SMILES IDX 20 95 22 97 26 98 21 99 23 100 25 101 24 102
REMARK H PARENT 93 24 61 35 19 96
REMARK Flexibility Score: inf
ROOT
ATOM      1  O   UNL A   1      31.311  28.202  23.472  1.00  0.00    -0.374 OA
ENDROOT
BRANCH   1   2
ATOM      2  C   UNL A   1      32.343  28.166  24.450  1.00  0.00     0.202 C 
BRANCH   2   3
ATOM      3  C   UNL A   1      33.085  29.463  24.793  1.00  0.00     0.261 C 
BRANCH   3   4
ATOM      4  O   UNL A   1      32.955  29.720  26.204  1.00  0.00    -0.460 OA
BRANCH   4   5
ATOM      5  C   UNL A   1      33.452  30.795  26.865  1.00  0.00     0.338 C 
ATOM      6  O   UNL A   1      32.880  31.879  26.797  1.00  0.00    -0.246 OA
BRANCH   5   7
ATOM      7  C   UNL A   1      34.667  30.664  27.704  1.00  0.00     0.060 A 
ATOM      8  C   UNL A   1      35.040  29.456  28.278  1.00  0.00     0.016 A 
ATOM      9  C   UNL A   1      35.499  31.766  27.895  1.00  0.00     0.016 A 
ATOM     10  C   UNL A   1      36.119  29.310  29.084  1.00  0.00     0.010 A 
ATOM     11  C   UNL A   1      36.673  31.618  28.636  1.00  0.00     0.010 A 
ATOM     12  C   UNL A   1      36.980  30.374  29.200  1.00  0.00    -0.014 A 
BRANCH  12  13
ATOM     13  C   UNL A   1      38.155  30.078  30.000  1.00  0.00     0.031 A 
ATOM     14  C   UNL A   1      39.297  29.435  29.310  1.00  0.00     0.074 A 
ATOM     15  C   UNL A   1      38.241  30.643  31.218  1.00  0.00     0.049 A 
ATOM     16  N   UNL A   1      40.395  28.971  29.821  1.00  0.00    -0.248 NA
ATOM     17  C   UNL A   1      39.196  29.311  27.844  1.00  0.00     0.031 C 
ATOM     18  C   UNL A   1      37.241  31.552  31.810  1.00  0.00     0.029 A 
ATOM     19  N   UNL A   1      39.234  30.603  32.146  1.00  0.00    -0.354 N 
ATOM     20  C   UNL A   1      41.100  28.447  28.748  1.00  0.00     0.074 A 
ATOM     21  C   UNL A   1      40.311  28.661  27.557  1.00  0.00     0.031 C 
ATOM     22  C   UNL A   1      37.694  31.996  32.990  1.00  0.00     0.029 A 
ATOM     23  C   UNL A   1      38.940  31.311  33.285  1.00  0.00     0.049 A 
ATOM     24  H   UNL A   1      40.080  30.116  32.013  1.00  0.00     0.167 HD
ATOM     25  C   UNL A   1      42.294  27.821  28.802  1.00  0.00     0.034 A 
ATOM     26  C   UNL A   1      39.588  31.329  34.460  1.00  0.00     0.034 A 
ATOM     27  C   UNL A   1      42.989  27.637  30.048  1.00  0.00     0.049 A 
ATOM     28  C   UNL A   1      40.807  30.460  34.554  1.00  0.00     0.074 A 
ATOM     29  C   UNL A   1      44.119  26.893  30.317  1.00  0.00     0.029 A 
ATOM     30  N   UNL A   1      42.598  28.225  31.253  1.00  0.00    -0.354 N 
ATOM     31  N   UNL A   1      41.377  29.745  33.607  1.00  0.00    -0.248 NA
ATOM     32  C   UNL A   1      41.454  30.368  35.861  1.00  0.00     0.031 C 
ATOM     33  C   UNL A   1      44.371  26.981  31.691  1.00  0.00     0.029 A 
ATOM     34  C   UNL A   1      43.454  27.852  32.269  1.00  0.00     0.049 A 
ATOM     35  H   UNL A   1      41.821  28.820  31.362  1.00  0.00     0.167 HD
ATOM     36  C   UNL A   1      42.475  29.137  34.194  1.00  0.00     0.074 A 
ATOM     37  C   UNL A   1      42.477  29.569  35.585  1.00  0.00     0.031 C 
ATOM     38  C   UNL A   1      43.401  28.312  33.642  1.00  0.00     0.034 A 
BRANCH  25  39
ATOM     39  C   UNL A   1      42.784  27.205  27.522  1.00  0.00     0.023 A 
ATOM     40  C   UNL A   1      42.784  25.813  27.321  1.00  0.00     0.031 A 
ATOM     41  C   UNL A   1      43.393  28.014  26.547  1.00  0.00     0.131 A 
ATOM     42  C   UNL A   1      43.453  25.268  26.213  1.00  0.00     0.055 A 
ATOM     43  C   UNL A   1      43.984  27.470  25.405  1.00  0.00     0.041 A 
ATOM     44  F   UNL A   1      43.467  29.343  26.712  1.00  0.00    -0.206 F 
ATOM     45  C   UNL A   1      44.031  26.090  25.241  1.00  0.00     0.022 A 
BRANCH  42  46
ATOM     46  S   UNL A   1      43.698  23.473  26.141  1.00  0.00     0.124 S 
ATOM     47  O   UNL A   1      44.987  23.381  25.460  1.00  0.00    -0.237 OA
ATOM     48  O   UNL A   1      43.691  23.095  27.549  1.00  0.00    -0.237 OA
ATOM     49  O   UNL A   1      42.553  23.002  25.364  1.00  0.00    -0.744 OA
ENDBRANCH  42  46
ENDBRANCH  25  39
BRANCH  26  50
ATOM     50  C   UNL A   1      39.048  32.111  35.602  1.00  0.00     0.023 A 
ATOM     51  C   UNL A   1      38.338  31.482  36.632  1.00  0.00     0.031 A 
ATOM     52  C   UNL A   1      39.291  33.494  35.715  1.00  0.00     0.131 A 
ATOM     53  C   UNL A   1      37.891  32.233  37.731  1.00  0.00     0.055 A 
ATOM     54  C   UNL A   1      38.874  34.230  36.825  1.00  0.00     0.041 A 
ATOM     55  F   UNL A   1      39.983  34.144  34.764  1.00  0.00    -0.206 F 
ATOM     56  C   UNL A   1      38.165  33.599  37.841  1.00  0.00     0.022 A 
BRANCH  53  57
ATOM     57  S   UNL A   1      36.942  31.394  39.029  1.00  0.00     0.124 S 
ATOM     58  O   UNL A   1      36.760  30.067  38.451  1.00  0.00    -0.237 OA
ATOM     59  O   UNL A   1      37.845  31.479  40.171  1.00  0.00    -0.237 OA
ATOM     60  O   UNL A   1      35.727  32.200  39.137  1.00  0.00    -0.744 OA
ENDBRANCH  53  57
ENDBRANCH  26  50
BRANCH  38  61
ATOM     61  C   UNL A   1      44.529  27.887  34.535  1.00  0.00     0.023 A 
ATOM     62  C   UNL A   1      44.437  26.752  35.354  1.00  0.00     0.031 A 
ATOM     63  C   UNL A   1      45.730  28.619  34.527  1.00  0.00     0.131 A 
ATOM     64  C   UNL A   1      45.520  26.403  36.169  1.00  0.00     0.055 A 
ATOM     65  C   UNL A   1      46.825  28.229  35.292  1.00  0.00     0.041 A 
ATOM     66  F   UNL A   1      45.858  29.713  33.758  1.00  0.00    -0.206 F 
ATOM     67  C   UNL A   1      46.720  27.120  36.126  1.00  0.00     0.022 A 
BRANCH  64  68
ATOM     68  S   UNL A   1      45.316  25.035  37.337  1.00  0.00     0.124 S 
ATOM     69  O   UNL A   1      44.589  25.678  38.428  1.00  0.00    -0.237 OA
ATOM     70  O   UNL A   1      44.561  24.063  36.555  1.00  0.00    -0.237 OA
ATOM     71  O   UNL A   1      46.689  24.646  37.652  1.00  0.00    -0.744 OA
ENDBRANCH  64  68
ENDBRANCH  38  61
ENDBRANCH  12  13
ENDBRANCH   5   7
ENDBRANCH   4   5
ENDBRANCH   3   4
ENDBRANCH   2   3
ENDBRANCH   1   2
BRANCH   1  72
ATOM     72  C   UNL A   1      31.157  27.047  22.644  1.00  0.00     0.202 C 
BRANCH  72  73
ATOM     73  C   UNL A   1      31.854  25.880  23.328  1.00  0.00     0.261 C 
BRANCH  73  74
ATOM     74  O   UNL A   1      31.849  24.797  22.383  1.00  0.00    -0.463 OA
BRANCH  74  75
ATOM     75  C   UNL A   1      31.522  23.583  22.899  1.00  0.00     0.311 C 
ATOM     76  O   UNL A   1      30.414  23.257  23.306  1.00  0.00    -0.252 OA
BRANCH  75  77
ATOM     77  C   UNL A   1      32.710  22.651  22.971  1.00  0.00     0.128 C 
ATOM     78  C   UNL A   1      34.111  23.181  23.286  1.00  0.00     0.135 C 
ATOM     79  C   UNL A   1      32.476  21.665  24.116  1.00  0.00     0.055 C 
ATOM     80  N   UNL A   1      34.163  23.286  24.730  1.00  0.00    -0.341 N 
ATOM     81  C   UNL A   1      33.230  22.319  25.307  1.00  0.00     0.128 C 
BRANCH  79  82
ATOM     82  C   UNL A   1      32.876  20.241  23.774  1.00  0.00    -0.042 A 
ATOM     83  C   UNL A   1      33.838  19.626  24.587  1.00  0.00     0.007 A 
ATOM     84  C   UNL A   1      32.241  19.468  22.783  1.00  0.00     0.007 A 
ATOM     85  C   UNL A   1      34.126  18.272  24.436  1.00  0.00     0.039 A 
ATOM     86  C   UNL A   1      32.519  18.112  22.642  1.00  0.00     0.039 A 
ATOM     87  C   UNL A   1      33.456  17.525  23.475  1.00  0.00     0.123 A 
ATOM     88  F   UNL A   1      33.710  16.216  23.356  1.00  0.00    -0.207 F 
ENDBRANCH  79  82
BRANCH  80  89
ATOM     89  C   UNL A   1      34.898  24.118  25.551  1.00  0.00     0.225 C 
ATOM     90  O   UNL A   1      34.713  25.339  25.537  1.00  0.00    -0.275 OA
BRANCH  89  91
ATOM     91  C   UNL A   1      35.954  23.557  26.491  1.00  0.00     0.130 C 
BRANCH  91  92
ATOM     92  C   UNL A   1      37.309  23.444  25.807  1.00  0.00     0.123 C 
ATOM     93  N   UNL A   1      38.370  23.986  26.645  1.00  0.00    -0.345 N 
ATOM     94  C   UNL A   1      37.794  22.028  25.601  1.00  0.00    -0.012 A 
ATOM     95  C   UNL A   1      39.372  23.083  26.929  1.00  0.00     0.252 C 
ATOM     96  H   UNL A   1      38.370  24.913  26.978  1.00  0.00     0.164 HD
ATOM     97  C   UNL A   1      39.012  21.833  26.256  1.00  0.00     0.045 A 
ATOM     98  C   UNL A   1      37.255  21.000  24.843  1.00  0.00     0.007 A 
ATOM     99  O   UNL A   1      40.368  23.292  27.581  1.00  0.00    -0.269 OA
ATOM    100  C   UNL A   1      39.729  20.651  26.191  1.00  0.00     0.014 A 
ATOM    101  C   UNL A   1      37.963  19.792  24.759  1.00  0.00     0.000 A 
ATOM    102  C   UNL A   1      39.190  19.618  25.425  1.00  0.00     0.001 A 
ENDBRANCH  91  92
ENDBRANCH  89  91
ENDBRANCH  80  89
ENDBRANCH  75  77
ENDBRANCH  74  75
ENDBRANCH  73  74
ENDBRANCH  72  73
ENDBRANCH   1  72
TORSDOF 21
ENDMDL
MODEL 2
REMARK VINA RESULT:     -11.8      4.624      8.312
REMARK SMILES O=C(OCCOCCOC(=O)[C@H]1CN(C(=O)C[C@H]2NC(=O)c3ccccc32)C[C@@H]1c1ccc(F)cc1)c1ccc(-c2c3nc(c(-c4cc(S(=O)(=O)[O-])ccc4F)c4ccc([nH]4)c(-c4cc(S(=O)(=O)[O-])ccc4F)c4nc(c(-c5cc(S(=O)(=O)[O-])ccc5F)c5ccc2[nH]5)C=C4)C=C3)cc1
REMARK SMILES IDX 6 1 5 2 4 3 3 4 2 5 1 6 37 7 38 8 99 9 39 10 98 11 40 12
REMARK SMILES IDX 41 13 42 14 92 15 43 16 97 17 91 18 93 19 44 20 96 21 90 22
REMARK SMILES IDX 89 23 45 25 77 26 57 27 76 28 58 29 61 30 75 31 94 32 59 33
REMARK SMILES IDX 60 34 74 36 95 37 62 38 46 39 47 40 55 41 48 42 54 43 56 44
REMARK SMILES IDX 53 45 49 46 50 47 51 48 52 49 78 50 79 51 87 52 80 53 86 54
REMARK SMILES IDX 88 55 85 56 81 57 82 58 83 59 84 60 63 61 64 62 72 63 65 64
REMARK SMILES IDX 71 65 73 66 70 67 66 68 67 69 68 70 69 71 7 72 8 73 9 74
REMARK SMILES IDX 10 75 11 76 12 77 13 78 29 79 14 80 28 81 30 82 31 83 36 84
REMARK SMILES IDX 32 85 35 86 33 87 34 88 15 89 16 90 17 91 18 92 19 93 27 94
REMARK SMILES IDX 20 95 22 97 26 98 21 99 23 100 25 101 24 102
REMARK H PARENT 93 24 61 35 19 96
REMARK Flexibility Score: inf
ROOT
ATOM      1  O   UNL A   1      38.734  21.843  25.892  1.00  0.00    -0.374 OA
ENDROOT
BRANCH   1   2
ATOM      2  C   UNL A   1      38.574  20.570  25.278  1.00  0.00     0.202 C 
BRANCH   2   3
ATOM      3  C   UNL A   1      39.363  19.377  25.828  1.00  0.00     0.261 C 
BRANCH   3   4
ATOM      4  O   UNL A   1      40.714  19.436  25.332  1.00  0.00    -0.460 OA
BRANCH   4   5
ATOM      5  C   UNL A   1      41.827  19.636  26.080  1.00  0.00     0.338 C 
ATOM      6  O   UNL A   1      42.494  18.679  26.460  1.00  0.00    -0.246 OA
BRANCH   5   7
ATOM      7  C   UNL A   1      42.270  21.010  26.412  1.00  0.00     0.060 A 
ATOM      8  C   UNL A   1      42.242  22.040  25.482  1.00  0.00     0.016 A 
ATOM      9  C   UNL A   1      42.686  21.309  27.709  1.00  0.00     0.016 A 
ATOM     10  C   UNL A   1      42.679  23.297  25.739  1.00  0.00     0.010 A 
ATOM     11  C   UNL A   1      43.043  22.620  28.030  1.00  0.00     0.010 A 
ATOM     12  C   UNL A   1      43.007  23.606  27.037  1.00  0.00    -0.014 A 
BRANCH  12  13
ATOM     13  C   UNL A   1      43.359  25.003  27.222  1.00  0.00     0.031 A 
ATOM     14  C   UNL A   1      44.615  25.473  26.593  1.00  0.00     0.074 A 
ATOM     15  C   UNL A   1      42.411  25.828  27.700  1.00  0.00     0.049 A 
ATOM     16  N   UNL A   1      45.198  26.626  26.708  1.00  0.00    -0.248 NA
ATOM     17  C   UNL A   1      45.301  24.520  25.700  1.00  0.00     0.031 C 
ATOM     18  C   UNL A   1      41.032  25.434  28.047  1.00  0.00     0.029 A 
ATOM     19  N   UNL A   1      42.427  27.171  27.911  1.00  0.00    -0.354 N 
ATOM     20  C   UNL A   1      46.351  26.526  25.947  1.00  0.00     0.074 A 
ATOM     21  C   UNL A   1      46.382  25.205  25.364  1.00  0.00     0.031 C 
ATOM     22  C   UNL A   1      40.338  26.524  28.402  1.00  0.00     0.029 A 
ATOM     23  C   UNL A   1      41.250  27.654  28.428  1.00  0.00     0.049 A 
ATOM     24  H   UNL A   1      43.206  27.741  27.712  1.00  0.00     0.167 HD
ATOM     25  C   UNL A   1      47.298  27.477  25.797  1.00  0.00     0.034 A 
ATOM     26  C   UNL A   1      40.984  28.869  28.932  1.00  0.00     0.034 A 
ATOM     27  C   UNL A   1      47.184  28.757  26.443  1.00  0.00     0.049 A 
ATOM     28  C   UNL A   1      42.122  29.846  28.936  1.00  0.00     0.074 A 
ATOM     29  C   UNL A   1      48.112  29.773  26.537  1.00  0.00     0.029 A 
ATOM     30  N   UNL A   1      46.041  29.191  27.117  1.00  0.00    -0.354 N 
ATOM     31  N   UNL A   1      43.328  29.698  28.430  1.00  0.00    -0.248 NA
ATOM     32  C   UNL A   1      41.888  31.130  29.594  1.00  0.00     0.031 C 
ATOM     33  C   UNL A   1      47.552  30.791  27.318  1.00  0.00     0.029 A 
ATOM     34  C   UNL A   1      46.242  30.453  27.639  1.00  0.00     0.049 A 
ATOM     35  H   UNL A   1      45.210  28.671  27.208  1.00  0.00     0.167 HD
ATOM     36  C   UNL A   1      43.996  30.886  28.681  1.00  0.00     0.074 A 
ATOM     37  C   UNL A   1      43.051  31.736  29.392  1.00  0.00     0.031 C 
ATOM     38  C   UNL A   1      45.261  31.250  28.347  1.00  0.00     0.034 A 
BRANCH  25  39
ATOM     39  C   UNL A   1      48.534  27.076  25.043  1.00  0.00     0.023 A 
ATOM     40  C   UNL A   1      49.638  26.488  25.686  1.00  0.00     0.031 A 
ATOM     41  C   UNL A   1      48.665  27.418  23.686  1.00  0.00     0.131 A 
ATOM     42  C   UNL A   1      50.850  26.338  24.993  1.00  0.00     0.055 A 
ATOM     43  C   UNL A   1      49.847  27.188  22.980  1.00  0.00     0.041 A 
ATOM     44  F   UNL A   1      47.661  28.026  23.036  1.00  0.00    -0.206 F 
ATOM     45  C   UNL A   1      50.953  26.660  23.637  1.00  0.00     0.022 A 
BRANCH  42  46
ATOM     46  S   UNL A   1      52.332  25.866  25.926  1.00  0.00     0.124 S 
ATOM     47  O   UNL A   1      52.693  27.132  26.560  1.00  0.00    -0.237 OA
ATOM     48  O   UNL A   1      51.830  24.826  26.816  1.00  0.00    -0.237 OA
ATOM     49  O   UNL A   1      53.256  25.407  24.891  1.00  0.00    -0.744 OA
ENDBRANCH  42  46
ENDBRANCH  25  39
BRANCH  26  50
ATOM     50  C   UNL A   1      39.650  29.159  29.520  1.00  0.00     0.023 A 
ATOM     51  C   UNL A   1      39.474  29.216  30.908  1.00  0.00     0.031 A 
ATOM     52  C   UNL A   1      38.542  29.451  28.700  1.00  0.00     0.131 A 
ATOM     53  C   UNL A   1      38.219  29.554  31.439  1.00  0.00     0.055 A 
ATOM     54  C   UNL A   1      37.305  29.818  29.232  1.00  0.00     0.041 A 
ATOM     55  F   UNL A   1      38.661  29.428  27.362  1.00  0.00    -0.206 F 
ATOM     56  C   UNL A   1      37.137  29.868  30.611  1.00  0.00     0.022 A 
BRANCH  53  57
ATOM     57  S   UNL A   1      38.016  29.582  33.241  1.00  0.00     0.124 S 
ATOM     58  O   UNL A   1      37.046  28.512  33.446  1.00  0.00    -0.237 OA
ATOM     59  O   UNL A   1      39.374  29.318  33.705  1.00  0.00    -0.237 OA
ATOM     60  O   UNL A   1      37.522  30.932  33.506  1.00  0.00    -0.744 OA
ENDBRANCH  53  57
ENDBRANCH  26  50
BRANCH  38  61
ATOM     61  C   UNL A   1      45.660  32.655  28.691  1.00  0.00     0.023 A 
ATOM     62  C   UNL A   1      45.494  33.713  27.786  1.00  0.00     0.031 A 
ATOM     63  C   UNL A   1      46.181  32.932  29.967  1.00  0.00     0.131 A 
ATOM     64  C   UNL A   1      45.886  35.003  28.158  1.00  0.00     0.055 A 
ATOM     65  C   UNL A   1      46.509  34.228  30.353  1.00  0.00     0.041 A 
ATOM     66  F   UNL A   1      46.357  31.947  30.862  1.00  0.00    -0.206 F 
ATOM     67  C   UNL A   1      46.370  35.272  29.443  1.00  0.00     0.022 A 
BRANCH  64  68
ATOM     68  S   UNL A   1      45.817  36.319  26.916  1.00  0.00     0.124 S 
ATOM     69  O   UNL A   1      44.405  36.691  26.952  1.00  0.00    -0.237 OA
ATOM     70  O   UNL A   1      46.748  37.306  27.451  1.00  0.00    -0.237 OA
ATOM     71  O   UNL A   1      46.253  35.656  25.689  1.00  0.00    -0.744 OA
ENDBRANCH  64  68
ENDBRANCH  38  61
ENDBRANCH  12  13
ENDBRANCH   5   7
ENDBRANCH   4   5
ENDBRANCH   3   4
ENDBRANCH   2   3
ENDBRANCH   1   2
BRANCH   1  72
ATOM     72  C   UNL A   1      37.675  22.787  25.720  1.00  0.00     0.202 C 
BRANCH  72  73
ATOM     73  C   UNL A   1      36.674  22.199  24.737  1.00  0.00     0.261 C 
BRANCH  73  74
ATOM     74  O   UNL A   1      35.833  23.287  24.317  1.00  0.00    -0.463 OA
BRANCH  74  75
ATOM     75  C   UNL A   1      34.816  23.592  25.164  1.00  0.00     0.311 C 
ATOM     76  O   UNL A   1      34.565  24.707  25.602  1.00  0.00    -0.252 OA
BRANCH  75  77
ATOM     77  C   UNL A   1      34.022  22.372  25.570  1.00  0.00     0.128 C 
ATOM     78  C   UNL A   1      32.943  22.457  26.653  1.00  0.00     0.135 C 
ATOM     79  C   UNL A   1      33.221  21.897  24.357  1.00  0.00     0.055 C 
ATOM     80  N   UNL A   1      31.760  22.946  25.975  1.00  0.00    -0.341 N 
ATOM     81  C   UNL A   1      31.833  22.564  24.565  1.00  0.00     0.128 C 
BRANCH  79  82
ATOM     82  C   UNL A   1      33.218  20.387  24.193  1.00  0.00    -0.042 A 
ATOM     83  C   UNL A   1      32.278  19.835  23.311  1.00  0.00     0.007 A 
ATOM     84  C   UNL A   1      34.184  19.537  24.764  1.00  0.00     0.007 A 
ATOM     85  C   UNL A   1      32.330  18.481  22.985  1.00  0.00     0.039 A 
ATOM     86  C   UNL A   1      34.244  18.189  24.427  1.00  0.00     0.039 A 
ATOM     87  C   UNL A   1      33.319  17.675  23.535  1.00  0.00     0.123 A 
ATOM     88  F   UNL A   1      33.387  16.383  23.192  1.00  0.00    -0.207 F 
ENDBRANCH  79  82
BRANCH  80  89
ATOM     89  C   UNL A   1      30.684  23.673  26.444  1.00  0.00     0.225 C 
ATOM     90  O   UNL A   1      30.105  23.340  27.483  1.00  0.00    -0.275 OA
BRANCH  89  91
ATOM     91  C   UNL A   1      30.185  24.901  25.698  1.00  0.00     0.130 C 
BRANCH  91  92
ATOM     92  C   UNL A   1      31.339  25.736  25.160  1.00  0.00     0.123 C 
ATOM     93  N   UNL A   1      31.135  26.079  23.760  1.00  0.00    -0.345 N 
ATOM     94  C   UNL A   1      31.465  27.108  25.781  1.00  0.00    -0.012 A 
ATOM     95  C   UNL A   1      31.135  27.435  23.512  1.00  0.00     0.252 C 
ATOM     96  H   UNL A   1      31.010  25.402  23.055  1.00  0.00     0.164 HD
ATOM     97  C   UNL A   1      31.355  28.096  24.800  1.00  0.00     0.045 A 
ATOM     98  C   UNL A   1      31.726  27.476  27.092  1.00  0.00     0.007 A 
ATOM     99  O   UNL A   1      31.009  27.971  22.436  1.00  0.00    -0.269 OA
ATOM    100  C   UNL A   1      31.495  29.447  25.063  1.00  0.00     0.014 A 
ATOM    101  C   UNL A   1      31.875  28.840  27.386  1.00  0.00     0.000 A 
ATOM    102  C   UNL A   1      31.762  29.818  26.380  1.00  0.00     0.001 A 
ENDBRANCH  91  92
ENDBRANCH  89  91
ENDBRANCH  80  89
ENDBRANCH  75  77
ENDBRANCH  74  75
ENDBRANCH  73  74
ENDBRANCH  72  73
ENDBRANCH   1  72
TORSDOF 21
ENDMDL
MODEL 3
REMARK VINA RESULT:     -11.6      5.014      8.322
REMARK SMILES O=C(OCCOCCOC(=O)[C@H]1CN(C(=O)C[C@H]2NC(=O)c3ccccc32)C[C@@H]1c1ccc(F)cc1)c1ccc(-c2c3nc(c(-c4cc(S(=O)(=O)[O-])ccc4F)c4ccc([nH]4)c(-c4cc(S(=O)(=O)[O-])ccc4F)c4nc(c(-c5cc(S(=O)(=O)[O-])ccc5F)c5ccc2[nH]5)C=C4)C=C3)cc1
REMARK SMILES IDX 6 1 5 2 4 3 3 4 2 5 1 6 37 7 38 8 99 9 39 10 98 11 40 12
REMARK SMILES IDX 41 13 42 14 92 15 43 16 97 17 91 18 93 19 44 20 96 21 90 22
REMARK SMILES IDX 89 23 45 25 77 26 57 27 76 28 58 29 61 30 75 31 94 32 59 33
REMARK SMILES IDX 60 34 74 36 95 37 62 38 46 39 47 40 55 41 48 42 54 43 56 44
REMARK SMILES IDX 53 45 49 46 50 47 51 48 52 49 78 50 79 51 87 52 80 53 86 54
REMARK SMILES IDX 88 55 85 56 81 57 82 58 83 59 84 60 63 61 64 62 72 63 65 64
REMARK SMILES IDX 71 65 73 66 70 67 66 68 67 69 68 70 69 71 7 72 8 73 9 74
REMARK SMILES IDX 10 75 11 76 12 77 13 78 29 79 14 80 28 81 30 82 31 83 36 84
REMARK SMILES IDX 32 85 35 86 33 87 34 88 15 89 16 90 17 91 18 92 19 93 27 94
REMARK SMILES IDX 20 95 22 97 26 98 21 99 23 100 25 101 24 102
REMARK H PARENT 93 24 61 35 19 96
REMARK Flexibility Score: inf
ROOT
ATOM      1  O   UNL A   1      38.589  22.267  26.189  1.00  0.00    -0.374 OA
ENDROOT
BRANCH   1   2
ATOM      2  C   UNL A   1      38.621  21.109  25.364  1.00  0.00     0.202 C 
BRANCH   2   3
ATOM      3  C   UNL A   1      39.233  19.819  25.920  1.00  0.00     0.261 C 
BRANCH   3   4
ATOM      4  O   UNL A   1      40.565  19.665  25.393  1.00  0.00    -0.460 OA
BRANCH   4   5
ATOM      5  C   UNL A   1      41.718  19.876  26.075  1.00  0.00     0.338 C 
ATOM      6  O   UNL A   1      42.466  18.936  26.327  1.00  0.00    -0.246 OA
BRANCH   5   7
ATOM      7  C   UNL A   1      42.105  21.246  26.486  1.00  0.00     0.060 A 
ATOM      8  C   UNL A   1      42.198  22.291  25.577  1.00  0.00     0.016 A 
ATOM      9  C   UNL A   1      42.342  21.523  27.832  1.00  0.00     0.016 A 
ATOM     10  C   UNL A   1      42.590  23.545  25.912  1.00  0.00     0.010 A 
ATOM     11  C   UNL A   1      42.646  22.830  28.219  1.00  0.00     0.010 A 
ATOM     12  C   UNL A   1      42.739  23.833  27.247  1.00  0.00    -0.014 A 
BRANCH  12  13
ATOM     13  C   UNL A   1      43.056  25.227  27.500  1.00  0.00     0.031 A 
ATOM     14  C   UNL A   1      44.352  25.730  26.989  1.00  0.00     0.074 A 
ATOM     15  C   UNL A   1      42.061  26.027  27.925  1.00  0.00     0.049 A 
ATOM     16  N   UNL A   1      44.907  26.885  27.185  1.00  0.00    -0.248 NA
ATOM     17  C   UNL A   1      45.120  24.812  26.126  1.00  0.00     0.031 C 
ATOM     18  C   UNL A   1      40.665  25.607  28.148  1.00  0.00     0.029 A 
ATOM     19  N   UNL A   1      42.042  27.363  28.176  1.00  0.00    -0.354 N 
ATOM     20  C   UNL A   1      46.120  26.822  26.516  1.00  0.00     0.074 A 
ATOM     21  C   UNL A   1      46.214  25.519  25.899  1.00  0.00     0.031 C 
ATOM     22  C   UNL A   1      39.930  26.677  28.478  1.00  0.00     0.029 A 
ATOM     23  C   UNL A   1      40.821  27.816  28.611  1.00  0.00     0.049 A 
ATOM     24  H   UNL A   1      42.827  27.947  28.057  1.00  0.00     0.167 HD
ATOM     25  C   UNL A   1      47.062  27.787  26.471  1.00  0.00     0.034 A 
ATOM     26  C   UNL A   1      40.499  29.012  29.127  1.00  0.00     0.034 A 
ATOM     27  C   UNL A   1      46.880  29.046  27.143  1.00  0.00     0.049 A 
ATOM     28  C   UNL A   1      41.619  30.001  29.251  1.00  0.00     0.074 A 
ATOM     29  C   UNL A   1      47.783  30.069  27.341  1.00  0.00     0.029 A 
ATOM     30  N   UNL A   1      45.680  29.446  27.736  1.00  0.00    -0.354 N 
ATOM     31  N   UNL A   1      42.864  29.883  28.840  1.00  0.00    -0.248 NA
ATOM     32  C   UNL A   1      41.316  31.262  29.926  1.00  0.00     0.031 C 
ATOM     33  C   UNL A   1      47.148  31.057  28.105  1.00  0.00     0.029 A 
ATOM     34  C   UNL A   1      45.822  30.694  28.309  1.00  0.00     0.049 A 
ATOM     35  H   UNL A   1      44.852  28.914  27.743  1.00  0.00     0.167 HD
ATOM     36  C   UNL A   1      43.494  31.070  29.178  1.00  0.00     0.074 A 
ATOM     37  C   UNL A   1      42.484  31.887  29.836  1.00  0.00     0.031 C 
ATOM     38  C   UNL A   1      44.776  31.458  28.959  1.00  0.00     0.034 A 
BRANCH  25  39
ATOM     39  C   UNL A   1      48.360  27.423  25.807  1.00  0.00     0.023 A 
ATOM     40  C   UNL A   1      48.594  27.678  24.444  1.00  0.00     0.031 A 
ATOM     41  C   UNL A   1      49.320  26.680  26.515  1.00  0.00     0.131 A 
ATOM     42  C   UNL A   1      49.720  27.124  23.814  1.00  0.00     0.055 A 
ATOM     43  C   UNL A   1      50.480  26.203  25.902  1.00  0.00     0.041 A 
ATOM     44  F   UNL A   1      49.125  26.364  27.805  1.00  0.00    -0.206 F 
ATOM     45  C   UNL A   1      50.677  26.410  24.540  1.00  0.00     0.022 A 
BRANCH  42  46
ATOM     46  S   UNL A   1      49.836  27.211  22.006  1.00  0.00     0.124 S 
ATOM     47  O   UNL A   1      49.511  28.615  21.761  1.00  0.00    -0.237 OA
ATOM     48  O   UNL A   1      51.220  26.823  21.758  1.00  0.00    -0.237 OA
ATOM     49  O   UNL A   1      48.829  26.255  21.552  1.00  0.00    -0.744 OA
ENDBRANCH  42  46
ENDBRANCH  25  39
BRANCH  26  50
ATOM     50  C   UNL A   1      39.118  29.270  29.614  1.00  0.00     0.023 A 
ATOM     51  C   UNL A   1      38.182  29.927  28.806  1.00  0.00     0.031 A 
ATOM     52  C   UNL A   1      38.693  28.802  30.874  1.00  0.00     0.131 A 
ATOM     53  C   UNL A   1      36.867  30.103  29.265  1.00  0.00     0.055 A 
ATOM     54  C   UNL A   1      37.376  28.951  31.312  1.00  0.00     0.041 A 
ATOM     55  F   UNL A   1      39.546  28.150  31.681  1.00  0.00    -0.206 F 
ATOM     56  C   UNL A   1      36.454  29.609  30.506  1.00  0.00     0.022 A 
BRANCH  53  57
ATOM     57  S   UNL A   1      35.690  30.991  28.208  1.00  0.00     0.124 S 
ATOM     58  O   UNL A   1      34.576  31.209  29.125  1.00  0.00    -0.237 OA
ATOM     59  O   UNL A   1      36.453  32.176  27.830  1.00  0.00    -0.237 OA
ATOM     60  O   UNL A   1      35.431  30.048  27.122  1.00  0.00    -0.744 OA
ENDBRANCH  53  57
ENDBRANCH  26  50
BRANCH  38  61
ATOM     61  C   UNL A   1      45.128  32.856  29.374  1.00  0.00     0.023 A 
ATOM     62  C   UNL A   1      44.905  33.955  28.533  1.00  0.00     0.031 A 
ATOM     63  C   UNL A   1      45.660  33.082  30.656  1.00  0.00     0.131 A 
ATOM     64  C   UNL A   1      45.254  35.238  28.971  1.00  0.00     0.055 A 
ATOM     65  C   UNL A   1      45.945  34.367  31.109  1.00  0.00     0.041 A 
ATOM     66  F   UNL A   1      45.890  32.056  31.491  1.00  0.00    -0.206 F 
ATOM     67  C   UNL A   1      45.750  35.453  30.261  1.00  0.00     0.022 A 
BRANCH  64  68
ATOM     68  S   UNL A   1      45.111  36.617  27.807  1.00  0.00     0.124 S 
ATOM     69  O   UNL A   1      46.503  37.038  27.670  1.00  0.00    -0.237 OA
ATOM     70  O   UNL A   1      44.521  35.981  26.635  1.00  0.00    -0.237 OA
ATOM     71  O   UNL A   1      44.242  37.564  28.502  1.00  0.00    -0.744 OA
ENDBRANCH  64  68
ENDBRANCH  38  61
ENDBRANCH  12  13
ENDBRANCH   5   7
ENDBRANCH   4   5
ENDBRANCH   3   4
ENDBRANCH   2   3
ENDBRANCH   1   2
BRANCH   1  72
ATOM     72  C   UNL A   1      37.561  23.226  25.928  1.00  0.00     0.202 C 
BRANCH  72  73
ATOM     73  C   UNL A   1      36.651  22.660  24.848  1.00  0.00     0.261 C 
BRANCH  73  74
ATOM     74  O   UNL A   1      36.193  23.782  24.076  1.00  0.00    -0.463 OA
BRANCH  74  75
ATOM     75  C   UNL A   1      34.843  23.905  23.981  1.00  0.00     0.311 C 
ATOM     76  O   UNL A   1      34.249  24.815  23.416  1.00  0.00    -0.252 OA
BRANCH  75  77
ATOM     77  C   UNL A   1      34.114  22.798  24.707  1.00  0.00     0.128 C 
ATOM     78  C   UNL A   1      33.237  23.097  25.926  1.00  0.00     0.135 C 
ATOM     79  C   UNL A   1      33.111  22.171  23.738  1.00  0.00     0.055 C 
ATOM     80  N   UNL A   1      31.962  23.521  25.384  1.00  0.00    -0.341 N 
ATOM     81  C   UNL A   1      31.788  22.919  24.062  1.00  0.00     0.128 C 
BRANCH  79  82
ATOM     82  C   UNL A   1      33.059  20.656  23.824  1.00  0.00    -0.042 A 
ATOM     83  C   UNL A   1      32.241  19.983  22.905  1.00  0.00     0.007 A 
ATOM     84  C   UNL A   1      33.881  19.893  24.675  1.00  0.00     0.007 A 
ATOM     85  C   UNL A   1      32.277  18.593  22.817  1.00  0.00     0.039 A 
ATOM     86  C   UNL A   1      33.926  18.507  24.577  1.00  0.00     0.039 A 
ATOM     87  C   UNL A   1      33.127  17.869  23.643  1.00  0.00     0.123 A 
ATOM     88  F   UNL A   1      33.185  16.537  23.532  1.00  0.00    -0.207 F 
ENDBRANCH  79  82
BRANCH  80  89
ATOM     89  C   UNL A   1      30.992  24.357  25.901  1.00  0.00     0.225 C 
ATOM     90  O   UNL A   1      30.601  24.223  27.064  1.00  0.00    -0.275 OA
BRANCH  89  91
ATOM     91  C   UNL A   1      30.381  25.463  25.054  1.00  0.00     0.130 C 
BRANCH  91  92
ATOM     92  C   UNL A   1      31.428  26.480  24.621  1.00  0.00     0.123 C 
ATOM     93  N   UNL A   1      31.029  27.159  23.396  1.00  0.00    -0.345 N 
ATOM     94  C   UNL A   1      31.596  27.649  25.563  1.00  0.00    -0.012 A 
ATOM     95  C   UNL A   1      30.957  28.531  23.517  1.00  0.00     0.252 C 
ATOM     96  H   UNL A   1      30.830  26.682  22.558  1.00  0.00     0.164 HD
ATOM     97  C   UNL A   1      31.327  28.848  24.898  1.00  0.00     0.045 A 
ATOM     98  C   UNL A   1      32.019  27.681  26.883  1.00  0.00     0.007 A 
ATOM     99  O   UNL A   1      30.673  29.318  22.646  1.00  0.00    -0.269 OA
ATOM    100  C   UNL A   1      31.462  30.092  25.491  1.00  0.00     0.014 A 
ATOM    101  C   UNL A   1      32.166  28.930  27.506  1.00  0.00     0.000 A 
ATOM    102  C   UNL A   1      31.892  30.125  26.817  1.00  0.00     0.001 A 
ENDBRANCH  91  92
ENDBRANCH  89  91
ENDBRANCH  80  89
ENDBRANCH  75  77
ENDBRANCH  74  75
ENDBRANCH  73  74
ENDBRANCH  72  73
ENDBRANCH   1  72
TORSDOF 21
ENDMDL
