MODEL 1
REMARK VINA RESULT:     -11.5      0.000      0.000
REMARK SMILES O=C(OCCOCCOC(=O)[C@H]1CS[C@H](c2nc3ccccc3s2)[NH2+]1)c1ccc(-c2c3nc(c(-c4cc(S(=O)(=O)[O-])ccc4F)c4ccc([nH]4)c(-c4cc(S(=O)(=O)[O-])ccc4F)c4nc(c(-c5cc(S(=O)(=O)[O-])ccc5F)c5ccc2[nH]5)C=C4)C=C3)cc1
REMARK SMILES IDX 5 1 4 2 3 3 2 4 1 5 26 6 27 7 88 8 28 9 87 10 29 11 30 12
REMARK SMILES IDX 31 13 81 14 32 15 86 16 80 17 82 18 33 19 85 20 79 21 78 22
REMARK SMILES IDX 34 24 66 25 46 26 65 27 47 28 50 29 64 30 83 31 48 32 49 33
REMARK SMILES IDX 63 35 84 36 51 37 35 38 36 39 44 40 37 41 43 42 45 43 42 44
REMARK SMILES IDX 38 45 39 46 40 47 41 48 67 49 68 50 76 51 69 52 75 53 77 54
REMARK SMILES IDX 74 55 70 56 71 57 72 58 73 59 52 60 53 61 61 62 54 63 60 64
REMARK SMILES IDX 62 65 59 66 55 67 56 68 57 69 58 70 6 71 7 72 8 73 9 74
REMARK SMILES IDX 10 75 11 76 12 77 13 78 25 79 14 80 15 81 16 84 17 85 24 86
REMARK SMILES IDX 18 87 23 88 19 89 22 90 20 91 21 92
REMARK H PARENT 82 23 50 34 25 82 25 83
REMARK Flexibility Score: inf
ROOT
ATOM      1  C   UNL A   1      31.348  29.761  25.240  1.00  0.00     0.202 C 
ENDROOT
BRANCH   1   2
ATOM      2  C   UNL A   1      32.781  29.969  25.753  1.00  0.00     0.261 C 
BRANCH   2   3
ATOM      3  O   UNL A   1      32.781  30.576  27.059  1.00  0.00    -0.460 OA
BRANCH   3   4
ATOM      4  C   UNL A   1      33.688  31.437  27.581  1.00  0.00     0.338 C 
ATOM      5  O   UNL A   1      33.409  32.633  27.626  1.00  0.00    -0.246 OA
BRANCH   4   6
ATOM      6  C   UNL A   1      35.030  31.005  28.078  1.00  0.00     0.060 A 
ATOM      7  C   UNL A   1      35.350  29.691  28.419  1.00  0.00     0.016 A 
ATOM      8  C   UNL A   1      36.054  31.966  28.126  1.00  0.00     0.016 A 
ATOM      9  C   UNL A   1      36.596  29.354  28.909  1.00  0.00     0.010 A 
ATOM     10  C   UNL A   1      37.344  31.618  28.547  1.00  0.00     0.010 A 
ATOM     11  C   UNL A   1      37.605  30.310  28.965  1.00  0.00    -0.014 A 
BRANCH  11  12
ATOM     12  C   UNL A   1      38.883  29.879  29.561  1.00  0.00     0.031 A 
ATOM     13  C   UNL A   1      39.239  30.385  30.924  1.00  0.00     0.074 A 
ATOM     14  C   UNL A   1      39.569  28.885  28.965  1.00  0.00     0.049 A 
ATOM     15  N   UNL A   1      40.267  30.092  31.670  1.00  0.00    -0.248 NA
ATOM     16  C   UNL A   1      38.293  31.332  31.538  1.00  0.00     0.031 C 
ATOM     17  C   UNL A   1      39.191  28.250  27.697  1.00  0.00     0.029 A 
ATOM     18  N   UNL A   1      40.678  28.192  29.363  1.00  0.00    -0.354 N 
ATOM     19  C   UNL A   1      40.096  30.819  32.843  1.00  0.00     0.074 A 
ATOM     20  C   UNL A   1      38.881  31.590  32.694  1.00  0.00     0.031 C 
ATOM     21  C   UNL A   1      40.031  27.234  27.447  1.00  0.00     0.029 A 
ATOM     22  C   UNL A   1      41.052  27.198  28.486  1.00  0.00     0.049 A 
ATOM     23  H   UNL A   1      41.165  28.384  30.197  1.00  0.00     0.167 HD
ATOM     24  C   UNL A   1      40.890  30.832  33.940  1.00  0.00     0.034 A 
ATOM     25  C   UNL A   1      42.123  26.382  28.509  1.00  0.00     0.034 A 
ATOM     26  C   UNL A   1      42.110  30.070  34.026  1.00  0.00     0.049 A 
ATOM     27  C   UNL A   1      43.058  26.511  29.685  1.00  0.00     0.074 A 
ATOM     28  C   UNL A   1      43.079  30.085  35.011  1.00  0.00     0.029 A 
ATOM     29  N   UNL A   1      42.525  29.144  33.072  1.00  0.00    -0.354 N 
ATOM     30  N   UNL A   1      42.949  27.283  30.745  1.00  0.00    -0.248 NA
ATOM     31  C   UNL A   1      44.258  25.669  29.672  1.00  0.00     0.031 C 
ATOM     32  C   UNL A   1      44.104  29.212  34.625  1.00  0.00     0.029 A 
ATOM     33  C   UNL A   1      43.742  28.595  33.437  1.00  0.00     0.049 A 
ATOM     34  H   UNL A   1      42.025  28.913  32.255  1.00  0.00     0.167 HD
ATOM     35  C   UNL A   1      44.063  27.013  31.530  1.00  0.00     0.074 A 
ATOM     36  C   UNL A   1      44.807  25.976  30.838  1.00  0.00     0.031 C 
ATOM     37  C   UNL A   1      44.453  27.571  32.705  1.00  0.00     0.034 A 
BRANCH  24  38
ATOM     38  C   UNL A   1      40.491  31.768  35.054  1.00  0.00     0.023 A 
ATOM     39  C   UNL A   1      39.588  31.380  36.060  1.00  0.00     0.031 A 
ATOM     40  C   UNL A   1      40.939  33.100  35.050  1.00  0.00     0.131 A 
ATOM     41  C   UNL A   1      39.099  32.333  36.968  1.00  0.00     0.055 A 
ATOM     42  C   UNL A   1      40.510  34.024  36.005  1.00  0.00     0.041 A 
ATOM     43  F   UNL A   1      41.774  33.538  34.094  1.00  0.00    -0.206 F 
ATOM     44  C   UNL A   1      39.572  33.647  36.962  1.00  0.00     0.022 A 
BRANCH  41  45
ATOM     45  S   UNL A   1      37.720  31.873  38.055  1.00  0.00     0.124 S 
ATOM     46  O   UNL A   1      38.332  31.998  39.376  1.00  0.00    -0.237 OA
ATOM     47  O   UNL A   1      36.707  32.868  37.723  1.00  0.00    -0.237 OA
ATOM     48  O   UNL A   1      37.406  30.504  37.649  1.00  0.00    -0.744 OA
ENDBRANCH  41  45
ENDBRANCH  24  38
BRANCH  25  49
ATOM     49  C   UNL A   1      42.414  25.460  27.369  1.00  0.00     0.023 A 
ATOM     50  C   UNL A   1      41.939  24.139  27.340  1.00  0.00     0.031 A 
ATOM     51  C   UNL A   1      43.246  25.875  26.310  1.00  0.00     0.131 A 
ATOM     52  C   UNL A   1      42.339  23.271  26.309  1.00  0.00     0.055 A 
ATOM     53  C   UNL A   1      43.585  25.030  25.252  1.00  0.00     0.041 A 
ATOM     54  F   UNL A   1      43.745  27.121  26.283  1.00  0.00    -0.206 F 
ATOM     55  C   UNL A   1      43.145  23.712  25.258  1.00  0.00     0.022 A 
BRANCH  52  56
ATOM     56  S   UNL A   1      41.892  21.515  26.424  1.00  0.00     0.124 S 
ATOM     57  O   UNL A   1      42.726  20.926  25.382  1.00  0.00    -0.237 OA
ATOM     58  O   UNL A   1      42.262  21.198  27.799  1.00  0.00    -0.237 OA
ATOM     59  O   UNL A   1      40.456  21.511  26.149  1.00  0.00    -0.744 OA
ENDBRANCH  52  56
ENDBRANCH  25  49
BRANCH  37  60
ATOM     60  C   UNL A   1      45.727  27.036  33.305  1.00  0.00     0.023 A 
ATOM     61  C   UNL A   1      45.716  25.941  34.185  1.00  0.00     0.031 A 
ATOM     62  C   UNL A   1      46.958  27.648  33.015  1.00  0.00     0.131 A 
ATOM     63  C   UNL A   1      46.907  25.534  34.801  1.00  0.00     0.055 A 
ATOM     64  C   UNL A   1      48.150  27.194  33.579  1.00  0.00     0.041 A 
ATOM     65  F   UNL A   1      47.020  28.698  32.180  1.00  0.00    -0.206 F 
ATOM     66  C   UNL A   1      48.126  26.142  34.491  1.00  0.00     0.022 A 
BRANCH  63  67
ATOM     67  S   UNL A   1      46.821  24.271  36.099  1.00  0.00     0.124 S 
ATOM     68  O   UNL A   1      48.206  23.818  36.174  1.00  0.00    -0.237 OA
ATOM     69  O   UNL A   1      46.337  25.033  37.244  1.00  0.00    -0.237 OA
ATOM     70  O   UNL A   1      45.878  23.292  35.561  1.00  0.00    -0.744 OA
ENDBRANCH  63  67
ENDBRANCH  37  60
ENDBRANCH  11  12
ENDBRANCH   4   6
ENDBRANCH   3   4
ENDBRANCH   2   3
ENDBRANCH   1   2
BRANCH   1  71
ATOM     71  O   UNL A   1      31.196  29.344  23.878  1.00  0.00    -0.374 OA
BRANCH  71  72
ATOM     72  C   UNL A   1      30.957  27.947  23.663  1.00  0.00     0.202 C 
BRANCH  72  73
ATOM     73  C   UNL A   1      32.235  27.263  23.168  1.00  0.00     0.261 C 
BRANCH  73  74
ATOM     74  O   UNL A   1      31.932  25.875  22.968  1.00  0.00    -0.459 OA
BRANCH  74  75
ATOM     75  C   UNL A   1      32.720  25.294  22.021  1.00  0.00     0.365 C 
ATOM     76  O   UNL A   1      33.281  25.876  21.100  1.00  0.00    -0.245 OA
BRANCH  75  77
ATOM     77  C   UNL A   1      32.927  23.819  22.364  1.00  0.00     0.304 C 
ATOM     78  C   UNL A   1      34.105  23.648  23.306  1.00  0.00     0.153 C 
ATOM     79  N   UNL A   1      31.650  23.255  22.897  1.00  0.00    -0.317 N 
ATOM     80  S   UNL A   1      33.321  23.550  24.915  1.00  0.00    -0.085 SA
ATOM     81  C   UNL A   1      31.888  22.663  24.219  1.00  0.00     0.303 C 
ATOM     82  H   UNL A   1      31.306  22.536  22.260  1.00  0.00     0.348 HD
ATOM     83  H   UNL A   1      30.958  23.999  22.978  1.00  0.00     0.348 HD
BRANCH  81  84
ATOM     84  C   UNL A   1      32.152  21.159  24.166  1.00  0.00     0.163 A 
ATOM     85  N   UNL A   1      32.294  20.394  25.233  1.00  0.00    -0.234 NA
ATOM     86  S   UNL A   1      32.271  20.314  22.662  1.00  0.00    -0.112 S 
ATOM     87  C   UNL A   1      32.598  19.099  24.868  1.00  0.00     0.082 A 
ATOM     88  C   UNL A   1      32.648  18.859  23.496  1.00  0.00     0.055 A 
ATOM     89  C   UNL A   1      32.865  18.041  25.756  1.00  0.00     0.030 A 
ATOM     90  C   UNL A   1      32.968  17.593  22.978  1.00  0.00     0.021 A 
ATOM     91  C   UNL A   1      33.189  16.778  25.253  1.00  0.00     0.002 A 
ATOM     92  C   UNL A   1      33.242  16.560  23.879  1.00  0.00     0.002 A 
ENDBRANCH  81  84
ENDBRANCH  75  77
ENDBRANCH  74  75
ENDBRANCH  73  74
ENDBRANCH  72  73
ENDBRANCH  71  72
ENDBRANCH   1  71
TORSDOF 18
ENDMDL
MODEL 2
REMARK VINA RESULT:     -11.4      4.978     10.387
REMARK SMILES O=C(OCCOCCOC(=O)[C@H]1CS[C@H](c2nc3ccccc3s2)[NH2+]1)c1ccc(-c2c3nc(c(-c4cc(S(=O)(=O)[O-])ccc4F)c4ccc([nH]4)c(-c4cc(S(=O)(=O)[O-])ccc4F)c4nc(c(-c5cc(S(=O)(=O)[O-])ccc5F)c5ccc2[nH]5)C=C4)C=C3)cc1
REMARK SMILES IDX 5 1 4 2 3 3 2 4 1 5 26 6 27 7 88 8 28 9 87 10 29 11 30 12
REMARK SMILES IDX 31 13 81 14 32 15 86 16 80 17 82 18 33 19 85 20 79 21 78 22
REMARK SMILES IDX 34 24 66 25 46 26 65 27 47 28 50 29 64 30 83 31 48 32 49 33
REMARK SMILES IDX 63 35 84 36 51 37 35 38 36 39 44 40 37 41 43 42 45 43 42 44
REMARK SMILES IDX 38 45 39 46 40 47 41 48 67 49 68 50 76 51 69 52 75 53 77 54
REMARK SMILES IDX 74 55 70 56 71 57 72 58 73 59 52 60 53 61 61 62 54 63 60 64
REMARK SMILES IDX 62 65 59 66 55 67 56 68 57 69 58 70 6 71 7 72 8 73 9 74
REMARK SMILES IDX 10 75 11 76 12 77 13 78 25 79 14 80 15 81 16 84 17 85 24 86
REMARK SMILES IDX 18 87 23 88 19 89 22 90 20 91 21 92
REMARK H PARENT 82 23 50 34 25 82 25 83
REMARK Flexibility Score: inf
ROOT
ATOM      1  C   UNL A   1      35.989  22.108  25.175  1.00  0.00     0.202 C 
ENDROOT
BRANCH   1   2
ATOM      2  C   UNL A   1      37.384  21.579  24.808  1.00  0.00     0.261 C 
BRANCH   2   3
ATOM      3  O   UNL A   1      38.119  21.196  25.986  1.00  0.00    -0.460 OA
BRANCH   3   4
ATOM      4  C   UNL A   1      39.424  21.431  26.271  1.00  0.00     0.338 C 
ATOM      5  O   UNL A   1      40.236  20.523  26.106  1.00  0.00    -0.246 OA
BRANCH   4   6
ATOM      6  C   UNL A   1      39.918  22.735  26.808  1.00  0.00     0.060 A 
ATOM      7  C   UNL A   1      39.410  23.978  26.432  1.00  0.00     0.016 A 
ATOM      8  C   UNL A   1      40.900  22.702  27.813  1.00  0.00     0.016 A 
ATOM      9  C   UNL A   1      39.931  25.154  26.933  1.00  0.00     0.010 A 
ATOM     10  C   UNL A   1      41.379  23.887  28.385  1.00  0.00     0.010 A 
ATOM     11  C   UNL A   1      40.909  25.119  27.921  1.00  0.00    -0.014 A 
BRANCH  11  12
ATOM     12  C   UNL A   1      41.453  26.420  28.350  1.00  0.00     0.031 A 
ATOM     13  C   UNL A   1      42.849  26.776  27.945  1.00  0.00     0.074 A 
ATOM     14  C   UNL A   1      40.613  27.322  28.892  1.00  0.00     0.049 A 
ATOM     15  N   UNL A   1      43.510  27.881  28.147  1.00  0.00    -0.248 NA
ATOM     16  C   UNL A   1      43.592  25.754  27.189  1.00  0.00     0.031 C 
ATOM     17  C   UNL A   1      39.195  27.077  29.183  1.00  0.00     0.029 A 
ATOM     18  N   UNL A   1      40.798  28.632  29.236  1.00  0.00    -0.354 N 
ATOM     19  C   UNL A   1      44.748  27.691  27.545  1.00  0.00     0.074 A 
ATOM     20  C   UNL A   1      44.756  26.352  26.998  1.00  0.00     0.031 C 
ATOM     21  C   UNL A   1      38.633  28.214  29.620  1.00  0.00     0.029 A 
ATOM     22  C   UNL A   1      39.663  29.241  29.721  1.00  0.00     0.049 A 
ATOM     23  H   UNL A   1      41.661  29.097  29.146  1.00  0.00     0.167 HD
ATOM     24  C   UNL A   1      45.779  28.566  27.461  1.00  0.00     0.034 A 
ATOM     25  C   UNL A   1      39.492  30.479  30.224  1.00  0.00     0.034 A 
ATOM     26  C   UNL A   1      45.734  29.879  28.052  1.00  0.00     0.049 A 
ATOM     27  C   UNL A   1      40.696  31.387  30.233  1.00  0.00     0.074 A 
ATOM     28  C   UNL A   1      46.741  30.819  28.164  1.00  0.00     0.029 A 
ATOM     29  N   UNL A   1      44.601  30.438  28.635  1.00  0.00    -0.354 N 
ATOM     30  N   UNL A   1      41.903  31.162  29.758  1.00  0.00    -0.248 NA
ATOM     31  C   UNL A   1      40.525  32.709  30.843  1.00  0.00     0.031 C 
ATOM     32  C   UNL A   1      46.231  31.920  28.864  1.00  0.00     0.029 A 
ATOM     33  C   UNL A   1      44.886  31.702  29.123  1.00  0.00     0.049 A 
ATOM     34  H   UNL A   1      43.721  29.998  28.693  1.00  0.00     0.167 HD
ATOM     35  C   UNL A   1      42.632  32.318  30.006  1.00  0.00     0.074 A 
ATOM     36  C   UNL A   1      41.714  33.251  30.635  1.00  0.00     0.031 C 
ATOM     37  C   UNL A   1      43.939  32.591  29.756  1.00  0.00     0.034 A 
BRANCH  24  38
ATOM     38  C   UNL A   1      47.038  28.068  26.795  1.00  0.00     0.023 A 
ATOM     39  C   UNL A   1      47.239  28.186  25.408  1.00  0.00     0.031 A 
ATOM     40  C   UNL A   1      48.003  27.371  27.543  1.00  0.00     0.131 A 
ATOM     41  C   UNL A   1      48.333  27.547  24.802  1.00  0.00     0.055 A 
ATOM     42  C   UNL A   1      49.131  26.806  26.945  1.00  0.00     0.041 A 
ATOM     43  F   UNL A   1      47.847  27.195  28.865  1.00  0.00    -0.206 F 
ATOM     44  C   UNL A   1      49.293  26.877  25.564  1.00  0.00     0.022 A 
BRANCH  41  45
ATOM     45  S   UNL A   1      48.400  27.468  22.990  1.00  0.00     0.124 S 
ATOM     46  O   UNL A   1      49.634  28.198  22.708  1.00  0.00    -0.237 OA
ATOM     47  O   UNL A   1      48.435  26.032  22.735  1.00  0.00    -0.237 OA
ATOM     48  O   UNL A   1      47.174  28.145  22.572  1.00  0.00    -0.744 OA
ENDBRANCH  41  45
ENDBRANCH  24  38
BRANCH  25  49
ATOM     49  C   UNL A   1      38.190  30.892  30.832  1.00  0.00     0.023 A 
ATOM     50  C   UNL A   1      37.216  31.590  30.101  1.00  0.00     0.031 A 
ATOM     51  C   UNL A   1      37.931  30.651  32.196  1.00  0.00     0.131 A 
ATOM     52  C   UNL A   1      36.061  32.064  30.745  1.00  0.00     0.055 A 
ATOM     53  C   UNL A   1      36.751  31.065  32.816  1.00  0.00     0.041 A 
ATOM     54  F   UNL A   1      38.827  30.000  32.956  1.00  0.00    -0.206 F 
ATOM     55  C   UNL A   1      35.815  31.793  32.092  1.00  0.00     0.022 A 
BRANCH  52  56
ATOM     56  S   UNL A   1      34.934  33.153  29.828  1.00  0.00     0.124 S 
ATOM     57  O   UNL A   1      35.864  34.092  29.211  1.00  0.00    -0.237 OA
ATOM     58  O   UNL A   1      34.275  32.215  28.925  1.00  0.00    -0.237 OA
ATOM     59  O   UNL A   1      34.079  33.715  30.872  1.00  0.00    -0.744 OA
ENDBRANCH  52  56
ENDBRANCH  25  49
BRANCH  37  60
ATOM     60  C   UNL A   1      44.419  33.964  30.147  1.00  0.00     0.023 A 
ATOM     61  C   UNL A   1      44.382  35.037  29.241  1.00  0.00     0.031 A 
ATOM     62  C   UNL A   1      44.945  34.192  31.430  1.00  0.00     0.131 A 
ATOM     63  C   UNL A   1      44.927  36.274  29.606  1.00  0.00     0.055 A 
ATOM     64  C   UNL A   1      45.425  35.445  31.811  1.00  0.00     0.041 A 
ATOM     65  F   UNL A   1      45.003  33.198  32.332  1.00  0.00    -0.206 F 
ATOM     66  C   UNL A   1      45.433  36.489  30.891  1.00  0.00     0.022 A 
BRANCH  63  67
ATOM     67  S   UNL A   1      45.068  37.565  28.341  1.00  0.00     0.124 S 
ATOM     68  O   UNL A   1      46.465  37.442  27.937  1.00  0.00    -0.237 OA
ATOM     69  O   UNL A   1      44.080  37.143  27.354  1.00  0.00    -0.237 OA
ATOM     70  O   UNL A   1      44.738  38.790  29.065  1.00  0.00    -0.744 OA
ENDBRANCH  63  67
ENDBRANCH  37  60
ENDBRANCH  11  12
ENDBRANCH   4   6
ENDBRANCH   3   4
ENDBRANCH   2   3
ENDBRANCH   1   2
BRANCH   1  71
ATOM     71  O   UNL A   1      34.927  21.840  24.251  1.00  0.00    -0.374 OA
BRANCH  71  72
ATOM     72  C   UNL A   1      33.795  22.717  24.313  1.00  0.00     0.202 C 
BRANCH  72  73
ATOM     73  C   UNL A   1      32.870  22.304  25.461  1.00  0.00     0.261 C 
BRANCH  73  74
ATOM     74  O   UNL A   1      31.631  23.009  25.293  1.00  0.00    -0.459 OA
BRANCH  74  75
ATOM     75  C   UNL A   1      31.260  23.697  26.408  1.00  0.00     0.365 C 
ATOM     76  O   UNL A   1      31.381  23.306  27.564  1.00  0.00    -0.245 OA
BRANCH  75  77
ATOM     77  C   UNL A   1      30.804  25.101  26.014  1.00  0.00     0.304 C 
ATOM     78  C   UNL A   1      31.813  26.140  26.470  1.00  0.00     0.153 C 
ATOM     79  N   UNL A   1      30.533  25.136  24.546  1.00  0.00    -0.317 N 
ATOM     80  S   UNL A   1      32.791  26.423  24.994  1.00  0.00    -0.085 SA
ATOM     81  C   UNL A   1      31.331  26.200  23.924  1.00  0.00     0.303 C 
ATOM     82  H   UNL A   1      29.542  25.317  24.388  1.00  0.00     0.348 HD
ATOM     83  H   UNL A   1      30.786  24.237  24.133  1.00  0.00     0.348 HD
BRANCH  81  84
ATOM     84  C   UNL A   1      30.565  27.512  23.766  1.00  0.00     0.163 A 
ATOM     85  N   UNL A   1      29.438  27.634  23.088  1.00  0.00    -0.234 NA
ATOM     86  S   UNL A   1      31.120  28.978  24.496  1.00  0.00    -0.112 S 
ATOM     87  C   UNL A   1      29.026  28.950  23.059  1.00  0.00     0.082 A 
ATOM     88  C   UNL A   1      29.831  29.845  23.762  1.00  0.00     0.055 A 
ATOM     89  C   UNL A   1      27.894  29.438  22.380  1.00  0.00     0.030 A 
ATOM     90  C   UNL A   1      29.546  31.220  23.802  1.00  0.00     0.021 A 
ATOM     91  C   UNL A   1      27.604  30.804  22.407  1.00  0.00     0.002 A 
ATOM     92  C   UNL A   1      28.423  31.684  23.109  1.00  0.00     0.002 A 
ENDBRANCH  81  84
ENDBRANCH  75  77
ENDBRANCH  74  75
ENDBRANCH  73  74
ENDBRANCH  72  73
ENDBRANCH  71  72
ENDBRANCH   1  71
TORSDOF 18
ENDMDL
MODEL 3
REMARK VINA RESULT:     -11.3      2.723      3.514
REMARK SMILES O=C(OCCOCCOC(=O)[C@H]1CS[C@H](c2nc3ccccc3s2)[NH2+]1)c1ccc(-c2c3nc(c(-c4cc(S(=O)(=O)[O-])ccc4F)c4ccc([nH]4)c(-c4cc(S(=O)(=O)[O-])ccc4F)c4nc(c(-c5cc(S(=O)(=O)[O-])ccc5F)c5ccc2[nH]5)C=C4)C=C3)cc1
REMARK SMILES IDX 5 1 4 2 3 3 2 4 1 5 26 6 27 7 88 8 28 9 87 10 29 11 30 12
REMARK SMILES IDX 31 13 81 14 32 15 86 16 80 17 82 18 33 19 85 20 79 21 78 22
REMARK SMILES IDX 34 24 66 25 46 26 65 27 47 28 50 29 64 30 83 31 48 32 49 33
REMARK SMILES IDX 63 35 84 36 51 37 35 38 36 39 44 40 37 41 43 42 45 43 42 44
REMARK SMILES IDX 38 45 39 46 40 47 41 48 67 49 68 50 76 51 69 52 75 53 77 54
REMARK SMILES IDX 74 55 70 56 71 57 72 58 73 59 52 60 53 61 61 62 54 63 60 64
REMARK SMILES IDX 62 65 59 66 55 67 56 68 57 69 58 70 6 71 7 72 8 73 9 74
REMARK SMILES IDX 10 75 11 76 12 77 13 78 25 79 14 80 15 81 16 84 17 85 24 86
REMARK SMILES IDX 18 87 23 88 19 89 22 90 20 91 21 92
REMARK H PARENT 82 23 50 34 25 82 25 83
REMARK Flexibility Score: inf
ROOT
ATOM      1  C   UNL A   1      31.709  28.664  24.764  1.00  0.00     0.202 C 
ENDROOT
BRANCH   1   2
ATOM      2  C   UNL A   1      31.990  29.261  26.152  1.00  0.00     0.261 C 
BRANCH   2   3
ATOM      3  O   UNL A   1      32.870  30.397  26.058  1.00  0.00    -0.460 OA
BRANCH   3   4
ATOM      4  C   UNL A   1      33.382  31.144  27.067  1.00  0.00     0.338 C 
ATOM      5  O   UNL A   1      32.718  32.084  27.500  1.00  0.00    -0.246 OA
BRANCH   4   6
ATOM      6  C   UNL A   1      34.731  30.898  27.659  1.00  0.00     0.060 A 
ATOM      7  C   UNL A   1      35.221  29.636  27.991  1.00  0.00     0.016 A 
ATOM      8  C   UNL A   1      35.591  31.999  27.815  1.00  0.00     0.016 A 
ATOM      9  C   UNL A   1      36.463  29.470  28.571  1.00  0.00     0.010 A 
ATOM     10  C   UNL A   1      36.883  31.832  28.330  1.00  0.00     0.010 A 
ATOM     11  C   UNL A   1      37.308  30.563  28.734  1.00  0.00    -0.014 A 
BRANCH  11  12
ATOM     12  C   UNL A   1      38.587  30.306  29.420  1.00  0.00     0.031 A 
ATOM     13  C   UNL A   1      38.751  30.792  30.825  1.00  0.00     0.074 A 
ATOM     14  C   UNL A   1      39.466  29.461  28.848  1.00  0.00     0.049 A 
ATOM     15  N   UNL A   1      39.751  30.625  31.645  1.00  0.00    -0.248 NA
ATOM     16  C   UNL A   1      37.622  31.550  31.392  1.00  0.00     0.031 C 
ATOM     17  C   UNL A   1      39.294  28.839  27.529  1.00  0.00     0.029 A 
ATOM     18  N   UNL A   1      40.637  28.928  29.312  1.00  0.00    -0.354 N 
ATOM     19  C   UNL A   1      39.376  31.257  32.825  1.00  0.00     0.074 A 
ATOM     20  C   UNL A   1      38.070  31.836  32.603  1.00  0.00     0.031 C 
ATOM     21  C   UNL A   1      40.301  27.979  27.313  1.00  0.00     0.029 A 
ATOM     22  C   UNL A   1      41.230  28.050  28.433  1.00  0.00     0.049 A 
ATOM     23  H   UNL A   1      41.020  29.152  30.191  1.00  0.00     0.167 HD
ATOM     24  C   UNL A   1      40.070  31.337  33.985  1.00  0.00     0.034 A 
ATOM     25  C   UNL A   1      42.412  27.409  28.517  1.00  0.00     0.034 A 
ATOM     26  C   UNL A   1      41.384  30.769  34.146  1.00  0.00     0.049 A 
ATOM     27  C   UNL A   1      43.220  27.621  29.773  1.00  0.00     0.074 A 
ATOM     28  C   UNL A   1      42.259  30.885  35.210  1.00  0.00     0.029 A 
ATOM     29  N   UNL A   1      42.014  29.968  33.198  1.00  0.00    -0.354 N 
ATOM     30  N   UNL A   1      42.907  28.313  30.848  1.00  0.00    -0.248 NA
ATOM     31  C   UNL A   1      44.535  26.977  29.831  1.00  0.00     0.031 C 
ATOM     32  C   UNL A   1      43.436  30.201  34.880  1.00  0.00     0.029 A 
ATOM     33  C   UNL A   1      43.271  29.596  33.644  1.00  0.00     0.049 A 
ATOM     34  H   UNL A   1      41.622  29.704  32.333  1.00  0.00     0.167 HD
ATOM     35  C   UNL A   1      43.985  28.180  31.714  1.00  0.00     0.074 A 
ATOM     36  C   UNL A   1      44.936  27.307  31.049  1.00  0.00     0.031 C 
ATOM     37  C   UNL A   1      44.189  28.733  32.938  1.00  0.00     0.034 A 
BRANCH  24  38
ATOM     38  C   UNL A   1      39.442  32.143  35.096  1.00  0.00     0.023 A 
ATOM     39  C   UNL A   1      39.803  33.482  35.335  1.00  0.00     0.031 A 
ATOM     40  C   UNL A   1      38.549  31.532  35.993  1.00  0.00     0.131 A 
ATOM     41  C   UNL A   1      39.338  34.137  36.486  1.00  0.00     0.055 A 
ATOM     42  C   UNL A   1      38.028  32.215  37.094  1.00  0.00     0.041 A 
ATOM     43  F   UNL A   1      38.197  30.246  35.837  1.00  0.00    -0.206 F 
ATOM     44  C   UNL A   1      38.435  33.521  37.355  1.00  0.00     0.022 A 
BRANCH  41  45
ATOM     45  S   UNL A   1      40.053  35.749  36.919  1.00  0.00     0.124 S 
ATOM     46  O   UNL A   1      39.337  36.068  38.152  1.00  0.00    -0.237 OA
ATOM     47  O   UNL A   1      41.471  35.438  37.065  1.00  0.00    -0.237 OA
ATOM     48  O   UNL A   1      39.715  36.592  35.774  1.00  0.00    -0.744 OA
ENDBRANCH  41  45
ENDBRANCH  24  38
BRANCH  25  49
ATOM     49  C   UNL A   1      42.933  26.601  27.373  1.00  0.00     0.023 A 
ATOM     50  C   UNL A   1      42.879  25.198  27.366  1.00  0.00     0.031 A 
ATOM     51  C   UNL A   1      43.568  27.232  26.284  1.00  0.00     0.131 A 
ATOM     52  C   UNL A   1      43.491  24.477  26.326  1.00  0.00     0.055 A 
ATOM     53  C   UNL A   1      44.114  26.514  25.220  1.00  0.00     0.041 A 
ATOM     54  F   UNL A   1      43.666  28.571  26.235  1.00  0.00    -0.206 F 
ATOM     55  C   UNL A   1      44.094  25.125  25.247  1.00  0.00     0.022 A 
BRANCH  52  56
ATOM     56  S   UNL A   1      43.600  22.670  26.464  1.00  0.00     0.124 S 
ATOM     57  O   UNL A   1      45.040  22.464  26.571  1.00  0.00    -0.237 OA
ATOM     58  O   UNL A   1      42.822  22.411  27.672  1.00  0.00    -0.237 OA
ATOM     59  O   UNL A   1      42.992  22.197  25.221  1.00  0.00    -0.744 OA
ENDBRANCH  52  56
ENDBRANCH  25  49
BRANCH  37  60
ATOM     60  C   UNL A   1      45.481  28.372  33.624  1.00  0.00     0.023 A 
ATOM     61  C   UNL A   1      46.643  29.140  33.445  1.00  0.00     0.031 A 
ATOM     62  C   UNL A   1      45.554  27.230  34.440  1.00  0.00     0.131 A 
ATOM     63  C   UNL A   1      47.850  28.719  34.019  1.00  0.00     0.055 A 
ATOM     64  C   UNL A   1      46.743  26.853  35.064  1.00  0.00     0.041 A 
ATOM     65  F   UNL A   1      44.470  26.463  34.641  1.00  0.00    -0.206 F 
ATOM     66  C   UNL A   1      47.903  27.590  34.841  1.00  0.00     0.022 A 
BRANCH  63  67
ATOM     67  S   UNL A   1      49.370  29.605  33.584  1.00  0.00     0.124 S 
ATOM     68  O   UNL A   1      48.895  30.548  32.577  1.00  0.00    -0.237 OA
ATOM     69  O   UNL A   1      49.769  30.184  34.862  1.00  0.00    -0.237 OA
ATOM     70  O   UNL A   1      50.248  28.550  33.080  1.00  0.00    -0.744 OA
ENDBRANCH  63  67
ENDBRANCH  37  60
ENDBRANCH  11  12
ENDBRANCH   4   6
ENDBRANCH   3   4
ENDBRANCH   2   3
ENDBRANCH   1   2
BRANCH   1  71
ATOM     71  O   UNL A   1      31.777  27.238  24.642  1.00  0.00    -0.374 OA
BRANCH  71  72
ATOM     72  C   UNL A   1      30.578  26.579  24.211  1.00  0.00     0.202 C 
BRANCH  72  73
ATOM     73  C   UNL A   1      29.878  25.926  25.406  1.00  0.00     0.261 C 
BRANCH  73  74
ATOM     74  O   UNL A   1      30.879  25.657  26.399  1.00  0.00    -0.459 OA
BRANCH  74  75
ATOM     75  C   UNL A   1      30.870  24.360  26.818  1.00  0.00     0.365 C 
ATOM     76  O   UNL A   1      29.871  23.694  27.064  1.00  0.00    -0.245 OA
BRANCH  75  77
ATOM     77  C   UNL A   1      32.294  23.806  26.795  1.00  0.00     0.304 C 
ATOM     78  C   UNL A   1      32.300  22.365  26.319  1.00  0.00     0.153 C 
ATOM     79  N   UNL A   1      33.159  24.709  25.976  1.00  0.00    -0.317 N 
ATOM     80  S   UNL A   1      32.706  22.518  24.579  1.00  0.00    -0.085 SA
ATOM     81  C   UNL A   1      33.806  23.935  24.909  1.00  0.00     0.303 C 
ATOM     82  H   UNL A   1      33.872  25.127  26.573  1.00  0.00     0.348 HD
ATOM     83  H   UNL A   1      32.586  25.444  25.561  1.00  0.00     0.348 HD
BRANCH  81  84
ATOM     84  C   UNL A   1      35.211  23.460  25.278  1.00  0.00     0.163 A 
ATOM     85  N   UNL A   1      36.109  24.212  25.888  1.00  0.00    -0.234 NA
ATOM     86  S   UNL A   1      35.743  21.852  24.930  1.00  0.00    -0.112 S 
ATOM     87  C   UNL A   1      37.304  23.534  26.016  1.00  0.00     0.082 A 
ATOM     88  C   UNL A   1      37.308  22.227  25.533  1.00  0.00     0.055 A 
ATOM     89  C   UNL A   1      38.486  24.060  26.571  1.00  0.00     0.030 A 
ATOM     90  C   UNL A   1      38.461  21.426  25.576  1.00  0.00     0.021 A 
ATOM     91  C   UNL A   1      39.641  23.275  26.616  1.00  0.00     0.002 A 
ATOM     92  C   UNL A   1      39.626  21.974  26.121  1.00  0.00     0.002 A 
ENDBRANCH  81  84
ENDBRANCH  75  77
ENDBRANCH  74  75
ENDBRANCH  73  74
ENDBRANCH  72  73
ENDBRANCH  71  72
ENDBRANCH   1  71
TORSDOF 18
ENDMDL
