MODEL 1
REMARK VINA RESULT:     -11.3      0.000      0.000
REMARK SMILES C[C@H]1SC[C@H](C(=O)OCCOCCOC(=O)c2ccc(-c3c4nc(c(-c5cc(S(=O)(=O)[O-])ccc5F)c5ccc([nH]5)c(-c5cc(S(=O)(=O)[O-])ccc5F)c5nc(c(-c6cc(S(=O)(=O)[O-])ccc6F)c6ccc3[nH]6)C=C5)C=C4)cc2)N1C(=O)[C@@H]1CSc2ccccc21
REMARK SMILES IDX 12 1 11 2 10 3 9 4 8 5 6 6 7 7 5 8 1 9 2 10 3 11 80 12 4 13
REMARK SMILES IDX 81 14 82 15 83 16 84 17 91 18 85 19 86 20 90 21 87 22 89 23
REMARK SMILES IDX 88 24 13 25 14 26 15 27 16 28 17 29 18 30 79 31 19 32 78 33
REMARK SMILES IDX 20 34 21 35 22 36 72 37 23 38 77 39 71 40 73 41 24 42 76 43
REMARK SMILES IDX 70 44 69 45 25 47 57 48 37 49 56 50 38 51 41 52 55 53 74 54
REMARK SMILES IDX 39 55 40 56 54 58 75 59 42 60 26 61 27 62 35 63 28 64 34 65
REMARK SMILES IDX 36 66 33 67 29 68 30 69 31 70 32 71 58 72 59 73 67 74 60 75
REMARK SMILES IDX 66 76 68 77 65 78 61 79 62 80 63 81 64 82 43 83 44 84 52 85
REMARK SMILES IDX 45 86 51 87 53 88 50 89 46 90 47 91 48 92 49 93
REMARK H PARENT 73 46 41 57
REMARK Flexibility Score: inf
ROOT
ATOM      1  C   UNL A   1      35.587  21.311  25.489  1.00  0.00     0.202 C 
ENDROOT
BRANCH   1   2
ATOM      2  O   UNL A   1      34.562  20.720  26.283  1.00  0.00    -0.374 OA
BRANCH   2   3
ATOM      3  C   UNL A   1      34.044  21.509  27.357  1.00  0.00     0.202 C 
BRANCH   3   4
ATOM      4  C   UNL A   1      34.062  23.035  27.177  1.00  0.00     0.261 C 
BRANCH   4   5
ATOM      5  O   UNL A   1      32.812  23.654  27.541  1.00  0.00    -0.462 OA
BRANCH   5   6
ATOM      6  C   UNL A   1      31.858  23.635  26.570  1.00  0.00     0.329 C 
ATOM      7  O   UNL A   1      30.707  24.042  26.712  1.00  0.00    -0.250 OA
BRANCH   6   8
ATOM      8  C   UNL A   1      32.407  23.245  25.194  1.00  0.00     0.206 C 
ATOM      9  C   UNL A   1      34.353  23.316  22.760  1.00  0.00     0.043 C 
ATOM     10  C   UNL A   1      32.845  23.582  22.854  1.00  0.00     0.141 C 
ATOM     11  S   UNL A   1      32.015  21.966  22.874  1.00  0.00    -0.135 SA
ATOM     12  N   UNL A   1      32.475  24.229  24.111  1.00  0.00    -0.316 N 
ATOM     13  C   UNL A   1      31.554  22.105  24.617  1.00  0.00     0.109 C 
BRANCH  12  14
ATOM     14  C   UNL A   1      32.608  25.574  24.399  1.00  0.00     0.232 C 
ATOM     15  O   UNL A   1      33.685  26.020  24.810  1.00  0.00    -0.274 OA
BRANCH  14  16
ATOM     16  C   UNL A   1      31.404  26.519  24.318  1.00  0.00     0.120 C 
ATOM     17  C   UNL A   1      31.212  27.101  22.906  1.00  0.00     0.093 C 
ATOM     18  C   UNL A   1      31.438  27.639  25.319  1.00  0.00    -0.021 A 
ATOM     19  S   UNL A   1      31.277  28.922  23.009  1.00  0.00    -0.125 SA
ATOM     20  C   UNL A   1      31.451  28.919  24.767  1.00  0.00     0.011 A 
ATOM     21  C   UNL A   1      31.517  27.462  26.698  1.00  0.00     0.006 A 
ATOM     22  C   UNL A   1      31.665  30.031  25.565  1.00  0.00     0.015 A 
ATOM     23  C   UNL A   1      31.710  28.579  27.510  1.00  0.00     0.000 A 
ATOM     24  C   UNL A   1      31.811  29.855  26.942  1.00  0.00     0.001 A 
ENDBRANCH  14  16
ENDBRANCH  12  14
ENDBRANCH   6   8
ENDBRANCH   5   6
ENDBRANCH   4   5
ENDBRANCH   3   4
ENDBRANCH   2   3
ENDBRANCH   1   2
BRANCH   1  25
ATOM     25  C   UNL A   1      36.773  20.425  25.096  1.00  0.00     0.261 C 
BRANCH  25  26
ATOM     26  O   UNL A   1      37.977  21.188  24.919  1.00  0.00    -0.460 OA
BRANCH  26  27
ATOM     27  C   UNL A   1      38.967  20.854  25.780  1.00  0.00     0.338 C 
ATOM     28  O   UNL A   1      39.492  19.753  25.896  1.00  0.00    -0.246 OA
BRANCH  27  29
ATOM     29  C   UNL A   1      39.492  22.053  26.458  1.00  0.00     0.060 A 
ATOM     30  C   UNL A   1      38.946  23.285  26.077  1.00  0.00     0.016 A 
ATOM     31  C   UNL A   1      40.536  21.996  27.384  1.00  0.00     0.016 A 
ATOM     32  C   UNL A   1      39.488  24.470  26.563  1.00  0.00     0.010 A 
ATOM     33  C   UNL A   1      41.086  23.190  27.867  1.00  0.00     0.010 A 
ATOM     34  C   UNL A   1      40.592  24.431  27.424  1.00  0.00    -0.014 A 
BRANCH  34  35
ATOM     35  C   UNL A   1      41.330  25.689  27.700  1.00  0.00     0.031 A 
ATOM     36  C   UNL A   1      40.627  26.787  28.455  1.00  0.00     0.074 A 
ATOM     37  C   UNL A   1      42.621  25.826  27.348  1.00  0.00     0.049 A 
ATOM     38  N   UNL A   1      41.064  27.969  28.801  1.00  0.00    -0.248 NA
ATOM     39  C   UNL A   1      39.245  26.509  28.873  1.00  0.00     0.031 C 
ATOM     40  C   UNL A   1      43.422  24.807  26.669  1.00  0.00     0.029 A 
ATOM     41  N   UNL A   1      43.487  26.877  27.517  1.00  0.00    -0.354 N 
ATOM     42  C   UNL A   1      40.014  28.576  29.483  1.00  0.00     0.074 A 
ATOM     43  C   UNL A   1      38.905  27.646  29.458  1.00  0.00     0.031 C 
ATOM     44  C   UNL A   1      44.661  25.290  26.472  1.00  0.00     0.029 A 
ATOM     45  C   UNL A   1      44.731  26.660  26.976  1.00  0.00     0.049 A 
ATOM     46  H   UNL A   1      43.240  27.708  27.983  1.00  0.00     0.167 HD
ATOM     47  C   UNL A   1      39.982  29.791  30.087  1.00  0.00     0.034 A 
ATOM     48  C   UNL A   1      45.795  27.482  26.876  1.00  0.00     0.034 A 
ATOM     49  C   UNL A   1      41.090  30.714  30.088  1.00  0.00     0.049 A 
ATOM     50  C   UNL A   1      45.701  28.872  27.464  1.00  0.00     0.074 A 
ATOM     51  C   UNL A   1      41.165  31.971  30.660  1.00  0.00     0.029 A 
ATOM     52  N   UNL A   1      42.317  30.482  29.478  1.00  0.00    -0.354 N 
ATOM     53  N   UNL A   1      44.701  29.435  28.102  1.00  0.00    -0.248 NA
ATOM     54  C   UNL A   1      46.884  29.732  27.324  1.00  0.00     0.031 C 
ATOM     55  C   UNL A   1      42.409  32.527  30.338  1.00  0.00     0.029 A 
ATOM     56  C   UNL A   1      43.143  31.586  29.633  1.00  0.00     0.049 A 
ATOM     57  H   UNL A   1      42.565  29.656  29.006  1.00  0.00     0.167 HD
ATOM     58  C   UNL A   1      45.149  30.702  28.469  1.00  0.00     0.074 A 
ATOM     59  C   UNL A   1      46.512  30.814  27.992  1.00  0.00     0.031 C 
ATOM     60  C   UNL A   1      44.498  31.684  29.144  1.00  0.00     0.034 A 
BRANCH  47  61
ATOM     61  C   UNL A   1      38.687  30.200  30.746  1.00  0.00     0.023 A 
ATOM     62  C   UNL A   1      37.661  30.841  30.028  1.00  0.00     0.031 A 
ATOM     63  C   UNL A   1      38.490  29.981  32.121  1.00  0.00     0.131 A 
ATOM     64  C   UNL A   1      36.517  31.299  30.700  1.00  0.00     0.055 A 
ATOM     65  C   UNL A   1      37.315  30.370  32.769  1.00  0.00     0.041 A 
ATOM     66  F   UNL A   1      39.444  29.397  32.863  1.00  0.00    -0.206 F 
ATOM     67  C   UNL A   1      36.326  31.047  32.060  1.00  0.00     0.022 A 
BRANCH  64  68
ATOM     68  S   UNL A   1      35.348  32.357  29.801  1.00  0.00     0.124 S 
ATOM     69  O   UNL A   1      36.208  33.465  29.392  1.00  0.00    -0.237 OA
ATOM     70  O   UNL A   1      34.885  31.478  28.734  1.00  0.00    -0.237 OA
ATOM     71  O   UNL A   1      34.347  32.695  30.811  1.00  0.00    -0.744 OA
ENDBRANCH  64  68
ENDBRANCH  47  61
BRANCH  48  72
ATOM     72  C   UNL A   1      47.026  27.047  26.155  1.00  0.00     0.023 A 
ATOM     73  C   UNL A   1      48.061  26.370  26.818  1.00  0.00     0.031 A 
ATOM     74  C   UNL A   1      47.214  27.369  24.797  1.00  0.00     0.131 A 
ATOM     75  C   UNL A   1      49.256  26.081  26.140  1.00  0.00     0.055 A 
ATOM     76  C   UNL A   1      48.382  27.029  24.112  1.00  0.00     0.041 A 
ATOM     77  F   UNL A   1      46.259  28.019  24.114  1.00  0.00    -0.206 F 
ATOM     78  C   UNL A   1      49.418  26.395  24.789  1.00  0.00     0.022 A 
BRANCH  75  79
ATOM     79  S   UNL A   1      50.639  25.378  27.079  1.00  0.00     0.124 S 
ATOM     80  O   UNL A   1      51.075  26.524  27.870  1.00  0.00    -0.237 OA
ATOM     81  O   UNL A   1      49.987  24.300  27.815  1.00  0.00    -0.237 OA
ATOM     82  O   UNL A   1      51.570  24.945  26.040  1.00  0.00    -0.744 OA
ENDBRANCH  75  79
ENDBRANCH  48  72
BRANCH  60  83
ATOM     83  C   UNL A   1      45.275  32.943  29.446  1.00  0.00     0.023 A 
ATOM     84  C   UNL A   1      45.265  34.049  28.578  1.00  0.00     0.031 A 
ATOM     85  C   UNL A   1      46.046  33.030  30.619  1.00  0.00     0.131 A 
ATOM     86  C   UNL A   1      46.055  35.172  28.868  1.00  0.00     0.055 A 
ATOM     87  C   UNL A   1      46.782  34.174  30.933  1.00  0.00     0.041 A 
ATOM     88  F   UNL A   1      46.093  32.004  31.484  1.00  0.00    -0.206 F 
ATOM     89  C   UNL A   1      46.800  35.248  30.048  1.00  0.00     0.022 A 
BRANCH  86  90
ATOM     90  S   UNL A   1      46.167  36.499  27.637  1.00  0.00     0.124 S 
ATOM     91  O   UNL A   1      44.811  37.037  27.645  1.00  0.00    -0.237 OA
ATOM     92  O   UNL A   1      47.199  37.364  28.202  1.00  0.00    -0.237 OA
ATOM     93  O   UNL A   1      46.550  35.799  26.412  1.00  0.00    -0.744 OA
ENDBRANCH  86  90
ENDBRANCH  60  83
ENDBRANCH  34  35
ENDBRANCH  27  29
ENDBRANCH  26  27
ENDBRANCH  25  26
ENDBRANCH   1  25
TORSDOF 19
ENDMDL
MODEL 2
REMARK VINA RESULT:     -11.3      4.660      8.121
REMARK SMILES C[C@H]1SC[C@H](C(=O)OCCOCCOC(=O)c2ccc(-c3c4nc(c(-c5cc(S(=O)(=O)[O-])ccc5F)c5ccc([nH]5)c(-c5cc(S(=O)(=O)[O-])ccc5F)c5nc(c(-c6cc(S(=O)(=O)[O-])ccc6F)c6ccc3[nH]6)C=C5)C=C4)cc2)N1C(=O)[C@@H]1CSc2ccccc21
REMARK SMILES IDX 12 1 11 2 10 3 9 4 8 5 6 6 7 7 5 8 1 9 2 10 3 11 80 12 4 13
REMARK SMILES IDX 81 14 82 15 83 16 84 17 91 18 85 19 86 20 90 21 87 22 89 23
REMARK SMILES IDX 88 24 13 25 14 26 15 27 16 28 17 29 18 30 79 31 19 32 78 33
REMARK SMILES IDX 20 34 21 35 22 36 72 37 23 38 77 39 71 40 73 41 24 42 76 43
REMARK SMILES IDX 70 44 69 45 25 47 57 48 37 49 56 50 38 51 41 52 55 53 74 54
REMARK SMILES IDX 39 55 40 56 54 58 75 59 42 60 26 61 27 62 35 63 28 64 34 65
REMARK SMILES IDX 36 66 33 67 29 68 30 69 31 70 32 71 58 72 59 73 67 74 60 75
REMARK SMILES IDX 66 76 68 77 65 78 61 79 62 80 63 81 64 82 43 83 44 84 52 85
REMARK SMILES IDX 45 86 51 87 53 88 50 89 46 90 47 91 48 92 49 93
REMARK H PARENT 73 46 41 57
REMARK Flexibility Score: inf
ROOT
ATOM      1  C   UNL A   1      32.031  31.099  26.243  1.00  0.00     0.202 C 
ENDROOT
BRANCH   1   2
ATOM      2  O   UNL A   1      32.320  29.852  26.867  1.00  0.00    -0.374 OA
BRANCH   2   3
ATOM      3  C   UNL A   1      33.227  28.984  26.183  1.00  0.00     0.202 C 
BRANCH   3   4
ATOM      4  C   UNL A   1      33.327  29.138  24.658  1.00  0.00     0.261 C 
BRANCH   4   5
ATOM      5  O   UNL A   1      34.073  28.071  24.037  1.00  0.00    -0.462 OA
BRANCH   5   6
ATOM      6  C   UNL A   1      33.382  27.350  23.112  1.00  0.00     0.329 C 
ATOM      7  O   UNL A   1      33.744  27.171  21.952  1.00  0.00    -0.250 OA
BRANCH   6   8
ATOM      8  C   UNL A   1      32.192  26.592  23.708  1.00  0.00     0.206 C 
ATOM      9  C   UNL A   1      30.718  24.604  25.605  1.00  0.00     0.043 C 
ATOM     10  C   UNL A   1      30.811  24.658  24.074  1.00  0.00     0.141 C 
ATOM     11  S   UNL A   1      29.612  25.900  23.508  1.00  0.00    -0.135 SA
ATOM     12  N   UNL A   1      32.115  25.131  23.614  1.00  0.00    -0.316 N 
ATOM     13  C   UNL A   1      30.898  27.083  23.040  1.00  0.00     0.109 C 
BRANCH  12  14
ATOM     14  C   UNL A   1      33.269  24.376  23.537  1.00  0.00     0.232 C 
ATOM     15  O   UNL A   1      33.732  24.054  22.438  1.00  0.00    -0.274 OA
BRANCH  14  16
ATOM     16  C   UNL A   1      33.938  23.832  24.805  1.00  0.00     0.120 C 
ATOM     17  C   UNL A   1      35.377  24.352  24.975  1.00  0.00     0.093 C 
ATOM     18  C   UNL A   1      33.934  22.333  24.903  1.00  0.00    -0.021 A 
ATOM     19  S   UNL A   1      36.510  22.924  25.053  1.00  0.00    -0.125 SA
ATOM     20  C   UNL A   1      35.197  21.746  24.962  1.00  0.00     0.011 A 
ATOM     21  C   UNL A   1      32.787  21.543  24.874  1.00  0.00     0.006 A 
ATOM     22  C   UNL A   1      35.342  20.371  24.870  1.00  0.00     0.015 A 
ATOM     23  C   UNL A   1      32.925  20.158  24.805  1.00  0.00     0.000 A 
ATOM     24  C   UNL A   1      34.198  19.576  24.775  1.00  0.00     0.001 A 
ENDBRANCH  14  16
ENDBRANCH  12  14
ENDBRANCH   6   8
ENDBRANCH   5   6
ENDBRANCH   4   5
ENDBRANCH   3   4
ENDBRANCH   2   3
ENDBRANCH   1   2
BRANCH   1  25
ATOM     25  C   UNL A   1      31.732  32.292  27.156  1.00  0.00     0.261 C 
BRANCH  25  26
ATOM     26  O   UNL A   1      32.629  33.388  26.917  1.00  0.00    -0.460 OA
BRANCH  26  27
ATOM     27  C   UNL A   1      33.237  33.851  28.035  1.00  0.00     0.338 C 
ATOM     28  O   UNL A   1      32.772  34.650  28.840  1.00  0.00    -0.246 OA
BRANCH  27  29
ATOM     29  C   UNL A   1      34.491  33.119  28.285  1.00  0.00     0.060 A 
ATOM     30  C   UNL A   1      34.373  31.801  28.744  1.00  0.00     0.016 A 
ATOM     31  C   UNL A   1      35.748  33.714  28.152  1.00  0.00     0.016 A 
ATOM     32  C   UNL A   1      35.504  31.096  29.141  1.00  0.00     0.010 A 
ATOM     33  C   UNL A   1      36.885  33.005  28.559  1.00  0.00     0.010 A 
ATOM     34  C   UNL A   1      36.762  31.710  29.096  1.00  0.00    -0.014 A 
BRANCH  34  35
ATOM     35  C   UNL A   1      37.903  31.057  29.784  1.00  0.00     0.031 A 
ATOM     36  C   UNL A   1      38.186  31.423  31.218  1.00  0.00     0.074 A 
ATOM     37  C   UNL A   1      38.632  30.108  29.170  1.00  0.00     0.049 A 
ATOM     38  N   UNL A   1      39.128  30.993  32.016  1.00  0.00    -0.248 NA
ATOM     39  C   UNL A   1      37.279  32.406  31.829  1.00  0.00     0.031 C 
ATOM     40  C   UNL A   1      38.413  29.629  27.805  1.00  0.00     0.029 A 
ATOM     41  N   UNL A   1      39.703  29.375  29.616  1.00  0.00    -0.354 N 
ATOM     42  C   UNL A   1      38.926  31.649  33.227  1.00  0.00     0.074 A 
ATOM     43  C   UNL A   1      37.800  32.539  33.040  1.00  0.00     0.031 C 
ATOM     44  C   UNL A   1      39.329  28.686  27.524  1.00  0.00     0.029 A 
ATOM     45  C   UNL A   1      40.219  28.521  28.671  1.00  0.00     0.049 A 
ATOM     46  H   UNL A   1      40.066  29.453  30.528  1.00  0.00     0.167 HD
ATOM     47  C   UNL A   1      39.608  31.511  34.391  1.00  0.00     0.034 A 
ATOM     48  C   UNL A   1      41.303  27.720  28.718  1.00  0.00     0.034 A 
ATOM     49  C   UNL A   1      40.740  30.632  34.557  1.00  0.00     0.049 A 
ATOM     50  C   UNL A   1      42.112  27.660  29.994  1.00  0.00     0.074 A 
ATOM     51  C   UNL A   1      41.509  30.420  35.687  1.00  0.00     0.029 A 
ATOM     52  N   UNL A   1      41.271  29.825  33.559  1.00  0.00    -0.354 N 
ATOM     53  N   UNL A   1      41.913  28.288  31.130  1.00  0.00    -0.248 NA
ATOM     54  C   UNL A   1      43.286  26.777  29.994  1.00  0.00     0.031 C 
ATOM     55  C   UNL A   1      42.545  29.539  35.355  1.00  0.00     0.029 A 
ATOM     56  C   UNL A   1      42.377  29.138  34.039  1.00  0.00     0.049 A 
ATOM     57  H   UNL A   1      40.915  29.750  32.645  1.00  0.00     0.167 HD
ATOM     58  C   UNL A   1      42.918  27.848  31.989  1.00  0.00     0.074 A 
ATOM     59  C   UNL A   1      43.712  26.893  31.243  1.00  0.00     0.031 C 
ATOM     60  C   UNL A   1      43.162  28.195  33.279  1.00  0.00     0.034 A 
BRANCH  47  61
ATOM     61  C   UNL A   1      39.173  32.372  35.553  1.00  0.00     0.023 A 
ATOM     62  C   UNL A   1      39.597  33.706  35.686  1.00  0.00     0.031 A 
ATOM     63  C   UNL A   1      38.351  31.839  36.563  1.00  0.00     0.131 A 
ATOM     64  C   UNL A   1      39.256  34.439  36.833  1.00  0.00     0.055 A 
ATOM     65  C   UNL A   1      37.950  32.599  37.664  1.00  0.00     0.041 A 
ATOM     66  F   UNL A   1      37.935  30.565  36.503  1.00  0.00    -0.206 F 
ATOM     67  C   UNL A   1      38.415  33.903  37.810  1.00  0.00     0.022 A 
BRANCH  64  68
ATOM     68  S   UNL A   1      40.044  36.051  37.099  1.00  0.00     0.124 S 
ATOM     69  O   UNL A   1      41.412  35.660  37.431  1.00  0.00    -0.237 OA
ATOM     70  O   UNL A   1      39.861  36.708  35.810  1.00  0.00    -0.237 OA
ATOM     71  O   UNL A   1      39.282  36.625  38.207  1.00  0.00    -0.744 OA
ENDBRANCH  64  68
ENDBRANCH  47  61
BRANCH  48  72
ATOM     72  C   UNL A   1      41.724  26.941  27.517  1.00  0.00     0.023 A 
ATOM     73  C   UNL A   1      41.520  25.555  27.436  1.00  0.00     0.031 A 
ATOM     74  C   UNL A   1      42.406  27.570  26.459  1.00  0.00     0.131 A 
ATOM     75  C   UNL A   1      42.036  24.835  26.348  1.00  0.00     0.055 A 
ATOM     76  C   UNL A   1      42.867  26.857  25.351  1.00  0.00     0.041 A 
ATOM     77  F   UNL A   1      42.632  28.893  26.485  1.00  0.00    -0.206 F 
ATOM     78  C   UNL A   1      42.697  25.478  25.298  1.00  0.00     0.022 A 
BRANCH  75  79
ATOM     79  S   UNL A   1      41.919  23.025  26.370  1.00  0.00     0.124 S 
ATOM     80  O   UNL A   1      40.478  22.821  26.459  1.00  0.00    -0.237 OA
ATOM     81  O   UNL A   1      42.543  22.666  25.101  1.00  0.00    -0.237 OA
ATOM     82  O   UNL A   1      42.678  22.650  27.562  1.00  0.00    -0.744 OA
ENDBRANCH  75  79
ENDBRANCH  48  72
BRANCH  60  83
ATOM     83  C   UNL A   1      44.306  27.496  33.974  1.00  0.00     0.023 A 
ATOM     84  C   UNL A   1      44.127  26.280  34.658  1.00  0.00     0.031 A 
ATOM     85  C   UNL A   1      45.592  28.063  33.960  1.00  0.00     0.131 A 
ATOM     86  C   UNL A   1      45.204  25.700  35.346  1.00  0.00     0.055 A 
ATOM     87  C   UNL A   1      46.674  27.451  34.596  1.00  0.00     0.041 A 
ATOM     88  F   UNL A   1      45.820  29.224  33.325  1.00  0.00    -0.206 F 
ATOM     89  C   UNL A   1      46.480  26.269  35.305  1.00  0.00     0.022 A 
BRANCH  86  90
ATOM     90  S   UNL A   1      44.896  24.236  36.371  1.00  0.00     0.124 S 
ATOM     91  O   UNL A   1      44.560  24.832  37.659  1.00  0.00    -0.237 OA
ATOM     92  O   UNL A   1      43.798  23.584  35.664  1.00  0.00    -0.237 OA
ATOM     93  O   UNL A   1      46.169  23.517  36.333  1.00  0.00    -0.744 OA
ENDBRANCH  86  90
ENDBRANCH  60  83
ENDBRANCH  34  35
ENDBRANCH  27  29
ENDBRANCH  26  27
ENDBRANCH  25  26
ENDBRANCH   1  25
TORSDOF 19
ENDMDL
MODEL 3
REMARK VINA RESULT:     -11.1      1.038      7.784
REMARK SMILES C[C@H]1SC[C@H](C(=O)OCCOCCOC(=O)c2ccc(-c3c4nc(c(-c5cc(S(=O)(=O)[O-])ccc5F)c5ccc([nH]5)c(-c5cc(S(=O)(=O)[O-])ccc5F)c5nc(c(-c6cc(S(=O)(=O)[O-])ccc6F)c6ccc3[nH]6)C=C5)C=C4)cc2)N1C(=O)[C@@H]1CSc2ccccc21
REMARK SMILES IDX 12 1 11 2 10 3 9 4 8 5 6 6 7 7 5 8 1 9 2 10 3 11 80 12 4 13
REMARK SMILES IDX 81 14 82 15 83 16 84 17 91 18 85 19 86 20 90 21 87 22 89 23
REMARK SMILES IDX 88 24 13 25 14 26 15 27 16 28 17 29 18 30 79 31 19 32 78 33
REMARK SMILES IDX 20 34 21 35 22 36 72 37 23 38 77 39 71 40 73 41 24 42 76 43
REMARK SMILES IDX 70 44 69 45 25 47 57 48 37 49 56 50 38 51 41 52 55 53 74 54
REMARK SMILES IDX 39 55 40 56 54 58 75 59 42 60 26 61 27 62 35 63 28 64 34 65
REMARK SMILES IDX 36 66 33 67 29 68 30 69 31 70 32 71 58 72 59 73 67 74 60 75
REMARK SMILES IDX 66 76 68 77 65 78 61 79 62 80 63 81 64 82 43 83 44 84 52 85
REMARK SMILES IDX 45 86 51 87 53 88 50 89 46 90 47 91 48 92 49 93
REMARK H PARENT 73 46 41 57
REMARK Flexibility Score: inf
ROOT
ATOM      1  C   UNL A   1      35.943  20.644  24.731  1.00  0.00     0.202 C 
ENDROOT
BRANCH   1   2
ATOM      2  O   UNL A   1      34.925  19.924  25.419  1.00  0.00    -0.374 OA
BRANCH   2   3
ATOM      3  C   UNL A   1      34.002  19.185  24.615  1.00  0.00     0.202 C 
BRANCH   3   4
ATOM      4  C   UNL A   1      32.520  19.580  24.710  1.00  0.00     0.261 C 
BRANCH   4   5
ATOM      5  O   UNL A   1      32.277  20.597  25.703  1.00  0.00    -0.462 OA
BRANCH   5   6
ATOM      6  C   UNL A   1      31.796  21.773  25.213  1.00  0.00     0.329 C 
ATOM      7  O   UNL A   1      30.606  22.070  25.151  1.00  0.00    -0.250 OA
BRANCH   6   8
ATOM      8  C   UNL A   1      32.897  22.802  24.932  1.00  0.00     0.206 C 
ATOM      9  C   UNL A   1      34.975  25.029  25.592  1.00  0.00     0.043 C 
ATOM     10  C   UNL A   1      33.772  25.022  24.640  1.00  0.00     0.141 C 
ATOM     11  S   UNL A   1      34.299  24.184  23.116  1.00  0.00    -0.135 SA
ATOM     12  N   UNL A   1      32.659  24.230  25.159  1.00  0.00    -0.316 N 
ATOM     13  C   UNL A   1      33.297  22.716  23.450  1.00  0.00     0.109 C 
BRANCH  12  14
ATOM     14  C   UNL A   1      31.749  24.642  26.114  1.00  0.00     0.232 C 
ATOM     15  O   UNL A   1      31.763  24.144  27.244  1.00  0.00    -0.274 OA
BRANCH  14  16
ATOM     16  C   UNL A   1      30.640  25.641  25.763  1.00  0.00     0.120 C 
ATOM     17  C   UNL A   1      30.131  25.466  24.321  1.00  0.00     0.093 C 
ATOM     18  C   UNL A   1      31.019  27.077  25.988  1.00  0.00    -0.021 A 
ATOM     19  S   UNL A   1      30.358  27.039  23.425  1.00  0.00    -0.125 SA
ATOM     20  C   UNL A   1      30.984  27.878  24.847  1.00  0.00     0.011 A 
ATOM     21  C   UNL A   1      31.442  27.600  27.208  1.00  0.00     0.006 A 
ATOM     22  C   UNL A   1      31.482  29.171  24.876  1.00  0.00     0.015 A 
ATOM     23  C   UNL A   1      31.924  28.907  27.248  1.00  0.00     0.000 A 
ATOM     24  C   UNL A   1      31.969  29.680  26.082  1.00  0.00     0.001 A 
ENDBRANCH  14  16
ENDBRANCH  12  14
ENDBRANCH   6   8
ENDBRANCH   5   6
ENDBRANCH   4   5
ENDBRANCH   3   4
ENDBRANCH   2   3
ENDBRANCH   1   2
BRANCH   1  25
ATOM     25  C   UNL A   1      37.396  20.243  25.002  1.00  0.00     0.261 C 
BRANCH  25  26
ATOM     26  O   UNL A   1      38.232  21.385  25.243  1.00  0.00    -0.460 OA
BRANCH  26  27
ATOM     27  C   UNL A   1      39.285  21.130  26.055  1.00  0.00     0.338 C 
ATOM     28  O   UNL A   1      39.912  20.080  26.129  1.00  0.00    -0.246 OA
BRANCH  27  29
ATOM     29  C   UNL A   1      39.728  22.362  26.733  1.00  0.00     0.060 A 
ATOM     30  C   UNL A   1      39.041  23.541  26.416  1.00  0.00     0.016 A 
ATOM     31  C   UNL A   1      40.827  22.391  27.595  1.00  0.00     0.016 A 
ATOM     32  C   UNL A   1      39.491  24.764  26.900  1.00  0.00     0.010 A 
ATOM     33  C   UNL A   1      41.284  23.625  28.076  1.00  0.00     0.010 A 
ATOM     34  C   UNL A   1      40.643  24.819  27.694  1.00  0.00    -0.014 A 
BRANCH  34  35
ATOM     35  C   UNL A   1      41.269  26.138  27.960  1.00  0.00     0.031 A 
ATOM     36  C   UNL A   1      42.666  26.389  27.454  1.00  0.00     0.074 A 
ATOM     37  C   UNL A   1      40.585  27.118  28.576  1.00  0.00     0.049 A 
ATOM     38  N   UNL A   1      43.415  27.454  27.573  1.00  0.00    -0.248 NA
ATOM     39  C   UNL A   1      43.298  25.286  26.715  1.00  0.00     0.031 C 
ATOM     40  C   UNL A   1      39.206  27.011  29.054  1.00  0.00     0.029 A 
ATOM     41  N   UNL A   1      40.955  28.398  28.903  1.00  0.00    -0.354 N 
ATOM     42  C   UNL A   1      44.606  27.153  26.919  1.00  0.00     0.074 A 
ATOM     43  C   UNL A   1      44.494  25.789  26.448  1.00  0.00     0.031 C 
ATOM     44  C   UNL A   1      38.852  28.177  29.622  1.00  0.00     0.029 A 
ATOM     45  C   UNL A   1      39.986  29.098  29.580  1.00  0.00     0.049 A 
ATOM     46  H   UNL A   1      41.834  28.779  28.673  1.00  0.00     0.167 HD
ATOM     47  C   UNL A   1      45.688  27.946  26.718  1.00  0.00     0.034 A 
ATOM     48  C   UNL A   1      40.020  30.330  30.127  1.00  0.00     0.034 A 
ATOM     49  C   UNL A   1      45.792  29.299  27.209  1.00  0.00     0.049 A 
ATOM     50  C   UNL A   1      41.276  31.159  29.982  1.00  0.00     0.074 A 
ATOM     51  C   UNL A   1      46.842  30.188  27.072  1.00  0.00     0.029 A 
ATOM     52  N   UNL A   1      44.811  29.955  27.943  1.00  0.00    -0.354 N 
ATOM     53  N   UNL A   1      42.397  30.862  29.365  1.00  0.00    -0.248 NA
ATOM     54  C   UNL A   1      41.266  32.491  30.600  1.00  0.00     0.031 C 
ATOM     55  C   UNL A   1      46.527  31.354  27.778  1.00  0.00     0.029 A 
ATOM     56  C   UNL A   1      45.246  31.225  28.291  1.00  0.00     0.049 A 
ATOM     57  H   UNL A   1      43.936  29.574  28.180  1.00  0.00     0.167 HD
ATOM     58  C   UNL A   1      43.211  31.985  29.493  1.00  0.00     0.074 A 
ATOM     59  C   UNL A   1      42.447  32.968  30.234  1.00  0.00     0.031 C 
ATOM     60  C   UNL A   1      44.474  32.191  29.037  1.00  0.00     0.034 A 
BRANCH  47  61
ATOM     61  C   UNL A   1      46.859  27.344  25.980  1.00  0.00     0.023 A 
ATOM     62  C   UNL A   1      47.888  26.662  26.653  1.00  0.00     0.031 A 
ATOM     63  C   UNL A   1      46.967  27.484  24.584  1.00  0.00     0.131 A 
ATOM     64  C   UNL A   1      49.010  26.208  25.943  1.00  0.00     0.055 A 
ATOM     65  C   UNL A   1      48.049  26.961  23.872  1.00  0.00     0.041 A 
ATOM     66  F   UNL A   1      46.028  28.146  23.890  1.00  0.00    -0.206 F 
ATOM     67  C   UNL A   1      49.086  26.332  24.554  1.00  0.00     0.022 A 
BRANCH  64  68
ATOM     68  S   UNL A   1      50.435  25.584  26.876  1.00  0.00     0.124 S 
ATOM     69  O   UNL A   1      49.846  24.454  27.593  1.00  0.00    -0.237 OA
ATOM     70  O   UNL A   1      51.381  25.248  25.820  1.00  0.00    -0.237 OA
ATOM     71  O   UNL A   1      50.815  26.716  27.719  1.00  0.00    -0.744 OA
ENDBRANCH  64  68
ENDBRANCH  47  61
BRANCH  48  72
ATOM     72  C   UNL A   1      38.857  30.849  30.904  1.00  0.00     0.023 A 
ATOM     73  C   UNL A   1      37.784  31.494  30.269  1.00  0.00     0.031 A 
ATOM     74  C   UNL A   1      38.838  30.767  32.309  1.00  0.00     0.131 A 
ATOM     75  C   UNL A   1      36.765  32.077  31.039  1.00  0.00     0.055 A 
ATOM     76  C   UNL A   1      37.793  31.298  33.066  1.00  0.00     0.041 A 
ATOM     77  F   UNL A   1      39.840  30.163  32.968  1.00  0.00    -0.206 F 
ATOM     78  C   UNL A   1      36.755  31.972  32.432  1.00  0.00     0.022 A 
BRANCH  75  79
ATOM     79  S   UNL A   1      35.498  33.065  30.196  1.00  0.00     0.124 S 
ATOM     80  O   UNL A   1      34.278  32.606  30.852  1.00  0.00    -0.237 OA
ATOM     81  O   UNL A   1      35.921  34.426  30.505  1.00  0.00    -0.237 OA
ATOM     82  O   UNL A   1      35.638  32.674  28.795  1.00  0.00    -0.744 OA
ENDBRANCH  75  79
ENDBRANCH  48  72
BRANCH  60  83
ATOM     83  C   UNL A   1      45.081  33.550  29.285  1.00  0.00     0.023 A 
ATOM     84  C   UNL A   1      44.925  34.611  28.374  1.00  0.00     0.031 A 
ATOM     85  C   UNL A   1      45.837  33.784  30.448  1.00  0.00     0.131 A 
ATOM     86  C   UNL A   1      45.563  35.838  28.614  1.00  0.00     0.055 A 
ATOM     87  C   UNL A   1      46.419  35.025  30.711  1.00  0.00     0.041 A 
ATOM     88  F   UNL A   1      46.020  32.807  31.351  1.00  0.00    -0.206 F 
ATOM     89  C   UNL A   1      46.295  36.057  29.784  1.00  0.00     0.022 A 
BRANCH  86  90
ATOM     90  S   UNL A   1      45.499  37.119  27.332  1.00  0.00     0.124 S 
ATOM     91  O   UNL A   1      45.909  38.308  28.069  1.00  0.00    -0.237 OA
ATOM     92  O   UNL A   1      46.451  36.621  26.344  1.00  0.00    -0.237 OA
ATOM     93  O   UNL A   1      44.100  37.106  26.904  1.00  0.00    -0.744 OA
ENDBRANCH  86  90
ENDBRANCH  60  83
ENDBRANCH  34  35
ENDBRANCH  27  29
ENDBRANCH  26  27
ENDBRANCH  25  26
ENDBRANCH   1  25
TORSDOF 19
ENDMDL
