MODEL 1
REMARK VINA RESULT:     -10.2      0.000      0.000
REMARK SMILES O=C(OCCOCCOC(=O)c1cc(N2Cc3ccccc3CC2=O)ccn1)c1ccc(-c2c3nc(c(-c4cc(S(=O)(=O)[O-])ccc4F)c4ccc([nH]4)c(-c4cc(S(=O)(=O)[O-])ccc4F)c4nc(c(-c5cc(S(=O)(=O)[O-])ccc5F)c5ccc2[nH]5)C=C4)C=C3)cc1
REMARK SMILES IDX 5 1 4 2 3 3 2 4 1 5 29 6 30 7 91 8 31 9 90 10 32 11 33 12
REMARK SMILES IDX 34 13 84 14 35 15 89 16 83 17 85 18 36 19 88 20 82 21 81 22
REMARK SMILES IDX 37 24 69 25 49 26 68 27 50 28 53 29 67 30 86 31 51 32 52 33
REMARK SMILES IDX 66 35 87 36 54 37 38 38 39 39 47 40 40 41 46 42 48 43 45 44
REMARK SMILES IDX 41 45 42 46 43 47 44 48 70 49 71 50 79 51 72 52 78 53 80 54
REMARK SMILES IDX 77 55 73 56 74 57 75 58 76 59 55 60 56 61 64 62 57 63 63 64
REMARK SMILES IDX 65 65 62 66 58 67 59 68 60 69 61 70 6 71 7 72 8 73 9 74
REMARK SMILES IDX 10 75 11 76 12 77 13 78 28 79 14 80 27 81 26 82 15 83 16 84
REMARK SMILES IDX 24 85 17 86 23 87 25 88 18 89 22 90 19 91 21 92 20 93
REMARK H PARENT 85 23 53 34
REMARK Flexibility Score: inf
ROOT
ATOM      1  C   UNL A   1      32.948  34.590  29.100  1.00  0.00     0.202 C 
ENDROOT
BRANCH   1   2
ATOM      2  C   UNL A   1      33.558  34.118  27.779  1.00  0.00     0.261 C 
BRANCH   2   3
ATOM      3  O   UNL A   1      34.737  33.338  28.024  1.00  0.00    -0.460 OA
BRANCH   3   4
ATOM      4  C   UNL A   1      34.826  32.005  28.245  1.00  0.00     0.338 C 
ATOM      5  O   UNL A   1      33.810  31.329  28.084  1.00  0.00    -0.246 OA
BRANCH   4   6
ATOM      6  C   UNL A   1      36.079  31.293  28.658  1.00  0.00     0.060 A 
ATOM      7  C   UNL A   1      36.166  29.956  29.053  1.00  0.00     0.016 A 
ATOM      8  C   UNL A   1      37.280  32.019  28.554  1.00  0.00     0.016 A 
ATOM      9  C   UNL A   1      37.379  29.366  29.374  1.00  0.00     0.010 A 
ATOM     10  C   UNL A   1      38.513  31.428  28.852  1.00  0.00     0.010 A 
ATOM     11  C   UNL A   1      38.557  30.097  29.278  1.00  0.00    -0.014 A 
BRANCH  11  12
ATOM     12  C   UNL A   1      39.790  29.454  29.765  1.00  0.00     0.031 A 
ATOM     13  C   UNL A   1      40.356  29.917  31.072  1.00  0.00     0.074 A 
ATOM     14  C   UNL A   1      40.265  28.370  29.126  1.00  0.00     0.049 A 
ATOM     15  N   UNL A   1      41.393  29.479  31.730  1.00  0.00    -0.248 NA
ATOM     16  C   UNL A   1      39.635  31.015  31.736  1.00  0.00     0.031 C 
ATOM     17  C   UNL A   1      39.673  27.782  27.921  1.00  0.00     0.029 A 
ATOM     18  N   UNL A   1      41.312  27.542  29.422  1.00  0.00    -0.354 N 
ATOM     19  C   UNL A   1      41.461  30.256  32.881  1.00  0.00     0.074 A 
ATOM     20  C   UNL A   1      40.370  31.204  32.819  1.00  0.00     0.031 C 
ATOM     21  C   UNL A   1      40.349  26.666  27.602  1.00  0.00     0.029 A 
ATOM     22  C   UNL A   1      41.455  26.497  28.537  1.00  0.00     0.049 A 
ATOM     23  H   UNL A   1      41.908  27.681  30.193  1.00  0.00     0.167 HD
ATOM     24  C   UNL A   1      42.362  30.178  33.890  1.00  0.00     0.034 A 
ATOM     25  C   UNL A   1      42.394  25.532  28.489  1.00  0.00     0.034 A 
ATOM     26  C   UNL A   1      43.450  29.233  33.891  1.00  0.00     0.049 A 
ATOM     27  C   UNL A   1      43.458  25.545  29.557  1.00  0.00     0.074 A 
ATOM     28  C   UNL A   1      44.489  29.101  34.792  1.00  0.00     0.029 A 
ATOM     29  N   UNL A   1      43.638  28.251  32.920  1.00  0.00    -0.354 N 
ATOM     30  N   UNL A   1      43.571  26.337  30.602  1.00  0.00    -0.248 NA
ATOM     31  C   UNL A   1      44.525  24.547  29.439  1.00  0.00     0.031 C 
ATOM     32  C   UNL A   1      45.338  28.086  34.333  1.00  0.00     0.029 A 
ATOM     33  C   UNL A   1      44.792  27.531  33.185  1.00  0.00     0.049 A 
ATOM     34  H   UNL A   1      43.039  28.092  32.156  1.00  0.00     0.167 HD
ATOM     35  C   UNL A   1      44.713  25.920  31.276  1.00  0.00     0.074 A 
ATOM     36  C   UNL A   1      45.238  24.791  30.529  1.00  0.00     0.031 C 
ATOM     37  C   UNL A   1      45.285  26.420  32.403  1.00  0.00     0.034 A 
BRANCH  24  38
ATOM     38  C   UNL A   1      42.246  31.218  34.978  1.00  0.00     0.023 A 
ATOM     39  C   UNL A   1      43.153  32.291  35.085  1.00  0.00     0.031 A 
ATOM     40  C   UNL A   1      41.290  31.064  35.997  1.00  0.00     0.131 A 
ATOM     41  C   UNL A   1      43.146  33.100  36.233  1.00  0.00     0.055 A 
ATOM     42  C   UNL A   1      41.234  31.925  37.094  1.00  0.00     0.041 A 
ATOM     43  F   UNL A   1      40.421  30.042  35.968  1.00  0.00    -0.206 F 
ATOM     44  C   UNL A   1      42.178  32.938  37.228  1.00  0.00     0.022 A 
BRANCH  41  45
ATOM     45  S   UNL A   1      44.531  34.245  36.499  1.00  0.00     0.124 S 
ATOM     46  O   UNL A   1      44.189  35.339  35.593  1.00  0.00    -0.237 OA
ATOM     47  O   UNL A   1      44.429  34.539  37.924  1.00  0.00    -0.237 OA
ATOM     48  O   UNL A   1      45.703  33.465  36.105  1.00  0.00    -0.744 OA
ENDBRANCH  41  45
ENDBRANCH  24  38
BRANCH  25  49
ATOM     49  C   UNL A   1      42.411  24.531  27.380  1.00  0.00     0.023 A 
ATOM     50  C   UNL A   1      41.612  23.377  27.417  1.00  0.00     0.031 A 
ATOM     51  C   UNL A   1      43.274  24.692  26.279  1.00  0.00     0.131 A 
ATOM     52  C   UNL A   1      41.718  22.415  26.399  1.00  0.00     0.055 A 
ATOM     53  C   UNL A   1      43.335  23.761  25.240  1.00  0.00     0.041 A 
ATOM     54  F   UNL A   1      44.073  25.768  26.192  1.00  0.00    -0.206 F 
ATOM     55  C   UNL A   1      42.564  22.608  25.303  1.00  0.00     0.022 A 
BRANCH  52  56
ATOM     56  S   UNL A   1      40.804  20.855  26.567  1.00  0.00     0.124 S 
ATOM     57  O   UNL A   1      39.481  21.232  26.085  1.00  0.00    -0.237 OA
ATOM     58  O   UNL A   1      41.570  19.960  25.708  1.00  0.00    -0.237 OA
ATOM     59  O   UNL A   1      40.887  20.565  27.998  1.00  0.00    -0.744 OA
ENDBRANCH  52  56
ENDBRANCH  25  49
BRANCH  37  60
ATOM     60  C   UNL A   1      46.520  25.710  32.894  1.00  0.00     0.023 A 
ATOM     61  C   UNL A   1      46.442  24.653  33.817  1.00  0.00     0.031 A 
ATOM     62  C   UNL A   1      47.789  26.111  32.444  1.00  0.00     0.131 A 
ATOM     63  C   UNL A   1      47.619  24.073  34.310  1.00  0.00     0.055 A 
ATOM     64  C   UNL A   1      48.955  25.489  32.892  1.00  0.00     0.041 A 
ATOM     65  F   UNL A   1      47.916  27.116  31.562  1.00  0.00    -0.206 F 
ATOM     66  C   UNL A   1      48.874  24.474  33.841  1.00  0.00     0.022 A 
BRANCH  63  67
ATOM     67  S   UNL A   1      47.493  22.853  35.645  1.00  0.00     0.124 S 
ATOM     68  O   UNL A   1      48.807  22.220  35.604  1.00  0.00    -0.237 OA
ATOM     69  O   UNL A   1      47.225  23.691  36.809  1.00  0.00    -0.237 OA
ATOM     70  O   UNL A   1      46.381  22.002  35.227  1.00  0.00    -0.744 OA
ENDBRANCH  63  67
ENDBRANCH  37  60
ENDBRANCH  11  12
ENDBRANCH   4   6
ENDBRANCH   3   4
ENDBRANCH   2   3
ENDBRANCH   1   2
BRANCH   1  71
ATOM     71  O   UNL A   1      32.565  35.964  29.092  1.00  0.00    -0.374 OA
BRANCH  71  72
ATOM     72  C   UNL A   1      33.494  36.894  29.646  1.00  0.00     0.202 C 
BRANCH  72  73
ATOM     73  C   UNL A   1      33.091  37.195  31.092  1.00  0.00     0.261 C 
BRANCH  73  74
ATOM     74  O   UNL A   1      33.891  36.377  31.960  1.00  0.00    -0.459 OA
BRANCH  74  75
ATOM     75  C   UNL A   1      33.267  35.257  32.430  1.00  0.00     0.357 C 
ATOM     76  O   UNL A   1      32.068  35.076  32.545  1.00  0.00    -0.244 OA
BRANCH  75  77
ATOM     77  C   UNL A   1      34.327  34.228  32.595  1.00  0.00     0.150 A 
ATOM     78  C   UNL A   1      35.549  34.598  33.121  1.00  0.00     0.062 A 
ATOM     79  N   UNL A   1      34.078  32.994  32.087  1.00  0.00    -0.249 NA
ATOM     80  C   UNL A   1      36.591  33.674  33.119  1.00  0.00     0.048 A 
ATOM     81  C   UNL A   1      35.106  32.123  32.073  1.00  0.00     0.114 A 
ATOM     82  C   UNL A   1      36.373  32.421  32.548  1.00  0.00     0.046 A 
BRANCH  80  83
ATOM     83  N   UNL A   1      37.835  34.023  33.721  1.00  0.00    -0.308 N 
ATOM     84  C   UNL A   1      38.062  33.686  35.130  1.00  0.00     0.161 C 
ATOM     85  C   UNL A   1      38.877  34.517  32.923  1.00  0.00     0.231 C 
ATOM     86  C   UNL A   1      39.020  34.636  35.799  1.00  0.00    -0.024 A 
ATOM     87  C   UNL A   1      40.207  34.734  33.609  1.00  0.00     0.136 C 
ATOM     88  O   UNL A   1      38.782  34.768  31.719  1.00  0.00    -0.274 OA
ATOM     89  C   UNL A   1      38.926  34.951  37.157  1.00  0.00     0.006 A 
ATOM     90  C   UNL A   1      40.066  35.173  35.036  1.00  0.00    -0.034 A 
ATOM     91  C   UNL A   1      39.843  35.831  37.734  1.00  0.00     0.000 A 
ATOM     92  C   UNL A   1      40.981  36.055  35.617  1.00  0.00     0.004 A 
ATOM     93  C   UNL A   1      40.860  36.392  36.962  1.00  0.00     0.000 A 
ENDBRANCH  80  83
ENDBRANCH  75  77
ENDBRANCH  74  75
ENDBRANCH  73  74
ENDBRANCH  72  73
ENDBRANCH  71  72
ENDBRANCH   1  71
TORSDOF 18
ENDMDL
MODEL 2
REMARK VINA RESULT:      -9.9      5.912     12.192
REMARK SMILES O=C(OCCOCCOC(=O)c1cc(N2Cc3ccccc3CC2=O)ccn1)c1ccc(-c2c3nc(c(-c4cc(S(=O)(=O)[O-])ccc4F)c4ccc([nH]4)c(-c4cc(S(=O)(=O)[O-])ccc4F)c4nc(c(-c5cc(S(=O)(=O)[O-])ccc5F)c5ccc2[nH]5)C=C4)C=C3)cc1
REMARK SMILES IDX 5 1 4 2 3 3 2 4 1 5 29 6 30 7 91 8 31 9 90 10 32 11 33 12
REMARK SMILES IDX 34 13 84 14 35 15 89 16 83 17 85 18 36 19 88 20 82 21 81 22
REMARK SMILES IDX 37 24 69 25 49 26 68 27 50 28 53 29 67 30 86 31 51 32 52 33
REMARK SMILES IDX 66 35 87 36 54 37 38 38 39 39 47 40 40 41 46 42 48 43 45 44
REMARK SMILES IDX 41 45 42 46 43 47 44 48 70 49 71 50 79 51 72 52 78 53 80 54
REMARK SMILES IDX 77 55 73 56 74 57 75 58 76 59 55 60 56 61 64 62 57 63 63 64
REMARK SMILES IDX 65 65 62 66 58 67 59 68 60 69 61 70 6 71 7 72 8 73 9 74
REMARK SMILES IDX 10 75 11 76 12 77 13 78 28 79 14 80 27 81 26 82 15 83 16 84
REMARK SMILES IDX 24 85 17 86 23 87 25 88 18 89 22 90 19 91 21 92 20 93
REMARK H PARENT 85 23 53 34
REMARK Flexibility Score: inf
ROOT
ATOM      1  C   UNL A   1      36.946  21.813  24.289  1.00  0.00     0.202 C 
ENDROOT
BRANCH   1   2
ATOM      2  C   UNL A   1      37.923  20.852  24.969  1.00  0.00     0.261 C 
BRANCH   2   3
ATOM      3  O   UNL A   1      38.386  21.407  26.209  1.00  0.00    -0.460 OA
BRANCH   3   4
ATOM      4  C   UNL A   1      39.641  21.804  26.530  1.00  0.00     0.338 C 
ATOM      5  O   UNL A   1      40.543  20.970  26.448  1.00  0.00    -0.246 OA
BRANCH   4   6
ATOM      6  C   UNL A   1      40.009  23.190  26.964  1.00  0.00     0.060 A 
ATOM      7  C   UNL A   1      39.429  24.373  26.500  1.00  0.00     0.016 A 
ATOM      8  C   UNL A   1      40.966  23.296  27.991  1.00  0.00     0.016 A 
ATOM      9  C   UNL A   1      39.802  25.614  26.995  1.00  0.00     0.010 A 
ATOM     10  C   UNL A   1      41.334  24.540  28.515  1.00  0.00     0.010 A 
ATOM     11  C   UNL A   1      40.756  25.705  28.001  1.00  0.00    -0.014 A 
BRANCH  11  12
ATOM     12  C   UNL A   1      41.206  27.055  28.382  1.00  0.00     0.031 A 
ATOM     13  C   UNL A   1      42.598  27.464  28.011  1.00  0.00     0.074 A 
ATOM     14  C   UNL A   1      40.315  27.930  28.882  1.00  0.00     0.049 A 
ATOM     15  N   UNL A   1      43.205  28.604  28.191  1.00  0.00    -0.248 NA
ATOM     16  C   UNL A   1      43.410  26.445  27.326  1.00  0.00     0.031 C 
ATOM     17  C   UNL A   1      38.902  27.634  29.136  1.00  0.00     0.029 A 
ATOM     18  N   UNL A   1      40.445  29.249  29.218  1.00  0.00    -0.354 N 
ATOM     19  C   UNL A   1      44.475  28.440  27.652  1.00  0.00     0.074 A 
ATOM     20  C   UNL A   1      44.557  27.083  27.159  1.00  0.00     0.031 C 
ATOM     21  C   UNL A   1      38.289  28.753  29.554  1.00  0.00     0.029 A 
ATOM     22  C   UNL A   1      39.275  29.823  29.659  1.00  0.00     0.049 A 
ATOM     23  H   UNL A   1      41.295  29.741  29.150  1.00  0.00     0.167 HD
ATOM     24  C   UNL A   1      45.479  29.348  27.586  1.00  0.00     0.034 A 
ATOM     25  C   UNL A   1      39.045  31.069  30.117  1.00  0.00     0.034 A 
ATOM     26  C   UNL A   1      45.359  30.682  28.119  1.00  0.00     0.049 A 
ATOM     27  C   UNL A   1      40.214  32.023  30.147  1.00  0.00     0.074 A 
ATOM     28  C   UNL A   1      46.316  31.674  28.210  1.00  0.00     0.029 A 
ATOM     29  N   UNL A   1      44.189  31.206  28.667  1.00  0.00    -0.354 N 
ATOM     30  N   UNL A   1      41.443  31.838  29.715  1.00  0.00    -0.248 NA
ATOM     31  C   UNL A   1      39.972  33.345  30.733  1.00  0.00     0.031 C 
ATOM     32  C   UNL A   1      45.745  32.771  28.868  1.00  0.00     0.029 A 
ATOM     33  C   UNL A   1      44.410  32.495  29.123  1.00  0.00     0.049 A 
ATOM     34  H   UNL A   1      43.330  30.729  28.722  1.00  0.00     0.167 HD
ATOM     35  C   UNL A   1      42.117  33.028  29.962  1.00  0.00     0.074 A 
ATOM     36  C   UNL A   1      41.148  33.930  30.559  1.00  0.00     0.031 C 
ATOM     37  C   UNL A   1      43.415  33.354  29.726  1.00  0.00     0.034 A 
BRANCH  24  38
ATOM     38  C   UNL A   1      46.793  28.860  27.025  1.00  0.00     0.023 A 
ATOM     39  C   UNL A   1      46.988  28.658  25.645  1.00  0.00     0.031 A 
ATOM     40  C   UNL A   1      47.826  28.470  27.897  1.00  0.00     0.131 A 
ATOM     41  C   UNL A   1      48.138  27.994  25.191  1.00  0.00     0.055 A 
ATOM     42  C   UNL A   1      49.005  27.888  27.430  1.00  0.00     0.041 A 
ATOM     43  F   UNL A   1      47.686  28.607  29.225  1.00  0.00    -0.206 F 
ATOM     44  C   UNL A   1      49.159  27.628  26.072  1.00  0.00     0.022 A 
BRANCH  41  45
ATOM     45  S   UNL A   1      48.202  27.447  23.459  1.00  0.00     0.124 S 
ATOM     46  O   UNL A   1      49.561  27.825  23.080  1.00  0.00    -0.237 OA
ATOM     47  O   UNL A   1      47.943  26.016  23.570  1.00  0.00    -0.237 OA
ATOM     48  O   UNL A   1      47.145  28.224  22.814  1.00  0.00    -0.744 OA
ENDBRANCH  41  45
ENDBRANCH  24  38
BRANCH  25  49
ATOM     49  C   UNL A   1      37.700  31.464  30.632  1.00  0.00     0.023 A 
ATOM     50  C   UNL A   1      36.757  32.105  29.813  1.00  0.00     0.031 A 
ATOM     51  C   UNL A   1      37.354  31.248  31.980  1.00  0.00     0.131 A 
ATOM     52  C   UNL A   1      35.535  32.540  30.355  1.00  0.00     0.055 A 
ATOM     53  C   UNL A   1      36.116  31.631  32.501  1.00  0.00     0.041 A 
ATOM     54  F   UNL A   1      38.219  30.652  32.818  1.00  0.00    -0.206 F 
ATOM     55  C   UNL A   1      35.204  32.292  31.690  1.00  0.00     0.022 A 
BRANCH  52  56
ATOM     56  S   UNL A   1      34.415  33.520  29.316  1.00  0.00     0.124 S 
ATOM     57  O   UNL A   1      33.720  32.481  28.564  1.00  0.00    -0.237 OA
ATOM     58  O   UNL A   1      33.622  34.232  30.311  1.00  0.00    -0.237 OA
ATOM     59  O   UNL A   1      35.322  34.355  28.531  1.00  0.00    -0.744 OA
ENDBRANCH  52  56
ENDBRANCH  25  49
BRANCH  37  60
ATOM     60  C   UNL A   1      43.827  34.757  30.089  1.00  0.00     0.023 A 
ATOM     61  C   UNL A   1      43.647  35.829  29.199  1.00  0.00     0.031 A 
ATOM     62  C   UNL A   1      44.424  35.016  31.335  1.00  0.00     0.131 A 
ATOM     63  C   UNL A   1      44.117  37.104  29.544  1.00  0.00     0.055 A 
ATOM     64  C   UNL A   1      44.835  36.299  31.697  1.00  0.00     0.041 A 
ATOM     65  F   UNL A   1      44.618  34.024  32.220  1.00  0.00    -0.206 F 
ATOM     66  C   UNL A   1      44.696  37.348  30.794  1.00  0.00     0.022 A 
BRANCH  63  67
ATOM     67  S   UNL A   1      44.051  38.420  28.298  1.00  0.00     0.124 S 
ATOM     68  O   UNL A   1      44.950  37.909  27.268  1.00  0.00    -0.237 OA
ATOM     69  O   UNL A   1      42.634  38.449  27.951  1.00  0.00    -0.237 OA
ATOM     70  O   UNL A   1      44.537  39.596  29.017  1.00  0.00    -0.744 OA
ENDBRANCH  63  67
ENDBRANCH  37  60
ENDBRANCH  11  12
ENDBRANCH   4   6
ENDBRANCH   3   4
ENDBRANCH   2   3
ENDBRANCH   1   2
BRANCH   1  71
ATOM     71  O   UNL A   1      36.496  22.865  25.141  1.00  0.00    -0.374 OA
BRANCH  71  72
ATOM     72  C   UNL A   1      35.127  23.248  25.021  1.00  0.00     0.202 C 
BRANCH  72  73
ATOM     73  C   UNL A   1      34.287  21.999  24.739  1.00  0.00     0.261 C 
BRANCH  73  74
ATOM     74  O   UNL A   1      33.494  22.247  23.567  1.00  0.00    -0.459 OA
BRANCH  74  75
ATOM     75  C   UNL A   1      32.312  22.892  23.799  1.00  0.00     0.357 C 
ATOM     76  O   UNL A   1      31.435  22.563  24.578  1.00  0.00    -0.244 OA
BRANCH  75  77
ATOM     77  C   UNL A   1      32.386  24.177  23.057  1.00  0.00     0.150 A 
ATOM     78  C   UNL A   1      31.718  25.280  23.553  1.00  0.00     0.062 A 
ATOM     79  N   UNL A   1      33.000  24.161  21.847  1.00  0.00    -0.249 NA
ATOM     80  C   UNL A   1      31.651  26.432  22.774  1.00  0.00     0.048 A 
ATOM     81  C   UNL A   1      32.903  25.278  21.100  1.00  0.00     0.114 A 
ATOM     82  C   UNL A   1      32.225  26.417  21.503  1.00  0.00     0.046 A 
BRANCH  80  83
ATOM     83  N   UNL A   1      31.024  27.598  23.304  1.00  0.00    -0.308 N 
ATOM     84  C   UNL A   1      29.563  27.709  23.243  1.00  0.00     0.161 C 
ATOM     85  C   UNL A   1      31.787  28.530  24.023  1.00  0.00     0.231 C 
ATOM     86  C   UNL A   1      29.099  29.140  23.180  1.00  0.00    -0.024 A 
ATOM     87  C   UNL A   1      31.027  29.667  24.668  1.00  0.00     0.136 C 
ATOM     88  O   UNL A   1      33.010  28.473  24.169  1.00  0.00    -0.274 OA
ATOM     89  C   UNL A   1      27.932  29.513  22.507  1.00  0.00     0.006 A 
ATOM     90  C   UNL A   1      29.841  30.112  23.866  1.00  0.00    -0.034 A 
ATOM     91  C   UNL A   1      27.539  30.852  22.483  1.00  0.00     0.000 A 
ATOM     92  C   UNL A   1      29.445  31.451  23.837  1.00  0.00     0.004 A 
ATOM     93  C   UNL A   1      28.301  31.820  23.136  1.00  0.00     0.000 A 
ENDBRANCH  80  83
ENDBRANCH  75  77
ENDBRANCH  74  75
ENDBRANCH  73  74
ENDBRANCH  72  73
ENDBRANCH  71  72
ENDBRANCH   1  71
TORSDOF 18
ENDMDL
MODEL 3
REMARK VINA RESULT:      -9.7      5.702     11.892
REMARK SMILES O=C(OCCOCCOC(=O)c1cc(N2Cc3ccccc3CC2=O)ccn1)c1ccc(-c2c3nc(c(-c4cc(S(=O)(=O)[O-])ccc4F)c4ccc([nH]4)c(-c4cc(S(=O)(=O)[O-])ccc4F)c4nc(c(-c5cc(S(=O)(=O)[O-])ccc5F)c5ccc2[nH]5)C=C4)C=C3)cc1
REMARK SMILES IDX 5 1 4 2 3 3 2 4 1 5 29 6 30 7 91 8 31 9 90 10 32 11 33 12
REMARK SMILES IDX 34 13 84 14 35 15 89 16 83 17 85 18 36 19 88 20 82 21 81 22
REMARK SMILES IDX 37 24 69 25 49 26 68 27 50 28 53 29 67 30 86 31 51 32 52 33
REMARK SMILES IDX 66 35 87 36 54 37 38 38 39 39 47 40 40 41 46 42 48 43 45 44
REMARK SMILES IDX 41 45 42 46 43 47 44 48 70 49 71 50 79 51 72 52 78 53 80 54
REMARK SMILES IDX 77 55 73 56 74 57 75 58 76 59 55 60 56 61 64 62 57 63 63 64
REMARK SMILES IDX 65 65 62 66 58 67 59 68 60 69 61 70 6 71 7 72 8 73 9 74
REMARK SMILES IDX 10 75 11 76 12 77 13 78 28 79 14 80 27 81 26 82 15 83 16 84
REMARK SMILES IDX 24 85 17 86 23 87 25 88 18 89 22 90 19 91 21 92 20 93
REMARK H PARENT 85 23 53 34
REMARK Flexibility Score: inf
ROOT
ATOM      1  C   UNL A   1      37.411  21.320  24.647  1.00  0.00     0.202 C 
ENDROOT
BRANCH   1   2
ATOM      2  C   UNL A   1      38.376  20.193  25.017  1.00  0.00     0.261 C 
BRANCH   2   3
ATOM      3  O   UNL A   1      38.994  20.462  26.284  1.00  0.00    -0.460 OA
BRANCH   3   4
ATOM      4  C   UNL A   1      40.262  20.873  26.525  1.00  0.00     0.338 C 
ATOM      5  O   UNL A   1      41.167  20.048  26.391  1.00  0.00    -0.246 OA
BRANCH   4   6
ATOM      6  C   UNL A   1      40.641  22.265  26.931  1.00  0.00     0.060 A 
ATOM      7  C   UNL A   1      40.181  23.442  26.339  1.00  0.00     0.016 A 
ATOM      8  C   UNL A   1      41.469  22.389  28.063  1.00  0.00     0.016 A 
ATOM      9  C   UNL A   1      40.550  24.693  26.812  1.00  0.00     0.010 A 
ATOM     10  C   UNL A   1      41.830  23.644  28.564  1.00  0.00     0.010 A 
ATOM     11  C   UNL A   1      41.377  24.801  27.924  1.00  0.00    -0.014 A 
BRANCH  11  12
ATOM     12  C   UNL A   1      41.841  26.150  28.288  1.00  0.00     0.031 A 
ATOM     13  C   UNL A   1      43.213  26.564  27.852  1.00  0.00     0.074 A 
ATOM     14  C   UNL A   1      40.974  27.020  28.836  1.00  0.00     0.049 A 
ATOM     15  N   UNL A   1      43.825  27.705  28.006  1.00  0.00    -0.248 NA
ATOM     16  C   UNL A   1      43.993  25.551  27.122  1.00  0.00     0.031 C 
ATOM     17  C   UNL A   1      39.576  26.720  29.157  1.00  0.00     0.029 A 
ATOM     18  N   UNL A   1      41.118  28.338  29.171  1.00  0.00    -0.354 N 
ATOM     19  C   UNL A   1      45.068  27.547  27.405  1.00  0.00     0.074 A 
ATOM     20  C   UNL A   1      45.128  26.192  26.902  1.00  0.00     0.031 C 
ATOM     21  C   UNL A   1      38.982  27.835  29.610  1.00  0.00     0.029 A 
ATOM     22  C   UNL A   1      39.969  28.907  29.672  1.00  0.00     0.049 A 
ATOM     23  H   UNL A   1      41.962  28.833  29.064  1.00  0.00     0.167 HD
ATOM     24  C   UNL A   1      46.065  28.458  27.295  1.00  0.00     0.034 A 
ATOM     25  C   UNL A   1      39.760  30.151  30.146  1.00  0.00     0.034 A 
ATOM     26  C   UNL A   1      45.968  29.789  27.839  1.00  0.00     0.049 A 
ATOM     27  C   UNL A   1      40.926  31.107  30.124  1.00  0.00     0.074 A 
ATOM     28  C   UNL A   1      46.926  30.783  27.888  1.00  0.00     0.029 A 
ATOM     29  N   UNL A   1      44.826  30.307  28.446  1.00  0.00    -0.354 N 
ATOM     30  N   UNL A   1      42.132  30.928  29.631  1.00  0.00    -0.248 NA
ATOM     31  C   UNL A   1      40.710  32.426  30.727  1.00  0.00     0.031 C 
ATOM     32  C   UNL A   1      46.386  31.876  28.578  1.00  0.00     0.029 A 
ATOM     33  C   UNL A   1      45.065  31.595  28.897  1.00  0.00     0.049 A 
ATOM     34  H   UNL A   1      43.971  29.828  28.541  1.00  0.00     0.167 HD
ATOM     35  C   UNL A   1      42.815  32.118  29.850  1.00  0.00     0.074 A 
ATOM     36  C   UNL A   1      41.875  33.015  30.498  1.00  0.00     0.031 C 
ATOM     37  C   UNL A   1      44.100  32.448  29.552  1.00  0.00     0.034 A 
BRANCH  24  38
ATOM     38  C   UNL A   1      47.351  27.976  26.668  1.00  0.00     0.023 A 
ATOM     39  C   UNL A   1      47.552  27.985  25.273  1.00  0.00     0.031 A 
ATOM     40  C   UNL A   1      48.342  27.380  27.469  1.00  0.00     0.131 A 
ATOM     41  C   UNL A   1      48.661  27.324  24.723  1.00  0.00     0.055 A 
ATOM     42  C   UNL A   1      49.485  26.800  26.919  1.00  0.00     0.041 A 
ATOM     43  F   UNL A   1      48.191  27.311  28.801  1.00  0.00    -0.206 F 
ATOM     44  C   UNL A   1      49.642  26.750  25.537  1.00  0.00     0.022 A 
BRANCH  41  45
ATOM     45  S   UNL A   1      48.714  27.058  22.926  1.00  0.00     0.124 S 
ATOM     46  O   UNL A   1      47.772  28.070  22.450  1.00  0.00    -0.237 OA
ATOM     47  O   UNL A   1      50.118  27.293  22.612  1.00  0.00    -0.237 OA
ATOM     48  O   UNL A   1      48.261  25.677  22.770  1.00  0.00    -0.744 OA
ENDBRANCH  41  45
ENDBRANCH  24  38
BRANCH  25  49
ATOM     49  C   UNL A   1      38.440  30.540  30.729  1.00  0.00     0.023 A 
ATOM     50  C   UNL A   1      37.536  31.353  30.027  1.00  0.00     0.031 A 
ATOM     51  C   UNL A   1      38.083  30.140  32.031  1.00  0.00     0.131 A 
ATOM     52  C   UNL A   1      36.343  31.770  30.641  1.00  0.00     0.055 A 
ATOM     53  C   UNL A   1      36.870  30.511  32.616  1.00  0.00     0.041 A 
ATOM     54  F   UNL A   1      38.911  29.374  32.760  1.00  0.00    -0.206 F 
ATOM     55  C   UNL A   1      35.998  31.341  31.925  1.00  0.00     0.022 A 
BRANCH  52  56
ATOM     56  S   UNL A   1      35.281  32.961  29.775  1.00  0.00     0.124 S 
ATOM     57  O   UNL A   1      36.099  34.168  29.809  1.00  0.00    -0.237 OA
ATOM     58  O   UNL A   1      35.120  32.332  28.469  1.00  0.00    -0.237 OA
ATOM     59  O   UNL A   1      34.074  33.004  30.598  1.00  0.00    -0.744 OA
ENDBRANCH  52  56
ENDBRANCH  25  49
BRANCH  37  60
ATOM     60  C   UNL A   1      44.526  33.851  29.902  1.00  0.00     0.023 A 
ATOM     61  C   UNL A   1      44.349  34.918  29.004  1.00  0.00     0.031 A 
ATOM     62  C   UNL A   1      45.133  34.115  31.141  1.00  0.00     0.131 A 
ATOM     63  C   UNL A   1      44.832  36.191  29.336  1.00  0.00     0.055 A 
ATOM     64  C   UNL A   1      45.557  35.397  31.490  1.00  0.00     0.041 A 
ATOM     65  F   UNL A   1      45.324  33.129  32.032  1.00  0.00    -0.206 F 
ATOM     66  C   UNL A   1      45.420  36.440  30.580  1.00  0.00     0.022 A 
BRANCH  63  67
ATOM     67  S   UNL A   1      44.768  37.497  28.080  1.00  0.00     0.124 S 
ATOM     68  O   UNL A   1      44.006  36.857  27.013  1.00  0.00    -0.237 OA
ATOM     69  O   UNL A   1      44.090  38.578  28.788  1.00  0.00    -0.237 OA
ATOM     70  O   UNL A   1      46.175  37.745  27.773  1.00  0.00    -0.744 OA
ENDBRANCH  63  67
ENDBRANCH  37  60
ENDBRANCH  11  12
ENDBRANCH   4   6
ENDBRANCH   3   4
ENDBRANCH   2   3
ENDBRANCH   1   2
BRANCH   1  71
ATOM     71  O   UNL A   1      36.801  21.941  25.778  1.00  0.00    -0.374 OA
BRANCH  71  72
ATOM     72  C   UNL A   1      35.417  22.271  25.660  1.00  0.00     0.202 C 
BRANCH  72  73
ATOM     73  C   UNL A   1      34.710  21.166  24.871  1.00  0.00     0.261 C 
BRANCH  73  74
ATOM     74  O   UNL A   1      33.866  21.787  23.889  1.00  0.00    -0.459 OA
BRANCH  74  75
ATOM     75  C   UNL A   1      32.581  21.323  23.860  1.00  0.00     0.357 C 
ATOM     76  O   UNL A   1      32.193  20.258  23.413  1.00  0.00    -0.244 OA
BRANCH  75  77
ATOM     77  C   UNL A   1      31.773  22.285  24.653  1.00  0.00     0.150 A 
ATOM     78  C   UNL A   1      31.986  23.640  24.489  1.00  0.00     0.062 A 
ATOM     79  N   UNL A   1      30.955  21.771  25.607  1.00  0.00    -0.249 NA
ATOM     80  C   UNL A   1      31.349  24.531  25.349  1.00  0.00     0.048 A 
ATOM     81  C   UNL A   1      30.368  22.648  26.444  1.00  0.00     0.114 A 
ATOM     82  C   UNL A   1      30.552  24.020  26.373  1.00  0.00     0.046 A 
BRANCH  80  83
ATOM     83  N   UNL A   1      31.508  25.933  25.146  1.00  0.00    -0.308 N 
ATOM     84  C   UNL A   1      32.730  26.587  25.623  1.00  0.00     0.161 C 
ATOM     85  C   UNL A   1      30.585  26.627  24.349  1.00  0.00     0.231 C 
ATOM     86  C   UNL A   1      32.508  28.035  25.969  1.00  0.00    -0.024 A 
ATOM     87  C   UNL A   1      30.896  28.079  24.069  1.00  0.00     0.136 C 
ATOM     88  O   UNL A   1      29.566  26.132  23.862  1.00  0.00    -0.274 OA
ATOM     89  C   UNL A   1      33.232  28.678  26.977  1.00  0.00     0.006 A 
ATOM     90  C   UNL A   1      31.580  28.765  25.213  1.00  0.00    -0.034 A 
ATOM     91  C   UNL A   1      32.996  30.025  27.256  1.00  0.00     0.000 A 
ATOM     92  C   UNL A   1      31.345  30.113  25.497  1.00  0.00     0.004 A 
ATOM     93  C   UNL A   1      32.045  30.737  26.525  1.00  0.00     0.000 A 
ENDBRANCH  80  83
ENDBRANCH  75  77
ENDBRANCH  74  75
ENDBRANCH  73  74
ENDBRANCH  72  73
ENDBRANCH  71  72
ENDBRANCH   1  71
TORSDOF 18
ENDMDL
