MODEL 1
REMARK VINA RESULT:     -11.4      0.000      0.000
REMARK SMILES O=C(Cc1ccccc1Nc1c(Cl)cccc1C(F)(F)F)OCCOCCOC(=O)c1ccc(-c2c3nc(c(-c4cc(S(=O)(=O)[O-])ccc4F)c4ccc([nH]4)c(-c4cc(S(=O)(=O)[O-])ccc4F)c4nc(c(-c5cc(S(=O)(=O)[O-])ccc5F)c5ccc2[nH]5)C=C4)C=C3)cc1
REMARK SMILES IDX 24 1 23 2 22 3 2 4 1 5 3 6 4 7 5 8 9 9 6 10 8 11 7 12 10 13
REMARK SMILES IDX 11 15 12 16 17 17 13 18 14 19 16 20 15 21 18 22 19 23 20 24
REMARK SMILES IDX 21 25 25 26 26 27 27 28 28 29 29 30 30 31 31 32 32 33 93 34
REMARK SMILES IDX 33 35 92 36 34 37 35 38 36 39 86 40 37 41 91 42 85 43 87 44
REMARK SMILES IDX 38 45 90 46 84 47 83 48 39 50 71 51 51 52 70 53 52 54 55 55
REMARK SMILES IDX 69 56 88 57 53 58 54 59 68 61 89 62 56 63 40 64 41 65 49 66
REMARK SMILES IDX 42 67 48 68 50 69 47 70 43 71 44 72 45 73 46 74 72 75 73 76
REMARK SMILES IDX 81 77 74 78 80 79 82 80 79 81 75 82 76 83 77 84 78 85 57 86
REMARK SMILES IDX 58 87 66 88 59 89 65 90 67 91 64 92 60 93 61 94 62 95 63 96
REMARK H PARENT 10 14 87 49 55 60
REMARK Flexibility Score: inf
ROOT
ATOM      1  C   UNL A   1      32.582  29.815  25.770  1.00  0.00     0.202 C 
ENDROOT
BRANCH   1   2
ATOM      2  C   UNL A   1      33.097  28.432  26.176  1.00  0.00     0.261 C 
BRANCH   2   3
ATOM      3  O   UNL A   1      32.108  27.403  26.285  1.00  0.00    -0.463 OA
BRANCH   3   4
ATOM      4  C   UNL A   1      32.379  26.082  26.288  1.00  0.00     0.310 C 
ATOM      5  O   UNL A   1      31.597  25.298  26.833  1.00  0.00    -0.252 OA
BRANCH   4   6
ATOM      6  C   UNL A   1      33.639  25.538  25.651  1.00  0.00     0.160 C 
BRANCH   6   7
ATOM      7  C   UNL A   1      33.515  25.112  24.209  1.00  0.00    -0.013 A 
ATOM      8  C   UNL A   1      33.259  26.110  23.250  1.00  0.00     0.006 A 
ATOM      9  C   UNL A   1      33.610  23.757  23.823  1.00  0.00     0.042 A 
ATOM     10  C   UNL A   1      33.031  25.771  21.922  1.00  0.00     0.000 A 
ATOM     11  C   UNL A   1      33.348  23.439  22.483  1.00  0.00     0.026 A 
ATOM     12  C   UNL A   1      33.061  24.434  21.542  1.00  0.00     0.002 A 
BRANCH   9  13
ATOM     13  N   UNL A   1      33.883  22.763  24.779  1.00  0.00    -0.354 N 
ATOM     14  H   UNL A   1      33.484  22.929  25.663  1.00  0.00     0.167 HD
BRANCH  13  15
ATOM     15  C   UNL A   1      34.626  21.572  24.691  1.00  0.00     0.070 A 
ATOM     16  C   UNL A   1      33.948  20.335  24.599  1.00  0.00     0.065 A 
ATOM     17  C   UNL A   1      36.011  21.571  24.938  1.00  0.00     0.080 A 
ATOM     18  Cl  UNL A   1      32.227  20.270  24.415  1.00  0.00    -0.082 Cl
ATOM     19  C   UNL A   1      34.638  19.127  24.674  1.00  0.00     0.023 A 
ATOM     20  C   UNL A   1      36.696  20.341  24.986  1.00  0.00     0.015 A 
ATOM     21  C   UNL A   1      36.016  19.130  24.857  1.00  0.00     0.002 A 
BRANCH  17  22
ATOM     22  C   UNL A   1      36.780  22.849  25.173  1.00  0.00     0.418 C 
ATOM     23  F   UNL A   1      36.277  23.571  26.223  1.00  0.00    -0.166 F 
ATOM     24  F   UNL A   1      38.087  22.636  25.487  1.00  0.00    -0.166 F 
ATOM     25  F   UNL A   1      36.767  23.723  24.125  1.00  0.00    -0.166 F 
ENDBRANCH  17  22
ENDBRANCH  13  15
ENDBRANCH   9  13
ENDBRANCH   6   7
ENDBRANCH   4   6
ENDBRANCH   3   4
ENDBRANCH   2   3
ENDBRANCH   1   2
BRANCH   1  26
ATOM     26  O   UNL A   1      31.587  30.459  26.556  1.00  0.00    -0.374 OA
BRANCH  26  27
ATOM     27  C   UNL A   1      31.132  31.764  26.197  1.00  0.00     0.202 C 
BRANCH  27  28
ATOM     28  C   UNL A   1      31.776  33.002  26.820  1.00  0.00     0.261 C 
BRANCH  28  29
ATOM     29  O   UNL A   1      32.702  32.688  27.865  1.00  0.00    -0.460 OA
BRANCH  29  30
ATOM     30  C   UNL A   1      33.721  33.568  27.972  1.00  0.00     0.338 C 
ATOM     31  O   UNL A   1      33.629  34.786  28.101  1.00  0.00    -0.246 OA
BRANCH  30  32
ATOM     32  C   UNL A   1      34.993  32.852  28.124  1.00  0.00     0.060 A 
ATOM     33  C   UNL A   1      34.929  31.472  28.360  1.00  0.00     0.016 A 
ATOM     34  C   UNL A   1      36.214  33.531  28.140  1.00  0.00     0.016 A 
ATOM     35  C   UNL A   1      36.079  30.779  28.709  1.00  0.00     0.010 A 
ATOM     36  C   UNL A   1      37.367  32.834  28.500  1.00  0.00     0.010 A 
ATOM     37  C   UNL A   1      37.287  31.474  28.846  1.00  0.00    -0.014 A 
BRANCH  37  38
ATOM     38  C   UNL A   1      38.387  30.825  29.591  1.00  0.00     0.031 A 
ATOM     39  C   UNL A   1      38.542  31.156  31.051  1.00  0.00     0.074 A 
ATOM     40  C   UNL A   1      39.172  29.914  28.995  1.00  0.00     0.049 A 
ATOM     41  N   UNL A   1      39.415  30.715  31.917  1.00  0.00    -0.248 NA
ATOM     42  C   UNL A   1      37.580  32.122  31.605  1.00  0.00     0.031 C 
ATOM     43  C   UNL A   1      39.055  29.483  27.603  1.00  0.00     0.029 A 
ATOM     44  N   UNL A   1      40.215  29.179  29.491  1.00  0.00    -0.354 N 
ATOM     45  C   UNL A   1      39.115  31.356  33.115  1.00  0.00     0.074 A 
ATOM     46  C   UNL A   1      38.007  32.247  32.851  1.00  0.00     0.031 C 
ATOM     47  C   UNL A   1      39.992  28.551  27.356  1.00  0.00     0.029 A 
ATOM     48  C   UNL A   1      40.795  28.350  28.561  1.00  0.00     0.049 A 
ATOM     49  H   UNL A   1      40.521  29.238  30.425  1.00  0.00     0.167 HD
ATOM     50  C   UNL A   1      39.707  31.206  34.324  1.00  0.00     0.034 A 
ATOM     51  C   UNL A   1      41.862  27.537  28.675  1.00  0.00     0.034 A 
ATOM     52  C   UNL A   1      40.818  30.313  34.553  1.00  0.00     0.049 A 
ATOM     53  C   UNL A   1      42.560  27.450  30.011  1.00  0.00     0.074 A 
ATOM     54  C   UNL A   1      41.496  30.064  35.731  1.00  0.00     0.029 A 
ATOM     55  N   UNL A   1      41.421  29.532  33.573  1.00  0.00    -0.354 N 
ATOM     56  N   UNL A   1      42.267  28.055  31.141  1.00  0.00    -0.248 NA
ATOM     57  C   UNL A   1      43.723  26.559  30.089  1.00  0.00     0.031 C 
ATOM     58  C   UNL A   1      42.557  29.195  35.448  1.00  0.00     0.029 A 
ATOM     59  C   UNL A   1      42.487  28.829  34.112  1.00  0.00     0.049 A 
ATOM     60  H   UNL A   1      41.132  29.485  32.633  1.00  0.00     0.167 HD
ATOM     61  C   UNL A   1      43.190  27.586  32.074  1.00  0.00     0.074 A 
ATOM     62  C   UNL A   1      44.036  26.639  31.373  1.00  0.00     0.031 C 
ATOM     63  C   UNL A   1      43.325  27.900  33.389  1.00  0.00     0.034 A 
BRANCH  50  64
ATOM     64  C   UNL A   1      39.207  32.076  35.456  1.00  0.00     0.023 A 
ATOM     65  C   UNL A   1      39.619  33.413  35.610  1.00  0.00     0.031 A 
ATOM     66  C   UNL A   1      38.347  31.539  36.430  1.00  0.00     0.131 A 
ATOM     67  C   UNL A   1      39.236  34.138  36.750  1.00  0.00     0.055 A 
ATOM     68  C   UNL A   1      37.900  32.293  37.518  1.00  0.00     0.041 A 
ATOM     69  F   UNL A   1      37.943  30.262  36.355  1.00  0.00    -0.206 F 
ATOM     70  C   UNL A   1      38.359  33.595  37.692  1.00  0.00     0.022 A 
BRANCH  67  71
ATOM     71  S   UNL A   1      40.031  35.737  37.071  1.00  0.00     0.124 S 
ATOM     72  O   UNL A   1      39.660  36.495  35.879  1.00  0.00    -0.237 OA
ATOM     73  O   UNL A   1      39.403  36.157  38.317  1.00  0.00    -0.237 OA
ATOM     74  O   UNL A   1      41.450  35.401  37.169  1.00  0.00    -0.744 OA
ENDBRANCH  67  71
ENDBRANCH  50  64
BRANCH  51  75
ATOM     75  C   UNL A   1      42.351  26.761  27.501  1.00  0.00     0.023 A 
ATOM     76  C   UNL A   1      42.074  25.390  27.373  1.00  0.00     0.031 A 
ATOM     77  C   UNL A   1      43.142  27.368  26.510  1.00  0.00     0.131 A 
ATOM     78  C   UNL A   1      42.622  24.663  26.306  1.00  0.00     0.055 A 
ATOM     79  C   UNL A   1      43.639  26.652  25.420  1.00  0.00     0.041 A 
ATOM     80  F   UNL A   1      43.438  28.676  26.582  1.00  0.00    -0.206 F 
ATOM     81  C   UNL A   1      43.392  25.287  25.321  1.00  0.00     0.022 A 
BRANCH  78  82
ATOM     82  S   UNL A   1      42.385  22.866  26.270  1.00  0.00     0.124 S 
ATOM     83  O   UNL A   1      42.748  22.546  24.894  1.00  0.00    -0.237 OA
ATOM     84  O   UNL A   1      43.315  22.417  27.301  1.00  0.00    -0.237 OA
ATOM     85  O   UNL A   1      40.969  22.703  26.597  1.00  0.00    -0.744 OA
ENDBRANCH  78  82
ENDBRANCH  51  75
BRANCH  63  86
ATOM     86  C   UNL A   1      44.397  27.165  34.158  1.00  0.00     0.023 A 
ATOM     87  C   UNL A   1      44.261  25.811  34.511  1.00  0.00     0.031 A 
ATOM     88  C   UNL A   1      45.562  27.839  34.564  1.00  0.00     0.131 A 
ATOM     89  C   UNL A   1      45.237  25.196  35.310  1.00  0.00     0.055 A 
ATOM     90  C   UNL A   1      46.565  27.203  35.296  1.00  0.00     0.041 A 
ATOM     91  F   UNL A   1      45.745  29.134  34.257  1.00  0.00    -0.206 F 
ATOM     92  C   UNL A   1      46.396  25.878  35.689  1.00  0.00     0.022 A 
BRANCH  89  93
ATOM     93  S   UNL A   1      44.913  23.531  35.951  1.00  0.00     0.124 S 
ATOM     94  O   UNL A   1      45.890  22.730  35.220  1.00  0.00    -0.237 OA
ATOM     95  O   UNL A   1      45.164  23.693  37.379  1.00  0.00    -0.237 OA
ATOM     96  O   UNL A   1      43.518  23.289  35.591  1.00  0.00    -0.744 OA
ENDBRANCH  89  93
ENDBRANCH  63  86
ENDBRANCH  37  38
ENDBRANCH  30  32
ENDBRANCH  29  30
ENDBRANCH  28  29
ENDBRANCH  27  28
ENDBRANCH  26  27
ENDBRANCH   1  26
TORSDOF 21
ENDMDL
MODEL 2
REMARK VINA RESULT:     -11.2      1.074      7.679
REMARK SMILES O=C(Cc1ccccc1Nc1c(Cl)cccc1C(F)(F)F)OCCOCCOC(=O)c1ccc(-c2c3nc(c(-c4cc(S(=O)(=O)[O-])ccc4F)c4ccc([nH]4)c(-c4cc(S(=O)(=O)[O-])ccc4F)c4nc(c(-c5cc(S(=O)(=O)[O-])ccc5F)c5ccc2[nH]5)C=C4)C=C3)cc1
REMARK SMILES IDX 24 1 23 2 22 3 2 4 1 5 3 6 4 7 5 8 9 9 6 10 8 11 7 12 10 13
REMARK SMILES IDX 11 15 12 16 17 17 13 18 14 19 16 20 15 21 18 22 19 23 20 24
REMARK SMILES IDX 21 25 25 26 26 27 27 28 28 29 29 30 30 31 31 32 32 33 93 34
REMARK SMILES IDX 33 35 92 36 34 37 35 38 36 39 86 40 37 41 91 42 85 43 87 44
REMARK SMILES IDX 38 45 90 46 84 47 83 48 39 50 71 51 51 52 70 53 52 54 55 55
REMARK SMILES IDX 69 56 88 57 53 58 54 59 68 61 89 62 56 63 40 64 41 65 49 66
REMARK SMILES IDX 42 67 48 68 50 69 47 70 43 71 44 72 45 73 46 74 72 75 73 76
REMARK SMILES IDX 81 77 74 78 80 79 82 80 79 81 75 82 76 83 77 84 78 85 57 86
REMARK SMILES IDX 58 87 66 88 59 89 65 90 67 91 64 92 60 93 61 94 62 95 63 96
REMARK H PARENT 10 14 87 49 55 60
REMARK Flexibility Score: inf
ROOT
ATOM      1  C   UNL A   1      32.634  30.088  25.940  1.00  0.00     0.202 C 
ENDROOT
BRANCH   1   2
ATOM      2  C   UNL A   1      32.847  29.249  27.202  1.00  0.00     0.261 C 
BRANCH   2   3
ATOM      3  O   UNL A   1      31.975  28.126  27.362  1.00  0.00    -0.463 OA
BRANCH   3   4
ATOM      4  C   UNL A   1      32.086  26.970  26.674  1.00  0.00     0.310 C 
ATOM      5  O   UNL A   1      31.096  26.247  26.529  1.00  0.00    -0.252 OA
BRANCH   4   6
ATOM      6  C   UNL A   1      33.410  26.528  26.092  1.00  0.00     0.160 C 
BRANCH   6   7
ATOM      7  C   UNL A   1      33.417  26.256  24.608  1.00  0.00    -0.013 A 
ATOM      8  C   UNL A   1      33.042  27.305  23.747  1.00  0.00     0.006 A 
ATOM      9  C   UNL A   1      33.748  24.987  24.085  1.00  0.00     0.042 A 
ATOM     10  C   UNL A   1      32.927  27.090  22.379  1.00  0.00     0.000 A 
ATOM     11  C   UNL A   1      33.597  24.788  22.706  1.00  0.00     0.026 A 
ATOM     12  C   UNL A   1      33.191  25.827  21.861  1.00  0.00     0.002 A 
BRANCH   9  13
ATOM     13  N   UNL A   1      34.140  23.946  24.944  1.00  0.00    -0.354 N 
ATOM     14  H   UNL A   1      34.603  24.244  25.760  1.00  0.00     0.167 HD
BRANCH  13  15
ATOM     15  C   UNL A   1      33.984  22.551  24.841  1.00  0.00     0.070 A 
ATOM     16  C   UNL A   1      32.755  21.960  25.216  1.00  0.00     0.065 A 
ATOM     17  C   UNL A   1      35.095  21.721  24.610  1.00  0.00     0.080 A 
ATOM     18  Cl  UNL A   1      31.384  22.933  25.629  1.00  0.00    -0.082 Cl
ATOM     19  C   UNL A   1      32.612  20.576  25.284  1.00  0.00     0.023 A 
ATOM     20  C   UNL A   1      34.926  20.323  24.659  1.00  0.00     0.015 A 
ATOM     21  C   UNL A   1      33.697  19.755  24.995  1.00  0.00     0.002 A 
BRANCH  17  22
ATOM     22  C   UNL A   1      36.468  22.285  24.330  1.00  0.00     0.418 C 
ATOM     23  F   UNL A   1      37.440  21.321  24.360  1.00  0.00    -0.166 F 
ATOM     24  F   UNL A   1      36.570  22.850  23.096  1.00  0.00    -0.166 F 
ATOM     25  F   UNL A   1      36.893  23.222  25.225  1.00  0.00    -0.166 F 
ENDBRANCH  17  22
ENDBRANCH  13  15
ENDBRANCH   9  13
ENDBRANCH   6   7
ENDBRANCH   4   6
ENDBRANCH   3   4
ENDBRANCH   2   3
ENDBRANCH   1   2
BRANCH   1  26
ATOM     26  O   UNL A   1      31.381  30.720  25.713  1.00  0.00    -0.374 OA
BRANCH  26  27
ATOM     27  C   UNL A   1      31.012  31.865  26.484  1.00  0.00     0.202 C 
BRANCH  27  28
ATOM     28  C   UNL A   1      31.979  33.039  26.629  1.00  0.00     0.261 C 
BRANCH  28  29
ATOM     29  O   UNL A   1      32.189  33.427  27.991  1.00  0.00    -0.460 OA
BRANCH  29  30
ATOM     30  C   UNL A   1      33.274  34.212  28.171  1.00  0.00     0.338 C 
ATOM     31  O   UNL A   1      33.285  35.435  28.284  1.00  0.00    -0.246 OA
BRANCH  30  32
ATOM     32  C   UNL A   1      34.459  33.385  28.425  1.00  0.00     0.060 A 
ATOM     33  C   UNL A   1      34.254  32.135  29.025  1.00  0.00     0.016 A 
ATOM     34  C   UNL A   1      35.749  33.864  28.179  1.00  0.00     0.016 A 
ATOM     35  C   UNL A   1      35.341  31.398  29.470  1.00  0.00     0.010 A 
ATOM     36  C   UNL A   1      36.840  33.126  28.636  1.00  0.00     0.010 A 
ATOM     37  C   UNL A   1      36.631  31.925  29.337  1.00  0.00    -0.014 A 
BRANCH  37  38
ATOM     38  C   UNL A   1      37.715  31.338  30.155  1.00  0.00     0.031 A 
ATOM     39  C   UNL A   1      38.605  30.309  29.513  1.00  0.00     0.074 A 
ATOM     40  C   UNL A   1      37.937  31.771  31.406  1.00  0.00     0.049 A 
ATOM     41  N   UNL A   1      39.623  29.660  30.013  1.00  0.00    -0.248 NA
ATOM     42  C   UNL A   1      38.300  29.965  28.115  1.00  0.00     0.031 C 
ATOM     43  C   UNL A   1      37.166  32.809  32.088  1.00  0.00     0.029 A 
ATOM     44  N   UNL A   1      38.885  31.396  32.320  1.00  0.00    -0.354 N 
ATOM     45  C   UNL A   1      40.073  28.823  28.996  1.00  0.00     0.074 A 
ATOM     46  C   UNL A   1      39.190  29.018  27.867  1.00  0.00     0.031 C 
ATOM     47  C   UNL A   1      37.678  32.993  33.317  1.00  0.00     0.029 A 
ATOM     48  C   UNL A   1      38.785  32.060  33.519  1.00  0.00     0.049 A 
ATOM     49  H   UNL A   1      39.574  30.718  32.136  1.00  0.00     0.167 HD
ATOM     50  C   UNL A   1      41.131  27.976  29.005  1.00  0.00     0.034 A 
ATOM     51  C   UNL A   1      39.500  31.913  34.651  1.00  0.00     0.034 A 
ATOM     52  C   UNL A   1      41.989  27.799  30.152  1.00  0.00     0.049 A 
ATOM     53  C   UNL A   1      40.622  30.902  34.665  1.00  0.00     0.074 A 
ATOM     54  C   UNL A   1      43.096  26.983  30.283  1.00  0.00     0.029 A 
ATOM     55  N   UNL A   1      41.821  28.443  31.374  1.00  0.00    -0.354 N 
ATOM     56  N   UNL A   1      41.046  30.118  33.698  1.00  0.00    -0.248 NA
ATOM     57  C   UNL A   1      41.370  30.768  35.920  1.00  0.00     0.031 C 
ATOM     58  C   UNL A   1      43.550  27.073  31.605  1.00  0.00     0.029 A 
ATOM     59  C   UNL A   1      42.783  28.014  32.275  1.00  0.00     0.049 A 
ATOM     60  H   UNL A   1      41.121  29.107  31.569  1.00  0.00     0.167 HD
ATOM     61  C   UNL A   1      42.135  29.425  34.220  1.00  0.00     0.074 A 
ATOM     62  C   UNL A   1      42.308  29.897  35.580  1.00  0.00     0.031 C 
ATOM     63  C   UNL A   1      42.927  28.490  33.632  1.00  0.00     0.034 A 
BRANCH  50  64
ATOM     64  C   UNL A   1      41.362  27.140  27.767  1.00  0.00     0.023 A 
ATOM     65  C   UNL A   1      41.033  25.773  27.715  1.00  0.00     0.031 A 
ATOM     66  C   UNL A   1      41.976  27.709  26.637  1.00  0.00     0.131 A 
ATOM     67  C   UNL A   1      41.392  25.007  26.594  1.00  0.00     0.055 A 
ATOM     68  C   UNL A   1      42.253  26.961  25.491  1.00  0.00     0.041 A 
ATOM     69  F   UNL A   1      42.341  29.001  26.636  1.00  0.00    -0.206 F 
ATOM     70  C   UNL A   1      41.977  25.598  25.471  1.00  0.00     0.022 A 
BRANCH  67  71
ATOM     71  S   UNL A   1      41.236  23.202  26.688  1.00  0.00     0.124 S 
ATOM     72  O   UNL A   1      39.829  23.008  26.349  1.00  0.00    -0.237 OA
ATOM     73  O   UNL A   1      42.203  22.749  25.695  1.00  0.00    -0.237 OA
ATOM     74  O   UNL A   1      41.581  22.901  28.077  1.00  0.00    -0.744 OA
ENDBRANCH  67  71
ENDBRANCH  50  64
BRANCH  51  75
ATOM     75  C   UNL A   1      39.174  32.716  35.862  1.00  0.00     0.023 A 
ATOM     76  C   UNL A   1      39.652  34.028  36.011  1.00  0.00     0.031 A 
ATOM     77  C   UNL A   1      38.417  32.168  36.912  1.00  0.00     0.131 A 
ATOM     78  C   UNL A   1      39.407  34.731  37.201  1.00  0.00     0.055 A 
ATOM     79  C   UNL A   1      38.129  32.891  38.071  1.00  0.00     0.041 A 
ATOM     80  F   UNL A   1      37.936  30.917  36.823  1.00  0.00    -0.206 F 
ATOM     81  C   UNL A   1      38.638  34.176  38.227  1.00  0.00     0.022 A 
BRANCH  78  82
ATOM     82  S   UNL A   1      40.184  36.353  37.425  1.00  0.00     0.124 S 
ATOM     83  O   UNL A   1      40.062  36.928  36.090  1.00  0.00    -0.237 OA
ATOM     84  O   UNL A   1      39.347  36.949  38.461  1.00  0.00    -0.237 OA
ATOM     85  O   UNL A   1      41.547  36.024  37.841  1.00  0.00    -0.744 OA
ENDBRANCH  78  82
ENDBRANCH  51  75
BRANCH  63  86
ATOM     86  C   UNL A   1      44.082  27.964  34.450  1.00  0.00     0.023 A 
ATOM     87  C   UNL A   1      44.011  26.736  35.130  1.00  0.00     0.031 A 
ATOM     88  C   UNL A   1      45.263  28.717  34.570  1.00  0.00     0.131 A 
ATOM     89  C   UNL A   1      45.070  26.333  35.957  1.00  0.00     0.055 A 
ATOM     90  C   UNL A   1      46.343  28.277  35.335  1.00  0.00     0.041 A 
ATOM     91  F   UNL A   1      45.387  29.899  33.944  1.00  0.00    -0.206 F 
ATOM     92  C   UNL A   1      46.243  27.087  36.050  1.00  0.00     0.022 A 
BRANCH  89  93
ATOM     93  S   UNL A   1      44.845  24.872  37.008  1.00  0.00     0.124 S 
ATOM     94  O   UNL A   1      46.175  24.270  36.978  1.00  0.00    -0.237 OA
ATOM     95  O   UNL A   1      44.443  25.463  38.280  1.00  0.00    -0.237 OA
ATOM     96  O   UNL A   1      43.804  24.112  36.321  1.00  0.00    -0.744 OA
ENDBRANCH  89  93
ENDBRANCH  63  86
ENDBRANCH  37  38
ENDBRANCH  30  32
ENDBRANCH  29  30
ENDBRANCH  28  29
ENDBRANCH  27  28
ENDBRANCH  26  27
ENDBRANCH   1  26
TORSDOF 21
ENDMDL
MODEL 3
REMARK VINA RESULT:     -11.0      1.754      2.088
REMARK SMILES O=C(Cc1ccccc1Nc1c(Cl)cccc1C(F)(F)F)OCCOCCOC(=O)c1ccc(-c2c3nc(c(-c4cc(S(=O)(=O)[O-])ccc4F)c4ccc([nH]4)c(-c4cc(S(=O)(=O)[O-])ccc4F)c4nc(c(-c5cc(S(=O)(=O)[O-])ccc5F)c5ccc2[nH]5)C=C4)C=C3)cc1
REMARK SMILES IDX 24 1 23 2 22 3 2 4 1 5 3 6 4 7 5 8 9 9 6 10 8 11 7 12 10 13
REMARK SMILES IDX 11 15 12 16 17 17 13 18 14 19 16 20 15 21 18 22 19 23 20 24
REMARK SMILES IDX 21 25 25 26 26 27 27 28 28 29 29 30 30 31 31 32 32 33 93 34
REMARK SMILES IDX 33 35 92 36 34 37 35 38 36 39 86 40 37 41 91 42 85 43 87 44
REMARK SMILES IDX 38 45 90 46 84 47 83 48 39 50 71 51 51 52 70 53 52 54 55 55
REMARK SMILES IDX 69 56 88 57 53 58 54 59 68 61 89 62 56 63 40 64 41 65 49 66
REMARK SMILES IDX 42 67 48 68 50 69 47 70 43 71 44 72 45 73 46 74 72 75 73 76
REMARK SMILES IDX 81 77 74 78 80 79 82 80 79 81 75 82 76 83 77 84 78 85 57 86
REMARK SMILES IDX 58 87 66 88 59 89 65 90 67 91 64 92 60 93 61 94 62 95 63 96
REMARK H PARENT 10 14 87 49 55 60
REMARK Flexibility Score: inf
ROOT
ATOM      1  C   UNL A   1      32.641  29.679  25.756  1.00  0.00     0.202 C 
ENDROOT
BRANCH   1   2
ATOM      2  C   UNL A   1      33.147  28.307  26.208  1.00  0.00     0.261 C 
BRANCH   2   3
ATOM      3  O   UNL A   1      32.139  27.359  26.575  1.00  0.00    -0.463 OA
BRANCH   3   4
ATOM      4  C   UNL A   1      32.262  26.022  26.435  1.00  0.00     0.310 C 
ATOM      5  O   UNL A   1      31.325  25.286  26.757  1.00  0.00    -0.252 OA
BRANCH   4   6
ATOM      6  C   UNL A   1      33.537  25.402  25.909  1.00  0.00     0.160 C 
BRANCH   6   7
ATOM      7  C   UNL A   1      33.489  24.910  24.485  1.00  0.00    -0.013 A 
ATOM      8  C   UNL A   1      33.078  25.818  23.490  1.00  0.00     0.006 A 
ATOM      9  C   UNL A   1      33.805  23.576  24.147  1.00  0.00     0.042 A 
ATOM     10  C   UNL A   1      32.912  25.399  22.176  1.00  0.00     0.000 A 
ATOM     11  C   UNL A   1      33.603  23.171  22.820  1.00  0.00     0.026 A 
ATOM     12  C   UNL A   1      33.161  24.072  21.845  1.00  0.00     0.002 A 
BRANCH   9  13
ATOM     13  N   UNL A   1      34.233  22.675  25.137  1.00  0.00    -0.354 N 
ATOM     14  H   UNL A   1      33.681  22.674  25.952  1.00  0.00     0.167 HD
BRANCH  13  15
ATOM     15  C   UNL A   1      35.313  21.773  25.165  1.00  0.00     0.070 A 
ATOM     16  C   UNL A   1      36.636  22.273  25.151  1.00  0.00     0.065 A 
ATOM     17  C   UNL A   1      35.105  20.398  24.959  1.00  0.00     0.080 A 
ATOM     18  Cl  UNL A   1      36.952  23.971  25.279  1.00  0.00    -0.082 Cl
ATOM     19  C   UNL A   1      37.728  21.419  25.013  1.00  0.00     0.023 A 
ATOM     20  C   UNL A   1      36.221  19.546  24.847  1.00  0.00     0.015 A 
ATOM     21  C   UNL A   1      37.521  20.052  24.872  1.00  0.00     0.002 A 
BRANCH  17  22
ATOM     22  C   UNL A   1      33.718  19.812  24.837  1.00  0.00     0.418 C 
ATOM     23  F   UNL A   1      33.739  18.444  24.766  1.00  0.00    -0.166 F 
ATOM     24  F   UNL A   1      32.922  20.098  25.902  1.00  0.00    -0.166 F 
ATOM     25  F   UNL A   1      33.033  20.197  23.722  1.00  0.00    -0.166 F 
ENDBRANCH  17  22
ENDBRANCH  13  15
ENDBRANCH   9  13
ENDBRANCH   6   7
ENDBRANCH   4   6
ENDBRANCH   3   4
ENDBRANCH   2   3
ENDBRANCH   1   2
BRANCH   1  26
ATOM     26  O   UNL A   1      31.529  30.275  26.412  1.00  0.00    -0.374 OA
BRANCH  26  27
ATOM     27  C   UNL A   1      31.158  31.619  26.104  1.00  0.00     0.202 C 
BRANCH  27  28
ATOM     28  C   UNL A   1      31.788  32.785  26.863  1.00  0.00     0.261 C 
BRANCH  28  29
ATOM     29  O   UNL A   1      32.804  32.373  27.783  1.00  0.00    -0.460 OA
BRANCH  29  30
ATOM     30  C   UNL A   1      33.761  33.304  27.990  1.00  0.00     0.338 C 
ATOM     31  O   UNL A   1      33.588  34.501  28.200  1.00  0.00    -0.246 OA
BRANCH  30  32
ATOM     32  C   UNL A   1      35.070  32.657  28.141  1.00  0.00     0.060 A 
ATOM     33  C   UNL A   1      35.090  31.259  28.230  1.00  0.00     0.016 A 
ATOM     34  C   UNL A   1      36.239  33.406  28.296  1.00  0.00     0.016 A 
ATOM     35  C   UNL A   1      36.265  30.607  28.571  1.00  0.00     0.010 A 
ATOM     36  C   UNL A   1      37.418  32.750  28.649  1.00  0.00     0.010 A 
ATOM     37  C   UNL A   1      37.414  31.358  28.848  1.00  0.00    -0.014 A 
BRANCH  37  38
ATOM     38  C   UNL A   1      38.517  30.704  29.585  1.00  0.00     0.031 A 
ATOM     39  C   UNL A   1      38.692  31.045  31.041  1.00  0.00     0.074 A 
ATOM     40  C   UNL A   1      39.286  29.782  28.986  1.00  0.00     0.049 A 
ATOM     41  N   UNL A   1      39.572  30.602  31.899  1.00  0.00    -0.248 NA
ATOM     42  C   UNL A   1      37.746  32.023  31.599  1.00  0.00     0.031 C 
ATOM     43  C   UNL A   1      39.149  29.342  27.599  1.00  0.00     0.029 A 
ATOM     44  N   UNL A   1      40.329  29.041  29.476  1.00  0.00    -0.354 N 
ATOM     45  C   UNL A   1      39.291  31.254  33.096  1.00  0.00     0.074 A 
ATOM     46  C   UNL A   1      38.189  32.154  32.839  1.00  0.00     0.031 C 
ATOM     47  C   UNL A   1      40.074  28.400  27.349  1.00  0.00     0.029 A 
ATOM     48  C   UNL A   1      40.890  28.201  28.545  1.00  0.00     0.049 A 
ATOM     49  H   UNL A   1      40.646  29.105  30.405  1.00  0.00     0.167 HD
ATOM     50  C   UNL A   1      39.897  31.108  34.299  1.00  0.00     0.034 A 
ATOM     51  C   UNL A   1      41.951  27.379  28.652  1.00  0.00     0.034 A 
ATOM     52  C   UNL A   1      41.002  30.207  34.522  1.00  0.00     0.049 A 
ATOM     53  C   UNL A   1      42.664  27.294  29.981  1.00  0.00     0.074 A 
ATOM     54  C   UNL A   1      41.692  29.959  35.693  1.00  0.00     0.029 A 
ATOM     55  N   UNL A   1      41.586  29.413  33.540  1.00  0.00    -0.354 N 
ATOM     56  N   UNL A   1      42.390  27.910  31.110  1.00  0.00    -0.248 NA
ATOM     57  C   UNL A   1      43.819  26.394  30.051  1.00  0.00     0.031 C 
ATOM     58  C   UNL A   1      42.742  29.079  35.404  1.00  0.00     0.029 A 
ATOM     59  C   UNL A   1      42.653  28.704  34.072  1.00  0.00     0.049 A 
ATOM     60  H   UNL A   1      41.286  29.362  32.604  1.00  0.00     0.167 HD
ATOM     61  C   UNL A   1      43.320  27.439  32.034  1.00  0.00     0.074 A 
ATOM     62  C   UNL A   1      44.148  26.481  31.331  1.00  0.00     0.031 C 
ATOM     63  C   UNL A   1      43.473  27.762  33.346  1.00  0.00     0.034 A 
BRANCH  50  64
ATOM     64  C   UNL A   1      39.419  31.991  35.430  1.00  0.00     0.023 A 
ATOM     65  C   UNL A   1      39.976  33.259  35.676  1.00  0.00     0.031 A 
ATOM     66  C   UNL A   1      38.425  31.529  36.312  1.00  0.00     0.131 A 
ATOM     67  C   UNL A   1      39.595  33.983  36.818  1.00  0.00     0.055 A 
ATOM     68  C   UNL A   1      37.989  32.291  37.398  1.00  0.00     0.041 A 
ATOM     69  F   UNL A   1      37.876  30.316  36.149  1.00  0.00    -0.206 F 
ATOM     70  C   UNL A   1      38.587  33.519  37.666  1.00  0.00     0.022 A 
BRANCH  67  71
ATOM     71  S   UNL A   1      40.550  35.458  37.271  1.00  0.00     0.124 S 
ATOM     72  O   UNL A   1      39.720  36.527  36.723  1.00  0.00    -0.237 OA
ATOM     73  O   UNL A   1      40.600  35.367  38.725  1.00  0.00    -0.237 OA
ATOM     74  O   UNL A   1      41.828  35.261  36.589  1.00  0.00    -0.744 OA
ENDBRANCH  67  71
ENDBRANCH  50  64
BRANCH  51  75
ATOM     75  C   UNL A   1      42.419  26.589  27.478  1.00  0.00     0.023 A 
ATOM     76  C   UNL A   1      42.052  25.244  27.318  1.00  0.00     0.031 A 
ATOM     77  C   UNL A   1      43.279  27.156  26.521  1.00  0.00     0.131 A 
ATOM     78  C   UNL A   1      42.579  24.497  26.253  1.00  0.00     0.055 A 
ATOM     79  C   UNL A   1      43.757  26.425  25.432  1.00  0.00     0.041 A 
ATOM     80  F   UNL A   1      43.663  28.439  26.626  1.00  0.00    -0.206 F 
ATOM     81  C   UNL A   1      43.418  25.082  25.301  1.00  0.00     0.022 A 
BRANCH  78  82
ATOM     82  S   UNL A   1      42.218  22.722  26.177  1.00  0.00     0.124 S 
ATOM     83  O   UNL A   1      40.767  22.707  26.326  1.00  0.00    -0.237 OA
ATOM     84  O   UNL A   1      42.733  22.365  24.859  1.00  0.00    -0.237 OA
ATOM     85  O   UNL A   1      42.968  22.174  27.306  1.00  0.00    -0.744 OA
ENDBRANCH  78  82
ENDBRANCH  51  75
BRANCH  63  86
ATOM     86  C   UNL A   1      44.548  27.023  34.107  1.00  0.00     0.023 A 
ATOM     87  C   UNL A   1      45.832  27.564  34.290  1.00  0.00     0.031 A 
ATOM     88  C   UNL A   1      44.287  25.746  34.635  1.00  0.00     0.131 A 
ATOM     89  C   UNL A   1      46.828  26.801  34.918  1.00  0.00     0.055 A 
ATOM     90  C   UNL A   1      45.261  25.022  35.324  1.00  0.00     0.041 A 
ATOM     91  F   UNL A   1      43.079  25.179  34.489  1.00  0.00    -0.206 F 
ATOM     92  C   UNL A   1      46.545  25.541  35.452  1.00  0.00     0.022 A 
BRANCH  89  93
ATOM     93  S   UNL A   1      48.531  27.426  34.919  1.00  0.00     0.124 S 
ATOM     94  O   UNL A   1      48.561  28.223  36.142  1.00  0.00    -0.237 OA
ATOM     95  O   UNL A   1      49.314  26.194  34.943  1.00  0.00    -0.237 OA
ATOM     96  O   UNL A   1      48.617  28.190  33.678  1.00  0.00    -0.744 OA
ENDBRANCH  89  93
ENDBRANCH  63  86
ENDBRANCH  37  38
ENDBRANCH  30  32
ENDBRANCH  29  30
ENDBRANCH  28  29
ENDBRANCH  27  28
ENDBRANCH  26  27
ENDBRANCH   1  26
TORSDOF 21
ENDMDL
