MODEL 1
REMARK VINA RESULT:     -13.5      0.000      0.000
REMARK SMILES Cc1ccc(-c2cc(C(=O)OCCOCCOC(=O)c3ccc(-c4c5nc(c(-c6cc(S(=O)(=O)[O-])ccc6F)c6ccc([nH]6)c(-c6cc(S(=O)(=O)[O-])ccc6F)c6nc(c(-c7cc(S(=O)(=O)[O-])ccc7F)c7ccc4[nH]7)C=C6)C=C5)cc3)c3c(-c4cccc([N+](=O)[O-])c4)[nH]nc3n2)cc1
REMARK SMILES IDX 15 1 14 2 13 3 12 4 11 5 9 6 10 7 8 8 6 9 7 10 97 11 96 12
REMARK SMILES IDX 83 13 95 14 84 15 94 16 5 18 1 19 2 20 3 21 99 22 4 23 98 24
REMARK SMILES IDX 85 25 86 26 93 27 87 28 89 29 88 30 90 31 91 32 92 33 16 34
REMARK SMILES IDX 17 35 18 36 19 37 20 38 21 39 82 40 22 41 81 42 23 43 24 44
REMARK SMILES IDX 25 45 75 46 26 47 80 48 74 49 76 50 27 51 79 52 73 53 72 54
REMARK SMILES IDX 28 56 60 57 40 58 59 59 41 60 44 61 58 62 77 63 42 64 43 65
REMARK SMILES IDX 57 67 78 68 45 69 29 70 30 71 38 72 31 73 37 74 39 75 36 76
REMARK SMILES IDX 32 77 33 78 34 79 35 80 61 81 62 82 70 83 63 84 69 85 71 86
REMARK SMILES IDX 68 87 64 88 65 89 66 90 67 91 46 92 47 93 55 94 48 95 54 96
REMARK SMILES IDX 56 97 53 98 49 99 50 100 51 101 52 102
REMARK H PARENT 94 17 76 55 44 66
REMARK Flexibility Score: inf
ROOT
ATOM      1  C   UNL A   1      33.688  29.555  26.719  1.00  0.00     0.202 C 
ENDROOT
BRANCH   1   2
ATOM      2  O   UNL A   1      32.868  28.554  27.238  1.00  0.00    -0.374 OA
BRANCH   2   3
ATOM      3  C   UNL A   1      32.975  27.302  26.582  1.00  0.00     0.202 C 
BRANCH   3   4
ATOM      4  C   UNL A   1      31.659  26.721  26.897  1.00  0.00     0.261 C 
BRANCH   4   5
ATOM      5  O   UNL A   1      31.470  25.495  26.173  1.00  0.00    -0.460 OA
BRANCH   5   6
ATOM      6  C   UNL A   1      30.532  25.331  25.200  1.00  0.00     0.339 C 
ATOM      7  O   UNL A   1      29.380  25.652  25.210  1.00  0.00    -0.246 OA
BRANCH   6   8
ATOM      8  C   UNL A   1      31.249  24.679  24.104  1.00  0.00     0.075 A 
ATOM      9  C   UNL A   1      32.328  22.626  23.258  1.00  0.00     0.074 A 
ATOM     10  C   UNL A   1      31.503  23.305  24.166  1.00  0.00     0.045 A 
ATOM     11  N   UNL A   1      32.964  23.200  22.194  1.00  0.00    -0.226 NA
ATOM     12  C   UNL A   1      32.670  24.530  22.053  1.00  0.00     0.182 A 
ATOM     13  C   UNL A   1      31.835  25.252  22.980  1.00  0.00     0.061 A 
ATOM     14  N   UNL A   1      33.117  25.342  21.091  1.00  0.00    -0.154 NA
ATOM     15  C   UNL A   1      31.780  26.558  22.518  1.00  0.00     0.076 A 
ATOM     16  N   UNL A   1      32.527  26.524  21.363  1.00  0.00    -0.275 N 
ATOM     17  H   UNL A   1      32.622  27.307  20.775  1.00  0.00     0.190 HD
BRANCH   9  18
ATOM     18  C   UNL A   1      32.533  21.195  23.567  1.00  0.00     0.000 A 
ATOM     19  C   UNL A   1      33.923  17.108  24.008  1.00  0.00     0.044 C 
ATOM     20  C   UNL A   1      33.428  18.517  23.871  1.00  0.00    -0.051 A 
ATOM     21  C   UNL A   1      32.529  18.864  22.854  1.00  0.00     0.004 A 
ATOM     22  C   UNL A   1      33.876  19.512  24.741  1.00  0.00     0.004 A 
ATOM     23  C   UNL A   1      32.086  20.187  22.702  1.00  0.00     0.010 A 
ATOM     24  C   UNL A   1      33.427  20.827  24.595  1.00  0.00     0.010 A 
ENDBRANCH   9  18
BRANCH  15  25
ATOM     25  C   UNL A   1      31.105  27.780  22.962  1.00  0.00     0.007 A 
ATOM     26  C   UNL A   1      31.764  28.693  23.801  1.00  0.00     0.011 A 
ATOM     27  C   UNL A   1      29.823  28.099  22.489  1.00  0.00     0.096 A 
ATOM     28  C   UNL A   1      31.172  29.918  24.137  1.00  0.00     0.008 A 
ATOM     29  C   UNL A   1      29.246  29.341  22.811  1.00  0.00     0.270 A 
ATOM     30  C   UNL A   1      29.916  30.254  23.636  1.00  0.00     0.085 A 
BRANCH  29  31
ATOM     31  N   UNL A   1      27.946  29.714  22.241  1.00  0.00     0.062 N 
ATOM     32  O   UNL A   1      26.955  29.696  22.990  1.00  0.00    -0.258 OA
ATOM     33  O   UNL A   1      27.899  30.009  21.038  1.00  0.00    -0.258 OA
ENDBRANCH  29  31
ENDBRANCH  15  25
ENDBRANCH   6   8
ENDBRANCH   5   6
ENDBRANCH   4   5
ENDBRANCH   3   4
ENDBRANCH   2   3
ENDBRANCH   1   2
BRANCH   1  34
ATOM     34  C   UNL A   1      33.222  30.886  27.290  1.00  0.00     0.261 C 
BRANCH  34  35
ATOM     35  O   UNL A   1      34.065  31.255  28.418  1.00  0.00    -0.460 OA
BRANCH  35  36
ATOM     36  C   UNL A   1      35.367  31.584  28.142  1.00  0.00     0.338 C 
ATOM     37  O   UNL A   1      35.728  32.647  27.663  1.00  0.00    -0.246 OA
BRANCH  36  38
ATOM     38  C   UNL A   1      36.275  30.400  28.328  1.00  0.00     0.060 A 
ATOM     39  C   UNL A   1      36.421  29.767  29.583  1.00  0.00     0.016 A 
ATOM     40  C   UNL A   1      37.207  30.144  27.335  1.00  0.00     0.016 A 
ATOM     41  C   UNL A   1      37.597  29.043  29.898  1.00  0.00     0.010 A 
ATOM     42  C   UNL A   1      38.389  29.525  27.682  1.00  0.00     0.010 A 
ATOM     43  C   UNL A   1      38.632  29.011  28.969  1.00  0.00    -0.014 A 
BRANCH  43  44
ATOM     44  C   UNL A   1      40.035  28.591  29.170  1.00  0.00     0.031 A 
ATOM     45  C   UNL A   1      40.378  27.214  28.747  1.00  0.00     0.074 A 
ATOM     46  C   UNL A   1      41.043  29.489  29.367  1.00  0.00     0.049 A 
ATOM     47  N   UNL A   1      41.542  26.698  28.882  1.00  0.00    -0.248 NA
ATOM     48  C   UNL A   1      39.425  26.268  28.162  1.00  0.00     0.031 C 
ATOM     49  C   UNL A   1      42.452  29.413  28.955  1.00  0.00     0.029 A 
ATOM     50  N   UNL A   1      40.992  30.748  29.960  1.00  0.00    -0.354 N 
ATOM     51  C   UNL A   1      41.597  25.557  28.125  1.00  0.00     0.074 A 
ATOM     52  C   UNL A   1      40.225  25.252  27.825  1.00  0.00     0.031 C 
ATOM     53  C   UNL A   1      43.157  30.416  29.518  1.00  0.00     0.029 A 
ATOM     54  C   UNL A   1      42.259  31.125  30.415  1.00  0.00     0.049 A 
ATOM     55  H   UNL A   1      40.178  31.295  30.047  1.00  0.00     0.167 HD
ATOM     56  C   UNL A   1      42.826  25.112  27.748  1.00  0.00     0.034 A 
ATOM     57  C   UNL A   1      42.426  31.449  31.723  1.00  0.00     0.034 A 
ATOM     58  C   UNL A   1      43.875  25.888  28.431  1.00  0.00     0.049 A 
ATOM     59  C   UNL A   1      43.230  30.311  32.303  1.00  0.00     0.074 A 
ATOM     60  C   UNL A   1      44.815  26.816  28.020  1.00  0.00     0.029 A 
ATOM     61  N   UNL A   1      43.836  25.972  29.824  1.00  0.00    -0.354 N 
ATOM     62  N   UNL A   1      43.289  29.132  31.735  1.00  0.00    -0.248 NA
ATOM     63  C   UNL A   1      44.163  30.443  33.412  1.00  0.00     0.031 C 
ATOM     64  C   UNL A   1      45.257  27.526  29.182  1.00  0.00     0.029 A 
ATOM     65  C   UNL A   1      44.620  27.004  30.299  1.00  0.00     0.049 A 
ATOM     66  H   UNL A   1      43.312  25.367  30.398  1.00  0.00     0.167 HD
ATOM     67  C   UNL A   1      44.327  28.426  32.250  1.00  0.00     0.074 A 
ATOM     68  C   UNL A   1      44.811  29.266  33.340  1.00  0.00     0.031 C 
ATOM     69  C   UNL A   1      44.742  27.227  31.739  1.00  0.00     0.034 A 
BRANCH  56  70
ATOM     70  C   UNL A   1      43.122  24.100  26.661  1.00  0.00     0.023 A 
ATOM     71  C   UNL A   1      42.662  22.779  26.843  1.00  0.00     0.031 A 
ATOM     72  C   UNL A   1      43.892  24.304  25.494  1.00  0.00     0.131 A 
ATOM     73  C   UNL A   1      42.961  21.756  25.923  1.00  0.00     0.055 A 
ATOM     74  C   UNL A   1      44.147  23.296  24.551  1.00  0.00     0.041 A 
ATOM     75  F   UNL A   1      44.497  25.464  25.220  1.00  0.00    -0.206 F 
ATOM     76  C   UNL A   1      43.685  22.011  24.764  1.00  0.00     0.022 A 
BRANCH  73  77
ATOM     77  S   UNL A   1      42.428  20.065  26.294  1.00  0.00     0.124 S 
ATOM     78  O   UNL A   1      42.177  20.139  27.730  1.00  0.00    -0.237 OA
ATOM     79  O   UNL A   1      41.260  19.913  25.436  1.00  0.00    -0.237 OA
ATOM     80  O   UNL A   1      43.586  19.256  25.913  1.00  0.00    -0.744 OA
ENDBRANCH  73  77
ENDBRANCH  56  70
BRANCH  57  81
ATOM     81  C   UNL A   1      41.228  32.198  32.258  1.00  0.00     0.023 A 
ATOM     82  C   UNL A   1      40.329  31.480  33.104  1.00  0.00     0.031 A 
ATOM     83  C   UNL A   1      41.248  33.596  32.398  1.00  0.00     0.131 A 
ATOM     84  C   UNL A   1      39.589  32.139  34.116  1.00  0.00     0.055 A 
ATOM     85  C   UNL A   1      40.512  34.247  33.406  1.00  0.00     0.041 A 
ATOM     86  F   UNL A   1      42.106  34.337  31.684  1.00  0.00    -0.206 F 
ATOM     87  C   UNL A   1      39.704  33.522  34.285  1.00  0.00     0.022 A 
BRANCH  84  88
ATOM     88  S   UNL A   1      38.883  31.148  35.512  1.00  0.00     0.124 S 
ATOM     89  O   UNL A   1      37.594  31.787  35.734  1.00  0.00    -0.237 OA
ATOM     90  O   UNL A   1      38.845  29.797  34.958  1.00  0.00    -0.237 OA
ATOM     91  O   UNL A   1      39.870  31.323  36.577  1.00  0.00    -0.744 OA
ENDBRANCH  84  88
ENDBRANCH  57  81
BRANCH  69  92
ATOM     92  C   UNL A   1      45.350  26.165  32.612  1.00  0.00     0.023 A 
ATOM     93  C   UNL A   1      44.551  25.236  33.283  1.00  0.00     0.031 A 
ATOM     94  C   UNL A   1      46.744  25.955  32.706  1.00  0.00     0.131 A 
ATOM     95  C   UNL A   1      45.106  24.267  34.120  1.00  0.00     0.055 A 
ATOM     96  C   UNL A   1      47.299  24.902  33.436  1.00  0.00     0.041 A 
ATOM     97  F   UNL A   1      47.630  26.737  32.075  1.00  0.00    -0.206 F 
ATOM     98  C   UNL A   1      46.478  24.068  34.181  1.00  0.00     0.022 A 
BRANCH  95  99
ATOM     99  S   UNL A   1      43.963  23.387  35.204  1.00  0.00     0.124 S 
ATOM    100  O   UNL A   1      42.676  23.933  34.780  1.00  0.00    -0.237 OA
ATOM    101  O   UNL A   1      44.202  21.992  34.850  1.00  0.00    -0.237 OA
ATOM    102  O   UNL A   1      44.396  23.778  36.544  1.00  0.00    -0.744 OA
ENDBRANCH  95  99
ENDBRANCH  69  92
ENDBRANCH  43  44
ENDBRANCH  36  38
ENDBRANCH  35  36
ENDBRANCH  34  35
ENDBRANCH   1  34
TORSDOF 20
ENDMDL
MODEL 2
REMARK VINA RESULT:     -13.2      2.570      3.692
REMARK SMILES Cc1ccc(-c2cc(C(=O)OCCOCCOC(=O)c3ccc(-c4c5nc(c(-c6cc(S(=O)(=O)[O-])ccc6F)c6ccc([nH]6)c(-c6cc(S(=O)(=O)[O-])ccc6F)c6nc(c(-c7cc(S(=O)(=O)[O-])ccc7F)c7ccc4[nH]7)C=C6)C=C5)cc3)c3c(-c4cccc([N+](=O)[O-])c4)[nH]nc3n2)cc1
REMARK SMILES IDX 15 1 14 2 13 3 12 4 11 5 9 6 10 7 8 8 6 9 7 10 97 11 96 12
REMARK SMILES IDX 83 13 95 14 84 15 94 16 5 18 1 19 2 20 3 21 99 22 4 23 98 24
REMARK SMILES IDX 85 25 86 26 93 27 87 28 89 29 88 30 90 31 91 32 92 33 16 34
REMARK SMILES IDX 17 35 18 36 19 37 20 38 21 39 82 40 22 41 81 42 23 43 24 44
REMARK SMILES IDX 25 45 75 46 26 47 80 48 74 49 76 50 27 51 79 52 73 53 72 54
REMARK SMILES IDX 28 56 60 57 40 58 59 59 41 60 44 61 58 62 77 63 42 64 43 65
REMARK SMILES IDX 57 67 78 68 45 69 29 70 30 71 38 72 31 73 37 74 39 75 36 76
REMARK SMILES IDX 32 77 33 78 34 79 35 80 61 81 62 82 70 83 63 84 69 85 71 86
REMARK SMILES IDX 68 87 64 88 65 89 66 90 67 91 46 92 47 93 55 94 48 95 54 96
REMARK SMILES IDX 56 97 53 98 49 99 50 100 51 101 52 102
REMARK H PARENT 94 17 76 55 44 66
REMARK Flexibility Score: inf
ROOT
ATOM      1  C   UNL A   1      34.087  30.484  27.296  1.00  0.00     0.202 C 
ENDROOT
BRANCH   1   2
ATOM      2  O   UNL A   1      33.048  30.511  26.367  1.00  0.00    -0.374 OA
BRANCH   2   3
ATOM      3  C   UNL A   1      32.899  29.321  25.612  1.00  0.00     0.202 C 
BRANCH   3   4
ATOM      4  C   UNL A   1      33.878  28.451  26.285  1.00  0.00     0.261 C 
BRANCH   4   5
ATOM      5  O   UNL A   1      34.055  27.234  25.543  1.00  0.00    -0.460 OA
BRANCH   5   6
ATOM      6  C   UNL A   1      33.288  26.124  25.721  1.00  0.00     0.339 C 
ATOM      7  O   UNL A   1      32.320  25.986  26.411  1.00  0.00    -0.246 OA
BRANCH   6   8
ATOM      8  C   UNL A   1      33.898  25.112  24.859  1.00  0.00     0.075 A 
ATOM      9  C   UNL A   1      35.852  23.673  24.406  1.00  0.00     0.074 A 
ATOM     10  C   UNL A   1      35.104  24.517  25.240  1.00  0.00     0.045 A 
ATOM     11  N   UNL A   1      35.497  23.305  23.140  1.00  0.00    -0.226 NA
ATOM     12  C   UNL A   1      34.278  23.803  22.764  1.00  0.00     0.182 A 
ATOM     13  C   UNL A   1      33.497  24.681  23.599  1.00  0.00     0.061 A 
ATOM     14  N   UNL A   1      33.658  23.587  21.600  1.00  0.00    -0.154 NA
ATOM     15  C   UNL A   1      32.347  24.978  22.882  1.00  0.00     0.076 A 
ATOM     16  N   UNL A   1      32.492  24.251  21.723  1.00  0.00    -0.275 N 
ATOM     17  H   UNL A   1      31.791  24.217  21.033  1.00  0.00     0.190 HD
BRANCH   9  18
ATOM     18  C   UNL A   1      37.142  23.232  24.978  1.00  0.00     0.000 A 
ATOM     19  C   UNL A   1      40.403  21.607  27.335  1.00  0.00     0.044 C 
ATOM     20  C   UNL A   1      39.290  22.171  26.503  1.00  0.00    -0.051 A 
ATOM     21  C   UNL A   1      38.938  23.524  26.600  1.00  0.00     0.004 A 
ATOM     22  C   UNL A   1      38.567  21.348  25.638  1.00  0.00     0.004 A 
ATOM     23  C   UNL A   1      37.877  24.050  25.846  1.00  0.00     0.010 A 
ATOM     24  C   UNL A   1      37.517  21.875  24.882  1.00  0.00     0.010 A 
ENDBRANCH   9  18
BRANCH  15  25
ATOM     25  C   UNL A   1      31.148  25.777  23.145  1.00  0.00     0.007 A 
ATOM     26  C   UNL A   1      30.071  25.231  23.863  1.00  0.00     0.011 A 
ATOM     27  C   UNL A   1      31.089  27.124  22.757  1.00  0.00     0.096 A 
ATOM     28  C   UNL A   1      28.970  26.021  24.220  1.00  0.00     0.008 A 
ATOM     29  C   UNL A   1      29.991  27.916  23.141  1.00  0.00     0.270 A 
ATOM     30  C   UNL A   1      28.929  27.370  23.870  1.00  0.00     0.085 A 
BRANCH  29  31
ATOM     31  N   UNL A   1      29.974  29.348  22.816  1.00  0.00     0.062 N 
ATOM     32  O   UNL A   1      30.112  29.676  21.626  1.00  0.00    -0.258 OA
ATOM     33  O   UNL A   1      29.840  30.157  23.746  1.00  0.00    -0.258 OA
ENDBRANCH  29  31
ENDBRANCH  15  25
ENDBRANCH   6   8
ENDBRANCH   5   6
ENDBRANCH   4   5
ENDBRANCH   3   4
ENDBRANCH   2   3
ENDBRANCH   1   2
BRANCH   1  34
ATOM     34  C   UNL A   1      34.419  31.920  27.672  1.00  0.00     0.261 C 
BRANCH  34  35
ATOM     35  O   UNL A   1      34.018  32.170  29.049  1.00  0.00    -0.460 OA
BRANCH  35  36
ATOM     36  C   UNL A   1      34.392  33.369  29.599  1.00  0.00     0.338 C 
ATOM     37  O   UNL A   1      33.724  34.390  29.558  1.00  0.00    -0.246 OA
BRANCH  36  38
ATOM     38  C   UNL A   1      35.811  33.317  30.095  1.00  0.00     0.060 A 
ATOM     39  C   UNL A   1      36.905  33.608  29.249  1.00  0.00     0.016 A 
ATOM     40  C   UNL A   1      36.046  32.669  31.297  1.00  0.00     0.016 A 
ATOM     41  C   UNL A   1      38.190  33.078  29.516  1.00  0.00     0.010 A 
ATOM     42  C   UNL A   1      37.274  32.074  31.497  1.00  0.00     0.010 A 
ATOM     43  C   UNL A   1      38.347  32.218  30.599  1.00  0.00    -0.014 A 
BRANCH  43  44
ATOM     44  C   UNL A   1      39.483  31.322  30.904  1.00  0.00     0.031 A 
ATOM     45  C   UNL A   1      39.512  30.028  30.184  1.00  0.00     0.074 A 
ATOM     46  C   UNL A   1      40.625  31.770  31.498  1.00  0.00     0.049 A 
ATOM     47  N   UNL A   1      40.415  29.136  30.362  1.00  0.00    -0.248 NA
ATOM     48  C   UNL A   1      38.499  29.596  29.218  1.00  0.00     0.031 C 
ATOM     49  C   UNL A   1      42.012  31.315  31.315  1.00  0.00     0.029 A 
ATOM     50  N   UNL A   1      40.793  32.823  32.394  1.00  0.00    -0.354 N 
ATOM     51  C   UNL A   1      40.324  28.224  29.342  1.00  0.00     0.074 A 
ATOM     52  C   UNL A   1      39.035  28.464  28.752  1.00  0.00     0.031 C 
ATOM     53  C   UNL A   1      42.815  31.886  32.235  1.00  0.00     0.029 A 
ATOM     54  C   UNL A   1      41.967  32.653  33.134  1.00  0.00     0.049 A 
ATOM     55  H   UNL A   1      40.171  33.580  32.493  1.00  0.00     0.167 HD
ATOM     56  C   UNL A   1      41.429  27.482  29.064  1.00  0.00     0.034 A 
ATOM     57  C   UNL A   1      41.901  32.626  34.489  1.00  0.00     0.034 A 
ATOM     58  C   UNL A   1      42.460  27.705  30.093  1.00  0.00     0.049 A 
ATOM     59  C   UNL A   1      42.185  31.191  34.862  1.00  0.00     0.074 A 
ATOM     60  C   UNL A   1      43.694  28.329  30.106  1.00  0.00     0.029 A 
ATOM     61  N   UNL A   1      42.113  27.508  31.430  1.00  0.00    -0.354 N 
ATOM     62  N   UNL A   1      42.042  30.204  34.012  1.00  0.00    -0.248 NA
ATOM     63  C   UNL A   1      42.823  30.773  36.101  1.00  0.00     0.031 C 
ATOM     64  C   UNL A   1      44.027  28.596  31.473  1.00  0.00     0.029 A 
ATOM     65  C   UNL A   1      43.019  28.098  32.288  1.00  0.00     0.049 A 
ATOM     66  H   UNL A   1      41.317  27.009  31.726  1.00  0.00     0.167 HD
ATOM     67  C   UNL A   1      42.682  29.102  34.478  1.00  0.00     0.074 A 
ATOM     68  C   UNL A   1      43.108  29.488  35.818  1.00  0.00     0.031 C 
ATOM     69  C   UNL A   1      42.851  27.966  33.734  1.00  0.00     0.034 A 
BRANCH  56  70
ATOM     70  C   UNL A   1      41.678  26.676  27.805  1.00  0.00     0.023 A 
ATOM     71  C   UNL A   1      42.432  25.489  27.919  1.00  0.00     0.031 A 
ATOM     72  C   UNL A   1      41.306  27.020  26.486  1.00  0.00     0.131 A 
ATOM     73  C   UNL A   1      42.780  24.722  26.790  1.00  0.00     0.055 A 
ATOM     74  C   UNL A   1      41.608  26.227  25.368  1.00  0.00     0.041 A 
ATOM     75  F   UNL A   1      40.685  28.163  26.184  1.00  0.00    -0.206 F 
ATOM     76  C   UNL A   1      42.354  25.073  25.514  1.00  0.00     0.022 A 
BRANCH  73  77
ATOM     77  S   UNL A   1      43.847  23.276  27.014  1.00  0.00     0.124 S 
ATOM     78  O   UNL A   1      45.176  23.857  26.854  1.00  0.00    -0.237 OA
ATOM     79  O   UNL A   1      43.489  22.831  28.355  1.00  0.00    -0.237 OA
ATOM     80  O   UNL A   1      43.432  22.381  25.934  1.00  0.00    -0.744 OA
ENDBRANCH  73  77
ENDBRANCH  56  70
BRANCH  57  81
ATOM     81  C   UNL A   1      40.872  33.604  35.006  1.00  0.00     0.023 A 
ATOM     82  C   UNL A   1      39.684  33.064  35.585  1.00  0.00     0.031 A 
ATOM     83  C   UNL A   1      41.239  34.900  35.409  1.00  0.00     0.131 A 
ATOM     84  C   UNL A   1      38.985  33.754  36.605  1.00  0.00     0.055 A 
ATOM     85  C   UNL A   1      40.543  35.581  36.425  1.00  0.00     0.041 A 
ATOM     86  F   UNL A   1      42.372  35.455  34.958  1.00  0.00    -0.206 F 
ATOM     87  C   UNL A   1      39.433  35.003  37.045  1.00  0.00     0.022 A 
BRANCH  84  88
ATOM     88  S   UNL A   1      37.813  32.818  37.691  1.00  0.00     0.124 S 
ATOM     89  O   UNL A   1      38.157  31.432  37.410  1.00  0.00    -0.237 OA
ATOM     90  O   UNL A   1      38.152  33.308  39.024  1.00  0.00    -0.237 OA
ATOM     91  O   UNL A   1      36.500  33.255  37.217  1.00  0.00    -0.744 OA
ENDBRANCH  84  88
ENDBRANCH  57  81
BRANCH  69  92
ATOM     92  C   UNL A   1      42.904  26.606  34.373  1.00  0.00     0.023 A 
ATOM     93  C   UNL A   1      44.058  25.822  34.311  1.00  0.00     0.031 A 
ATOM     94  C   UNL A   1      41.859  26.094  35.174  1.00  0.00     0.131 A 
ATOM     95  C   UNL A   1      44.106  24.546  34.874  1.00  0.00     0.055 A 
ATOM     96  C   UNL A   1      41.956  24.876  35.851  1.00  0.00     0.041 A 
ATOM     97  F   UNL A   1      40.712  26.759  35.366  1.00  0.00    -0.206 F 
ATOM     98  C   UNL A   1      43.074  24.074  35.674  1.00  0.00     0.022 A 
BRANCH  95  99
ATOM     99  S   UNL A   1      45.503  23.507  34.404  1.00  0.00     0.124 S 
ATOM    100  O   UNL A   1      46.423  24.491  33.836  1.00  0.00    -0.237 OA
ATOM    101  O   UNL A   1      45.911  22.928  35.679  1.00  0.00    -0.237 OA
ATOM    102  O   UNL A   1      44.923  22.570  33.445  1.00  0.00    -0.744 OA
ENDBRANCH  95  99
ENDBRANCH  69  92
ENDBRANCH  43  44
ENDBRANCH  36  38
ENDBRANCH  35  36
ENDBRANCH  34  35
ENDBRANCH   1  34
TORSDOF 20
ENDMDL
MODEL 3
REMARK VINA RESULT:     -13.1      4.136     10.001
REMARK SMILES Cc1ccc(-c2cc(C(=O)OCCOCCOC(=O)c3ccc(-c4c5nc(c(-c6cc(S(=O)(=O)[O-])ccc6F)c6ccc([nH]6)c(-c6cc(S(=O)(=O)[O-])ccc6F)c6nc(c(-c7cc(S(=O)(=O)[O-])ccc7F)c7ccc4[nH]7)C=C6)C=C5)cc3)c3c(-c4cccc([N+](=O)[O-])c4)[nH]nc3n2)cc1
REMARK SMILES IDX 15 1 14 2 13 3 12 4 11 5 9 6 10 7 8 8 6 9 7 10 97 11 96 12
REMARK SMILES IDX 83 13 95 14 84 15 94 16 5 18 1 19 2 20 3 21 99 22 4 23 98 24
REMARK SMILES IDX 85 25 86 26 93 27 87 28 89 29 88 30 90 31 91 32 92 33 16 34
REMARK SMILES IDX 17 35 18 36 19 37 20 38 21 39 82 40 22 41 81 42 23 43 24 44
REMARK SMILES IDX 25 45 75 46 26 47 80 48 74 49 76 50 27 51 79 52 73 53 72 54
REMARK SMILES IDX 28 56 60 57 40 58 59 59 41 60 44 61 58 62 77 63 42 64 43 65
REMARK SMILES IDX 57 67 78 68 45 69 29 70 30 71 38 72 31 73 37 74 39 75 36 76
REMARK SMILES IDX 32 77 33 78 34 79 35 80 61 81 62 82 70 83 63 84 69 85 71 86
REMARK SMILES IDX 68 87 64 88 65 89 66 90 67 91 46 92 47 93 55 94 48 95 54 96
REMARK SMILES IDX 56 97 53 98 49 99 50 100 51 101 52 102
REMARK H PARENT 94 17 76 55 44 66
REMARK Flexibility Score: inf
ROOT
ATOM      1  C   UNL A   1      38.587  22.369  26.206  1.00  0.00     0.202 C 
ENDROOT
BRANCH   1   2
ATOM      2  O   UNL A   1      37.320  21.923  25.833  1.00  0.00    -0.374 OA
BRANCH   2   3
ATOM      3  C   UNL A   1      36.925  22.291  24.522  1.00  0.00     0.202 C 
BRANCH   3   4
ATOM      4  C   UNL A   1      36.488  23.678  24.753  1.00  0.00     0.261 C 
BRANCH   4   5
ATOM      5  O   UNL A   1      35.060  23.732  24.897  1.00  0.00    -0.460 OA
BRANCH   5   6
ATOM      6  C   UNL A   1      34.233  24.333  23.998  1.00  0.00     0.339 C 
ATOM      7  O   UNL A   1      34.269  24.288  22.803  1.00  0.00    -0.246 OA
BRANCH   6   8
ATOM      8  C   UNL A   1      33.256  25.049  24.817  1.00  0.00     0.075 A 
ATOM      9  C   UNL A   1      32.722  27.081  26.113  1.00  0.00     0.074 A 
ATOM     10  C   UNL A   1      33.506  26.372  25.191  1.00  0.00     0.045 A 
ATOM     11  N   UNL A   1      31.612  26.590  26.740  1.00  0.00    -0.226 NA
ATOM     12  C   UNL A   1      31.288  25.324  26.333  1.00  0.00     0.182 A 
ATOM     13  C   UNL A   1      32.085  24.572  25.397  1.00  0.00     0.061 A 
ATOM     14  N   UNL A   1      30.242  24.603  26.747  1.00  0.00    -0.154 NA
ATOM     15  C   UNL A   1      31.453  23.347  25.245  1.00  0.00     0.076 A 
ATOM     16  N   UNL A   1      30.337  23.458  26.041  1.00  0.00    -0.275 N 
ATOM     17  H   UNL A   1      29.654  22.751  26.091  1.00  0.00     0.190 HD
BRANCH   9  18
ATOM     18  C   UNL A   1      33.224  28.435  26.433  1.00  0.00     0.000 A 
ATOM     19  C   UNL A   1      34.595  32.130  28.246  1.00  0.00     0.044 C 
ATOM     20  C   UNL A   1      34.129  30.860  27.600  1.00  0.00    -0.051 A 
ATOM     21  C   UNL A   1      32.800  30.715  27.180  1.00  0.00     0.004 A 
ATOM     22  C   UNL A   1      35.008  29.789  27.432  1.00  0.00     0.004 A 
ATOM     23  C   UNL A   1      32.351  29.518  26.602  1.00  0.00     0.010 A 
ATOM     24  C   UNL A   1      34.562  28.600  26.849  1.00  0.00     0.010 A 
ENDBRANCH   9  18
BRANCH  15  25
ATOM     25  C   UNL A   1      31.710  22.148  24.443  1.00  0.00     0.007 A 
ATOM     26  C   UNL A   1      31.649  22.201  23.041  1.00  0.00     0.011 A 
ATOM     27  C   UNL A   1      32.103  20.949  25.058  1.00  0.00     0.096 A 
ATOM     28  C   UNL A   1      32.007  21.093  22.263  1.00  0.00     0.008 A 
ATOM     29  C   UNL A   1      32.484  19.849  24.268  1.00  0.00     0.270 A 
ATOM     30  C   UNL A   1      32.436  19.914  22.871  1.00  0.00     0.085 A 
BRANCH  29  31
ATOM     31  N   UNL A   1      32.984  18.626  24.910  1.00  0.00     0.062 N 
ATOM     32  O   UNL A   1      32.413  18.235  25.941  1.00  0.00    -0.258 OA
ATOM     33  O   UNL A   1      33.960  18.057  24.400  1.00  0.00    -0.258 OA
ENDBRANCH  29  31
ENDBRANCH  15  25
ENDBRANCH   6   8
ENDBRANCH   5   6
ENDBRANCH   4   5
ENDBRANCH   3   4
ENDBRANCH   2   3
ENDBRANCH   1   2
BRANCH   1  34
ATOM     34  C   UNL A   1      39.578  21.246  25.939  1.00  0.00     0.261 C 
BRANCH  34  35
ATOM     35  O   UNL A   1      40.732  21.395  26.812  1.00  0.00    -0.460 OA
BRANCH  35  36
ATOM     36  C   UNL A   1      41.968  21.381  26.218  1.00  0.00     0.338 C 
ATOM     37  O   UNL A   1      42.365  20.511  25.459  1.00  0.00    -0.246 OA
BRANCH  36  38
ATOM     38  C   UNL A   1      42.843  22.477  26.765  1.00  0.00     0.060 A 
ATOM     39  C   UNL A   1      43.134  22.575  28.144  1.00  0.00     0.016 A 
ATOM     40  C   UNL A   1      43.091  23.567  25.946  1.00  0.00     0.016 A 
ATOM     41  C   UNL A   1      43.483  23.819  28.724  1.00  0.00     0.010 A 
ATOM     42  C   UNL A   1      43.332  24.791  26.532  1.00  0.00     0.010 A 
ATOM     43  C   UNL A   1      43.481  24.956  27.921  1.00  0.00    -0.014 A 
BRANCH  43  44
ATOM     44  C   UNL A   1      43.514  26.374  28.337  1.00  0.00     0.031 A 
ATOM     45  C   UNL A   1      42.203  27.029  28.549  1.00  0.00     0.074 A 
ATOM     46  C   UNL A   1      44.631  26.953  28.864  1.00  0.00     0.049 A 
ATOM     47  N   UNL A   1      42.068  28.258  28.883  1.00  0.00    -0.248 NA
ATOM     48  C   UNL A   1      40.909  26.367  28.366  1.00  0.00     0.031 C 
ATOM     49  C   UNL A   1      44.742  28.011  29.879  1.00  0.00     0.029 A 
ATOM     50  N   UNL A   1      45.969  26.654  28.624  1.00  0.00    -0.354 N 
ATOM     51  C   UNL A   1      40.773  28.453  29.290  1.00  0.00     0.074 A 
ATOM     52  C   UNL A   1      40.061  27.301  28.809  1.00  0.00     0.031 C 
ATOM     53  C   UNL A   1      46.019  28.434  29.973  1.00  0.00     0.029 A 
ATOM     54  C   UNL A   1      46.780  27.749  28.940  1.00  0.00     0.049 A 
ATOM     55  H   UNL A   1      46.299  25.793  28.279  1.00  0.00     0.167 HD
ATOM     56  C   UNL A   1      40.525  29.514  30.104  1.00  0.00     0.034 A 
ATOM     57  C   UNL A   1      47.602  28.264  27.991  1.00  0.00     0.034 A 
ATOM     58  C   UNL A   1      41.726  30.360  30.213  1.00  0.00     0.049 A 
ATOM     59  C   UNL A   1      46.992  29.597  27.632  1.00  0.00     0.074 A 
ATOM     60  C   UNL A   1      42.625  30.639  31.227  1.00  0.00     0.029 A 
ATOM     61  N   UNL A   1      42.316  30.825  29.037  1.00  0.00    -0.354 N 
ATOM     62  N   UNL A   1      45.736  29.882  27.874  1.00  0.00    -0.248 NA
ATOM     63  C   UNL A   1      47.750  30.754  27.179  1.00  0.00     0.031 C 
ATOM     64  C   UNL A   1      43.803  31.181  30.621  1.00  0.00     0.029 A 
ATOM     65  C   UNL A   1      43.605  31.270  29.249  1.00  0.00     0.049 A 
ATOM     66  H   UNL A   1      41.867  30.834  28.160  1.00  0.00     0.167 HD
ATOM     67  C   UNL A   1      45.544  31.223  27.782  1.00  0.00     0.074 A 
ATOM     68  C   UNL A   1      46.822  31.723  27.287  1.00  0.00     0.031 C 
ATOM     69  C   UNL A   1      44.377  31.836  28.144  1.00  0.00     0.034 A 
BRANCH  56  70
ATOM     70  C   UNL A   1      39.279  29.737  30.937  1.00  0.00     0.023 A 
ATOM     71  C   UNL A   1      38.662  31.005  30.878  1.00  0.00     0.031 A 
ATOM     72  C   UNL A   1      38.691  28.833  31.849  1.00  0.00     0.131 A 
ATOM     73  C   UNL A   1      37.550  31.325  31.680  1.00  0.00     0.055 A 
ATOM     74  C   UNL A   1      37.551  29.135  32.609  1.00  0.00     0.041 A 
ATOM     75  F   UNL A   1      39.210  27.630  32.111  1.00  0.00    -0.206 F 
ATOM     76  C   UNL A   1      36.975  30.389  32.532  1.00  0.00     0.022 A 
BRANCH  73  77
ATOM     77  S   UNL A   1      36.893  33.012  31.625  1.00  0.00     0.124 S 
ATOM     78  O   UNL A   1      35.468  32.786  31.849  1.00  0.00    -0.237 OA
ATOM     79  O   UNL A   1      37.626  33.665  32.703  1.00  0.00    -0.237 OA
ATOM     80  O   UNL A   1      37.240  33.465  30.278  1.00  0.00    -0.744 OA
ENDBRANCH  73  77
ENDBRANCH  56  70
BRANCH  57  81
ATOM     81  C   UNL A   1      48.190  27.172  27.127  1.00  0.00     0.023 A 
ATOM     82  C   UNL A   1      47.884  27.202  25.732  1.00  0.00     0.031 A 
ATOM     83  C   UNL A   1      49.368  26.504  27.501  1.00  0.00     0.131 A 
ATOM     84  C   UNL A   1      48.789  26.690  24.770  1.00  0.00     0.055 A 
ATOM     85  C   UNL A   1      50.266  25.998  26.543  1.00  0.00     0.041 A 
ATOM     86  F   UNL A   1      49.757  26.483  28.783  1.00  0.00    -0.206 F 
ATOM     87  C   UNL A   1      49.996  26.112  25.177  1.00  0.00     0.022 A 
BRANCH  84  88
ATOM     88  S   UNL A   1      48.631  27.223  23.004  1.00  0.00     0.124 S 
ATOM     89  O   UNL A   1      47.386  27.978  23.011  1.00  0.00    -0.237 OA
ATOM     90  O   UNL A   1      49.851  27.995  22.793  1.00  0.00    -0.237 OA
ATOM     91  O   UNL A   1      48.600  25.954  22.276  1.00  0.00    -0.744 OA
ENDBRANCH  84  88
ENDBRANCH  57  81
BRANCH  69  92
ATOM     92  C   UNL A   1      43.898  33.087  27.461  1.00  0.00     0.023 A 
ATOM     93  C   UNL A   1      43.516  34.212  28.195  1.00  0.00     0.031 A 
ATOM     94  C   UNL A   1      43.927  33.252  26.058  1.00  0.00     0.131 A 
ATOM     95  C   UNL A   1      43.042  35.365  27.570  1.00  0.00     0.055 A 
ATOM     96  C   UNL A   1      43.581  34.453  25.434  1.00  0.00     0.041 A 
ATOM     97  F   UNL A   1      44.319  32.276  25.229  1.00  0.00    -0.206 F 
ATOM     98  C   UNL A   1      43.099  35.511  26.190  1.00  0.00     0.022 A 
BRANCH  95  99
ATOM     99  S   UNL A   1      42.239  36.586  28.628  1.00  0.00     0.124 S 
ATOM    100  O   UNL A   1      41.049  35.860  29.064  1.00  0.00    -0.237 OA
ATOM    101  O   UNL A   1      43.244  36.821  29.659  1.00  0.00    -0.237 OA
ATOM    102  O   UNL A   1      41.991  37.708  27.727  1.00  0.00    -0.744 OA
ENDBRANCH  95  99
ENDBRANCH  69  92
ENDBRANCH  43  44
ENDBRANCH  36  38
ENDBRANCH  35  36
ENDBRANCH  34  35
ENDBRANCH   1  34
TORSDOF 20
ENDMDL
