MODEL 1
REMARK VINA RESULT:     -14.1      0.000      0.000
REMARK SMILES Cc1coc2cc3c(cc12)[C@@H](C)[C@H](CCC(=O)N[C@@H](Cc1c[nH]c2ccccc12)C(=O)OCCOCCOC(=O)c1ccc(-c2c4nc(c(-c5cc(S(=O)(=O)[O-])ccc5F)c5ccc([nH]5)c(-c5cc(S(=O)(=O)[O-])ccc5F)c5nc(c(-c6cc(S(=O)(=O)[O-])ccc6F)c6ccc2[nH]6)C=C5)C=C4)cc1)C(=O)O3
REMARK SMILES IDX 34 1 33 2 32 3 30 4 31 5 19 6 18 7 16 8 17 9 15 11 14 12
REMARK SMILES IDX 13 13 1 14 2 15 3 16 10 17 4 18 5 19 9 20 6 21 8 22 7 23
REMARK SMILES IDX 11 24 106 25 12 26 104 27 105 28 20 29 21 30 22 31 29 32
REMARK SMILES IDX 23 33 24 34 28 35 25 37 27 38 26 39 35 40 36 41 37 42 38 43
REMARK SMILES IDX 39 44 40 45 41 46 42 47 103 48 43 49 102 50 44 51 45 52
REMARK SMILES IDX 46 53 96 54 47 55 101 56 95 57 97 58 48 59 100 60 94 61
REMARK SMILES IDX 93 62 49 64 81 65 61 66 80 67 62 68 65 69 79 70 98 71 63 72
REMARK SMILES IDX 64 73 78 75 99 76 66 77 50 78 51 79 59 80 52 81 58 82 60 83
REMARK SMILES IDX 57 84 53 85 54 86 55 87 56 88 82 89 83 90 91 91 84 92 90 93
REMARK SMILES IDX 92 94 89 95 85 96 86 97 87 98 88 99 67 100 68 101 76 102
REMARK SMILES IDX 69 103 75 104 77 105 74 106 70 107 71 108 72 109 73 110
REMARK H PARENT 18 10 23 36 97 63 65 74
REMARK Flexibility Score: inf
ROOT
ATOM      1  C   UNL A   1      32.261  28.465  27.234  1.00  0.00     0.202 C 
ENDROOT
BRANCH   1   2
ATOM      2  C   UNL A   1      31.056  27.569  26.918  1.00  0.00     0.261 C 
BRANCH   2   3
ATOM      3  O   UNL A   1      31.280  26.513  25.976  1.00  0.00    -0.462 OA
BRANCH   3   4
ATOM      4  C   UNL A   1      30.279  26.363  25.071  1.00  0.00     0.329 C 
ATOM      5  O   UNL A   1      29.214  25.795  25.299  1.00  0.00    -0.250 OA
BRANCH   4   6
ATOM      6  C   UNL A   1      30.680  26.931  23.540  1.00  0.00     0.196 C 
BRANCH   6   7
ATOM      7  N   UNL A   1      32.036  26.194  22.212  1.00  0.00    -0.342 N 
ATOM      8  C   UNL A   1      33.146  25.435  21.776  1.00  0.00     0.220 C 
ATOM      9  O   UNL A   1      33.299  25.324  20.560  1.00  0.00    -0.275 OA
ATOM     10  H   UNL A   1      31.746  26.622  21.375  1.00  0.00     0.164 HD
BRANCH   8  11
ATOM     11  C   UNL A   1      34.105  24.809  22.733  1.00  0.00     0.101 C 
BRANCH  11  12
ATOM     12  C   UNL A   1      33.885  23.329  22.627  1.00  0.00     0.026 C 
BRANCH  12  13
ATOM     13  C   UNL A   1      34.169  22.768  24.020  1.00  0.00     0.107 C 
ATOM     14  C   UNL A   1      31.678  15.492  26.006  1.00  0.00     0.048 C 
ATOM     15  C   UNL A   1      32.985  15.901  25.443  1.00  0.00    -0.005 A 
ATOM     16  C   UNL A   1      34.034  15.055  25.155  1.00  0.00     0.199 A 
ATOM     17  C   UNL A   1      33.441  17.237  25.151  1.00  0.00     0.024 A 
ATOM     18  O   UNL A   1      35.128  15.754  24.794  1.00  0.00    -0.464 OA
ATOM     19  C   UNL A   1      34.819  17.078  24.882  1.00  0.00     0.137 A 
ATOM     20  C   UNL A   1      32.780  18.516  25.121  1.00  0.00     0.020 A 
ATOM     21  C   UNL A   1      35.806  18.049  24.726  1.00  0.00     0.095 A 
ATOM     22  C   UNL A   1      33.604  19.625  25.016  1.00  0.00    -0.001 A 
ATOM     23  C   UNL A   1      35.267  19.282  24.962  1.00  0.00     0.138 A 
ATOM     24  C   UNL A   1      32.889  21.296  24.416  1.00  0.00     0.034 C 
ATOM     25  O   UNL A   1      36.384  20.603  24.449  1.00  0.00    -0.426 OA
ATOM     26  C   UNL A   1      31.480  21.735  24.846  1.00  0.00     0.014 C 
ATOM     27  C   UNL A   1      36.102  22.293  24.007  1.00  0.00     0.314 C 
ATOM     28  O   UNL A   1      37.044  23.027  23.697  1.00  0.00    -0.251 OA
ENDBRANCH  12  13
ENDBRANCH  11  12
ENDBRANCH   8  11
ENDBRANCH   6   7
BRANCH   6  29
ATOM     29  C   UNL A   1      29.386  28.036  23.384  1.00  0.00     0.074 C 
BRANCH  29  30
ATOM     30  C   UNL A   1      29.412  29.543  23.540  1.00  0.00    -0.020 A 
ATOM     31  C   UNL A   1      30.057  30.351  24.451  1.00  0.00     0.087 A 
ATOM     32  C   UNL A   1      28.836  30.463  22.569  1.00  0.00     0.003 A 
ATOM     33  N   UNL A   1      29.752  31.663  24.192  1.00  0.00    -0.361 N 
ATOM     34  C   UNL A   1      29.042  31.764  23.025  1.00  0.00     0.046 A 
ATOM     35  C   UNL A   1      28.184  30.305  21.323  1.00  0.00     0.010 A 
ATOM     36  H   UNL A   1      30.008  32.423  24.763  1.00  0.00     0.166 HD
ATOM     37  C   UNL A   1      28.613  32.904  22.333  1.00  0.00     0.026 A 
ATOM     38  C   UNL A   1      27.769  31.435  20.603  1.00  0.00     0.001 A 
ATOM     39  C   UNL A   1      27.978  32.716  21.104  1.00  0.00     0.002 A 
ENDBRANCH  29  30
ENDBRANCH   6  29
ENDBRANCH   4   6
ENDBRANCH   3   4
ENDBRANCH   2   3
ENDBRANCH   1   2
BRANCH   1  40
ATOM     40  O   UNL A   1      32.069  29.861  27.382  1.00  0.00    -0.374 OA
BRANCH  40  41
ATOM     41  C   UNL A   1      33.060  30.710  26.816  1.00  0.00     0.202 C 
BRANCH  41  42
ATOM     42  C   UNL A   1      33.469  31.952  27.630  1.00  0.00     0.261 C 
BRANCH  42  43
ATOM     43  O   UNL A   1      34.899  32.059  27.679  1.00  0.00    -0.460 OA
BRANCH  43  44
ATOM     44  C   UNL A   1      35.439  31.867  28.911  1.00  0.00     0.338 C 
ATOM     45  O   UNL A   1      34.866  31.816  29.982  1.00  0.00    -0.246 OA
BRANCH  44  46
ATOM     46  C   UNL A   1      36.745  31.269  28.602  1.00  0.00     0.060 A 
ATOM     47  C   UNL A   1      36.847  29.934  28.204  1.00  0.00     0.016 A 
ATOM     48  C   UNL A   1      37.844  31.975  29.107  1.00  0.00     0.016 A 
ATOM     49  C   UNL A   1      38.054  29.275  28.404  1.00  0.00     0.010 A 
ATOM     50  C   UNL A   1      39.024  31.296  29.357  1.00  0.00     0.010 A 
ATOM     51  C   UNL A   1      39.116  29.939  29.035  1.00  0.00    -0.014 A 
BRANCH  51  52
ATOM     52  C   UNL A   1      40.386  29.229  29.199  1.00  0.00     0.031 A 
ATOM     53  C   UNL A   1      40.725  28.949  30.616  1.00  0.00     0.074 A 
ATOM     54  C   UNL A   1      41.089  28.677  28.191  1.00  0.00     0.049 A 
ATOM     55  N   UNL A   1      41.762  29.317  31.295  1.00  0.00    -0.248 NA
ATOM     56  C   UNL A   1      39.683  28.282  31.412  1.00  0.00     0.031 C 
ATOM     57  C   UNL A   1      40.658  28.543  26.806  1.00  0.00     0.029 A 
ATOM     58  N   UNL A   1      42.267  27.991  28.207  1.00  0.00    -0.354 N 
ATOM     59  C   UNL A   1      41.582  28.763  32.562  1.00  0.00     0.074 A 
ATOM     60  C   UNL A   1      40.208  28.344  32.631  1.00  0.00     0.031 C 
ATOM     61  C   UNL A   1      41.439  27.657  26.159  1.00  0.00     0.029 A 
ATOM     62  C   UNL A   1      42.478  27.219  27.069  1.00  0.00     0.049 A 
ATOM     63  H   UNL A   1      42.909  28.037  28.953  1.00  0.00     0.167 HD
ATOM     64  C   UNL A   1      42.620  28.459  33.390  1.00  0.00     0.034 A 
ATOM     65  C   UNL A   1      43.346  26.190  26.917  1.00  0.00     0.034 A 
ATOM     66  C   UNL A   1      43.831  29.109  32.983  1.00  0.00     0.049 A 
ATOM     67  C   UNL A   1      44.336  26.248  28.016  1.00  0.00     0.074 A 
ATOM     68  C   UNL A   1      44.238  30.420  32.869  1.00  0.00     0.029 A 
ATOM     69  N   UNL A   1      44.753  28.358  32.296  1.00  0.00    -0.354 N 
ATOM     70  N   UNL A   1      45.258  27.161  28.138  1.00  0.00    -0.248 NA
ATOM     71  C   UNL A   1      44.038  25.497  29.227  1.00  0.00     0.031 C 
ATOM     72  C   UNL A   1      45.140  30.438  31.771  1.00  0.00     0.029 A 
ATOM     73  C   UNL A   1      45.262  29.132  31.288  1.00  0.00     0.049 A 
ATOM     74  H   UNL A   1      45.003  27.426  32.494  1.00  0.00     0.167 HD
ATOM     75  C   UNL A   1      45.334  27.399  29.503  1.00  0.00     0.074 A 
ATOM     76  C   UNL A   1      44.663  26.261  30.124  1.00  0.00     0.031 C 
ATOM     77  C   UNL A   1      45.674  28.629  29.991  1.00  0.00     0.034 A 
BRANCH  64  78
ATOM     78  C   UNL A   1      42.588  27.314  34.376  1.00  0.00     0.023 A 
ATOM     79  C   UNL A   1      43.316  26.124  34.187  1.00  0.00     0.031 A 
ATOM     80  C   UNL A   1      41.983  27.461  35.639  1.00  0.00     0.131 A 
ATOM     81  C   UNL A   1      43.376  25.123  35.161  1.00  0.00     0.055 A 
ATOM     82  C   UNL A   1      42.112  26.497  36.649  1.00  0.00     0.041 A 
ATOM     83  F   UNL A   1      41.293  28.570  35.949  1.00  0.00    -0.206 F 
ATOM     84  C   UNL A   1      42.802  25.314  36.411  1.00  0.00     0.022 A 
BRANCH  81  85
ATOM     85  S   UNL A   1      44.195  23.548  34.790  1.00  0.00     0.124 S 
ATOM     86  O   UNL A   1      45.441  23.995  34.180  1.00  0.00    -0.237 OA
ATOM     87  O   UNL A   1      44.314  22.952  36.119  1.00  0.00    -0.237 OA
ATOM     88  O   UNL A   1      43.252  22.876  33.899  1.00  0.00    -0.744 OA
ENDBRANCH  81  85
ENDBRANCH  64  78
BRANCH  65  89
ATOM     89  C   UNL A   1      43.071  24.946  26.158  1.00  0.00     0.023 A 
ATOM     90  C   UNL A   1      42.055  24.069  26.591  1.00  0.00     0.031 A 
ATOM     91  C   UNL A   1      43.946  24.477  25.169  1.00  0.00     0.131 A 
ATOM     92  C   UNL A   1      41.951  22.775  26.066  1.00  0.00     0.055 A 
ATOM     93  C   UNL A   1      43.836  23.185  24.638  1.00  0.00     0.041 A 
ATOM     94  F   UNL A   1      44.956  25.245  24.735  1.00  0.00    -0.206 F 
ATOM     95  C   UNL A   1      42.840  22.323  25.092  1.00  0.00     0.022 A 
BRANCH  92  96
ATOM     96  S   UNL A   1      40.679  21.640  26.689  1.00  0.00     0.124 S 
ATOM     97  O   UNL A   1      40.918  21.664  28.130  1.00  0.00    -0.237 OA
ATOM     98  O   UNL A   1      39.455  22.294  26.243  1.00  0.00    -0.237 OA
ATOM     99  O   UNL A   1      41.001  20.375  26.032  1.00  0.00    -0.744 OA
ENDBRANCH  92  96
ENDBRANCH  65  89
BRANCH  77 100
ATOM    100  C   UNL A   1      46.268  29.656  29.054  1.00  0.00     0.023 A 
ATOM    101  C   UNL A   1      45.386  30.606  28.505  1.00  0.00     0.031 A 
ATOM    102  C   UNL A   1      47.557  29.564  28.499  1.00  0.00     0.131 A 
ATOM    103  C   UNL A   1      45.779  31.380  27.408  1.00  0.00     0.055 A 
ATOM    104  C   UNL A   1      47.973  30.402  27.458  1.00  0.00     0.041 A 
ATOM    105  F   UNL A   1      48.417  28.608  28.875  1.00  0.00    -0.206 F 
ATOM    106  C   UNL A   1      47.076  31.305  26.897  1.00  0.00     0.022 A 
BRANCH 103 107
ATOM    107  S   UNL A   1      44.559  32.356  26.491  1.00  0.00     0.124 S 
ATOM    108  O   UNL A   1      44.025  33.238  27.526  1.00  0.00    -0.237 OA
ATOM    109  O   UNL A   1      45.390  33.010  25.481  1.00  0.00    -0.237 OA
ATOM    110  O   UNL A   1      43.625  31.362  25.973  1.00  0.00    -0.744 OA
ENDBRANCH 103 107
ENDBRANCH  77 100
ENDBRANCH  51  52
ENDBRANCH  44  46
ENDBRANCH  43  44
ENDBRANCH  42  43
ENDBRANCH  41  42
ENDBRANCH  40  41
ENDBRANCH   1  40
TORSDOF 23
ENDMDL
MODEL 2
REMARK VINA RESULT:     -12.9      5.864     13.621
REMARK SMILES Cc1coc2cc3c(cc12)[C@@H](C)[C@H](CCC(=O)N[C@@H](Cc1c[nH]c2ccccc12)C(=O)OCCOCCOC(=O)c1ccc(-c2c4nc(c(-c5cc(S(=O)(=O)[O-])ccc5F)c5ccc([nH]5)c(-c5cc(S(=O)(=O)[O-])ccc5F)c5nc(c(-c6cc(S(=O)(=O)[O-])ccc6F)c6ccc2[nH]6)C=C5)C=C4)cc1)C(=O)O3
REMARK SMILES IDX 34 1 33 2 32 3 30 4 31 5 19 6 18 7 16 8 17 9 15 11 14 12
REMARK SMILES IDX 13 13 1 14 2 15 3 16 10 17 4 18 5 19 9 20 6 21 8 22 7 23
REMARK SMILES IDX 11 24 106 25 12 26 104 27 105 28 20 29 21 30 22 31 29 32
REMARK SMILES IDX 23 33 24 34 28 35 25 37 27 38 26 39 35 40 36 41 37 42 38 43
REMARK SMILES IDX 39 44 40 45 41 46 42 47 103 48 43 49 102 50 44 51 45 52
REMARK SMILES IDX 46 53 96 54 47 55 101 56 95 57 97 58 48 59 100 60 94 61
REMARK SMILES IDX 93 62 49 64 81 65 61 66 80 67 62 68 65 69 79 70 98 71 63 72
REMARK SMILES IDX 64 73 78 75 99 76 66 77 50 78 51 79 59 80 52 81 58 82 60 83
REMARK SMILES IDX 57 84 53 85 54 86 55 87 56 88 82 89 83 90 91 91 84 92 90 93
REMARK SMILES IDX 92 94 89 95 85 96 86 97 87 98 88 99 67 100 68 101 76 102
REMARK SMILES IDX 69 103 75 104 77 105 74 106 70 107 71 108 72 109 73 110
REMARK H PARENT 18 10 23 36 97 63 65 74
REMARK Flexibility Score: inf
ROOT
ATOM      1  C   UNL A   1      46.027  22.406  25.726  1.00  0.00     0.202 C 
ENDROOT
BRANCH   1   2
ATOM      2  C   UNL A   1      45.772  22.898  24.296  1.00  0.00     0.261 C 
BRANCH   2   3
ATOM      3  O   UNL A   1      46.510  24.054  23.880  1.00  0.00    -0.462 OA
BRANCH   3   4
ATOM      4  C   UNL A   1      46.351  25.129  24.694  1.00  0.00     0.329 C 
ATOM      5  O   UNL A   1      45.277  25.686  24.911  1.00  0.00    -0.250 OA
BRANCH   4   6
ATOM      6  C   UNL A   1      47.803  25.720  25.302  1.00  0.00     0.196 C 
BRANCH   6   7
ATOM      7  N   UNL A   1      48.944  25.000  26.826  1.00  0.00    -0.342 N 
ATOM      8  C   UNL A   1      49.598  25.017  28.078  1.00  0.00     0.220 C 
ATOM      9  O   UNL A   1      50.043  23.945  28.488  1.00  0.00    -0.275 OA
ATOM     10  H   UNL A   1      49.182  24.106  26.490  1.00  0.00     0.164 HD
BRANCH   8  11
ATOM     11  C   UNL A   1      49.766  26.272  28.869  1.00  0.00     0.101 C 
BRANCH  11  12
ATOM     12  C   UNL A   1      49.124  26.008  30.199  1.00  0.00     0.026 C 
BRANCH  12  13
ATOM     13  C   UNL A   1      49.925  26.825  31.213  1.00  0.00     0.107 C 
ATOM     14  C   UNL A   1      46.325  30.038  37.522  1.00  0.00     0.048 C 
ATOM     15  C   UNL A   1      47.002  28.726  37.412  1.00  0.00    -0.005 A 
ATOM     16  C   UNL A   1      47.127  27.800  38.425  1.00  0.00     0.199 A 
ATOM     17  C   UNL A   1      47.707  28.190  36.276  1.00  0.00     0.024 A 
ATOM     18  O   UNL A   1      47.920  26.779  38.047  1.00  0.00    -0.464 OA
ATOM     19  C   UNL A   1      48.361  27.045  36.786  1.00  0.00     0.137 A 
ATOM     20  C   UNL A   1      47.827  28.614  34.904  1.00  0.00     0.020 A 
ATOM     21  C   UNL A   1      49.333  26.244  36.189  1.00  0.00     0.095 A 
ATOM     22  C   UNL A   1      48.786  27.961  34.146  1.00  0.00    -0.001 A 
ATOM     23  C   UNL A   1      49.676  26.777  34.980  1.00  0.00     0.138 A 
ATOM     24  C   UNL A   1      48.691  28.006  32.236  1.00  0.00     0.034 C 
ATOM     25  O   UNL A   1      50.665  25.625  34.004  1.00  0.00    -0.426 OA
ATOM     26  C   UNL A   1      48.241  29.286  31.512  1.00  0.00     0.014 C 
ATOM     27  C   UNL A   1      50.956  25.486  32.264  1.00  0.00     0.314 C 
ATOM     28  O   UNL A   1      51.698  24.605  31.819  1.00  0.00    -0.251 OA
ENDBRANCH  12  13
ENDBRANCH  11  12
ENDBRANCH   8  11
ENDBRANCH   6   7
BRANCH   6  29
ATOM     29  C   UNL A   1      48.116  26.834  24.044  1.00  0.00     0.074 C 
BRANCH  29  30
ATOM     30  C   UNL A   1      49.363  26.968  23.194  1.00  0.00    -0.020 A 
ATOM     31  C   UNL A   1      49.521  27.156  21.838  1.00  0.00     0.087 A 
ATOM     32  C   UNL A   1      50.704  27.088  23.746  1.00  0.00     0.003 A 
ATOM     33  N   UNL A   1      50.858  27.195  21.537  1.00  0.00    -0.361 N 
ATOM     34  C   UNL A   1      51.603  27.197  22.686  1.00  0.00     0.046 A 
ATOM     35  C   UNL A   1      51.233  27.145  25.057  1.00  0.00     0.010 A 
ATOM     36  H   UNL A   1      51.229  27.219  20.625  1.00  0.00     0.166 HD
ATOM     37  C   UNL A   1      52.989  27.328  22.856  1.00  0.00     0.026 A 
ATOM     38  C   UNL A   1      52.614  27.302  25.248  1.00  0.00     0.001 A 
ATOM     39  C   UNL A   1      53.479  27.388  24.161  1.00  0.00     0.002 A 
ENDBRANCH  29  30
ENDBRANCH   6  29
ENDBRANCH   4   6
ENDBRANCH   3   4
ENDBRANCH   2   3
ENDBRANCH   1   2
BRANCH   1  40
ATOM     40  O   UNL A   1      45.738  21.059  26.060  1.00  0.00    -0.374 OA
BRANCH  40  41
ATOM     41  C   UNL A   1      45.589  20.147  24.979  1.00  0.00     0.202 C 
BRANCH  41  42
ATOM     42  C   UNL A   1      44.435  19.131  25.073  1.00  0.00     0.261 C 
BRANCH  42  43
ATOM     43  O   UNL A   1      43.187  19.775  24.773  1.00  0.00    -0.460 OA
BRANCH  43  44
ATOM     44  C   UNL A   1      42.196  19.531  25.670  1.00  0.00     0.338 C 
ATOM     45  O   UNL A   1      41.878  18.469  26.169  1.00  0.00    -0.246 OA
BRANCH  44  46
ATOM     46  C   UNL A   1      41.942  20.862  26.240  1.00  0.00     0.060 A 
ATOM     47  C   UNL A   1      42.293  22.020  25.542  1.00  0.00     0.016 A 
ATOM     48  C   UNL A   1      41.718  20.872  27.622  1.00  0.00     0.016 A 
ATOM     49  C   UNL A   1      42.510  23.187  26.265  1.00  0.00     0.010 A 
ATOM     50  C   UNL A   1      41.993  22.022  28.341  1.00  0.00     0.010 A 
ATOM     51  C   UNL A   1      42.420  23.168  27.664  1.00  0.00    -0.014 A 
BRANCH  51  52
ATOM     52  C   UNL A   1      42.619  24.422  28.395  1.00  0.00     0.031 A 
ATOM     53  C   UNL A   1      41.556  25.426  28.140  1.00  0.00     0.074 A 
ATOM     54  C   UNL A   1      43.529  24.602  29.370  1.00  0.00     0.049 A 
ATOM     55  N   UNL A   1      41.661  26.621  27.658  1.00  0.00    -0.248 NA
ATOM     56  C   UNL A   1      40.171  24.964  28.323  1.00  0.00     0.031 C 
ATOM     57  C   UNL A   1      44.360  23.574  29.981  1.00  0.00     0.029 A 
ATOM     58  N   UNL A   1      43.810  25.702  30.126  1.00  0.00    -0.354 N 
ATOM     59  C   UNL A   1      40.361  27.126  27.653  1.00  0.00     0.074 A 
ATOM     60  C   UNL A   1      39.487  26.002  27.853  1.00  0.00     0.031 C 
ATOM     61  C   UNL A   1      44.894  24.027  31.131  1.00  0.00     0.029 A 
ATOM     62  C   UNL A   1      44.501  25.412  31.297  1.00  0.00     0.049 A 
ATOM     63  H   UNL A   1      43.547  26.616  29.868  1.00  0.00     0.167 HD
ATOM     64  C   UNL A   1      40.086  28.458  27.729  1.00  0.00     0.034 A 
ATOM     65  C   UNL A   1      44.631  26.194  32.396  1.00  0.00     0.034 A 
ATOM     66  C   UNL A   1      41.239  29.256  27.430  1.00  0.00     0.049 A 
ATOM     67  C   UNL A   1      44.263  27.580  32.030  1.00  0.00     0.074 A 
ATOM     68  C   UNL A   1      42.037  29.431  26.320  1.00  0.00     0.029 A 
ATOM     69  N   UNL A   1      41.924  29.801  28.488  1.00  0.00    -0.354 N 
ATOM     70  N   UNL A   1      44.965  28.355  31.252  1.00  0.00    -0.248 NA
ATOM     71  C   UNL A   1      42.873  27.974  32.214  1.00  0.00     0.031 C 
ATOM     72  C   UNL A   1      43.338  29.687  26.833  1.00  0.00     0.029 A 
ATOM     73  C   UNL A   1      43.263  29.686  28.228  1.00  0.00     0.049 A 
ATOM     74  H   UNL A   1      41.522  30.203  29.293  1.00  0.00     0.167 HD
ATOM     75  C   UNL A   1      44.022  29.055  30.514  1.00  0.00     0.074 A 
ATOM     76  C   UNL A   1      42.766  28.877  31.238  1.00  0.00     0.031 C 
ATOM     77  C   UNL A   1      44.282  29.469  29.239  1.00  0.00     0.034 A 
BRANCH  64  78
ATOM     78  C   UNL A   1      38.846  29.014  28.390  1.00  0.00     0.023 A 
ATOM     79  C   UNL A   1      38.698  29.096  29.788  1.00  0.00     0.031 A 
ATOM     80  C   UNL A   1      37.852  29.666  27.636  1.00  0.00     0.131 A 
ATOM     81  C   UNL A   1      37.601  29.722  30.387  1.00  0.00     0.055 A 
ATOM     82  C   UNL A   1      36.796  30.368  28.234  1.00  0.00     0.041 A 
ATOM     83  F   UNL A   1      37.906  29.688  26.295  1.00  0.00    -0.206 F 
ATOM     84  C   UNL A   1      36.658  30.390  29.617  1.00  0.00     0.022 A 
BRANCH  81  85
ATOM     85  S   UNL A   1      37.391  29.650  32.187  1.00  0.00     0.124 S 
ATOM     86  O   UNL A   1      36.088  30.280  32.361  1.00  0.00    -0.237 OA
ATOM     87  O   UNL A   1      37.442  28.211  32.436  1.00  0.00    -0.237 OA
ATOM     88  O   UNL A   1      38.536  30.402  32.694  1.00  0.00    -0.744 OA
ENDBRANCH  81  85
ENDBRANCH  64  78
BRANCH  65  89
ATOM     89  C   UNL A   1      44.608  25.707  33.796  1.00  0.00     0.023 A 
ATOM     90  C   UNL A   1      43.458  25.899  34.589  1.00  0.00     0.031 A 
ATOM     91  C   UNL A   1      45.775  25.286  34.450  1.00  0.00     0.131 A 
ATOM     92  C   UNL A   1      43.498  25.700  35.975  1.00  0.00     0.055 A 
ATOM     93  C   UNL A   1      45.812  25.078  35.835  1.00  0.00     0.041 A 
ATOM     94  F   UNL A   1      46.915  25.116  33.763  1.00  0.00    -0.206 F 
ATOM     95  C   UNL A   1      44.672  25.293  36.607  1.00  0.00     0.022 A 
BRANCH  92  96
ATOM     96  S   UNL A   1      42.024  26.021  36.983  1.00  0.00     0.124 S 
ATOM     97  O   UNL A   1      42.602  26.370  38.279  1.00  0.00    -0.237 OA
ATOM     98  O   UNL A   1      41.401  27.120  36.255  1.00  0.00    -0.237 OA
ATOM     99  O   UNL A   1      41.306  24.749  36.951  1.00  0.00    -0.744 OA
ENDBRANCH  92  96
ENDBRANCH  65  89
BRANCH  77 100
ATOM    100  C   UNL A   1      45.705  29.437  28.730  1.00  0.00     0.023 A 
ATOM    101  C   UNL A   1      46.354  30.676  28.568  1.00  0.00     0.031 A 
ATOM    102  C   UNL A   1      46.318  28.301  28.170  1.00  0.00     0.131 A 
ATOM    103  C   UNL A   1      47.533  30.761  27.821  1.00  0.00     0.055 A 
ATOM    104  C   UNL A   1      47.542  28.380  27.498  1.00  0.00     0.041 A 
ATOM    105  F   UNL A   1      45.712  27.107  28.169  1.00  0.00    -0.206 F 
ATOM    106  C   UNL A   1      48.148  29.617  27.308  1.00  0.00     0.022 A 
BRANCH 103 107
ATOM    107  S   UNL A   1      48.192  32.375  27.328  1.00  0.00     0.124 S 
ATOM    108  O   UNL A   1      47.034  33.006  26.701  1.00  0.00    -0.237 OA
ATOM    109  O   UNL A   1      48.595  32.944  28.613  1.00  0.00    -0.237 OA
ATOM    110  O   UNL A   1      49.291  32.048  26.424  1.00  0.00    -0.744 OA
ENDBRANCH 103 107
ENDBRANCH  77 100
ENDBRANCH  51  52
ENDBRANCH  44  46
ENDBRANCH  43  44
ENDBRANCH  42  43
ENDBRANCH  41  42
ENDBRANCH  40  41
ENDBRANCH   1  40
TORSDOF 23
ENDMDL
MODEL 3
REMARK VINA RESULT:     -12.5      5.789     12.190
REMARK SMILES Cc1coc2cc3c(cc12)[C@@H](C)[C@H](CCC(=O)N[C@@H](Cc1c[nH]c2ccccc12)C(=O)OCCOCCOC(=O)c1ccc(-c2c4nc(c(-c5cc(S(=O)(=O)[O-])ccc5F)c5ccc([nH]5)c(-c5cc(S(=O)(=O)[O-])ccc5F)c5nc(c(-c6cc(S(=O)(=O)[O-])ccc6F)c6ccc2[nH]6)C=C5)C=C4)cc1)C(=O)O3
REMARK SMILES IDX 34 1 33 2 32 3 30 4 31 5 19 6 18 7 16 8 17 9 15 11 14 12
REMARK SMILES IDX 13 13 1 14 2 15 3 16 10 17 4 18 5 19 9 20 6 21 8 22 7 23
REMARK SMILES IDX 11 24 106 25 12 26 104 27 105 28 20 29 21 30 22 31 29 32
REMARK SMILES IDX 23 33 24 34 28 35 25 37 27 38 26 39 35 40 36 41 37 42 38 43
REMARK SMILES IDX 39 44 40 45 41 46 42 47 103 48 43 49 102 50 44 51 45 52
REMARK SMILES IDX 46 53 96 54 47 55 101 56 95 57 97 58 48 59 100 60 94 61
REMARK SMILES IDX 93 62 49 64 81 65 61 66 80 67 62 68 65 69 79 70 98 71 63 72
REMARK SMILES IDX 64 73 78 75 99 76 66 77 50 78 51 79 59 80 52 81 58 82 60 83
REMARK SMILES IDX 57 84 53 85 54 86 55 87 56 88 82 89 83 90 91 91 84 92 90 93
REMARK SMILES IDX 92 94 89 95 85 96 86 97 87 98 88 99 67 100 68 101 76 102
REMARK SMILES IDX 69 103 75 104 77 105 74 106 70 107 71 108 72 109 73 110
REMARK H PARENT 18 10 23 36 97 63 65 74
REMARK Flexibility Score: inf
ROOT
ATOM      1  C   UNL A   1      40.241  25.277  27.174  1.00  0.00     0.202 C 
ENDROOT
BRANCH   1   2
ATOM      2  C   UNL A   1      40.018  26.465  28.119  1.00  0.00     0.261 C 
BRANCH   2   3
ATOM      3  O   UNL A   1      41.197  27.090  28.642  1.00  0.00    -0.462 OA
BRANCH   3   4
ATOM      4  C   UNL A   1      41.029  28.399  28.961  1.00  0.00     0.329 C 
ATOM      5  O   UNL A   1      41.549  29.335  28.358  1.00  0.00    -0.250 OA
BRANCH   4   6
ATOM      6  C   UNL A   1      40.121  28.629  30.358  1.00  0.00     0.196 C 
BRANCH   6   7
ATOM      7  N   UNL A   1      40.631  28.260  32.294  1.00  0.00    -0.342 N 
ATOM      8  C   UNL A   1      40.845  28.557  33.659  1.00  0.00     0.220 C 
ATOM      9  O   UNL A   1      41.021  27.601  34.414  1.00  0.00    -0.275 OA
ATOM     10  H   UNL A   1      40.871  27.306  32.258  1.00  0.00     0.164 HD
BRANCH   8  11
ATOM     11  C   UNL A   1      40.877  29.959  34.172  1.00  0.00     0.101 C 
BRANCH  11  12
ATOM     12  C   UNL A   1      40.004  30.755  33.248  1.00  0.00     0.026 C 
BRANCH  12  13
ATOM     13  C   UNL A   1      38.665  30.901  33.971  1.00  0.00     0.107 C 
ATOM     14  C   UNL A   1      34.196  37.375  32.872  1.00  0.00     0.048 C 
ATOM     15  C   UNL A   1      34.145  36.083  32.152  1.00  0.00    -0.005 A 
ATOM     16  C   UNL A   1      33.279  35.769  31.126  1.00  0.00     0.199 A 
ATOM     17  C   UNL A   1      34.921  34.897  32.412  1.00  0.00     0.024 A 
ATOM     18  O   UNL A   1      33.389  34.470  30.786  1.00  0.00    -0.464 OA
ATOM     19  C   UNL A   1      34.305  33.902  31.618  1.00  0.00     0.137 A 
ATOM     20  C   UNL A   1      36.056  34.631  33.257  1.00  0.00     0.020 A 
ATOM     21  C   UNL A   1      34.510  32.524  31.614  1.00  0.00     0.095 A 
ATOM     22  C   UNL A   1      36.397  33.297  33.420  1.00  0.00    -0.001 A 
ATOM     23  C   UNL A   1      35.393  32.196  32.603  1.00  0.00     0.138 A 
ATOM     24  C   UNL A   1      38.148  32.823  34.027  1.00  0.00     0.034 C 
ATOM     25  O   UNL A   1      35.969  30.493  32.439  1.00  0.00    -0.426 OA
ATOM     26  C   UNL A   1      38.855  33.673  35.096  1.00  0.00     0.014 C 
ATOM     27  C   UNL A   1      37.422  29.669  33.023  1.00  0.00     0.314 C 
ATOM     28  O   UNL A   1      37.598  28.468  32.796  1.00  0.00    -0.251 OA
ENDBRANCH  12  13
ENDBRANCH  11  12
ENDBRANCH   8  11
ENDBRANCH   6   7
BRANCH   6  29
ATOM     29  C   UNL A   1      38.867  29.542  29.642  1.00  0.00     0.074 C 
BRANCH  29  30
ATOM     30  C   UNL A   1      38.626  31.035  29.722  1.00  0.00    -0.020 A 
ATOM     31  C   UNL A   1      39.424  32.061  30.182  1.00  0.00     0.087 A 
ATOM     32  C   UNL A   1      37.475  31.698  29.127  1.00  0.00     0.003 A 
ATOM     33  N   UNL A   1      38.750  33.249  30.066  1.00  0.00    -0.361 N 
ATOM     34  C   UNL A   1      37.574  33.064  29.388  1.00  0.00     0.046 A 
ATOM     35  C   UNL A   1      36.369  31.260  28.360  1.00  0.00     0.010 A 
ATOM     36  H   UNL A   1      39.066  34.112  30.418  1.00  0.00     0.166 HD
ATOM     37  C   UNL A   1      36.629  34.005  28.959  1.00  0.00     0.026 A 
ATOM     38  C   UNL A   1      35.425  32.191  27.900  1.00  0.00     0.001 A 
ATOM     39  C   UNL A   1      35.553  33.544  28.199  1.00  0.00     0.002 A 
ENDBRANCH  29  30
ENDBRANCH   6  29
ENDBRANCH   4   6
ENDBRANCH   3   4
ENDBRANCH   2   3
ENDBRANCH   1   2
BRANCH   1  40
ATOM     40  O   UNL A   1      40.238  23.960  27.700  1.00  0.00    -0.374 OA
BRANCH  40  41
ATOM     41  C   UNL A   1      41.398  23.172  27.463  1.00  0.00     0.202 C 
BRANCH  41  42
ATOM     42  C   UNL A   1      41.378  22.249  26.230  1.00  0.00     0.261 C 
BRANCH  42  43
ATOM     43  O   UNL A   1      42.352  22.689  25.272  1.00  0.00    -0.460 OA
BRANCH  43  44
ATOM     44  C   UNL A   1      43.474  21.926  25.215  1.00  0.00     0.338 C 
ATOM     45  O   UNL A   1      43.591  20.790  24.794  1.00  0.00    -0.246 OA
BRANCH  44  46
ATOM     46  C   UNL A   1      44.549  22.922  25.316  1.00  0.00     0.060 A 
ATOM     47  C   UNL A   1      45.668  22.692  26.119  1.00  0.00     0.016 A 
ATOM     48  C   UNL A   1      44.191  24.211  24.901  1.00  0.00     0.016 A 
ATOM     49  C   UNL A   1      46.385  23.788  26.586  1.00  0.00     0.010 A 
ATOM     50  C   UNL A   1      44.873  25.299  25.416  1.00  0.00     0.010 A 
ATOM     51  C   UNL A   1      45.949  25.086  26.284  1.00  0.00    -0.014 A 
BRANCH  51  52
ATOM     52  C   UNL A   1      46.745  26.219  26.760  1.00  0.00     0.031 A 
ATOM     53  C   UNL A   1      48.039  26.368  26.051  1.00  0.00     0.074 A 
ATOM     54  C   UNL A   1      46.292  27.176  27.593  1.00  0.00     0.049 A 
ATOM     55  N   UNL A   1      49.240  26.353  26.530  1.00  0.00    -0.248 NA
ATOM     56  C   UNL A   1      47.973  26.396  24.581  1.00  0.00     0.031 C 
ATOM     57  C   UNL A   1      44.918  27.354  28.042  1.00  0.00     0.029 A 
ATOM     58  N   UNL A   1      46.918  28.275  28.101  1.00  0.00    -0.354 N 
ATOM     59  C   UNL A   1      50.073  26.557  25.431  1.00  0.00     0.074 A 
ATOM     60  C   UNL A   1      49.262  26.350  24.262  1.00  0.00     0.031 C 
ATOM     61  C   UNL A   1      44.757  28.580  28.575  1.00  0.00     0.029 A 
ATOM     62  C   UNL A   1      46.043  29.247  28.574  1.00  0.00     0.049 A 
ATOM     63  H   UNL A   1      47.898  28.373  28.130  1.00  0.00     0.167 HD
ATOM     64  C   UNL A   1      51.310  27.118  25.535  1.00  0.00     0.034 A 
ATOM     65  C   UNL A   1      46.311  30.553  28.818  1.00  0.00     0.034 A 
ATOM     66  C   UNL A   1      51.785  27.109  26.888  1.00  0.00     0.049 A 
ATOM     67  C   UNL A   1      47.779  30.723  28.889  1.00  0.00     0.074 A 
ATOM     68  C   UNL A   1      52.097  26.125  27.801  1.00  0.00     0.029 A 
ATOM     69  N   UNL A   1      51.692  28.280  27.600  1.00  0.00    -0.354 N 
ATOM     70  N   UNL A   1      48.535  30.269  29.848  1.00  0.00    -0.248 NA
ATOM     71  C   UNL A   1      48.474  31.065  27.655  1.00  0.00     0.031 C 
ATOM     72  C   UNL A   1      51.760  26.670  29.069  1.00  0.00     0.029 A 
ATOM     73  C   UNL A   1      51.287  27.971  28.871  1.00  0.00     0.049 A 
ATOM     74  H   UNL A   1      51.883  29.183  27.256  1.00  0.00     0.167 HD
ATOM     75  C   UNL A   1      49.696  29.855  29.211  1.00  0.00     0.074 A 
ATOM     76  C   UNL A   1      49.652  30.487  27.895  1.00  0.00     0.031 C 
ATOM     77  C   UNL A   1      50.437  28.813  29.691  1.00  0.00     0.034 A 
BRANCH  64  78
ATOM     78  C   UNL A   1      51.935  27.959  24.447  1.00  0.00     0.023 A 
ATOM     79  C   UNL A   1      51.931  29.368  24.474  1.00  0.00     0.031 A 
ATOM     80  C   UNL A   1      52.733  27.375  23.446  1.00  0.00     0.131 A 
ATOM     81  C   UNL A   1      52.617  30.134  23.527  1.00  0.00     0.055 A 
ATOM     82  C   UNL A   1      53.491  28.139  22.547  1.00  0.00     0.041 A 
ATOM     83  F   UNL A   1      52.846  26.041  23.344  1.00  0.00    -0.206 F 
ATOM     84  C   UNL A   1      53.426  29.528  22.575  1.00  0.00     0.022 A 
BRANCH  81  85
ATOM     85  S   UNL A   1      52.437  31.939  23.522  1.00  0.00     0.124 S 
ATOM     86  O   UNL A   1      52.040  32.196  22.143  1.00  0.00    -0.237 OA
ATOM     87  O   UNL A   1      51.400  32.138  24.532  1.00  0.00    -0.237 OA
ATOM     88  O   UNL A   1      53.765  32.414  23.904  1.00  0.00    -0.744 OA
ENDBRANCH  81  85
ENDBRANCH  64  78
BRANCH  65  89
ATOM     89  C   UNL A   1      45.390  31.679  28.532  1.00  0.00     0.023 A 
ATOM     90  C   UNL A   1      45.240  32.148  27.210  1.00  0.00     0.031 A 
ATOM     91  C   UNL A   1      44.850  32.469  29.558  1.00  0.00     0.131 A 
ATOM     92  C   UNL A   1      44.600  33.364  26.947  1.00  0.00     0.055 A 
ATOM     93  C   UNL A   1      44.201  33.682  29.292  1.00  0.00     0.041 A 
ATOM     94  F   UNL A   1      44.985  32.102  30.841  1.00  0.00    -0.206 F 
ATOM     95  C   UNL A   1      44.081  34.140  27.982  1.00  0.00     0.022 A 
BRANCH  92  96
ATOM     96  S   UNL A   1      44.481  33.980  25.244  1.00  0.00     0.124 S 
ATOM     97  O   UNL A   1      45.790  34.597  25.043  1.00  0.00    -0.237 OA
ATOM     98  O   UNL A   1      44.245  32.748  24.500  1.00  0.00    -0.237 OA
ATOM     99  O   UNL A   1      43.360  34.915  25.298  1.00  0.00    -0.744 OA
ENDBRANCH  92  96
ENDBRANCH  65  89
BRANCH  77 100
ATOM    100  C   UNL A   1      50.169  28.302  31.088  1.00  0.00     0.023 A 
ATOM    101  C   UNL A   1      48.961  27.609  31.296  1.00  0.00     0.031 A 
ATOM    102  C   UNL A   1      50.901  28.693  32.225  1.00  0.00     0.131 A 
ATOM    103  C   UNL A   1      48.494  27.381  32.594  1.00  0.00     0.055 A 
ATOM    104  C   UNL A   1      50.471  28.385  33.520  1.00  0.00     0.041 A 
ATOM    105  F   UNL A   1      51.994  29.460  32.126  1.00  0.00    -0.206 F 
ATOM    106  C   UNL A   1      49.254  27.739  33.709  1.00  0.00     0.022 A 
BRANCH 103 107
ATOM    107  S   UNL A   1      46.802  26.795  32.870  1.00  0.00     0.124 S 
ATOM    108  O   UNL A   1      46.668  26.903  34.320  1.00  0.00    -0.237 OA
ATOM    109  O   UNL A   1      46.017  27.756  32.096  1.00  0.00    -0.237 OA
ATOM    110  O   UNL A   1      46.808  25.434  32.342  1.00  0.00    -0.744 OA
ENDBRANCH 103 107
ENDBRANCH  77 100
ENDBRANCH  51  52
ENDBRANCH  44  46
ENDBRANCH  43  44
ENDBRANCH  42  43
ENDBRANCH  41  42
ENDBRANCH  40  41
ENDBRANCH   1  40
TORSDOF 23
ENDMDL
