MODEL 1
REMARK VINA RESULT:     -10.6      0.000      0.000
REMARK SMILES O=C(CSc1nc(-c2cccc(F)c2)n[nH]1)OCCOCCOC(=O)c1ccc(-c2c3nc(c(-c4cc(S(=O)(=O)[O-])ccc4F)c4ccc([nH]4)c(-c4cc(S(=O)(=O)[O-])ccc4F)c4nc(c(-c5cc(S(=O)(=O)[O-])ccc5F)c5ccc2[nH]5)C=C4)C=C3)cc1
REMARK SMILES IDX 20 1 19 2 18 3 17 4 2 5 1 6 3 7 4 8 5 9 6 10 16 11 7 12
REMARK SMILES IDX 15 13 8 15 9 16 14 17 10 18 12 19 11 20 13 21 21 22 22 23
REMARK SMILES IDX 23 24 24 25 25 26 26 27 27 28 88 29 28 30 87 31 29 32 30 33
REMARK SMILES IDX 31 34 81 35 32 36 86 37 80 38 82 39 33 40 85 41 79 42 78 43
REMARK SMILES IDX 34 45 66 46 46 47 65 48 47 49 50 50 64 51 83 52 48 53 49 54
REMARK SMILES IDX 63 56 84 57 51 58 35 59 36 60 44 61 37 62 43 63 45 64 42 65
REMARK SMILES IDX 38 66 39 67 40 68 41 69 67 70 68 71 76 72 69 73 75 74 77 75
REMARK SMILES IDX 74 76 70 77 71 78 72 79 73 80 52 81 53 82 61 83 54 84 60 85
REMARK SMILES IDX 62 86 59 87 55 88 56 89 57 90 58 91
REMARK H PARENT 16 14 82 44 50 55
REMARK Flexibility Score: inf
ROOT
ATOM      1  O   UNL A   1      36.780  22.219  23.925  1.00  0.00    -0.374 OA
ENDROOT
BRANCH   1   2
ATOM      2  C   UNL A   1      35.818  23.265  23.803  1.00  0.00     0.202 C 
BRANCH   2   3
ATOM      3  C   UNL A   1      35.449  23.975  25.101  1.00  0.00     0.261 C 
BRANCH   3   4
ATOM      4  O   UNL A   1      34.102  24.475  25.101  1.00  0.00    -0.463 OA
BRANCH   4   5
ATOM      5  C   UNL A   1      33.613  25.429  24.280  1.00  0.00     0.316 C 
ATOM      6  O   UNL A   1      33.782  26.616  24.577  1.00  0.00    -0.251 OA
BRANCH   5   7
ATOM      7  C   UNL A   1      32.743  25.077  23.094  1.00  0.00     0.200 C 
BRANCH   7   8
ATOM      8  S   UNL A   1      31.203  24.188  23.427  1.00  0.00    -0.075 SA
BRANCH   8   9
ATOM      9  C   UNL A   1      31.852  22.723  24.018  1.00  0.00     0.184 A 
ATOM     10  N   UNL A   1      32.429  21.771  23.340  1.00  0.00    -0.201 NA
ATOM     11  N   UNL A   1      31.666  22.345  25.302  1.00  0.00    -0.254 N 
ATOM     12  C   UNL A   1      32.485  20.745  24.254  1.00  0.00     0.182 A 
ATOM     13  N   UNL A   1      32.016  21.063  25.475  1.00  0.00    -0.153 NA
ATOM     14  H   UNL A   1      31.320  22.932  26.013  1.00  0.00     0.192 HD
BRANCH  12  15
ATOM     15  C   UNL A   1      32.947  19.417  23.903  1.00  0.00     0.024 A 
ATOM     16  C   UNL A   1      32.341  18.698  22.863  1.00  0.00     0.012 A 
ATOM     17  C   UNL A   1      34.017  18.851  24.604  1.00  0.00     0.051 A 
ATOM     18  C   UNL A   1      32.835  17.443  22.497  1.00  0.00     0.004 A 
ATOM     19  C   UNL A   1      34.489  17.597  24.240  1.00  0.00     0.123 A 
ATOM     20  C   UNL A   1      33.918  16.894  23.186  1.00  0.00     0.039 A 
ATOM     21  F   UNL A   1      35.516  17.062  24.913  1.00  0.00    -0.207 F 
ENDBRANCH  12  15
ENDBRANCH   8   9
ENDBRANCH   7   8
ENDBRANCH   5   7
ENDBRANCH   4   5
ENDBRANCH   3   4
ENDBRANCH   2   3
ENDBRANCH   1   2
BRANCH   1  22
ATOM     22  C   UNL A   1      36.542  21.291  24.994  1.00  0.00     0.202 C 
BRANCH  22  23
ATOM     23  C   UNL A   1      37.715  20.370  25.343  1.00  0.00     0.261 C 
BRANCH  23  24
ATOM     24  O   UNL A   1      38.966  21.070  25.292  1.00  0.00    -0.460 OA
BRANCH  24  25
ATOM     25  C   UNL A   1      39.709  21.018  26.424  1.00  0.00     0.338 C 
ATOM     26  O   UNL A   1      40.170  20.020  26.956  1.00  0.00    -0.246 OA
BRANCH  25  27
ATOM     27  C   UNL A   1      40.079  22.397  26.800  1.00  0.00     0.060 A 
ATOM     28  C   UNL A   1      39.360  23.459  26.230  1.00  0.00     0.016 A 
ATOM     29  C   UNL A   1      41.110  22.641  27.708  1.00  0.00     0.016 A 
ATOM     30  C   UNL A   1      39.705  24.775  26.534  1.00  0.00     0.010 A 
ATOM     31  C   UNL A   1      41.460  23.956  28.001  1.00  0.00     0.010 A 
ATOM     32  C   UNL A   1      40.784  25.026  27.388  1.00  0.00    -0.014 A 
BRANCH  32  33
ATOM     33  C   UNL A   1      41.358  26.382  27.518  1.00  0.00     0.031 A 
ATOM     34  C   UNL A   1      42.729  26.618  26.947  1.00  0.00     0.074 A 
ATOM     35  C   UNL A   1      40.702  27.359  28.167  1.00  0.00     0.049 A 
ATOM     36  N   UNL A   1      43.542  27.622  27.133  1.00  0.00    -0.248 NA
ATOM     37  C   UNL A   1      43.259  25.567  26.058  1.00  0.00     0.031 C 
ATOM     38  C   UNL A   1      39.342  27.262  28.697  1.00  0.00     0.029 A 
ATOM     39  N   UNL A   1      41.107  28.623  28.513  1.00  0.00    -0.354 N 
ATOM     40  C   UNL A   1      44.682  27.322  26.399  1.00  0.00     0.074 A 
ATOM     41  C   UNL A   1      44.470  26.031  25.782  1.00  0.00     0.031 C 
ATOM     42  C   UNL A   1      39.033  28.414  29.316  1.00  0.00     0.029 A 
ATOM     43  C   UNL A   1      40.191  29.304  29.278  1.00  0.00     0.049 A 
ATOM     44  H   UNL A   1      41.973  29.005  28.239  1.00  0.00     0.167 HD
ATOM     45  C   UNL A   1      45.803  28.064  26.252  1.00  0.00     0.034 A 
ATOM     46  C   UNL A   1      40.299  30.491  29.909  1.00  0.00     0.034 A 
ATOM     47  C   UNL A   1      45.994  29.349  26.869  1.00  0.00     0.049 A 
ATOM     48  C   UNL A   1      41.601  31.252  29.811  1.00  0.00     0.074 A 
ATOM     49  C   UNL A   1      47.096  30.181  26.796  1.00  0.00     0.029 A 
ATOM     50  N   UNL A   1      45.058  29.992  27.666  1.00  0.00    -0.354 N 
ATOM     51  N   UNL A   1      42.699  30.934  29.163  1.00  0.00    -0.248 NA
ATOM     52  C   UNL A   1      41.681  32.527  30.536  1.00  0.00     0.031 C 
ATOM     53  C   UNL A   1      46.849  31.301  27.594  1.00  0.00     0.029 A 
ATOM     54  C   UNL A   1      45.565  31.203  28.103  1.00  0.00     0.049 A 
ATOM     55  H   UNL A   1      44.165  29.640  27.887  1.00  0.00     0.167 HD
ATOM     56  C   UNL A   1      43.583  31.989  29.375  1.00  0.00     0.074 A 
ATOM     57  C   UNL A   1      42.889  32.953  30.201  1.00  0.00     0.031 C 
ATOM     58  C   UNL A   1      44.853  32.151  28.924  1.00  0.00     0.034 A 
BRANCH  45  59
ATOM     59  C   UNL A   1      46.916  27.509  25.410  1.00  0.00     0.023 A 
ATOM     60  C   UNL A   1      47.077  27.889  24.068  1.00  0.00     0.031 A 
ATOM     61  C   UNL A   1      47.870  26.646  25.978  1.00  0.00     0.131 A 
ATOM     62  C   UNL A   1      48.168  27.403  23.333  1.00  0.00     0.055 A 
ATOM     63  C   UNL A   1      48.981  26.206  25.257  1.00  0.00     0.041 A 
ATOM     64  F   UNL A   1      47.748  26.237  27.251  1.00  0.00    -0.206 F 
ATOM     65  C   UNL A   1      49.134  26.585  23.927  1.00  0.00     0.022 A 
BRANCH  62  66
ATOM     66  S   UNL A   1      48.295  27.830  21.576  1.00  0.00     0.124 S 
ATOM     67  O   UNL A   1      46.927  28.243  21.275  1.00  0.00    -0.237 OA
ATOM     68  O   UNL A   1      49.296  28.890  21.577  1.00  0.00    -0.237 OA
ATOM     69  O   UNL A   1      48.715  26.578  20.950  1.00  0.00    -0.744 OA
ENDBRANCH  62  66
ENDBRANCH  45  59
BRANCH  46  70
ATOM     70  C   UNL A   1      39.171  31.030  30.720  1.00  0.00     0.023 A 
ATOM     71  C   UNL A   1      38.112  31.714  30.104  1.00  0.00     0.031 A 
ATOM     72  C   UNL A   1      39.161  30.923  32.122  1.00  0.00     0.131 A 
ATOM     73  C   UNL A   1      37.110  32.306  30.889  1.00  0.00     0.055 A 
ATOM     74  C   UNL A   1      38.134  31.468  32.895  1.00  0.00     0.041 A 
ATOM     75  F   UNL A   1      40.151  30.280  32.762  1.00  0.00    -0.206 F 
ATOM     76  C   UNL A   1      37.107  32.177  32.280  1.00  0.00     0.022 A 
BRANCH  73  77
ATOM     77  S   UNL A   1      35.850  33.316  30.065  1.00  0.00     0.124 S 
ATOM     78  O   UNL A   1      36.664  34.129  29.168  1.00  0.00    -0.237 OA
ATOM     79  O   UNL A   1      35.015  32.303  29.432  1.00  0.00    -0.237 OA
ATOM     80  O   UNL A   1      35.220  34.040  31.168  1.00  0.00    -0.744 OA
ENDBRANCH  73  77
ENDBRANCH  46  70
BRANCH  58  81
ATOM     81  C   UNL A   1      45.553  33.438  29.270  1.00  0.00     0.023 A 
ATOM     82  C   UNL A   1      45.322  34.620  28.547  1.00  0.00     0.031 A 
ATOM     83  C   UNL A   1      46.445  33.486  30.357  1.00  0.00     0.131 A 
ATOM     84  C   UNL A   1      46.009  35.792  28.892  1.00  0.00     0.055 A 
ATOM     85  C   UNL A   1      47.081  34.670  30.733  1.00  0.00     0.041 A 
ATOM     86  F   UNL A   1      46.697  32.385  31.083  1.00  0.00    -0.206 F 
ATOM     87  C   UNL A   1      46.872  35.829  29.991  1.00  0.00     0.022 A 
BRANCH  84  88
ATOM     88  S   UNL A   1      45.808  37.256  27.843  1.00  0.00     0.124 S 
ATOM     89  O   UNL A   1      44.821  36.797  26.870  1.00  0.00    -0.237 OA
ATOM     90  O   UNL A   1      45.344  38.262  28.793  1.00  0.00    -0.237 OA
ATOM     91  O   UNL A   1      47.148  37.483  27.308  1.00  0.00    -0.744 OA
ENDBRANCH  84  88
ENDBRANCH  58  81
ENDBRANCH  32  33
ENDBRANCH  25  27
ENDBRANCH  24  25
ENDBRANCH  23  24
ENDBRANCH  22  23
ENDBRANCH   1  22
TORSDOF 20
ENDMDL
MODEL 2
REMARK VINA RESULT:     -10.3      6.443     10.411
REMARK SMILES O=C(CSc1nc(-c2cccc(F)c2)n[nH]1)OCCOCCOC(=O)c1ccc(-c2c3nc(c(-c4cc(S(=O)(=O)[O-])ccc4F)c4ccc([nH]4)c(-c4cc(S(=O)(=O)[O-])ccc4F)c4nc(c(-c5cc(S(=O)(=O)[O-])ccc5F)c5ccc2[nH]5)C=C4)C=C3)cc1
REMARK SMILES IDX 20 1 19 2 18 3 17 4 2 5 1 6 3 7 4 8 5 9 6 10 16 11 7 12
REMARK SMILES IDX 15 13 8 15 9 16 14 17 10 18 12 19 11 20 13 21 21 22 22 23
REMARK SMILES IDX 23 24 24 25 25 26 26 27 27 28 88 29 28 30 87 31 29 32 30 33
REMARK SMILES IDX 31 34 81 35 32 36 86 37 80 38 82 39 33 40 85 41 79 42 78 43
REMARK SMILES IDX 34 45 66 46 46 47 65 48 47 49 50 50 64 51 83 52 48 53 49 54
REMARK SMILES IDX 63 56 84 57 51 58 35 59 36 60 44 61 37 62 43 63 45 64 42 65
REMARK SMILES IDX 38 66 39 67 40 68 41 69 67 70 68 71 76 72 69 73 75 74 77 75
REMARK SMILES IDX 74 76 70 77 71 78 72 79 73 80 52 81 53 82 61 83 54 84 60 85
REMARK SMILES IDX 62 86 59 87 55 88 56 89 57 90 58 91
REMARK H PARENT 16 14 82 44 50 55
REMARK Flexibility Score: inf
ROOT
ATOM      1  O   UNL A   1      34.589  35.559  28.691  1.00  0.00    -0.374 OA
ENDROOT
BRANCH   1   2
ATOM      2  C   UNL A   1      33.849  36.759  28.468  1.00  0.00     0.202 C 
BRANCH   2   3
ATOM      3  C   UNL A   1      33.502  37.560  29.718  1.00  0.00     0.261 C 
BRANCH   3   4
ATOM      4  O   UNL A   1      32.406  36.996  30.456  1.00  0.00    -0.463 OA
BRANCH   4   5
ATOM      5  C   UNL A   1      32.499  36.028  31.393  1.00  0.00     0.316 C 
ATOM      6  O   UNL A   1      32.433  34.847  31.039  1.00  0.00    -0.251 OA
BRANCH   5   7
ATOM      7  C   UNL A   1      32.532  36.360  32.868  1.00  0.00     0.200 C 
BRANCH   7   8
ATOM      8  S   UNL A   1      34.155  36.491  33.655  1.00  0.00    -0.075 SA
BRANCH   8   9
ATOM      9  C   UNL A   1      34.899  35.107  32.985  1.00  0.00     0.184 A 
ATOM     10  N   UNL A   1      35.191  33.985  33.582  1.00  0.00    -0.201 NA
ATOM     11  N   UNL A   1      35.417  35.129  31.737  1.00  0.00    -0.254 N 
ATOM     12  C   UNL A   1      36.012  33.366  32.669  1.00  0.00     0.182 A 
ATOM     13  N   UNL A   1      36.179  34.048  31.520  1.00  0.00    -0.153 NA
ATOM     14  H   UNL A   1      35.256  35.842  31.077  1.00  0.00     0.192 HD
BRANCH  12  15
ATOM     15  C   UNL A   1      36.692  32.119  32.957  1.00  0.00     0.024 A 
ATOM     16  C   UNL A   1      37.495  31.986  34.097  1.00  0.00     0.012 A 
ATOM     17  C   UNL A   1      36.534  31.032  32.091  1.00  0.00     0.051 A 
ATOM     18  C   UNL A   1      38.097  30.760  34.394  1.00  0.00     0.004 A 
ATOM     19  C   UNL A   1      37.149  29.823  32.388  1.00  0.00     0.123 A 
ATOM     20  C   UNL A   1      37.917  29.673  33.537  1.00  0.00     0.039 A 
ATOM     21  F   UNL A   1      36.992  28.785  31.556  1.00  0.00    -0.207 F 
ENDBRANCH  12  15
ENDBRANCH   8   9
ENDBRANCH   7   8
ENDBRANCH   5   7
ENDBRANCH   4   5
ENDBRANCH   3   4
ENDBRANCH   2   3
ENDBRANCH   1   2
BRANCH   1  22
ATOM     22  C   UNL A   1      34.425  34.545  27.688  1.00  0.00     0.202 C 
BRANCH  22  23
ATOM     23  C   UNL A   1      33.481  33.397  28.057  1.00  0.00     0.261 C 
BRANCH  23  24
ATOM     24  O   UNL A   1      34.183  32.328  28.707  1.00  0.00    -0.460 OA
BRANCH  24  25
ATOM     25  C   UNL A   1      34.516  31.282  27.913  1.00  0.00     0.338 C 
ATOM     26  O   UNL A   1      33.869  30.829  26.982  1.00  0.00    -0.246 OA
BRANCH  25  27
ATOM     27  C   UNL A   1      35.915  30.907  28.202  1.00  0.00     0.060 A 
ATOM     28  C   UNL A   1      36.264  29.549  28.158  1.00  0.00     0.016 A 
ATOM     29  C   UNL A   1      36.871  31.879  28.500  1.00  0.00     0.016 A 
ATOM     30  C   UNL A   1      37.566  29.154  28.461  1.00  0.00     0.010 A 
ATOM     31  C   UNL A   1      38.168  31.481  28.813  1.00  0.00     0.010 A 
ATOM     32  C   UNL A   1      38.511  30.118  28.830  1.00  0.00    -0.014 A 
BRANCH  32  33
ATOM     33  C   UNL A   1      39.808  29.730  29.423  1.00  0.00     0.031 A 
ATOM     34  C   UNL A   1      40.486  28.503  28.881  1.00  0.00     0.074 A 
ATOM     35  C   UNL A   1      40.340  30.419  30.448  1.00  0.00     0.049 A 
ATOM     36  N   UNL A   1      41.486  27.823  29.374  1.00  0.00    -0.248 NA
ATOM     37  C   UNL A   1      39.950  27.961  27.618  1.00  0.00     0.031 C 
ATOM     38  C   UNL A   1      39.806  31.661  31.004  1.00  0.00     0.029 A 
ATOM     39  N   UNL A   1      41.443  30.153  31.218  1.00  0.00    -0.354 N 
ATOM     40  C   UNL A   1      41.692  26.768  28.493  1.00  0.00     0.074 A 
ATOM     41  C   UNL A   1      40.699  26.881  27.447  1.00  0.00     0.031 C 
ATOM     42  C   UNL A   1      40.574  32.039  32.040  1.00  0.00     0.029 A 
ATOM     43  C   UNL A   1      41.616  31.037  32.256  1.00  0.00     0.049 A 
ATOM     44  H   UNL A   1      42.053  29.398  31.044  1.00  0.00     0.167 HD
ATOM     45  C   UNL A   1      42.631  25.798  28.554  1.00  0.00     0.034 A 
ATOM     46  C   UNL A   1      42.489  31.011  33.283  1.00  0.00     0.034 A 
ATOM     47  C   UNL A   1      43.615  25.705  29.600  1.00  0.00     0.049 A 
ATOM     48  C   UNL A   1      43.461  29.859  33.382  1.00  0.00     0.074 A 
ATOM     49  C   UNL A   1      44.605  24.755  29.765  1.00  0.00     0.029 A 
ATOM     50  N   UNL A   1      43.736  26.600  30.653  1.00  0.00    -0.354 N 
ATOM     51  N   UNL A   1      43.611  28.831  32.578  1.00  0.00    -0.248 NA
ATOM     52  C   UNL A   1      44.376  29.858  34.532  1.00  0.00     0.031 C 
ATOM     53  C   UNL A   1      45.291  25.043  30.948  1.00  0.00     0.029 A 
ATOM     54  C   UNL A   1      44.776  26.214  31.480  1.00  0.00     0.049 A 
ATOM     55  H   UNL A   1      43.169  27.393  30.791  1.00  0.00     0.167 HD
ATOM     56  C   UNL A   1      44.662  28.085  33.107  1.00  0.00     0.074 A 
ATOM     57  C   UNL A   1      45.112  28.784  34.292  1.00  0.00     0.031 C 
ATOM     58  C   UNL A   1      45.210  26.929  32.655  1.00  0.00     0.034 A 
BRANCH  45  59
ATOM     59  C   UNL A   1      42.639  24.749  27.479  1.00  0.00     0.023 A 
ATOM     60  C   UNL A   1      41.855  23.589  27.584  1.00  0.00     0.031 A 
ATOM     61  C   UNL A   1      43.382  24.948  26.302  1.00  0.00     0.131 A 
ATOM     62  C   UNL A   1      41.836  22.665  26.530  1.00  0.00     0.055 A 
ATOM     63  C   UNL A   1      43.320  24.050  25.235  1.00  0.00     0.041 A 
ATOM     64  F   UNL A   1      44.163  26.031  26.163  1.00  0.00    -0.206 F 
ATOM     65  C   UNL A   1      42.542  22.901  25.346  1.00  0.00     0.022 A 
BRANCH  62  66
ATOM     66  S   UNL A   1      40.896  21.129  26.735  1.00  0.00     0.124 S 
ATOM     67  O   UNL A   1      41.820  20.142  26.182  1.00  0.00    -0.237 OA
ATOM     68  O   UNL A   1      40.688  21.071  28.177  1.00  0.00    -0.237 OA
ATOM     69  O   UNL A   1      39.690  21.358  25.941  1.00  0.00    -0.744 OA
ENDBRANCH  62  66
ENDBRANCH  45  59
BRANCH  46  70
ATOM     70  C   UNL A   1      42.475  32.077  34.324  1.00  0.00     0.023 A 
ATOM     71  C   UNL A   1      41.461  32.115  35.293  1.00  0.00     0.031 A 
ATOM     72  C   UNL A   1      43.435  33.104  34.333  1.00  0.00     0.131 A 
ATOM     73  C   UNL A   1      41.401  33.183  36.203  1.00  0.00     0.055 A 
ATOM     74  C   UNL A   1      43.402  34.136  35.273  1.00  0.00     0.041 A 
ATOM     75  F   UNL A   1      44.426  33.117  33.427  1.00  0.00    -0.206 F 
ATOM     76  C   UNL A   1      42.372  34.186  36.207  1.00  0.00     0.022 A 
BRANCH  73  77
ATOM     77  S   UNL A   1      39.986  33.278  37.331  1.00  0.00     0.124 S 
ATOM     78  O   UNL A   1      39.695  31.868  37.560  1.00  0.00    -0.237 OA
ATOM     79  O   UNL A   1      40.548  34.009  38.461  1.00  0.00    -0.237 OA
ATOM     80  O   UNL A   1      38.983  34.008  36.558  1.00  0.00    -0.744 OA
ENDBRANCH  73  77
ENDBRANCH  46  70
BRANCH  58  81
ATOM     81  C   UNL A   1      46.389  26.377  33.411  1.00  0.00     0.023 A 
ATOM     82  C   UNL A   1      46.231  25.427  34.432  1.00  0.00     0.031 A 
ATOM     83  C   UNL A   1      47.693  26.792  33.083  1.00  0.00     0.131 A 
ATOM     84  C   UNL A   1      47.355  24.953  35.123  1.00  0.00     0.055 A 
ATOM     85  C   UNL A   1      48.813  26.273  33.734  1.00  0.00     0.041 A 
ATOM     86  F   UNL A   1      47.899  27.695  32.112  1.00  0.00    -0.206 F 
ATOM     87  C   UNL A   1      48.646  25.356  34.769  1.00  0.00     0.022 A 
BRANCH  84  88
ATOM     88  S   UNL A   1      47.103  23.849  36.538  1.00  0.00     0.124 S 
ATOM     89  O   UNL A   1      45.657  23.650  36.512  1.00  0.00    -0.237 OA
ATOM     90  O   UNL A   1      47.912  22.688  36.179  1.00  0.00    -0.237 OA
ATOM     91  O   UNL A   1      47.602  24.624  37.672  1.00  0.00    -0.744 OA
ENDBRANCH  84  88
ENDBRANCH  58  81
ENDBRANCH  32  33
ENDBRANCH  25  27
ENDBRANCH  24  25
ENDBRANCH  23  24
ENDBRANCH  22  23
ENDBRANCH   1  22
TORSDOF 20
ENDMDL
MODEL 3
REMARK VINA RESULT:     -10.1      6.217     11.877
REMARK SMILES O=C(CSc1nc(-c2cccc(F)c2)n[nH]1)OCCOCCOC(=O)c1ccc(-c2c3nc(c(-c4cc(S(=O)(=O)[O-])ccc4F)c4ccc([nH]4)c(-c4cc(S(=O)(=O)[O-])ccc4F)c4nc(c(-c5cc(S(=O)(=O)[O-])ccc5F)c5ccc2[nH]5)C=C4)C=C3)cc1
REMARK SMILES IDX 20 1 19 2 18 3 17 4 2 5 1 6 3 7 4 8 5 9 6 10 16 11 7 12
REMARK SMILES IDX 15 13 8 15 9 16 14 17 10 18 12 19 11 20 13 21 21 22 22 23
REMARK SMILES IDX 23 24 24 25 25 26 26 27 27 28 88 29 28 30 87 31 29 32 30 33
REMARK SMILES IDX 31 34 81 35 32 36 86 37 80 38 82 39 33 40 85 41 79 42 78 43
REMARK SMILES IDX 34 45 66 46 46 47 65 48 47 49 50 50 64 51 83 52 48 53 49 54
REMARK SMILES IDX 63 56 84 57 51 58 35 59 36 60 44 61 37 62 43 63 45 64 42 65
REMARK SMILES IDX 38 66 39 67 40 68 41 69 67 70 68 71 76 72 69 73 75 74 77 75
REMARK SMILES IDX 74 76 70 77 71 78 72 79 73 80 52 81 53 82 61 83 54 84 60 85
REMARK SMILES IDX 62 86 59 87 55 88 56 89 57 90 58 91
REMARK H PARENT 16 14 82 44 50 55
REMARK Flexibility Score: inf
ROOT
ATOM      1  O   UNL A   1      34.785  33.589  27.996  1.00  0.00    -0.374 OA
ENDROOT
BRANCH   1   2
ATOM      2  C   UNL A   1      35.188  32.270  27.629  1.00  0.00     0.202 C 
BRANCH   2   3
ATOM      3  C   UNL A   1      34.195  31.162  27.960  1.00  0.00     0.261 C 
BRANCH   3   4
ATOM      4  O   UNL A   1      33.790  30.412  26.804  1.00  0.00    -0.463 OA
BRANCH   4   5
ATOM      5  C   UNL A   1      33.405  29.118  26.796  1.00  0.00     0.316 C 
ATOM      6  O   UNL A   1      34.268  28.238  26.870  1.00  0.00    -0.251 OA
BRANCH   5   7
ATOM      7  C   UNL A   1      31.965  28.727  26.550  1.00  0.00     0.200 C 
BRANCH   7   8
ATOM      8  S   UNL A   1      31.664  27.225  25.586  1.00  0.00    -0.075 SA
BRANCH   8   9
ATOM      9  C   UNL A   1      30.672  27.879  24.359  1.00  0.00     0.184 A 
ATOM     10  N   UNL A   1      30.683  29.093  23.881  1.00  0.00    -0.201 NA
ATOM     11  N   UNL A   1      29.625  27.184  23.864  1.00  0.00    -0.254 N 
ATOM     12  C   UNL A   1      29.519  29.137  23.151  1.00  0.00     0.182 A 
ATOM     13  N   UNL A   1      28.836  27.976  23.125  1.00  0.00    -0.153 NA
ATOM     14  H   UNL A   1      29.463  26.226  24.025  1.00  0.00     0.192 HD
BRANCH  12  15
ATOM     15  C   UNL A   1      29.040  30.353  22.527  1.00  0.00     0.024 A 
ATOM     16  C   UNL A   1      28.450  30.323  21.256  1.00  0.00     0.012 A 
ATOM     17  C   UNL A   1      29.158  31.570  23.206  1.00  0.00     0.051 A 
ATOM     18  C   UNL A   1      27.938  31.495  20.692  1.00  0.00     0.004 A 
ATOM     19  C   UNL A   1      28.660  32.730  22.629  1.00  0.00     0.123 A 
ATOM     20  C   UNL A   1      28.040  32.702  21.385  1.00  0.00     0.039 A 
ATOM     21  F   UNL A   1      28.773  33.891  23.286  1.00  0.00    -0.207 F 
ENDBRANCH  12  15
ENDBRANCH   8   9
ENDBRANCH   7   8
ENDBRANCH   5   7
ENDBRANCH   4   5
ENDBRANCH   3   4
ENDBRANCH   2   3
ENDBRANCH   1   2
BRANCH   1  22
ATOM     22  C   UNL A   1      33.368  33.814  28.007  1.00  0.00     0.202 C 
BRANCH  22  23
ATOM     23  C   UNL A   1      32.914  35.144  28.615  1.00  0.00     0.261 C 
BRANCH  23  24
ATOM     24  O   UNL A   1      32.537  34.991  29.991  1.00  0.00    -0.460 OA
BRANCH  24  25
ATOM     25  C   UNL A   1      33.408  35.501  30.894  1.00  0.00     0.338 C 
ATOM     26  O   UNL A   1      33.262  36.508  31.570  1.00  0.00    -0.246 OA
BRANCH  25  27
ATOM     27  C   UNL A   1      34.484  34.514  31.111  1.00  0.00     0.060 A 
ATOM     28  C   UNL A   1      34.139  33.255  31.627  1.00  0.00     0.016 A 
ATOM     29  C   UNL A   1      35.810  34.817  30.800  1.00  0.00     0.016 A 
ATOM     30  C   UNL A   1      35.132  32.309  31.879  1.00  0.00     0.010 A 
ATOM     31  C   UNL A   1      36.801  33.875  31.062  1.00  0.00     0.010 A 
ATOM     32  C   UNL A   1      36.471  32.634  31.636  1.00  0.00    -0.014 A 
BRANCH  32  33
ATOM     33  C   UNL A   1      37.569  31.784  32.142  1.00  0.00     0.031 A 
ATOM     34  C   UNL A   1      38.140  32.112  33.494  1.00  0.00     0.074 A 
ATOM     35  C   UNL A   1      38.076  30.783  31.401  1.00  0.00     0.049 A 
ATOM     36  N   UNL A   1      39.241  31.687  34.052  1.00  0.00    -0.248 NA
ATOM     37  C   UNL A   1      37.371  33.061  34.319  1.00  0.00     0.031 C 
ATOM     38  C   UNL A   1      37.554  30.334  30.111  1.00  0.00     0.029 A 
ATOM     39  N   UNL A   1      39.164  29.979  31.622  1.00  0.00    -0.354 N 
ATOM     40  C   UNL A   1      39.305  32.324  35.286  1.00  0.00     0.074 A 
ATOM     41  C   UNL A   1      38.147  33.184  35.387  1.00  0.00     0.031 C 
ATOM     42  C   UNL A   1      38.335  29.344  29.647  1.00  0.00     0.029 A 
ATOM     43  C   UNL A   1      39.443  29.131  30.576  1.00  0.00     0.049 A 
ATOM     44  H   UNL A   1      39.696  30.007  32.451  1.00  0.00     0.167 HD
ATOM     45  C   UNL A   1      40.248  32.195  36.247  1.00  0.00     0.034 A 
ATOM     46  C   UNL A   1      40.496  28.313  30.379  1.00  0.00     0.034 A 
ATOM     47  C   UNL A   1      41.391  31.330  36.131  1.00  0.00     0.049 A 
ATOM     48  C   UNL A   1      41.586  28.265  31.424  1.00  0.00     0.074 A 
ATOM     49  C   UNL A   1      42.414  31.132  37.040  1.00  0.00     0.029 A 
ATOM     50  N   UNL A   1      41.658  30.513  35.042  1.00  0.00    -0.354 N 
ATOM     51  N   UNL A   1      41.671  28.916  32.562  1.00  0.00    -0.248 NA
ATOM     52  C   UNL A   1      42.727  27.379  31.154  1.00  0.00     0.031 C 
ATOM     53  C   UNL A   1      43.329  30.238  36.478  1.00  0.00     0.029 A 
ATOM     54  C   UNL A   1      42.839  29.821  35.251  1.00  0.00     0.049 A 
ATOM     55  H   UNL A   1      41.092  30.435  34.240  1.00  0.00     0.167 HD
ATOM     56  C   UNL A   1      42.855  28.488  33.157  1.00  0.00     0.074 A 
ATOM     57  C   UNL A   1      43.445  27.519  32.258  1.00  0.00     0.031 C 
ATOM     58  C   UNL A   1      43.406  28.857  34.341  1.00  0.00     0.034 A 
BRANCH  45  59
ATOM     59  C   UNL A   1      40.101  33.012  37.499  1.00  0.00     0.023 A 
ATOM     60  C   UNL A   1      39.425  32.512  38.622  1.00  0.00     0.031 A 
ATOM     61  C   UNL A   1      40.709  34.276  37.593  1.00  0.00     0.131 A 
ATOM     62  C   UNL A   1      39.367  33.277  39.796  1.00  0.00     0.055 A 
ATOM     63  C   UNL A   1      40.692  35.011  38.780  1.00  0.00     0.041 A 
ATOM     64  F   UNL A   1      41.349  34.806  36.539  1.00  0.00    -0.206 F 
ATOM     65  C   UNL A   1      40.018  34.510  39.890  1.00  0.00     0.022 A 
BRANCH  62  66
ATOM     66  S   UNL A   1      38.402  32.651  41.197  1.00  0.00     0.124 S 
ATOM     67  O   UNL A   1      39.320  32.875  42.310  1.00  0.00    -0.237 OA
ATOM     68  O   UNL A   1      37.214  33.497  41.170  1.00  0.00    -0.237 OA
ATOM     69  O   UNL A   1      38.174  31.248  40.856  1.00  0.00    -0.744 OA
ENDBRANCH  62  66
ENDBRANCH  45  59
BRANCH  46  70
ATOM     70  C   UNL A   1      40.606  27.495  29.138  1.00  0.00     0.023 A 
ATOM     71  C   UNL A   1      41.504  27.856  28.122  1.00  0.00     0.031 A 
ATOM     72  C   UNL A   1      39.778  26.380  28.921  1.00  0.00     0.131 A 
ATOM     73  C   UNL A   1      41.522  27.139  26.916  1.00  0.00     0.055 A 
ATOM     74  C   UNL A   1      39.837  25.637  27.740  1.00  0.00     0.041 A 
ATOM     75  F   UNL A   1      38.899  25.992  29.859  1.00  0.00    -0.206 F 
ATOM     76  C   UNL A   1      40.704  26.024  26.723  1.00  0.00     0.022 A 
BRANCH  73  77
ATOM     77  S   UNL A   1      42.581  27.737  25.571  1.00  0.00     0.124 S 
ATOM     78  O   UNL A   1      43.848  27.946  26.263  1.00  0.00    -0.237 OA
ATOM     79  O   UNL A   1      42.539  26.621  24.634  1.00  0.00    -0.237 OA
ATOM     80  O   UNL A   1      41.905  28.952  25.121  1.00  0.00    -0.744 OA
ENDBRANCH  73  77
ENDBRANCH  46  70
BRANCH  58  81
ATOM     81  C   UNL A   1      44.681  28.172  34.757  1.00  0.00     0.023 A 
ATOM     82  C   UNL A   1      44.670  26.955  35.458  1.00  0.00     0.031 A 
ATOM     83  C   UNL A   1      45.925  28.736  34.420  1.00  0.00     0.131 A 
ATOM     84  C   UNL A   1      45.880  26.362  35.841  1.00  0.00     0.055 A 
ATOM     85  C   UNL A   1      47.128  28.110  34.753  1.00  0.00     0.041 A 
ATOM     86  F   UNL A   1      45.991  29.895  33.747  1.00  0.00    -0.206 F 
ATOM     87  C   UNL A   1      47.109  26.921  35.477  1.00  0.00     0.022 A 
BRANCH  84  88
ATOM     88  S   UNL A   1      45.829  24.878  36.879  1.00  0.00     0.124 S 
ATOM     89  O   UNL A   1      45.527  23.836  35.901  1.00  0.00    -0.237 OA
ATOM     90  O   UNL A   1      47.172  24.845  37.449  1.00  0.00    -0.237 OA
ATOM     91  O   UNL A   1      44.759  25.162  37.833  1.00  0.00    -0.744 OA
ENDBRANCH  84  88
ENDBRANCH  58  81
ENDBRANCH  32  33
ENDBRANCH  25  27
ENDBRANCH  24  25
ENDBRANCH  23  24
ENDBRANCH  22  23
ENDBRANCH   1  22
TORSDOF 20
ENDMDL
