MODEL 1
REMARK VINA RESULT:     -12.9      0.000      0.000
REMARK SMILES Cc1cccc(N2C(=O)/C(=C/c3ccc(C(=O)OCCOCCOC(=O)c4ccc(-c5c6nc(c(-c7cc(S(=O)(=O)[O-])ccc7F)c7ccc([nH]7)c(-c7cc(S(=O)(=O)[O-])ccc7F)c7nc(c(-c8cc(S(=O)(=O)[O-])ccc8F)c8ccc5[nH]8)C=C7)C=C6)cc4)cc3)c3ccccc3C2=O)c1
REMARK SMILES IDX 22 1 21 2 20 3 19 4 18 5 16 6 17 7 15 8 12 9 13 10 91 11
REMARK SMILES IDX 14 12 90 13 11 14 7 15 8 16 98 17 9 18 10 19 97 20 99 21
REMARK SMILES IDX 92 22 96 23 93 24 95 25 94 26 6 27 1 28 2 29 3 30 100 31
REMARK SMILES IDX 4 32 5 33 23 34 24 35 25 36 26 37 27 38 28 39 89 40 29 41
REMARK SMILES IDX 88 42 30 43 31 44 32 45 82 46 33 47 87 48 81 49 83 50 34 51
REMARK SMILES IDX 86 52 80 53 79 54 35 56 67 57 47 58 66 59 48 60 51 61 65 62
REMARK SMILES IDX 84 63 49 64 50 65 64 67 85 68 52 69 36 70 37 71 45 72 38 73
REMARK SMILES IDX 44 74 46 75 43 76 39 77 40 78 41 79 42 80 68 81 69 82 77 83
REMARK SMILES IDX 70 84 76 85 78 86 75 87 71 88 72 89 73 90 74 91 53 92 54 93
REMARK SMILES IDX 62 94 55 95 61 96 63 97 60 98 56 99 57 100 58 101 59 102
REMARK H PARENT 83 55 51 66
REMARK Flexibility Score: inf
ROOT
ATOM      1  C   UNL A   1      44.687  18.833  25.357  1.00  0.00     0.202 C 
ENDROOT
BRANCH   1   2
ATOM      2  O   UNL A   1      43.297  18.614  25.298  1.00  0.00    -0.374 OA
BRANCH   2   3
ATOM      3  C   UNL A   1      42.594  18.809  26.519  1.00  0.00     0.202 C 
BRANCH   3   4
ATOM      4  C   UNL A   1      41.224  19.233  26.102  1.00  0.00     0.261 C 
BRANCH   4   5
ATOM      5  O   UNL A   1      40.747  20.374  26.830  1.00  0.00    -0.460 OA
BRANCH   5   6
ATOM      6  C   UNL A   1      40.714  21.603  26.229  1.00  0.00     0.338 C 
ATOM      7  O   UNL A   1      41.586  22.238  25.718  1.00  0.00    -0.246 OA
BRANCH   6   8
ATOM      8  C   UNL A   1      39.275  21.915  26.130  1.00  0.00     0.060 A 
ATOM      9  C   UNL A   1      36.981  23.113  25.213  1.00  0.00    -0.025 A 
ATOM     10  C   UNL A   1      37.698  23.707  26.260  1.00  0.00     0.009 A 
ATOM     11  C   UNL A   1      37.278  21.808  24.809  1.00  0.00     0.009 A 
ATOM     12  C   UNL A   1      38.851  23.095  26.736  1.00  0.00     0.016 A 
ATOM     13  C   UNL A   1      38.454  21.219  25.240  1.00  0.00     0.016 A 
BRANCH   9  14
ATOM     14  C   UNL A   1      36.002  23.926  24.495  1.00  0.00     0.022 C 
ATOM     15  N   UNL A   1      32.711  24.912  24.123  1.00  0.00    -0.242 N 
ATOM     16  C   UNL A   1      33.963  24.661  23.530  1.00  0.00     0.265 C 
ATOM     17  C   UNL A   1      32.131  23.965  25.007  1.00  0.00     0.265 C 
ATOM     18  O   UNL A   1      34.497  25.227  22.577  1.00  0.00    -0.268 OA
ATOM     19  C   UNL A   1      34.733  23.576  24.192  1.00  0.00     0.049 C 
ATOM     20  C   UNL A   1      32.686  22.587  25.000  1.00  0.00     0.048 A 
ATOM     21  O   UNL A   1      31.177  24.140  25.764  1.00  0.00    -0.268 OA
ATOM     22  C   UNL A   1      33.983  22.373  24.539  1.00  0.00    -0.000 A 
ATOM     23  C   UNL A   1      31.900  21.513  25.445  1.00  0.00     0.014 A 
ATOM     24  C   UNL A   1      34.457  21.062  24.424  1.00  0.00     0.010 A 
ATOM     25  C   UNL A   1      32.396  20.215  25.375  1.00  0.00     0.001 A 
ATOM     26  C   UNL A   1      33.665  19.991  24.846  1.00  0.00     0.001 A 
BRANCH  15  27
ATOM     27  C   UNL A   1      32.018  26.167  23.827  1.00  0.00     0.053 A 
ATOM     28  C   UNL A   1      31.632  29.664  25.355  1.00  0.00     0.044 C 
ATOM     29  C   UNL A   1      31.466  28.509  24.412  1.00  0.00    -0.049 A 
ATOM     30  C   UNL A   1      30.675  28.627  23.275  1.00  0.00     0.003 A 
ATOM     31  C   UNL A   1      32.134  27.297  24.659  1.00  0.00     0.030 A 
ATOM     32  C   UNL A   1      30.538  27.538  22.425  1.00  0.00     0.002 A 
ATOM     33  C   UNL A   1      31.191  26.330  22.704  1.00  0.00     0.027 A 
ENDBRANCH  15  27
ENDBRANCH   9  14
ENDBRANCH   6   8
ENDBRANCH   5   6
ENDBRANCH   4   5
ENDBRANCH   3   4
ENDBRANCH   2   3
ENDBRANCH   1   2
BRANCH   1  34
ATOM     34  C   UNL A   1      45.229  19.540  24.111  1.00  0.00     0.261 C 
BRANCH  34  35
ATOM     35  O   UNL A   1      45.775  20.826  24.475  1.00  0.00    -0.460 OA
BRANCH  35  36
ATOM     36  C   UNL A   1      44.943  21.891  24.289  1.00  0.00     0.338 C 
ATOM     37  O   UNL A   1      44.141  21.998  23.377  1.00  0.00    -0.246 OA
BRANCH  36  38
ATOM     38  C   UNL A   1      45.256  22.962  25.279  1.00  0.00     0.060 A 
ATOM     39  C   UNL A   1      44.732  22.903  26.585  1.00  0.00     0.016 A 
ATOM     40  C   UNL A   1      45.851  24.136  24.825  1.00  0.00     0.016 A 
ATOM     41  C   UNL A   1      44.666  24.064  27.375  1.00  0.00     0.010 A 
ATOM     42  C   UNL A   1      45.708  25.286  25.571  1.00  0.00     0.010 A 
ATOM     43  C   UNL A   1      45.080  25.276  26.829  1.00  0.00    -0.014 A 
BRANCH  43  44
ATOM     44  C   UNL A   1      44.815  26.618  27.369  1.00  0.00     0.031 A 
ATOM     45  C   UNL A   1      43.413  27.094  27.391  1.00  0.00     0.074 A 
ATOM     46  C   UNL A   1      45.739  27.255  28.135  1.00  0.00     0.049 A 
ATOM     47  N   UNL A   1      43.060  28.257  27.806  1.00  0.00    -0.248 NA
ATOM     48  C   UNL A   1      42.270  26.313  26.910  1.00  0.00     0.031 C 
ATOM     49  C   UNL A   1      45.515  28.227  29.209  1.00  0.00     0.029 A 
ATOM     50  N   UNL A   1      47.132  27.180  28.085  1.00  0.00    -0.354 N 
ATOM     51  C   UNL A   1      41.707  28.224  28.035  1.00  0.00     0.074 A 
ATOM     52  C   UNL A   1      41.245  27.073  27.309  1.00  0.00     0.031 C 
ATOM     53  C   UNL A   1      46.668  28.856  29.498  1.00  0.00     0.029 A 
ATOM     54  C   UNL A   1      47.653  28.403  28.534  1.00  0.00     0.049 A 
ATOM     55  H   UNL A   1      47.658  26.403  27.786  1.00  0.00     0.167 HD
ATOM     56  C   UNL A   1      41.194  29.104  28.939  1.00  0.00     0.034 A 
ATOM     57  C   UNL A   1      48.444  29.150  27.721  1.00  0.00     0.034 A 
ATOM     58  C   UNL A   1      42.202  30.113  29.308  1.00  0.00     0.049 A 
ATOM     59  C   UNL A   1      47.704  30.433  27.432  1.00  0.00     0.074 A 
ATOM     60  C   UNL A   1      42.891  30.416  30.469  1.00  0.00     0.029 A 
ATOM     61  N   UNL A   1      42.839  30.820  28.286  1.00  0.00    -0.354 N 
ATOM     62  N   UNL A   1      46.413  30.549  27.610  1.00  0.00    -0.248 NA
ATOM     63  C   UNL A   1      48.325  31.698  27.070  1.00  0.00     0.031 C 
ATOM     64  C   UNL A   1      44.018  31.221  30.106  1.00  0.00     0.029 A 
ATOM     65  C   UNL A   1      43.983  31.446  28.737  1.00  0.00     0.049 A 
ATOM     66  H   UNL A   1      42.512  30.866  27.359  1.00  0.00     0.167 HD
ATOM     67  C   UNL A   1      46.045  31.853  27.532  1.00  0.00     0.074 A 
ATOM     68  C   UNL A   1      47.270  32.534  27.135  1.00  0.00     0.031 C 
ATOM     69  C   UNL A   1      44.776  32.271  27.826  1.00  0.00     0.034 A 
BRANCH  56  70
ATOM     70  C   UNL A   1      39.847  28.983  29.627  1.00  0.00     0.023 A 
ATOM     71  C   UNL A   1      38.745  29.680  29.083  1.00  0.00     0.031 A 
ATOM     72  C   UNL A   1      39.580  28.304  30.839  1.00  0.00     0.131 A 
ATOM     73  C   UNL A   1      37.484  29.678  29.714  1.00  0.00     0.055 A 
ATOM     74  C   UNL A   1      38.311  28.256  31.434  1.00  0.00     0.041 A 
ATOM     75  F   UNL A   1      40.531  27.698  31.556  1.00  0.00    -0.206 F 
ATOM     76  C   UNL A   1      37.253  28.948  30.875  1.00  0.00     0.022 A 
BRANCH  73  77
ATOM     77  S   UNL A   1      36.147  30.690  29.024  1.00  0.00     0.124 S 
ATOM     78  O   UNL A   1      35.205  29.676  28.558  1.00  0.00    -0.237 OA
ATOM     79  O   UNL A   1      35.730  31.484  30.173  1.00  0.00    -0.237 OA
ATOM     80  O   UNL A   1      36.808  31.447  27.961  1.00  0.00    -0.744 OA
ENDBRANCH  73  77
ENDBRANCH  56  70
BRANCH  57  81
ATOM     81  C   UNL A   1      49.289  28.273  26.843  1.00  0.00     0.023 A 
ATOM     82  C   UNL A   1      48.692  27.817  25.632  1.00  0.00     0.031 A 
ATOM     83  C   UNL A   1      50.691  28.333  26.877  1.00  0.00     0.131 A 
ATOM     84  C   UNL A   1      49.470  27.593  24.477  1.00  0.00     0.055 A 
ATOM     85  C   UNL A   1      51.463  28.084  25.730  1.00  0.00     0.041 A 
ATOM     86  F   UNL A   1      51.325  28.787  27.968  1.00  0.00    -0.206 F 
ATOM     87  C   UNL A   1      50.854  27.760  24.515  1.00  0.00     0.022 A 
BRANCH  84  88
ATOM     88  S   UNL A   1      48.644  27.409  22.855  1.00  0.00     0.124 S 
ATOM     89  O   UNL A   1      48.638  25.964  22.663  1.00  0.00    -0.237 OA
ATOM     90  O   UNL A   1      47.339  28.019  23.084  1.00  0.00    -0.237 OA
ATOM     91  O   UNL A   1      49.501  28.170  21.947  1.00  0.00    -0.744 OA
ENDBRANCH  84  88
ENDBRANCH  57  81
BRANCH  69  92
ATOM     92  C   UNL A   1      44.180  33.545  27.292  1.00  0.00     0.023 A 
ATOM     93  C   UNL A   1      44.109  34.709  28.064  1.00  0.00     0.031 A 
ATOM     94  C   UNL A   1      43.799  33.677  25.936  1.00  0.00     0.131 A 
ATOM     95  C   UNL A   1      43.592  35.897  27.537  1.00  0.00     0.055 A 
ATOM     96  C   UNL A   1      43.393  34.892  25.381  1.00  0.00     0.041 A 
ATOM     97  F   UNL A   1      43.826  32.643  25.084  1.00  0.00    -0.206 F 
ATOM     98  C   UNL A   1      43.267  36.012  26.190  1.00  0.00     0.022 A 
BRANCH  95  99
ATOM     99  S   UNL A   1      43.270  37.246  28.695  1.00  0.00     0.124 S 
ATOM    100  O   UNL A   1      41.920  37.650  28.310  1.00  0.00    -0.237 OA
ATOM    101  O   UNL A   1      43.385  36.584  29.991  1.00  0.00    -0.237 OA
ATOM    102  O   UNL A   1      44.320  38.216  28.393  1.00  0.00    -0.744 OA
ENDBRANCH  95  99
ENDBRANCH  69  92
ENDBRANCH  43  44
ENDBRANCH  36  38
ENDBRANCH  35  36
ENDBRANCH  34  35
ENDBRANCH   1  34
TORSDOF 19
ENDMDL
MODEL 2
REMARK VINA RESULT:     -12.4      4.736     11.123
REMARK SMILES Cc1cccc(N2C(=O)/C(=C/c3ccc(C(=O)OCCOCCOC(=O)c4ccc(-c5c6nc(c(-c7cc(S(=O)(=O)[O-])ccc7F)c7ccc([nH]7)c(-c7cc(S(=O)(=O)[O-])ccc7F)c7nc(c(-c8cc(S(=O)(=O)[O-])ccc8F)c8ccc5[nH]8)C=C7)C=C6)cc4)cc3)c3ccccc3C2=O)c1
REMARK SMILES IDX 22 1 21 2 20 3 19 4 18 5 16 6 17 7 15 8 12 9 13 10 91 11
REMARK SMILES IDX 14 12 90 13 11 14 7 15 8 16 98 17 9 18 10 19 97 20 99 21
REMARK SMILES IDX 92 22 96 23 93 24 95 25 94 26 6 27 1 28 2 29 3 30 100 31
REMARK SMILES IDX 4 32 5 33 23 34 24 35 25 36 26 37 27 38 28 39 89 40 29 41
REMARK SMILES IDX 88 42 30 43 31 44 32 45 82 46 33 47 87 48 81 49 83 50 34 51
REMARK SMILES IDX 86 52 80 53 79 54 35 56 67 57 47 58 66 59 48 60 51 61 65 62
REMARK SMILES IDX 84 63 49 64 50 65 64 67 85 68 52 69 36 70 37 71 45 72 38 73
REMARK SMILES IDX 44 74 46 75 43 76 39 77 40 78 41 79 42 80 68 81 69 82 77 83
REMARK SMILES IDX 70 84 76 85 78 86 75 87 71 88 72 89 73 90 74 91 53 92 54 93
REMARK SMILES IDX 62 94 55 95 61 96 63 97 60 98 56 99 57 100 58 101 59 102
REMARK H PARENT 83 55 51 66
REMARK Flexibility Score: inf
ROOT
ATOM      1  C   UNL A   1      34.375  31.101  28.182  1.00  0.00     0.202 C 
ENDROOT
BRANCH   1   2
ATOM      2  O   UNL A   1      33.317  30.875  27.281  1.00  0.00    -0.374 OA
BRANCH   2   3
ATOM      3  C   UNL A   1      33.255  29.567  26.724  1.00  0.00     0.202 C 
BRANCH   3   4
ATOM      4  C   UNL A   1      31.813  29.188  26.809  1.00  0.00     0.261 C 
BRANCH   4   5
ATOM      5  O   UNL A   1      31.540  27.902  26.232  1.00  0.00    -0.460 OA
BRANCH   5   6
ATOM      6  C   UNL A   1      30.895  27.817  25.029  1.00  0.00     0.338 C 
ATOM      7  O   UNL A   1      30.802  28.612  24.143  1.00  0.00    -0.246 OA
BRANCH   6   8
ATOM      8  C   UNL A   1      30.501  26.397  24.933  1.00  0.00     0.060 A 
ATOM      9  C   UNL A   1      30.745  23.710  24.425  1.00  0.00    -0.025 A 
ATOM     10  C   UNL A   1      30.315  24.569  23.404  1.00  0.00     0.009 A 
ATOM     11  C   UNL A   1      30.806  24.164  25.746  1.00  0.00     0.009 A 
ATOM     12  C   UNL A   1      30.177  25.927  23.662  1.00  0.00     0.016 A 
ATOM     13  C   UNL A   1      30.722  25.522  25.998  1.00  0.00     0.016 A 
BRANCH   9  14
ATOM     14  C   UNL A   1      31.224  22.381  24.056  1.00  0.00     0.022 C 
ATOM     15  N   UNL A   1      33.645  19.936  24.383  1.00  0.00    -0.242 N 
ATOM     16  C   UNL A   1      32.675  20.564  23.579  1.00  0.00     0.265 C 
ATOM     17  C   UNL A   1      34.595  20.709  25.100  1.00  0.00     0.265 C 
ATOM     18  O   UNL A   1      31.948  20.074  22.716  1.00  0.00    -0.268 OA
ATOM     19  C   UNL A   1      32.510  22.014  23.862  1.00  0.00     0.049 C 
ATOM     20  C   UNL A   1      34.769  22.130  24.701  1.00  0.00     0.048 A 
ATOM     21  O   UNL A   1      35.339  20.326  26.003  1.00  0.00    -0.268 OA
ATOM     22  C   UNL A   1      33.741  22.782  24.026  1.00  0.00    -0.000 A 
ATOM     23  C   UNL A   1      35.968  22.798  24.994  1.00  0.00     0.014 A 
ATOM     24  C   UNL A   1      33.954  24.080  23.549  1.00  0.00     0.010 A 
ATOM     25  C   UNL A   1      36.155  24.107  24.561  1.00  0.00     0.001 A 
ATOM     26  C   UNL A   1      35.156  24.737  23.823  1.00  0.00     0.001 A 
BRANCH  15  27
ATOM     27  C   UNL A   1      33.656  18.476  24.482  1.00  0.00     0.053 A 
ATOM     28  C   UNL A   1      31.630  15.697  26.182  1.00  0.00     0.044 C 
ATOM     29  C   UNL A   1      32.687  16.372  25.358  1.00  0.00    -0.049 A 
ATOM     30  C   UNL A   1      33.655  15.627  24.695  1.00  0.00     0.003 A 
ATOM     31  C   UNL A   1      32.692  17.771  25.229  1.00  0.00     0.030 A 
ATOM     32  C   UNL A   1      34.622  16.282  23.943  1.00  0.00     0.002 A 
ATOM     33  C   UNL A   1      34.624  17.680  23.849  1.00  0.00     0.027 A 
ENDBRANCH  15  27
ENDBRANCH   9  14
ENDBRANCH   6   8
ENDBRANCH   5   6
ENDBRANCH   4   5
ENDBRANCH   3   4
ENDBRANCH   2   3
ENDBRANCH   1   2
BRANCH   1  34
ATOM     34  C   UNL A   1      35.301  32.237  27.736  1.00  0.00     0.261 C 
BRANCH  34  35
ATOM     35  O   UNL A   1      34.767  33.505  28.175  1.00  0.00    -0.460 OA
BRANCH  35  36
ATOM     36  C   UNL A   1      34.676  33.668  29.527  1.00  0.00     0.338 C 
ATOM     37  O   UNL A   1      33.684  34.062  30.116  1.00  0.00    -0.246 OA
BRANCH  36  38
ATOM     38  C   UNL A   1      36.005  33.430  30.160  1.00  0.00     0.060 A 
ATOM     39  C   UNL A   1      37.186  33.866  29.528  1.00  0.00     0.016 A 
ATOM     40  C   UNL A   1      36.081  32.556  31.240  1.00  0.00     0.016 A 
ATOM     41  C   UNL A   1      38.427  33.304  29.879  1.00  0.00     0.010 A 
ATOM     42  C   UNL A   1      37.286  31.950  31.522  1.00  0.00     0.010 A 
ATOM     43  C   UNL A   1      38.461  32.281  30.823  1.00  0.00    -0.014 A 
BRANCH  43  44
ATOM     44  C   UNL A   1      39.588  31.379  31.098  1.00  0.00     0.031 A 
ATOM     45  C   UNL A   1      39.657  30.103  30.348  1.00  0.00     0.074 A 
ATOM     46  C   UNL A   1      40.701  31.829  31.735  1.00  0.00     0.049 A 
ATOM     47  N   UNL A   1      40.573  29.220  30.525  1.00  0.00    -0.248 NA
ATOM     48  C   UNL A   1      38.673  29.681  29.348  1.00  0.00     0.031 C 
ATOM     49  C   UNL A   1      42.082  31.358  31.594  1.00  0.00     0.029 A 
ATOM     50  N   UNL A   1      40.822  32.827  32.704  1.00  0.00    -0.354 N 
ATOM     51  C   UNL A   1      40.549  28.375  29.444  1.00  0.00     0.074 A 
ATOM     52  C   UNL A   1      39.263  28.593  28.842  1.00  0.00     0.031 C 
ATOM     53  C   UNL A   1      42.827  31.829  32.610  1.00  0.00     0.029 A 
ATOM     54  C   UNL A   1      41.925  32.518  33.514  1.00  0.00     0.049 A 
ATOM     55  H   UNL A   1      40.235  33.611  32.802  1.00  0.00     0.167 HD
ATOM     56  C   UNL A   1      41.698  27.714  29.128  1.00  0.00     0.034 A 
ATOM     57  C   UNL A   1      41.762  32.329  34.850  1.00  0.00     0.034 A 
ATOM     58  C   UNL A   1      42.690  27.859  30.207  1.00  0.00     0.049 A 
ATOM     59  C   UNL A   1      42.099  30.889  35.143  1.00  0.00     0.074 A 
ATOM     60  C   UNL A   1      43.920  28.485  30.317  1.00  0.00     0.029 A 
ATOM     61  N   UNL A   1      42.309  27.527  31.509  1.00  0.00    -0.354 N 
ATOM     62  N   UNL A   1      42.121  29.973  34.208  1.00  0.00    -0.248 NA
ATOM     63  C   UNL A   1      42.564  30.378  36.424  1.00  0.00     0.031 C 
ATOM     64  C   UNL A   1      44.211  28.626  31.711  1.00  0.00     0.029 A 
ATOM     65  C   UNL A   1      43.185  28.043  32.442  1.00  0.00     0.049 A 
ATOM     66  H   UNL A   1      41.514  26.992  31.733  1.00  0.00     0.167 HD
ATOM     67  C   UNL A   1      42.699  28.838  34.678  1.00  0.00     0.074 A 
ATOM     68  C   UNL A   1      42.910  29.119  36.092  1.00  0.00     0.031 C 
ATOM     69  C   UNL A   1      42.983  27.775  33.866  1.00  0.00     0.034 A 
BRANCH  56  70
ATOM     70  C   UNL A   1      42.010  27.069  27.791  1.00  0.00     0.023 A 
ATOM     71  C   UNL A   1      42.365  25.702  27.766  1.00  0.00     0.031 A 
ATOM     72  C   UNL A   1      42.076  27.721  26.538  1.00  0.00     0.131 A 
ATOM     73  C   UNL A   1      42.745  25.058  26.571  1.00  0.00     0.055 A 
ATOM     74  C   UNL A   1      42.398  27.066  25.341  1.00  0.00     0.041 A 
ATOM     75  F   UNL A   1      41.895  29.038  26.395  1.00  0.00    -0.206 F 
ATOM     76  C   UNL A   1      42.739  25.726  25.351  1.00  0.00     0.022 A 
BRANCH  73  77
ATOM     77  S   UNL A   1      43.302  23.333  26.632  1.00  0.00     0.124 S 
ATOM     78  O   UNL A   1      44.748  23.473  26.484  1.00  0.00    -0.237 OA
ATOM     79  O   UNL A   1      42.823  22.895  27.937  1.00  0.00    -0.237 OA
ATOM     80  O   UNL A   1      42.625  22.717  25.490  1.00  0.00    -0.744 OA
ENDBRANCH  73  77
ENDBRANCH  56  70
BRANCH  57  81
ATOM     81  C   UNL A   1      40.685  33.227  35.390  1.00  0.00     0.023 A 
ATOM     82  C   UNL A   1      39.534  32.586  35.933  1.00  0.00     0.031 A 
ATOM     83  C   UNL A   1      40.971  34.520  35.852  1.00  0.00     0.131 A 
ATOM     84  C   UNL A   1      38.816  33.165  37.000  1.00  0.00     0.055 A 
ATOM     85  C   UNL A   1      40.236  35.103  36.899  1.00  0.00     0.041 A 
ATOM     86  F   UNL A   1      42.058  35.173  35.416  1.00  0.00    -0.206 F 
ATOM     87  C   UNL A   1      39.187  34.409  37.508  1.00  0.00     0.022 A 
BRANCH  84  88
ATOM     88  S   UNL A   1      37.614  32.150  37.935  1.00  0.00     0.124 S 
ATOM     89  O   UNL A   1      37.713  30.853  37.278  1.00  0.00    -0.237 OA
ATOM     90  O   UNL A   1      38.132  32.207  39.298  1.00  0.00    -0.237 OA
ATOM     91  O   UNL A   1      36.350  32.863  37.752  1.00  0.00    -0.744 OA
ENDBRANCH  84  88
ENDBRANCH  57  81
BRANCH  69  92
ATOM     92  C   UNL A   1      43.132  26.366  34.370  1.00  0.00     0.023 A 
ATOM     93  C   UNL A   1      44.373  25.722  34.413  1.00  0.00     0.031 A 
ATOM     94  C   UNL A   1      42.054  25.670  34.966  1.00  0.00     0.131 A 
ATOM     95  C   UNL A   1      44.500  24.427  34.926  1.00  0.00     0.055 A 
ATOM     96  C   UNL A   1      42.206  24.427  35.583  1.00  0.00     0.041 A 
ATOM     97  F   UNL A   1      40.812  26.175  35.001  1.00  0.00    -0.206 F 
ATOM     98  C   UNL A   1      43.434  23.785  35.547  1.00  0.00     0.022 A 
BRANCH  95  99
ATOM     99  S   UNL A   1      46.075  23.584  34.663  1.00  0.00     0.124 S 
ATOM    100  O   UNL A   1      45.692  22.525  33.733  1.00  0.00    -0.237 OA
ATOM    101  O   UNL A   1      46.911  24.641  34.104  1.00  0.00    -0.237 OA
ATOM    102  O   UNL A   1      46.451  23.131  36.001  1.00  0.00    -0.744 OA
ENDBRANCH  95  99
ENDBRANCH  69  92
ENDBRANCH  43  44
ENDBRANCH  36  38
ENDBRANCH  35  36
ENDBRANCH  34  35
ENDBRANCH   1  34
TORSDOF 19
ENDMDL
MODEL 3
REMARK VINA RESULT:     -12.3      4.718      7.020
REMARK SMILES Cc1cccc(N2C(=O)/C(=C/c3ccc(C(=O)OCCOCCOC(=O)c4ccc(-c5c6nc(c(-c7cc(S(=O)(=O)[O-])ccc7F)c7ccc([nH]7)c(-c7cc(S(=O)(=O)[O-])ccc7F)c7nc(c(-c8cc(S(=O)(=O)[O-])ccc8F)c8ccc5[nH]8)C=C7)C=C6)cc4)cc3)c3ccccc3C2=O)c1
REMARK SMILES IDX 22 1 21 2 20 3 19 4 18 5 16 6 17 7 15 8 12 9 13 10 91 11
REMARK SMILES IDX 14 12 90 13 11 14 7 15 8 16 98 17 9 18 10 19 97 20 99 21
REMARK SMILES IDX 92 22 96 23 93 24 95 25 94 26 6 27 1 28 2 29 3 30 100 31
REMARK SMILES IDX 4 32 5 33 23 34 24 35 25 36 26 37 27 38 28 39 89 40 29 41
REMARK SMILES IDX 88 42 30 43 31 44 32 45 82 46 33 47 87 48 81 49 83 50 34 51
REMARK SMILES IDX 86 52 80 53 79 54 35 56 67 57 47 58 66 59 48 60 51 61 65 62
REMARK SMILES IDX 84 63 49 64 50 65 64 67 85 68 52 69 36 70 37 71 45 72 38 73
REMARK SMILES IDX 44 74 46 75 43 76 39 77 40 78 41 79 42 80 68 81 69 82 77 83
REMARK SMILES IDX 70 84 76 85 78 86 75 87 71 88 72 89 73 90 74 91 53 92 54 93
REMARK SMILES IDX 62 94 55 95 61 96 63 97 60 98 56 99 57 100 58 101 59 102
REMARK H PARENT 83 55 51 66
REMARK Flexibility Score: inf
ROOT
ATOM      1  C   UNL A   1      41.671  23.712  26.876  1.00  0.00     0.202 C 
ENDROOT
BRANCH   1   2
ATOM      2  O   UNL A   1      41.260  22.511  26.265  1.00  0.00    -0.374 OA
BRANCH   2   3
ATOM      3  C   UNL A   1      40.378  21.703  27.035  1.00  0.00     0.202 C 
BRANCH   3   4
ATOM      4  C   UNL A   1      39.510  21.025  26.026  1.00  0.00     0.261 C 
BRANCH   4   5
ATOM      5  O   UNL A   1      38.110  21.167  26.309  1.00  0.00    -0.460 OA
BRANCH   5   6
ATOM      6  C   UNL A   1      37.189  20.952  25.322  1.00  0.00     0.338 C 
ATOM      7  O   UNL A   1      36.618  19.955  25.000  1.00  0.00    -0.246 OA
BRANCH   6   8
ATOM      8  C   UNL A   1      36.849  22.308  24.846  1.00  0.00     0.060 A 
ATOM      9  C   UNL A   1      35.287  24.387  23.965  1.00  0.00    -0.025 A 
ATOM     10  C   UNL A   1      35.840  23.496  23.034  1.00  0.00     0.009 A 
ATOM     11  C   UNL A   1      35.723  24.376  25.293  1.00  0.00     0.009 A 
ATOM     12  C   UNL A   1      36.642  22.453  23.476  1.00  0.00     0.016 A 
ATOM     13  C   UNL A   1      36.478  23.308  25.747  1.00  0.00     0.016 A 
BRANCH   9  14
ATOM     14  C   UNL A   1      34.180  25.238  23.537  1.00  0.00     0.022 C 
ATOM     15  N   UNL A   1      31.105  26.642  24.256  1.00  0.00    -0.242 N 
ATOM     16  C   UNL A   1      31.998  26.139  23.291  1.00  0.00     0.265 C 
ATOM     17  C   UNL A   1      30.837  25.907  25.441  1.00  0.00     0.265 C 
ATOM     18  O   UNL A   1      32.164  26.498  22.127  1.00  0.00    -0.268 OA
ATOM     19  C   UNL A   1      32.868  25.044  23.794  1.00  0.00     0.049 C 
ATOM     20  C   UNL A   1      31.223  24.472  25.463  1.00  0.00     0.048 A 
ATOM     21  O   UNL A   1      30.274  26.312  26.458  1.00  0.00    -0.268 OA
ATOM     22  C   UNL A   1      32.211  24.015  24.595  1.00  0.00    -0.000 A 
ATOM     23  C   UNL A   1      30.583  23.589  26.346  1.00  0.00     0.014 A 
ATOM     24  C   UNL A   1      32.487  22.645  24.538  1.00  0.00     0.010 A 
ATOM     25  C   UNL A   1      30.897  22.233  26.319  1.00  0.00     0.001 A 
ATOM     26  C   UNL A   1      31.833  21.762  25.402  1.00  0.00     0.001 A 
BRANCH  15  27
ATOM     27  C   UNL A   1      30.464  27.937  24.031  1.00  0.00     0.053 A 
ATOM     28  C   UNL A   1      27.280  29.324  22.402  1.00  0.00     0.044 C 
ATOM     29  C   UNL A   1      28.595  29.285  23.123  1.00  0.00    -0.049 A 
ATOM     30  C   UNL A   1      29.194  30.455  23.575  1.00  0.00     0.003 A 
ATOM     31  C   UNL A   1      29.225  28.053  23.371  1.00  0.00     0.030 A 
ATOM     32  C   UNL A   1      30.413  30.386  24.235  1.00  0.00     0.002 A 
ATOM     33  C   UNL A   1      31.037  29.150  24.449  1.00  0.00     0.027 A 
ENDBRANCH  15  27
ENDBRANCH   9  14
ENDBRANCH   6   8
ENDBRANCH   5   6
ENDBRANCH   4   5
ENDBRANCH   3   4
ENDBRANCH   2   3
ENDBRANCH   1   2
BRANCH   1  34
ATOM     34  C   UNL A   1      40.521  24.444  27.575  1.00  0.00     0.261 C 
BRANCH  34  35
ATOM     35  O   UNL A   1      39.872  25.338  26.646  1.00  0.00    -0.460 OA
BRANCH  35  36
ATOM     36  C   UNL A   1      40.639  26.371  26.191  1.00  0.00     0.338 C 
ATOM     37  O   UNL A   1      41.523  26.269  25.358  1.00  0.00    -0.246 OA
BRANCH  36  38
ATOM     38  C   UNL A   1      40.332  27.612  26.960  1.00  0.00     0.060 A 
ATOM     39  C   UNL A   1      41.352  28.534  27.266  1.00  0.00     0.016 A 
ATOM     40  C   UNL A   1      39.094  27.718  27.587  1.00  0.00     0.016 A 
ATOM     41  C   UNL A   1      41.180  29.461  28.309  1.00  0.00     0.010 A 
ATOM     42  C   UNL A   1      38.962  28.571  28.661  1.00  0.00     0.010 A 
ATOM     43  C   UNL A   1      40.010  29.419  29.063  1.00  0.00    -0.014 A 
BRANCH  43  44
ATOM     44  C   UNL A   1      39.773  30.083  30.353  1.00  0.00     0.031 A 
ATOM     45  C   UNL A   1      39.067  31.385  30.346  1.00  0.00     0.074 A 
ATOM     46  C   UNL A   1      39.872  29.393  31.519  1.00  0.00     0.049 A 
ATOM     47  N   UNL A   1      38.833  32.075  31.403  1.00  0.00    -0.248 NA
ATOM     48  C   UNL A   1      38.586  32.054  29.135  1.00  0.00     0.031 C 
ATOM     49  C   UNL A   1      39.151  29.624  32.775  1.00  0.00     0.029 A 
ATOM     50  N   UNL A   1      40.695  28.312  31.841  1.00  0.00    -0.354 N 
ATOM     51  C   UNL A   1      37.867  32.999  31.091  1.00  0.00     0.074 A 
ATOM     52  C   UNL A   1      37.876  33.061  29.655  1.00  0.00     0.031 C 
ATOM     53  C   UNL A   1      39.749  28.947  33.771  1.00  0.00     0.029 A 
ATOM     54  C   UNL A   1      40.953  28.354  33.219  1.00  0.00     0.049 A 
ATOM     55  H   UNL A   1      41.036  27.638  31.209  1.00  0.00     0.167 HD
ATOM     56  C   UNL A   1      37.089  33.471  32.104  1.00  0.00     0.034 A 
ATOM     57  C   UNL A   1      42.229  28.456  33.674  1.00  0.00     0.034 A 
ATOM     58  C   UNL A   1      37.637  33.065  33.410  1.00  0.00     0.049 A 
ATOM     59  C   UNL A   1      42.349  29.786  34.376  1.00  0.00     0.074 A 
ATOM     60  C   UNL A   1      37.208  32.226  34.423  1.00  0.00     0.029 A 
ATOM     61  N   UNL A   1      38.977  33.349  33.685  1.00  0.00    -0.354 N 
ATOM     62  N   UNL A   1      41.495  30.758  34.180  1.00  0.00    -0.248 NA
ATOM     63  C   UNL A   1      43.307  30.099  35.426  1.00  0.00     0.031 C 
ATOM     64  C   UNL A   1      38.343  31.921  35.241  1.00  0.00     0.029 A 
ATOM     65  C   UNL A   1      39.443  32.612  34.754  1.00  0.00     0.049 A 
ATOM     66  H   UNL A   1      39.520  33.995  33.179  1.00  0.00     0.167 HD
ATOM     67  C   UNL A   1      41.671  31.731  35.110  1.00  0.00     0.074 A 
ATOM     68  C   UNL A   1      42.858  31.301  35.838  1.00  0.00     0.031 C 
ATOM     69  C   UNL A   1      40.816  32.791  35.226  1.00  0.00     0.034 A 
BRANCH  56  70
ATOM     70  C   UNL A   1      35.747  34.161  31.943  1.00  0.00     0.023 A 
ATOM     71  C   UNL A   1      35.186  34.255  30.650  1.00  0.00     0.031 A 
ATOM     72  C   UNL A   1      35.014  34.821  32.957  1.00  0.00     0.131 A 
ATOM     73  C   UNL A   1      33.983  34.952  30.414  1.00  0.00     0.055 A 
ATOM     74  C   UNL A   1      33.789  35.464  32.731  1.00  0.00     0.041 A 
ATOM     75  F   UNL A   1      35.458  34.940  34.212  1.00  0.00    -0.206 F 
ATOM     76  C   UNL A   1      33.266  35.536  31.453  1.00  0.00     0.022 A 
BRANCH  73  77
ATOM     77  S   UNL A   1      33.382  35.134  28.713  1.00  0.00     0.124 S 
ATOM     78  O   UNL A   1      32.285  36.082  28.875  1.00  0.00    -0.237 OA
ATOM     79  O   UNL A   1      34.564  35.623  28.014  1.00  0.00    -0.237 OA
ATOM     80  O   UNL A   1      32.972  33.776  28.351  1.00  0.00    -0.744 OA
ENDBRANCH  73  77
ENDBRANCH  56  70
BRANCH  57  81
ATOM     81  C   UNL A   1      43.179  27.720  32.772  1.00  0.00     0.023 A 
ATOM     82  C   UNL A   1      43.927  28.511  31.852  1.00  0.00     0.031 A 
ATOM     83  C   UNL A   1      43.727  26.481  33.139  1.00  0.00     0.131 A 
ATOM     84  C   UNL A   1      45.228  28.132  31.459  1.00  0.00     0.055 A 
ATOM     85  C   UNL A   1      45.013  26.098  32.723  1.00  0.00     0.041 A 
ATOM     86  F   UNL A   1      43.101  25.698  34.029  1.00  0.00    -0.206 F 
ATOM     87  C   UNL A   1      45.786  26.941  31.921  1.00  0.00     0.022 A 
BRANCH  84  88
ATOM     88  S   UNL A   1      46.305  29.348  30.616  1.00  0.00     0.124 S 
ATOM     89  O   UNL A   1      45.360  30.376  30.202  1.00  0.00    -0.237 OA
ATOM     90  O   UNL A   1      47.239  29.736  31.668  1.00  0.00    -0.237 OA
ATOM     91  O   UNL A   1      46.917  28.572  29.539  1.00  0.00    -0.744 OA
ENDBRANCH  84  88
ENDBRANCH  57  81
BRANCH  69  92
ATOM     92  C   UNL A   1      41.207  34.106  35.844  1.00  0.00     0.023 A 
ATOM     93  C   UNL A   1      40.764  34.487  37.115  1.00  0.00     0.031 A 
ATOM     94  C   UNL A   1      42.162  34.957  35.241  1.00  0.00     0.131 A 
ATOM     95  C   UNL A   1      41.173  35.693  37.693  1.00  0.00     0.055 A 
ATOM     96  C   UNL A   1      42.658  36.101  35.869  1.00  0.00     0.041 A 
ATOM     97  F   UNL A   1      42.675  34.707  34.028  1.00  0.00    -0.206 F 
ATOM     98  C   UNL A   1      42.146  36.489  37.098  1.00  0.00     0.022 A 
BRANCH  95  99
ATOM     99  S   UNL A   1      40.317  36.226  39.191  1.00  0.00     0.124 S 
ATOM    100  O   UNL A   1      41.429  36.684  40.020  1.00  0.00    -0.237 OA
ATOM    101  O   UNL A   1      39.429  37.272  38.694  1.00  0.00    -0.237 OA
ATOM    102  O   UNL A   1      39.652  35.011  39.658  1.00  0.00    -0.744 OA
ENDBRANCH  95  99
ENDBRANCH  69  92
ENDBRANCH  43  44
ENDBRANCH  36  38
ENDBRANCH  35  36
ENDBRANCH  34  35
ENDBRANCH   1  34
TORSDOF 19
ENDMDL
