MODEL 1
REMARK VINA RESULT:     -10.3      0.000      0.000
REMARK SMILES CCOC(=O)c1sc(NC(=O)CCC(=O)OCCOCCOC(=O)c2ccc(-c3c4nc(c(-c5cc(S(=O)(=O)[O-])ccc5F)c5ccc([nH]5)c(-c5cc(S(=O)(=O)[O-])ccc5F)c5nc(c(-c6cc(S(=O)(=O)[O-])ccc6F)c6ccc3[nH]6)C=C5)C=C4)cc2)c(C#N)c1C
REMARK SMILES IDX 17 1 16 2 14 3 15 4 13 5 12 6 10 7 9 8 11 10 8 11 6 12 7 13
REMARK SMILES IDX 91 14 88 15 92 16 4 17 5 18 3 19 2 20 1 21 89 22 90 23 18 24
REMARK SMILES IDX 19 25 20 26 21 27 22 28 23 29 24 30 25 31 26 32 87 33 27 34
REMARK SMILES IDX 86 35 28 36 29 37 30 38 80 39 31 40 85 41 79 42 81 43 32 44
REMARK SMILES IDX 84 45 78 46 77 47 33 49 65 50 45 51 64 52 46 53 49 54 63 55
REMARK SMILES IDX 82 56 47 57 48 58 62 60 83 61 50 62 34 63 35 64 43 65 36 66
REMARK SMILES IDX 42 67 44 68 41 69 37 70 38 71 39 72 40 73 66 74 67 75 75 76
REMARK SMILES IDX 68 77 74 78 76 79 73 80 69 81 70 82 71 83 72 84 51 85 52 86
REMARK SMILES IDX 60 87 53 88 59 89 61 90 58 91 54 92 55 93 56 94 57 95
REMARK H PARENT 9 9 81 48 49 59
REMARK Flexibility Score: inf
ROOT
ATOM      1  C   UNL A   1      32.038  29.955  25.543  1.00  0.00     0.261 C 
ENDROOT
BRANCH   1   2
ATOM      2  O   UNL A   1      31.500  28.666  25.824  1.00  0.00    -0.463 OA
BRANCH   2   3
ATOM      3  C   UNL A   1      32.452  27.712  25.750  1.00  0.00     0.306 C 
ATOM      4  O   UNL A   1      32.511  26.742  26.501  1.00  0.00    -0.252 OA
BRANCH   3   5
ATOM      5  C   UNL A   1      33.397  27.945  24.605  1.00  0.00     0.132 C 
BRANCH   5   6
ATOM      6  C   UNL A   1      33.701  26.773  23.649  1.00  0.00     0.112 C 
BRANCH   6   7
ATOM      7  C   UNL A   1      32.541  25.831  23.270  1.00  0.00     0.225 C 
ATOM      8  N   UNL A   1      32.356  24.492  23.585  1.00  0.00    -0.317 N 
ATOM      9  H   UNL A   1      31.545  24.117  23.173  1.00  0.00     0.170 HD
ATOM     10  O   UNL A   1      31.649  26.334  22.562  1.00  0.00    -0.275 OA
BRANCH   8  11
ATOM     11  C   UNL A   1      33.052  23.550  24.352  1.00  0.00     0.114 A 
ATOM     12  C   UNL A   1      34.960  21.918  24.988  1.00  0.00     0.118 A 
ATOM     13  S   UNL A   1      34.387  22.882  23.725  1.00  0.00    -0.109 S 
ATOM     14  C   UNL A   1      34.007  22.029  25.987  1.00  0.00    -0.006 A 
ATOM     15  C   UNL A   1      32.903  22.986  25.611  1.00  0.00     0.091 A 
ATOM     16  C   UNL A   1      34.166  21.354  27.300  1.00  0.00     0.048 C 
BRANCH  12  17
ATOM     17  C   UNL A   1      36.328  21.309  24.854  1.00  0.00     0.348 C 
ATOM     18  O   UNL A   1      36.537  20.102  24.784  1.00  0.00    -0.245 OA
BRANCH  17  19
ATOM     19  O   UNL A   1      37.402  22.142  24.737  1.00  0.00    -0.462 OA
BRANCH  19  20
ATOM     20  C   UNL A   1      38.122  22.352  25.999  1.00  0.00     0.230 C 
ATOM     21  C   UNL A   1      39.564  21.825  26.178  1.00  0.00     0.049 C 
ENDBRANCH  19  20
ENDBRANCH  17  19
ENDBRANCH  12  17
BRANCH  15  22
ATOM     22  C   UNL A   1      31.860  23.400  26.484  1.00  0.00     0.103 C 
ATOM     23  N   UNL A   1      31.038  23.814  27.207  1.00  0.00    -0.192 NA
ENDBRANCH  15  22
ENDBRANCH   8  11
ENDBRANCH   6   7
ENDBRANCH   5   6
ENDBRANCH   3   5
ENDBRANCH   2   3
ENDBRANCH   1   2
BRANCH   1  24
ATOM     24  C   UNL A   1      31.975  30.908  26.797  1.00  0.00     0.202 C 
BRANCH  24  25
ATOM     25  O   UNL A   1      33.285  31.060  27.421  1.00  0.00    -0.374 OA
BRANCH  25  26
ATOM     26  C   UNL A   1      33.971  32.204  28.008  1.00  0.00     0.202 C 
BRANCH  26  27
ATOM     27  C   UNL A   1      35.553  32.396  28.531  1.00  0.00     0.261 C 
BRANCH  27  28
ATOM     28  O   UNL A   1      36.598  31.360  28.391  1.00  0.00    -0.460 OA
BRANCH  28  29
ATOM     29  C   UNL A   1      36.873  30.506  29.457  1.00  0.00     0.338 C 
ATOM     30  O   UNL A   1      36.333  30.559  30.552  1.00  0.00    -0.246 OA
BRANCH  29  31
ATOM     31  C   UNL A   1      37.818  29.382  29.099  1.00  0.00     0.060 A 
ATOM     32  C   UNL A   1      38.264  28.445  30.058  1.00  0.00     0.016 A 
ATOM     33  C   UNL A   1      38.308  29.283  27.799  1.00  0.00     0.016 A 
ATOM     34  C   UNL A   1      39.425  27.705  29.815  1.00  0.00     0.010 A 
ATOM     35  C   UNL A   1      39.439  28.532  27.551  1.00  0.00     0.010 A 
ATOM     36  C   UNL A   1      40.096  27.916  28.613  1.00  0.00    -0.014 A 
BRANCH  36  37
ATOM     37  C   UNL A   1      41.513  27.583  28.438  1.00  0.00     0.031 A 
ATOM     38  C   UNL A   1      41.719  26.257  27.795  1.00  0.00     0.074 A 
ATOM     39  C   UNL A   1      42.485  28.505  28.697  1.00  0.00     0.049 A 
ATOM     40  N   UNL A   1      42.076  25.155  28.375  1.00  0.00    -0.248 NA
ATOM     41  C   UNL A   1      41.241  26.053  26.414  1.00  0.00     0.031 C 
ATOM     42  C   UNL A   1      42.320  29.890  29.164  1.00  0.00     0.029 A 
ATOM     43  N   UNL A   1      43.849  28.431  28.542  1.00  0.00    -0.354 N 
ATOM     44  C   UNL A   1      42.179  24.224  27.344  1.00  0.00     0.074 A 
ATOM     45  C   UNL A   1      41.354  24.729  26.288  1.00  0.00     0.031 C 
ATOM     46  C   UNL A   1      43.484  30.577  29.035  1.00  0.00     0.029 A 
ATOM     47  C   UNL A   1      44.533  29.672  28.601  1.00  0.00     0.049 A 
ATOM     48  H   UNL A   1      44.317  27.578  28.400  1.00  0.00     0.167 HD
ATOM     49  C   UNL A   1      43.232  23.359  27.296  1.00  0.00     0.034 A 
ATOM     50  C   UNL A   1      45.860  29.913  28.320  1.00  0.00     0.034 A 
ATOM     51  C   UNL A   1      43.866  23.274  28.595  1.00  0.00     0.049 A 
ATOM     52  C   UNL A   1      46.542  28.599  28.454  1.00  0.00     0.074 A 
ATOM     53  C   UNL A   1      43.444  22.929  29.864  1.00  0.00     0.029 A 
ATOM     54  N   UNL A   1      45.025  23.997  28.772  1.00  0.00    -0.354 N 
ATOM     55  N   UNL A   1      46.634  27.975  29.597  1.00  0.00    -0.248 NA
ATOM     56  C   UNL A   1      46.565  27.752  27.270  1.00  0.00     0.031 C 
ATOM     57  C   UNL A   1      44.074  23.873  30.729  1.00  0.00     0.029 A 
ATOM     58  C   UNL A   1      44.952  24.653  29.975  1.00  0.00     0.049 A 
ATOM     59  H   UNL A   1      45.779  24.035  28.141  1.00  0.00     0.167 HD
ATOM     60  C   UNL A   1      46.264  26.669  29.315  1.00  0.00     0.074 A 
ATOM     61  C   UNL A   1      46.263  26.584  27.850  1.00  0.00     0.031 C 
ATOM     62  C   UNL A   1      45.678  25.878  30.265  1.00  0.00     0.034 A 
BRANCH  49  63
ATOM     63  C   UNL A   1      43.971  22.973  26.020  1.00  0.00     0.023 A 
ATOM     64  C   UNL A   1      44.117  21.593  25.764  1.00  0.00     0.031 A 
ATOM     65  C   UNL A   1      44.776  23.821  25.223  1.00  0.00     0.131 A 
ATOM     66  C   UNL A   1      45.091  21.119  24.867  1.00  0.00     0.055 A 
ATOM     67  C   UNL A   1      45.701  23.346  24.289  1.00  0.00     0.041 A 
ATOM     68  F   UNL A   1      44.791  25.151  25.343  1.00  0.00    -0.206 F 
ATOM     69  C   UNL A   1      45.888  21.988  24.129  1.00  0.00     0.022 A 
BRANCH  66  70
ATOM     70  S   UNL A   1      45.419  19.341  24.815  1.00  0.00     0.124 S 
ATOM     71  O   UNL A   1      45.128  19.031  23.420  1.00  0.00    -0.237 OA
ATOM     72  O   UNL A   1      46.822  19.284  25.210  1.00  0.00    -0.237 OA
ATOM     73  O   UNL A   1      44.476  18.795  25.789  1.00  0.00    -0.744 OA
ENDBRANCH  66  70
ENDBRANCH  49  63
BRANCH  50  74
ATOM     74  C   UNL A   1      46.468  31.048  27.517  1.00  0.00     0.023 A 
ATOM     75  C   UNL A   1      45.742  32.115  26.903  1.00  0.00     0.031 A 
ATOM     76  C   UNL A   1      47.866  31.226  27.588  1.00  0.00     0.131 A 
ATOM     77  C   UNL A   1      46.424  33.267  26.401  1.00  0.00     0.055 A 
ATOM     78  C   UNL A   1      48.523  32.368  27.116  1.00  0.00     0.041 A 
ATOM     79  F   UNL A   1      48.643  30.326  28.208  1.00  0.00    -0.206 F 
ATOM     80  C   UNL A   1      47.807  33.395  26.527  1.00  0.00     0.022 A 
BRANCH  77  81
ATOM     81  S   UNL A   1      45.543  34.670  25.598  1.00  0.00     0.124 S 
ATOM     82  O   UNL A   1      46.531  35.741  25.660  1.00  0.00    -0.237 OA
ATOM     83  O   UNL A   1      45.236  34.143  24.274  1.00  0.00    -0.237 OA
ATOM     84  O   UNL A   1      44.371  34.877  26.453  1.00  0.00    -0.744 OA
ENDBRANCH  77  81
ENDBRANCH  50  74
BRANCH  62  85
ATOM     85  C   UNL A   1      45.680  26.354  31.707  1.00  0.00     0.023 A 
ATOM     86  C   UNL A   1      44.599  26.962  32.396  1.00  0.00     0.031 A 
ATOM     87  C   UNL A   1      46.840  26.067  32.447  1.00  0.00     0.131 A 
ATOM     88  C   UNL A   1      44.722  27.263  33.772  1.00  0.00     0.055 A 
ATOM     89  C   UNL A   1      46.945  26.339  33.808  1.00  0.00     0.041 A 
ATOM     90  F   UNL A   1      47.890  25.475  31.856  1.00  0.00    -0.206 F 
ATOM     91  C   UNL A   1      45.888  26.944  34.475  1.00  0.00     0.022 A 
BRANCH  88  92
ATOM     92  S   UNL A   1      43.387  28.117  34.682  1.00  0.00     0.124 S 
ATOM     93  O   UNL A   1      42.172  27.543  34.119  1.00  0.00    -0.237 OA
ATOM     94  O   UNL A   1      43.675  27.767  36.071  1.00  0.00    -0.237 OA
ATOM     95  O   UNL A   1      43.603  29.529  34.356  1.00  0.00    -0.744 OA
ENDBRANCH  88  92
ENDBRANCH  62  85
ENDBRANCH  36  37
ENDBRANCH  29  31
ENDBRANCH  28  29
ENDBRANCH  27  28
ENDBRANCH  26  27
ENDBRANCH  25  26
ENDBRANCH  24  25
ENDBRANCH   1  24
TORSDOF 24
ENDMDL
MODEL 2
REMARK VINA RESULT:     -10.0      3.576      9.081
REMARK SMILES CCOC(=O)c1sc(NC(=O)CCC(=O)OCCOCCOC(=O)c2ccc(-c3c4nc(c(-c5cc(S(=O)(=O)[O-])ccc5F)c5ccc([nH]5)c(-c5cc(S(=O)(=O)[O-])ccc5F)c5nc(c(-c6cc(S(=O)(=O)[O-])ccc6F)c6ccc3[nH]6)C=C5)C=C4)cc2)c(C#N)c1C
REMARK SMILES IDX 17 1 16 2 14 3 15 4 13 5 12 6 10 7 9 8 11 10 8 11 6 12 7 13
REMARK SMILES IDX 91 14 88 15 92 16 4 17 5 18 3 19 2 20 1 21 89 22 90 23 18 24
REMARK SMILES IDX 19 25 20 26 21 27 22 28 23 29 24 30 25 31 26 32 87 33 27 34
REMARK SMILES IDX 86 35 28 36 29 37 30 38 80 39 31 40 85 41 79 42 81 43 32 44
REMARK SMILES IDX 84 45 78 46 77 47 33 49 65 50 45 51 64 52 46 53 49 54 63 55
REMARK SMILES IDX 82 56 47 57 48 58 62 60 83 61 50 62 34 63 35 64 43 65 36 66
REMARK SMILES IDX 42 67 44 68 41 69 37 70 38 71 39 72 40 73 66 74 67 75 75 76
REMARK SMILES IDX 68 77 74 78 76 79 73 80 69 81 70 82 71 83 72 84 51 85 52 86
REMARK SMILES IDX 60 87 53 88 59 89 61 90 58 91 54 92 55 93 56 94 57 95
REMARK H PARENT 9 9 81 48 49 59
REMARK Flexibility Score: inf
ROOT
ATOM      1  C   UNL A   1      36.288  20.150  24.873  1.00  0.00     0.261 C 
ENDROOT
BRANCH   1   2
ATOM      2  O   UNL A   1      34.967  20.416  25.336  1.00  0.00    -0.463 OA
BRANCH   2   3
ATOM      3  C   UNL A   1      34.091  19.505  24.863  1.00  0.00     0.306 C 
ATOM      4  O   UNL A   1      34.243  18.291  24.964  1.00  0.00    -0.252 OA
BRANCH   3   5
ATOM      5  C   UNL A   1      32.880  20.151  24.249  1.00  0.00     0.132 C 
BRANCH   5   6
ATOM      6  C   UNL A   1      33.002  21.596  23.724  1.00  0.00     0.112 C 
BRANCH   6   7
ATOM      7  C   UNL A   1      31.960  22.083  22.697  1.00  0.00     0.225 C 
ATOM      8  N   UNL A   1      31.280  23.291  22.639  1.00  0.00    -0.317 N 
ATOM      9  H   UNL A   1      30.632  23.323  21.899  1.00  0.00     0.170 HD
ATOM     10  O   UNL A   1      31.669  21.270  21.801  1.00  0.00    -0.275 OA
BRANCH   8  11
ATOM     11  C   UNL A   1      31.300  24.476  23.385  1.00  0.00     0.114 A 
ATOM     12  C   UNL A   1      31.352  27.028  23.825  1.00  0.00     0.118 A 
ATOM     13  S   UNL A   1      31.500  25.876  22.597  1.00  0.00    -0.109 S 
ATOM     14  C   UNL A   1      31.216  26.295  24.991  1.00  0.00    -0.006 A 
ATOM     15  C   UNL A   1      31.180  24.810  24.725  1.00  0.00     0.091 A 
ATOM     16  C   UNL A   1      31.015  26.949  26.309  1.00  0.00     0.048 C 
BRANCH  12  17
ATOM     17  C   UNL A   1      31.255  28.477  23.433  1.00  0.00     0.348 C 
ATOM     18  O   UNL A   1      32.097  29.062  22.759  1.00  0.00    -0.245 OA
BRANCH  17  19
ATOM     19  O   UNL A   1      30.136  29.172  23.789  1.00  0.00    -0.462 OA
BRANCH  19  20
ATOM     20  C   UNL A   1      28.961  28.853  22.969  1.00  0.00     0.230 C 
ATOM     21  C   UNL A   1      27.723  29.779  22.975  1.00  0.00     0.049 C 
ENDBRANCH  19  20
ENDBRANCH  17  19
ENDBRANCH  12  17
BRANCH  15  22
ATOM     22  C   UNL A   1      30.920  23.819  25.710  1.00  0.00     0.103 C 
ATOM     23  N   UNL A   1      30.769  22.959  26.491  1.00  0.00    -0.192 NA
ENDBRANCH  15  22
ENDBRANCH   8  11
ENDBRANCH   6   7
ENDBRANCH   5   6
ENDBRANCH   3   5
ENDBRANCH   2   3
ENDBRANCH   1   2
BRANCH   1  24
ATOM     24  C   UNL A   1      37.143  21.468  24.739  1.00  0.00     0.202 C 
BRANCH  24  25
ATOM     25  O   UNL A   1      38.055  21.631  25.866  1.00  0.00    -0.374 OA
BRANCH  25  26
ATOM     26  C   UNL A   1      39.466  21.314  26.046  1.00  0.00     0.202 C 
BRANCH  26  27
ATOM     27  C   UNL A   1      40.709  22.172  26.775  1.00  0.00     0.261 C 
BRANCH  27  28
ATOM     28  O   UNL A   1      42.007  22.452  26.126  1.00  0.00    -0.460 OA
BRANCH  28  29
ATOM     29  C   UNL A   1      42.461  23.765  26.024  1.00  0.00     0.338 C 
ATOM     30  O   UNL A   1      43.221  24.177  25.161  1.00  0.00    -0.246 OA
BRANCH  29  31
ATOM     31  C   UNL A   1      41.806  24.706  27.009  1.00  0.00     0.060 A 
ATOM     32  C   UNL A   1      40.607  25.390  26.707  1.00  0.00     0.016 A 
ATOM     33  C   UNL A   1      42.417  24.950  28.237  1.00  0.00     0.016 A 
ATOM     34  C   UNL A   1      40.263  26.537  27.430  1.00  0.00     0.010 A 
ATOM     35  C   UNL A   1      42.060  26.067  28.966  1.00  0.00     0.010 A 
ATOM     36  C   UNL A   1      41.123  26.954  28.443  1.00  0.00    -0.014 A 
BRANCH  36  37
ATOM     37  C   UNL A   1      41.138  28.334  28.938  1.00  0.00     0.031 A 
ATOM     38  C   UNL A   1      42.233  29.149  28.345  1.00  0.00     0.074 A 
ATOM     39  C   UNL A   1      40.126  28.806  29.721  1.00  0.00     0.049 A 
ATOM     40  N   UNL A   1      43.345  29.493  28.912  1.00  0.00    -0.248 NA
ATOM     41  C   UNL A   1      42.224  29.404  26.891  1.00  0.00     0.031 C 
ATOM     42  C   UNL A   1      38.928  28.088  30.187  1.00  0.00     0.029 A 
ATOM     43  N   UNL A   1      39.905  30.062  30.234  1.00  0.00    -0.354 N 
ATOM     44  C   UNL A   1      43.998  30.285  27.970  1.00  0.00     0.074 A 
ATOM     45  C   UNL A   1      43.445  29.910  26.705  1.00  0.00     0.031 C 
ATOM     46  C   UNL A   1      38.023  28.959  30.702  1.00  0.00     0.029 A 
ATOM     47  C   UNL A   1      38.600  30.291  30.737  1.00  0.00     0.049 A 
ATOM     48  H   UNL A   1      40.604  30.754  30.251  1.00  0.00     0.167 HD
ATOM     49  C   UNL A   1      44.619  31.439  28.349  1.00  0.00     0.034 A 
ATOM     50  C   UNL A   1      38.058  31.487  31.154  1.00  0.00     0.034 A 
ATOM     51  C   UNL A   1      44.857  31.431  29.777  1.00  0.00     0.049 A 
ATOM     52  C   UNL A   1      39.217  32.363  31.468  1.00  0.00     0.074 A 
ATOM     53  C   UNL A   1      45.538  30.601  30.646  1.00  0.00     0.029 A 
ATOM     54  N   UNL A   1      43.983  32.152  30.560  1.00  0.00    -0.354 N 
ATOM     55  N   UNL A   1      40.042  32.103  32.447  1.00  0.00    -0.248 NA
ATOM     56  C   UNL A   1      39.772  33.132  30.364  1.00  0.00     0.031 C 
ATOM     57  C   UNL A   1      44.699  30.507  31.796  1.00  0.00     0.029 A 
ATOM     58  C   UNL A   1      43.624  31.384  31.638  1.00  0.00     0.049 A 
ATOM     59  H   UNL A   1      43.669  33.067  30.376  1.00  0.00     0.167 HD
ATOM     60  C   UNL A   1      41.304  32.260  31.894  1.00  0.00     0.074 A 
ATOM     61  C   UNL A   1      41.072  32.929  30.608  1.00  0.00     0.031 C 
ATOM     62  C   UNL A   1      42.375  31.550  32.361  1.00  0.00     0.034 A 
BRANCH  49  63
ATOM     63  C   UNL A   1      44.577  32.739  27.554  1.00  0.00     0.023 A 
ATOM     64  C   UNL A   1      43.841  33.803  28.116  1.00  0.00     0.031 A 
ATOM     65  C   UNL A   1      44.938  32.908  26.196  1.00  0.00     0.131 A 
ATOM     66  C   UNL A   1      43.404  34.881  27.326  1.00  0.00     0.055 A 
ATOM     67  C   UNL A   1      44.550  34.011  25.430  1.00  0.00     0.041 A 
ATOM     68  F   UNL A   1      45.612  31.994  25.492  1.00  0.00    -0.206 F 
ATOM     69  C   UNL A   1      43.750  34.991  25.984  1.00  0.00     0.022 A 
BRANCH  66  70
ATOM     70  S   UNL A   1      42.221  36.048  28.043  1.00  0.00     0.124 S 
ATOM     71  O   UNL A   1      42.615  36.037  29.446  1.00  0.00    -0.237 OA
ATOM     72  O   UNL A   1      42.515  37.268  27.298  1.00  0.00    -0.237 OA
ATOM     73  O   UNL A   1      40.925  35.438  27.750  1.00  0.00    -0.744 OA
ENDBRANCH  66  70
ENDBRANCH  49  63
BRANCH  50  74
ATOM     74  C   UNL A   1      36.684  32.059  30.858  1.00  0.00     0.023 A 
ATOM     75  C   UNL A   1      35.883  32.813  31.770  1.00  0.00     0.031 A 
ATOM     76  C   UNL A   1      36.260  32.086  29.513  1.00  0.00     0.131 A 
ATOM     77  C   UNL A   1      34.732  33.528  31.313  1.00  0.00     0.055 A 
ATOM     78  C   UNL A   1      35.146  32.807  29.069  1.00  0.00     0.041 A 
ATOM     79  F   UNL A   1      36.974  31.477  28.554  1.00  0.00    -0.206 F 
ATOM     80  C   UNL A   1      34.381  33.536  29.963  1.00  0.00     0.022 A 
BRANCH  77  81
ATOM     81  S   UNL A   1      33.662  34.512  32.442  1.00  0.00     0.124 S 
ATOM     82  O   UNL A   1      34.628  35.348  33.145  1.00  0.00    -0.237 OA
ATOM     83  O   UNL A   1      32.761  35.193  31.520  1.00  0.00    -0.237 OA
ATOM     84  O   UNL A   1      33.016  33.497  33.279  1.00  0.00    -0.744 OA
ENDBRANCH  77  81
ENDBRANCH  50  74
BRANCH  62  85
ATOM     85  C   UNL A   1      42.226  30.788  33.666  1.00  0.00     0.023 A 
ATOM     86  C   UNL A   1      42.039  29.389  33.809  1.00  0.00     0.031 A 
ATOM     87  C   UNL A   1      42.391  31.542  34.840  1.00  0.00     0.131 A 
ATOM     88  C   UNL A   1      42.015  28.810  35.099  1.00  0.00     0.055 A 
ATOM     89  C   UNL A   1      42.396  30.963  36.106  1.00  0.00     0.041 A 
ATOM     90  F   UNL A   1      42.591  32.868  34.770  1.00  0.00    -0.206 F 
ATOM     91  C   UNL A   1      42.201  29.595  36.241  1.00  0.00     0.022 A 
BRANCH  88  92
ATOM     92  S   UNL A   1      41.697  27.026  35.335  1.00  0.00     0.124 S 
ATOM     93  O   UNL A   1      41.265  26.939  36.724  1.00  0.00    -0.237 OA
ATOM     94  O   UNL A   1      40.674  26.750  34.330  1.00  0.00    -0.237 OA
ATOM     95  O   UNL A   1      42.998  26.409  35.061  1.00  0.00    -0.744 OA
ENDBRANCH  88  92
ENDBRANCH  62  85
ENDBRANCH  36  37
ENDBRANCH  29  31
ENDBRANCH  28  29
ENDBRANCH  27  28
ENDBRANCH  26  27
ENDBRANCH  25  26
ENDBRANCH  24  25
ENDBRANCH   1  24
TORSDOF 24
ENDMDL
MODEL 3
REMARK VINA RESULT:      -9.6      3.842      9.033
REMARK SMILES CCOC(=O)c1sc(NC(=O)CCC(=O)OCCOCCOC(=O)c2ccc(-c3c4nc(c(-c5cc(S(=O)(=O)[O-])ccc5F)c5ccc([nH]5)c(-c5cc(S(=O)(=O)[O-])ccc5F)c5nc(c(-c6cc(S(=O)(=O)[O-])ccc6F)c6ccc3[nH]6)C=C5)C=C4)cc2)c(C#N)c1C
REMARK SMILES IDX 17 1 16 2 14 3 15 4 13 5 12 6 10 7 9 8 11 10 8 11 6 12 7 13
REMARK SMILES IDX 91 14 88 15 92 16 4 17 5 18 3 19 2 20 1 21 89 22 90 23 18 24
REMARK SMILES IDX 19 25 20 26 21 27 22 28 23 29 24 30 25 31 26 32 87 33 27 34
REMARK SMILES IDX 86 35 28 36 29 37 30 38 80 39 31 40 85 41 79 42 81 43 32 44
REMARK SMILES IDX 84 45 78 46 77 47 33 49 65 50 45 51 64 52 46 53 49 54 63 55
REMARK SMILES IDX 82 56 47 57 48 58 62 60 83 61 50 62 34 63 35 64 43 65 36 66
REMARK SMILES IDX 42 67 44 68 41 69 37 70 38 71 39 72 40 73 66 74 67 75 75 76
REMARK SMILES IDX 68 77 74 78 76 79 73 80 69 81 70 82 71 83 72 84 51 85 52 86
REMARK SMILES IDX 60 87 53 88 59 89 61 90 58 91 54 92 55 93 56 94 57 95
REMARK H PARENT 9 9 81 48 49 59
REMARK Flexibility Score: inf
ROOT
ATOM      1  C   UNL A   1      35.106  22.069  24.396  1.00  0.00     0.261 C 
ENDROOT
BRANCH   1   2
ATOM      2  O   UNL A   1      33.831  21.597  24.824  1.00  0.00    -0.463 OA
BRANCH   2   3
ATOM      3  C   UNL A   1      32.884  21.837  23.893  1.00  0.00     0.306 C 
ATOM      4  O   UNL A   1      32.346  20.963  23.220  1.00  0.00    -0.252 OA
BRANCH   3   5
ATOM      5  C   UNL A   1      32.522  23.295  23.818  1.00  0.00     0.132 C 
BRANCH   5   6
ATOM      6  C   UNL A   1      33.561  24.283  23.248  1.00  0.00     0.112 C 
BRANCH   6   7
ATOM      7  C   UNL A   1      33.041  25.527  22.500  1.00  0.00     0.225 C 
ATOM      8  N   UNL A   1      32.607  26.743  23.010  1.00  0.00    -0.317 N 
ATOM      9  H   UNL A   1      32.282  27.351  22.308  1.00  0.00     0.170 HD
ATOM     10  O   UNL A   1      32.981  25.423  21.261  1.00  0.00    -0.275 OA
BRANCH   8  11
ATOM     11  C   UNL A   1      32.525  27.308  24.288  1.00  0.00     0.114 A 
ATOM     12  C   UNL A   1      32.927  29.042  26.171  1.00  0.00     0.118 A 
ATOM     13  S   UNL A   1      33.395  28.638  24.598  1.00  0.00    -0.109 S 
ATOM     14  C   UNL A   1      32.076  28.023  26.565  1.00  0.00    -0.006 A 
ATOM     15  C   UNL A   1      31.842  27.022  25.461  1.00  0.00     0.091 A 
ATOM     16  C   UNL A   1      31.408  28.030  27.891  1.00  0.00     0.048 C 
BRANCH  12  17
ATOM     17  C   UNL A   1      33.363  30.370  26.724  1.00  0.00     0.348 C 
ATOM     18  O   UNL A   1      32.815  31.435  26.460  1.00  0.00    -0.245 OA
BRANCH  17  19
ATOM     19  O   UNL A   1      34.388  30.394  27.624  1.00  0.00    -0.462 OA
BRANCH  19  20
ATOM     20  C   UNL A   1      35.438  29.406  27.344  1.00  0.00     0.230 C 
ATOM     21  C   UNL A   1      36.929  29.815  27.367  1.00  0.00     0.049 C 
ENDBRANCH  19  20
ENDBRANCH  17  19
ENDBRANCH  12  17
BRANCH  15  22
ATOM     22  C   UNL A   1      30.917  25.944  25.529  1.00  0.00     0.103 C 
ATOM     23  N   UNL A   1      30.212  25.010  25.549  1.00  0.00    -0.192 NA
ENDBRANCH  15  22
ENDBRANCH   8  11
ENDBRANCH   6   7
ENDBRANCH   5   6
ENDBRANCH   3   5
ENDBRANCH   2   3
ENDBRANCH   1   2
BRANCH   1  24
ATOM     24  C   UNL A   1      36.126  22.181  25.593  1.00  0.00     0.202 C 
BRANCH  24  25
ATOM     25  O   UNL A   1      37.507  22.142  25.123  1.00  0.00    -0.374 OA
BRANCH  25  26
ATOM     26  C   UNL A   1      38.759  21.777  25.773  1.00  0.00     0.202 C 
BRANCH  26  27
ATOM     27  C   UNL A   1      39.666  22.559  26.947  1.00  0.00     0.261 C 
BRANCH  27  28
ATOM     28  O   UNL A   1      41.118  22.813  26.832  1.00  0.00    -0.460 OA
BRANCH  28  29
ATOM     29  C   UNL A   1      41.577  24.101  26.565  1.00  0.00     0.338 C 
ATOM     30  O   UNL A   1      42.231  24.421  25.584  1.00  0.00    -0.246 OA
BRANCH  29  31
ATOM     31  C   UNL A   1      41.064  25.136  27.540  1.00  0.00     0.060 A 
ATOM     32  C   UNL A   1      39.842  25.815  27.336  1.00  0.00     0.016 A 
ATOM     33  C   UNL A   1      41.832  25.473  28.652  1.00  0.00     0.016 A 
ATOM     34  C   UNL A   1      39.605  27.027  27.994  1.00  0.00     0.010 A 
ATOM     35  C   UNL A   1      41.583  26.656  29.320  1.00  0.00     0.010 A 
ATOM     36  C   UNL A   1      40.593  27.512  28.846  1.00  0.00    -0.014 A 
BRANCH  36  37
ATOM     37  C   UNL A   1      40.684  28.930  29.212  1.00  0.00     0.031 A 
ATOM     38  C   UNL A   1      41.864  29.607  28.611  1.00  0.00     0.074 A 
ATOM     39  C   UNL A   1      39.670  29.543  29.889  1.00  0.00     0.049 A 
ATOM     40  N   UNL A   1      42.969  29.927  29.206  1.00  0.00    -0.248 NA
ATOM     41  C   UNL A   1      41.948  29.721  27.141  1.00  0.00     0.031 C 
ATOM     42  C   UNL A   1      38.401  28.957  30.349  1.00  0.00     0.029 A 
ATOM     43  N   UNL A   1      39.517  30.854  30.270  1.00  0.00    -0.354 N 
ATOM     44  C   UNL A   1      43.725  30.578  28.235  1.00  0.00     0.074 A 
ATOM     45  C   UNL A   1      43.211  30.122  26.979  1.00  0.00     0.031 C 
ATOM     46  C   UNL A   1      37.537  29.933  30.729  1.00  0.00     0.029 A 
ATOM     47  C   UNL A   1      38.208  31.219  30.674  1.00  0.00     0.049 A 
ATOM     48  H   UNL A   1      40.263  31.496  30.263  1.00  0.00     0.167 HD
ATOM     49  C   UNL A   1      44.408  31.719  28.540  1.00  0.00     0.034 A 
ATOM     50  C   UNL A   1      37.735  32.484  30.946  1.00  0.00     0.034 A 
ATOM     51  C   UNL A   1      44.572  31.832  29.974  1.00  0.00     0.049 A 
ATOM     52  C   UNL A   1      38.937  33.305  31.244  1.00  0.00     0.074 A 
ATOM     53  C   UNL A   1      45.146  31.044  30.953  1.00  0.00     0.029 A 
ATOM     54  N   UNL A   1      43.715  32.683  30.636  1.00  0.00    -0.354 N 
ATOM     55  N   UNL A   1      39.690  33.085  32.289  1.00  0.00    -0.248 NA
ATOM     56  C   UNL A   1      39.603  33.924  30.108  1.00  0.00     0.031 C 
ATOM     57  C   UNL A   1      44.245  31.118  32.057  1.00  0.00     0.029 A 
ATOM     58  C   UNL A   1      43.246  32.048  31.758  1.00  0.00     0.049 A 
ATOM     59  H   UNL A   1      43.479  33.595  30.350  1.00  0.00     0.167 HD
ATOM     60  C   UNL A   1      40.987  33.101  31.797  1.00  0.00     0.074 A 
ATOM     61  C   UNL A   1      40.871  33.657  30.444  1.00  0.00     0.031 C 
ATOM     62  C   UNL A   1      41.978  32.368  32.389  1.00  0.00     0.034 A 
BRANCH  49  63
ATOM     63  C   UNL A   1      44.503  32.935  27.628  1.00  0.00     0.023 A 
ATOM     64  C   UNL A   1      43.784  34.083  28.024  1.00  0.00     0.031 A 
ATOM     65  C   UNL A   1      44.981  32.955  26.295  1.00  0.00     0.131 A 
ATOM     66  C   UNL A   1      43.472  35.099  27.103  1.00  0.00     0.055 A 
ATOM     67  C   UNL A   1      44.717  33.996  25.400  1.00  0.00     0.041 A 
ATOM     68  F   UNL A   1      45.657  31.946  25.739  1.00  0.00    -0.206 F 
ATOM     69  C   UNL A   1      43.930  35.061  25.791  1.00  0.00     0.022 A 
BRANCH  66  70
ATOM     70  S   UNL A   1      42.301  36.384  27.605  1.00  0.00     0.124 S 
ATOM     71  O   UNL A   1      41.034  35.666  27.539  1.00  0.00    -0.237 OA
ATOM     72  O   UNL A   1      42.783  36.722  28.940  1.00  0.00    -0.237 OA
ATOM     73  O   UNL A   1      42.488  37.424  26.595  1.00  0.00    -0.744 OA
ENDBRANCH  66  70
ENDBRANCH  49  63
BRANCH  50  74
ATOM     74  C   UNL A   1      36.423  33.118  30.521  1.00  0.00     0.023 A 
ATOM     75  C   UNL A   1      35.569  33.902  31.355  1.00  0.00     0.031 A 
ATOM     76  C   UNL A   1      36.137  33.168  29.140  1.00  0.00     0.131 A 
ATOM     77  C   UNL A   1      34.502  34.669  30.792  1.00  0.00     0.055 A 
ATOM     78  C   UNL A   1      35.105  33.940  28.594  1.00  0.00     0.041 A 
ATOM     79  F   UNL A   1      36.916  32.532  28.252  1.00  0.00    -0.206 F 
ATOM     80  C   UNL A   1      34.288  34.698  29.414  1.00  0.00     0.022 A 
BRANCH  77  81
ATOM     81  S   UNL A   1      33.369  35.695  31.817  1.00  0.00     0.124 S 
ATOM     82  O   UNL A   1      34.296  36.483  32.621  1.00  0.00    -0.237 OA
ATOM     83  O   UNL A   1      32.596  36.421  30.816  1.00  0.00    -0.237 OA
ATOM     84  O   UNL A   1      32.598  34.707  32.576  1.00  0.00    -0.744 OA
ENDBRANCH  77  81
ENDBRANCH  50  74
BRANCH  62  85
ATOM     85  C   UNL A   1      41.707  31.746  33.748  1.00  0.00     0.023 A 
ATOM     86  C   UNL A   1      41.777  32.401  35.004  1.00  0.00     0.031 A 
ATOM     87  C   UNL A   1      41.245  30.419  33.735  1.00  0.00     0.131 A 
ATOM     88  C   UNL A   1      41.399  31.711  36.180  1.00  0.00     0.055 A 
ATOM     89  C   UNL A   1      40.847  29.755  34.891  1.00  0.00     0.041 A 
ATOM     90  F   UNL A   1      41.137  29.751  32.575  1.00  0.00    -0.206 F 
ATOM     91  C   UNL A   1      40.929  30.396  36.120  1.00  0.00     0.022 A 
BRANCH  88  92
ATOM     92  S   UNL A   1      41.549  32.487  37.828  1.00  0.00     0.124 S 
ATOM     93  O   UNL A   1      42.241  31.476  38.617  1.00  0.00    -0.237 OA
ATOM     94  O   UNL A   1      42.308  33.701  37.539  1.00  0.00    -0.237 OA
ATOM     95  O   UNL A   1      40.157  32.722  38.221  1.00  0.00    -0.744 OA
ENDBRANCH  88  92
ENDBRANCH  62  85
ENDBRANCH  36  37
ENDBRANCH  29  31
ENDBRANCH  28  29
ENDBRANCH  27  28
ENDBRANCH  26  27
ENDBRANCH  25  26
ENDBRANCH  24  25
ENDBRANCH   1  24
TORSDOF 24
ENDMDL
