MODEL 1
REMARK VINA RESULT:     -11.0      0.000      0.000
REMARK SMILES C[C@@H](C(=O)OCCOCCOC(=O)c1ccc(-c2c3nc(c(-c4cc(S(=O)(=O)[O-])ccc4F)c4ccc([nH]4)c(-c4cc(S(=O)(=O)[O-])ccc4F)c4nc(c(-c5cc(S(=O)(=O)[O-])ccc5F)c5ccc2[nH]5)C=C4)C=C3)cc1)c1ccc(Cc2ccoc2)cc1F
REMARK SMILES IDX 8 1 7 2 6 3 5 4 3 5 4 6 2 7 1 8 77 9 78 10 88 11 79 12 87 13
REMARK SMILES IDX 89 14 80 15 81 16 82 17 83 18 86 19 84 20 85 21 9 22 10 23
REMARK SMILES IDX 11 24 12 25 13 26 14 27 15 28 76 29 16 30 75 31 17 32 18 33
REMARK SMILES IDX 19 34 69 35 20 36 74 37 68 38 70 39 21 40 73 41 67 42 66 43
REMARK SMILES IDX 22 45 54 46 34 47 53 48 35 49 38 50 52 51 71 52 36 53 37 54
REMARK SMILES IDX 51 56 72 57 39 58 23 59 24 60 32 61 25 62 31 63 33 64 30 65
REMARK SMILES IDX 26 66 27 67 28 68 29 69 55 70 56 71 64 72 57 73 63 74 65 75
REMARK SMILES IDX 62 76 58 77 59 78 60 79 61 80 40 81 41 82 49 83 42 84 48 85
REMARK SMILES IDX 50 86 47 87 43 88 44 89 45 90 46 91
REMARK H PARENT 70 44 38 55
REMARK Flexibility Score: inf
ROOT
ATOM      1  O   UNL A   1      36.139  22.127  25.108  1.00  0.00    -0.374 OA
ENDROOT
BRANCH   1   2
ATOM      2  C   UNL A   1      35.454  22.768  26.183  1.00  0.00     0.202 C 
BRANCH   2   3
ATOM      3  C   UNL A   1      34.737  24.083  25.865  1.00  0.00     0.261 C 
BRANCH   3   4
ATOM      4  O   UNL A   1      34.082  24.030  24.591  1.00  0.00    -0.463 OA
BRANCH   4   5
ATOM      5  C   UNL A   1      32.783  24.443  24.565  1.00  0.00     0.313 C 
ATOM      6  O   UNL A   1      32.431  25.562  24.212  1.00  0.00    -0.252 OA
BRANCH   5   7
ATOM      7  C   UNL A   1      31.813  23.346  25.034  1.00  0.00     0.129 C 
ATOM      8  C   UNL A   1      31.565  23.455  26.552  1.00  0.00     0.025 C 
BRANCH   7   9
ATOM      9  C   UNL A   1      32.144  21.928  24.544  1.00  0.00     0.002 A 
ATOM     10  C   UNL A   1      32.270  20.840  25.428  1.00  0.00     0.008 A 
ATOM     11  C   UNL A   1      32.211  21.618  23.179  1.00  0.00     0.127 A 
ATOM     12  C   UNL A   1      32.445  19.524  24.964  1.00  0.00     0.004 A 
ATOM     13  C   UNL A   1      32.421  20.314  22.711  1.00  0.00     0.043 A 
ATOM     14  F   UNL A   1      32.000  22.557  22.252  1.00  0.00    -0.207 F 
ATOM     15  C   UNL A   1      32.532  19.237  23.597  1.00  0.00    -0.041 A 
BRANCH  15  16
ATOM     16  C   UNL A   1      32.572  17.824  23.061  1.00  0.00     0.074 C 
BRANCH  16  17
ATOM     17  C   UNL A   1      33.486  16.990  23.895  1.00  0.00    -0.005 A 
ATOM     18  C   UNL A   1      34.836  17.263  24.270  1.00  0.00     0.046 A 
ATOM     19  C   UNL A   1      33.159  15.832  24.576  1.00  0.00     0.198 A 
ATOM     20  C   UNL A   1      35.227  16.253  25.117  1.00  0.00     0.195 A 
ATOM     21  O   UNL A   1      34.205  15.384  25.314  1.00  0.00    -0.472 OA
ENDBRANCH  16  17
ENDBRANCH  15  16
ENDBRANCH   7   9
ENDBRANCH   5   7
ENDBRANCH   4   5
ENDBRANCH   3   4
ENDBRANCH   2   3
ENDBRANCH   1   2
BRANCH   1  22
ATOM     22  C   UNL A   1      36.175  20.698  25.096  1.00  0.00     0.202 C 
BRANCH  22  23
ATOM     23  C   UNL A   1      37.546  20.017  24.971  1.00  0.00     0.261 C 
BRANCH  23  24
ATOM     24  O   UNL A   1      38.645  20.946  25.037  1.00  0.00    -0.460 OA
BRANCH  24  25
ATOM     25  C   UNL A   1      39.506  20.728  26.062  1.00  0.00     0.338 C 
ATOM     26  O   UNL A   1      40.007  19.657  26.382  1.00  0.00    -0.246 OA
BRANCH  25  27
ATOM     27  C   UNL A   1      39.934  22.004  26.661  1.00  0.00     0.060 A 
ATOM     28  C   UNL A   1      39.393  23.183  26.130  1.00  0.00     0.016 A 
ATOM     29  C   UNL A   1      40.920  22.059  27.648  1.00  0.00     0.016 A 
ATOM     30  C   UNL A   1      39.868  24.423  26.553  1.00  0.00     0.010 A 
ATOM     31  C   UNL A   1      41.402  23.307  28.064  1.00  0.00     0.010 A 
ATOM     32  C   UNL A   1      40.903  24.493  27.493  1.00  0.00    -0.014 A 
BRANCH  32  33
ATOM     33  C   UNL A   1      41.565  25.798  27.752  1.00  0.00     0.031 A 
ATOM     34  C   UNL A   1      40.804  26.864  28.494  1.00  0.00     0.074 A 
ATOM     35  C   UNL A   1      42.836  26.014  27.371  1.00  0.00     0.049 A 
ATOM     36  N   UNL A   1      41.166  28.082  28.803  1.00  0.00    -0.248 NA
ATOM     37  C   UNL A   1      39.452  26.503  28.944  1.00  0.00     0.031 C 
ATOM     38  C   UNL A   1      43.690  25.040  26.692  1.00  0.00     0.029 A 
ATOM     39  N   UNL A   1      43.631  27.126  27.500  1.00  0.00    -0.354 N 
ATOM     40  C   UNL A   1      40.089  28.636  29.487  1.00  0.00     0.074 A 
ATOM     41  C   UNL A   1      39.045  27.632  29.505  1.00  0.00     0.031 C 
ATOM     42  C   UNL A   1      44.887  25.604  26.453  1.00  0.00     0.029 A 
ATOM     43  C   UNL A   1      44.873  26.986  26.926  1.00  0.00     0.049 A 
ATOM     44  H   UNL A   1      43.340  27.946  27.960  1.00  0.00     0.167 HD
ATOM     45  C   UNL A   1      39.983  29.864  30.054  1.00  0.00     0.034 A 
ATOM     46  C   UNL A   1      45.872  27.880  26.778  1.00  0.00     0.034 A 
ATOM     47  C   UNL A   1      41.027  30.859  30.013  1.00  0.00     0.049 A 
ATOM     48  C   UNL A   1      45.699  29.273  27.335  1.00  0.00     0.074 A 
ATOM     49  C   UNL A   1      41.028  32.133  30.554  1.00  0.00     0.029 A 
ATOM     50  N   UNL A   1      42.254  30.700  29.379  1.00  0.00    -0.354 N 
ATOM     51  N   UNL A   1      44.675  29.785  27.978  1.00  0.00    -0.248 NA
ATOM     52  C   UNL A   1      46.821  30.203  27.153  1.00  0.00     0.031 C 
ATOM     53  C   UNL A   1      42.222  32.766  30.189  1.00  0.00     0.029 A 
ATOM     54  C   UNL A   1      43.003  31.862  29.488  1.00  0.00     0.049 A 
ATOM     55  H   UNL A   1      42.548  29.879  28.920  1.00  0.00     0.167 HD
ATOM     56  C   UNL A   1      45.043  31.089  28.302  1.00  0.00     0.074 A 
ATOM     57  C   UNL A   1      46.387  31.277  27.796  1.00  0.00     0.031 C 
ATOM     58  C   UNL A   1      44.338  32.042  28.965  1.00  0.00     0.034 A 
BRANCH  45  59
ATOM     59  C   UNL A   1      38.671  30.206  30.719  1.00  0.00     0.023 A 
ATOM     60  C   UNL A   1      37.651  30.892  30.037  1.00  0.00     0.031 A 
ATOM     61  C   UNL A   1      38.451  29.873  32.068  1.00  0.00     0.131 A 
ATOM     62  C   UNL A   1      36.493  31.289  30.724  1.00  0.00     0.055 A 
ATOM     63  C   UNL A   1      37.262  30.200  32.724  1.00  0.00     0.041 A 
ATOM     64  F   UNL A   1      39.397  29.238  32.778  1.00  0.00    -0.206 F 
ATOM     65  C   UNL A   1      36.281  30.926  32.056  1.00  0.00     0.022 A 
BRANCH  62  66
ATOM     66  S   UNL A   1      35.335  32.414  29.895  1.00  0.00     0.124 S 
ATOM     67  O   UNL A   1      34.394  32.712  30.972  1.00  0.00    -0.237 OA
ATOM     68  O   UNL A   1      36.202  33.511  29.483  1.00  0.00    -0.237 OA
ATOM     69  O   UNL A   1      34.790  31.605  28.808  1.00  0.00    -0.744 OA
ENDBRANCH  62  66
ENDBRANCH  45  59
BRANCH  46  70
ATOM     70  C   UNL A   1      47.108  27.510  26.028  1.00  0.00     0.023 A 
ATOM     71  C   UNL A   1      47.249  27.800  24.661  1.00  0.00     0.031 A 
ATOM     72  C   UNL A   1      48.150  26.810  26.664  1.00  0.00     0.131 A 
ATOM     73  C   UNL A   1      48.385  27.355  23.967  1.00  0.00     0.055 A 
ATOM     74  C   UNL A   1      49.300  26.416  25.980  1.00  0.00     0.041 A 
ATOM     75  F   UNL A   1      48.064  26.504  27.969  1.00  0.00    -0.206 F 
ATOM     76  C   UNL A   1      49.417  26.678  24.619  1.00  0.00     0.022 A 
BRANCH  73  77
ATOM     77  S   UNL A   1      48.458  27.603  22.171  1.00  0.00     0.124 S 
ATOM     78  O   UNL A   1      48.643  26.239  21.690  1.00  0.00    -0.237 OA
ATOM     79  O   UNL A   1      47.159  28.210  21.897  1.00  0.00    -0.237 OA
ATOM     80  O   UNL A   1      49.608  28.490  21.997  1.00  0.00    -0.744 OA
ENDBRANCH  73  77
ENDBRANCH  46  70
BRANCH  58  81
ATOM     81  C   UNL A   1      45.030  33.360  29.217  1.00  0.00     0.023 A 
ATOM     82  C   UNL A   1      45.079  34.372  28.242  1.00  0.00     0.031 A 
ATOM     83  C   UNL A   1      45.659  33.603  30.453  1.00  0.00     0.131 A 
ATOM     84  C   UNL A   1      45.787  35.556  28.498  1.00  0.00     0.055 A 
ATOM     85  C   UNL A   1      46.310  34.807  30.723  1.00  0.00     0.041 A 
ATOM     86  F   UNL A   1      45.645  32.672  31.420  1.00  0.00    -0.206 F 
ATOM     87  C   UNL A   1      46.388  35.787  29.738  1.00  0.00     0.022 A 
BRANCH  84  88
ATOM     88  S   UNL A   1      45.990  36.759  27.155  1.00  0.00     0.124 S 
ATOM     89  O   UNL A   1      45.520  36.005  25.998  1.00  0.00    -0.237 OA
ATOM     90  O   UNL A   1      45.136  37.860  27.589  1.00  0.00    -0.237 OA
ATOM     91  O   UNL A   1      47.423  37.047  27.165  1.00  0.00    -0.744 OA
ENDBRANCH  84  88
ENDBRANCH  58  81
ENDBRANCH  32  33
ENDBRANCH  25  27
ENDBRANCH  24  25
ENDBRANCH  23  24
ENDBRANCH  22  23
ENDBRANCH   1  22
TORSDOF 20
ENDMDL
MODEL 2
REMARK VINA RESULT:     -10.9      5.084      9.966
REMARK SMILES C[C@@H](C(=O)OCCOCCOC(=O)c1ccc(-c2c3nc(c(-c4cc(S(=O)(=O)[O-])ccc4F)c4ccc([nH]4)c(-c4cc(S(=O)(=O)[O-])ccc4F)c4nc(c(-c5cc(S(=O)(=O)[O-])ccc5F)c5ccc2[nH]5)C=C4)C=C3)cc1)c1ccc(Cc2ccoc2)cc1F
REMARK SMILES IDX 8 1 7 2 6 3 5 4 3 5 4 6 2 7 1 8 77 9 78 10 88 11 79 12 87 13
REMARK SMILES IDX 89 14 80 15 81 16 82 17 83 18 86 19 84 20 85 21 9 22 10 23
REMARK SMILES IDX 11 24 12 25 13 26 14 27 15 28 76 29 16 30 75 31 17 32 18 33
REMARK SMILES IDX 19 34 69 35 20 36 74 37 68 38 70 39 21 40 73 41 67 42 66 43
REMARK SMILES IDX 22 45 54 46 34 47 53 48 35 49 38 50 52 51 71 52 36 53 37 54
REMARK SMILES IDX 51 56 72 57 39 58 23 59 24 60 32 61 25 62 31 63 33 64 30 65
REMARK SMILES IDX 26 66 27 67 28 68 29 69 55 70 56 71 64 72 57 73 63 74 65 75
REMARK SMILES IDX 62 76 58 77 59 78 60 79 61 80 40 81 41 82 49 83 42 84 48 85
REMARK SMILES IDX 50 86 47 87 43 88 44 89 45 90 46 91
REMARK H PARENT 70 44 38 55
REMARK Flexibility Score: inf
ROOT
ATOM      1  O   UNL A   1      31.415  28.367  24.766  1.00  0.00    -0.374 OA
ENDROOT
BRANCH   1   2
ATOM      2  C   UNL A   1      30.620  27.532  23.925  1.00  0.00     0.202 C 
BRANCH   2   3
ATOM      3  C   UNL A   1      31.164  27.237  22.524  1.00  0.00     0.261 C 
BRANCH   3   4
ATOM      4  O   UNL A   1      31.577  25.869  22.397  1.00  0.00    -0.463 OA
BRANCH   4   5
ATOM      5  C   UNL A   1      32.871  25.600  22.727  1.00  0.00     0.313 C 
ATOM      6  O   UNL A   1      33.812  25.726  21.952  1.00  0.00    -0.252 OA
BRANCH   5   7
ATOM      7  C   UNL A   1      33.014  25.114  24.179  1.00  0.00     0.129 C 
ATOM      8  C   UNL A   1      34.247  25.755  24.847  1.00  0.00     0.025 C 
BRANCH   7   9
ATOM      9  C   UNL A   1      32.906  23.593  24.372  1.00  0.00     0.002 A 
ATOM     10  C   UNL A   1      33.932  22.713  23.983  1.00  0.00     0.008 A 
ATOM     11  C   UNL A   1      31.834  23.014  25.065  1.00  0.00     0.127 A 
ATOM     12  C   UNL A   1      33.883  21.339  24.279  1.00  0.00     0.004 A 
ATOM     13  C   UNL A   1      31.761  21.641  25.331  1.00  0.00     0.043 A 
ATOM     14  F   UNL A   1      30.856  23.772  25.572  1.00  0.00    -0.207 F 
ATOM     15  C   UNL A   1      32.793  20.776  24.952  1.00  0.00    -0.041 A 
BRANCH  15  16
ATOM     16  C   UNL A   1      32.775  19.336  25.415  1.00  0.00     0.074 C 
BRANCH  16  17
ATOM     17  C   UNL A   1      33.173  18.437  24.292  1.00  0.00    -0.005 A 
ATOM     18  C   UNL A   1      34.267  17.522  24.237  1.00  0.00     0.046 A 
ATOM     19  C   UNL A   1      32.476  18.224  23.116  1.00  0.00     0.198 A 
ATOM     20  C   UNL A   1      34.167  16.852  23.041  1.00  0.00     0.195 A 
ATOM     21  O   UNL A   1      33.072  17.270  22.358  1.00  0.00    -0.472 OA
ENDBRANCH  16  17
ENDBRANCH  15  16
ENDBRANCH   7   9
ENDBRANCH   5   7
ENDBRANCH   4   5
ENDBRANCH   3   4
ENDBRANCH   2   3
ENDBRANCH   1   2
BRANCH   1  22
ATOM     22  C   UNL A   1      31.261  29.782  24.640  1.00  0.00     0.202 C 
BRANCH  22  23
ATOM     23  C   UNL A   1      31.454  30.639  25.899  1.00  0.00     0.261 C 
BRANCH  23  24
ATOM     24  O   UNL A   1      32.698  30.374  26.577  1.00  0.00    -0.460 OA
BRANCH  24  25
ATOM     25  C   UNL A   1      33.272  31.462  27.148  1.00  0.00     0.338 C 
ATOM     26  O   UNL A   1      32.730  32.533  27.390  1.00  0.00    -0.246 OA
BRANCH  25  27
ATOM     27  C   UNL A   1      34.626  31.141  27.633  1.00  0.00     0.060 A 
ATOM     28  C   UNL A   1      34.904  29.802  27.941  1.00  0.00     0.016 A 
ATOM     29  C   UNL A   1      35.573  32.136  27.881  1.00  0.00     0.016 A 
ATOM     30  C   UNL A   1      36.113  29.459  28.541  1.00  0.00     0.010 A 
ATOM     31  C   UNL A   1      36.784  31.789  28.494  1.00  0.00     0.010 A 
ATOM     32  C   UNL A   1      37.045  30.455  28.858  1.00  0.00    -0.014 A 
BRANCH  32  33
ATOM     33  C   UNL A   1      38.213  30.114  29.712  1.00  0.00     0.031 A 
ATOM     34  C   UNL A   1      39.236  29.141  29.189  1.00  0.00     0.074 A 
ATOM     35  C   UNL A   1      38.382  30.694  30.913  1.00  0.00     0.049 A 
ATOM     36  N   UNL A   1      40.312  28.675  29.768  1.00  0.00    -0.248 NA
ATOM     37  C   UNL A   1      39.009  28.626  27.831  1.00  0.00     0.031 C 
ATOM     38  C   UNL A   1      37.486  31.689  31.501  1.00  0.00     0.029 A 
ATOM     39  N   UNL A   1      39.366  30.528  31.854  1.00  0.00    -0.354 N 
ATOM     40  C   UNL A   1      40.895  27.812  28.845  1.00  0.00     0.074 A 
ATOM     41  C   UNL A   1      40.025  27.788  27.688  1.00  0.00     0.031 C 
ATOM     42  C   UNL A   1      37.957  32.035  32.712  1.00  0.00     0.029 A 
ATOM     43  C   UNL A   1      39.163  31.263  33.000  1.00  0.00     0.049 A 
ATOM     44  H   UNL A   1      40.144  29.940  31.723  1.00  0.00     0.167 HD
ATOM     45  C   UNL A   1      42.053  27.112  28.950  1.00  0.00     0.034 A 
ATOM     46  C   UNL A   1      39.857  31.287  34.156  1.00  0.00     0.034 A 
ATOM     47  C   UNL A   1      42.900  27.134  30.118  1.00  0.00     0.049 A 
ATOM     48  C   UNL A   1      41.093  30.428  34.288  1.00  0.00     0.074 A 
ATOM     49  C   UNL A   1      44.094  26.466  30.331  1.00  0.00     0.029 A 
ATOM     50  N   UNL A   1      42.637  27.851  31.279  1.00  0.00    -0.354 N 
ATOM     51  N   UNL A   1      41.632  29.616  33.410  1.00  0.00    -0.248 NA
ATOM     52  C   UNL A   1      41.816  30.499  35.565  1.00  0.00     0.031 C 
ATOM     53  C   UNL A   1      44.513  26.723  31.641  1.00  0.00     0.029 A 
ATOM     54  C   UNL A   1      43.626  27.615  32.221  1.00  0.00     0.049 A 
ATOM     55  H   UNL A   1      41.860  28.442  31.412  1.00  0.00     0.167 HD
ATOM     56  C   UNL A   1      42.775  29.101  34.019  1.00  0.00     0.074 A 
ATOM     57  C   UNL A   1      42.851  29.707  35.333  1.00  0.00     0.031 C 
ATOM     58  C   UNL A   1      43.683  28.215  33.535  1.00  0.00     0.034 A 
BRANCH  45  59
ATOM     59  C   UNL A   1      42.432  26.227  27.786  1.00  0.00     0.023 A 
ATOM     60  C   UNL A   1      42.060  24.872  27.734  1.00  0.00     0.031 A 
ATOM     61  C   UNL A   1      43.208  26.737  26.730  1.00  0.00     0.131 A 
ATOM     62  C   UNL A   1      42.527  24.058  26.691  1.00  0.00     0.055 A 
ATOM     63  C   UNL A   1      43.602  25.940  25.653  1.00  0.00     0.041 A 
ATOM     64  F   UNL A   1      43.612  28.017  26.735  1.00  0.00    -0.206 F 
ATOM     65  C   UNL A   1      43.275  24.588  25.637  1.00  0.00     0.022 A 
BRANCH  62  66
ATOM     66  S   UNL A   1      42.270  22.265  26.808  1.00  0.00     0.124 S 
ATOM     67  O   UNL A   1      41.201  22.057  25.834  1.00  0.00    -0.237 OA
ATOM     68  O   UNL A   1      43.578  21.735  26.444  1.00  0.00    -0.237 OA
ATOM     69  O   UNL A   1      41.880  22.065  28.202  1.00  0.00    -0.744 OA
ENDBRANCH  62  66
ENDBRANCH  45  59
BRANCH  46  70
ATOM     70  C   UNL A   1      39.379  32.111  35.304  1.00  0.00     0.023 A 
ATOM     71  C   UNL A   1      38.685  31.535  36.380  1.00  0.00     0.031 A 
ATOM     72  C   UNL A   1      39.568  33.505  35.313  1.00  0.00     0.131 A 
ATOM     73  C   UNL A   1      38.169  32.354  37.397  1.00  0.00     0.055 A 
ATOM     74  C   UNL A   1      39.098  34.308  36.353  1.00  0.00     0.041 A 
ATOM     75  F   UNL A   1      40.223  34.108  34.307  1.00  0.00    -0.206 F 
ATOM     76  C   UNL A   1      38.382  33.734  37.398  1.00  0.00     0.022 A 
BRANCH  73  77
ATOM     77  S   UNL A   1      37.137  31.596  38.683  1.00  0.00     0.124 S 
ATOM     78  O   UNL A   1      38.000  31.696  39.854  1.00  0.00    -0.237 OA
ATOM     79  O   UNL A   1      35.961  32.461  38.675  1.00  0.00    -0.237 OA
ATOM     80  O   UNL A   1      36.914  30.240  38.184  1.00  0.00    -0.744 OA
ENDBRANCH  73  77
ENDBRANCH  46  70
BRANCH  58  81
ATOM     81  C   UNL A   1      44.861  27.884  34.419  1.00  0.00     0.023 A 
ATOM     82  C   UNL A   1      44.838  26.798  35.312  1.00  0.00     0.031 A 
ATOM     83  C   UNL A   1      46.024  28.675  34.372  1.00  0.00     0.131 A 
ATOM     84  C   UNL A   1      45.933  26.566  36.160  1.00  0.00     0.055 A 
ATOM     85  C   UNL A   1      47.133  28.402  35.174  1.00  0.00     0.041 A 
ATOM     86  F   UNL A   1      46.102  29.725  33.539  1.00  0.00    -0.206 F 
ATOM     87  C   UNL A   1      47.086  27.350  36.084  1.00  0.00     0.022 A 
BRANCH  84  88
ATOM     88  S   UNL A   1      45.796  25.276  37.429  1.00  0.00     0.124 S 
ATOM     89  O   UNL A   1      44.546  25.634  38.092  1.00  0.00    -0.237 OA
ATOM     90  O   UNL A   1      45.768  24.055  36.631  1.00  0.00    -0.237 OA
ATOM     91  O   UNL A   1      47.000  25.461  38.237  1.00  0.00    -0.744 OA
ENDBRANCH  84  88
ENDBRANCH  58  81
ENDBRANCH  32  33
ENDBRANCH  25  27
ENDBRANCH  24  25
ENDBRANCH  23  24
ENDBRANCH  22  23
ENDBRANCH   1  22
TORSDOF 20
ENDMDL
MODEL 3
REMARK VINA RESULT:     -10.5      5.057      9.752
REMARK SMILES C[C@@H](C(=O)OCCOCCOC(=O)c1ccc(-c2c3nc(c(-c4cc(S(=O)(=O)[O-])ccc4F)c4ccc([nH]4)c(-c4cc(S(=O)(=O)[O-])ccc4F)c4nc(c(-c5cc(S(=O)(=O)[O-])ccc5F)c5ccc2[nH]5)C=C4)C=C3)cc1)c1ccc(Cc2ccoc2)cc1F
REMARK SMILES IDX 8 1 7 2 6 3 5 4 3 5 4 6 2 7 1 8 77 9 78 10 88 11 79 12 87 13
REMARK SMILES IDX 89 14 80 15 81 16 82 17 83 18 86 19 84 20 85 21 9 22 10 23
REMARK SMILES IDX 11 24 12 25 13 26 14 27 15 28 76 29 16 30 75 31 17 32 18 33
REMARK SMILES IDX 19 34 69 35 20 36 74 37 68 38 70 39 21 40 73 41 67 42 66 43
REMARK SMILES IDX 22 45 54 46 34 47 53 48 35 49 38 50 52 51 71 52 36 53 37 54
REMARK SMILES IDX 51 56 72 57 39 58 23 59 24 60 32 61 25 62 31 63 33 64 30 65
REMARK SMILES IDX 26 66 27 67 28 68 29 69 55 70 56 71 64 72 57 73 63 74 65 75
REMARK SMILES IDX 62 76 58 77 59 78 60 79 61 80 40 81 41 82 49 83 42 84 48 85
REMARK SMILES IDX 50 86 47 87 43 88 44 89 45 90 46 91
REMARK H PARENT 70 44 38 55
REMARK Flexibility Score: inf
ROOT
ATOM      1  O   UNL A   1      32.130  27.979  25.054  1.00  0.00    -0.374 OA
ENDROOT
BRANCH   1   2
ATOM      2  C   UNL A   1      31.322  26.827  25.286  1.00  0.00     0.202 C 
BRANCH   2   3
ATOM      3  C   UNL A   1      31.798  25.508  24.669  1.00  0.00     0.261 C 
BRANCH   3   4
ATOM      4  O   UNL A   1      32.510  24.708  25.621  1.00  0.00    -0.463 OA
BRANCH   4   5
ATOM      5  C   UNL A   1      33.857  24.906  25.684  1.00  0.00     0.313 C 
ATOM      6  O   UNL A   1      34.380  26.011  25.771  1.00  0.00    -0.252 OA
BRANCH   5   7
ATOM      7  C   UNL A   1      34.644  23.587  25.628  1.00  0.00     0.129 C 
ATOM      8  C   UNL A   1      36.007  23.796  24.937  1.00  0.00     0.025 C 
BRANCH   7   9
ATOM      9  C   UNL A   1      33.852  22.374  25.114  1.00  0.00     0.002 A 
ATOM     10  C   UNL A   1      33.390  22.288  23.789  1.00  0.00     0.008 A 
ATOM     11  C   UNL A   1      33.659  21.233  25.905  1.00  0.00     0.127 A 
ATOM     12  C   UNL A   1      32.779  21.123  23.290  1.00  0.00     0.004 A 
ATOM     13  C   UNL A   1      33.019  20.083  25.426  1.00  0.00     0.043 A 
ATOM     14  F   UNL A   1      34.151  21.168  27.146  1.00  0.00    -0.207 F 
ATOM     15  C   UNL A   1      32.575  20.002  24.102  1.00  0.00    -0.041 A 
BRANCH  15  16
ATOM     16  C   UNL A   1      32.058  18.687  23.561  1.00  0.00     0.074 C 
BRANCH  16  17
ATOM     17  C   UNL A   1      32.884  17.562  24.088  1.00  0.00    -0.005 A 
ATOM     18  C   UNL A   1      32.684  16.799  25.277  1.00  0.00     0.046 A 
ATOM     19  C   UNL A   1      33.950  16.951  23.453  1.00  0.00     0.198 A 
ATOM     20  C   UNL A   1      33.643  15.814  25.286  1.00  0.00     0.195 A 
ATOM     21  O   UNL A   1      34.411  15.897  24.172  1.00  0.00    -0.472 OA
ENDBRANCH  16  17
ENDBRANCH  15  16
ENDBRANCH   7   9
ENDBRANCH   5   7
ENDBRANCH   4   5
ENDBRANCH   3   4
ENDBRANCH   2   3
ENDBRANCH   1   2
BRANCH   1  22
ATOM     22  C   UNL A   1      31.470  29.200  24.713  1.00  0.00     0.202 C 
BRANCH  22  23
ATOM     23  C   UNL A   1      31.557  30.365  25.710  1.00  0.00     0.261 C 
BRANCH  23  24
ATOM     24  O   UNL A   1      32.591  30.186  26.697  1.00  0.00    -0.460 OA
BRANCH  24  25
ATOM     25  C   UNL A   1      33.182  31.336  27.108  1.00  0.00     0.338 C 
ATOM     26  O   UNL A   1      32.651  32.434  27.218  1.00  0.00    -0.246 OA
BRANCH  25  27
ATOM     27  C   UNL A   1      34.544  31.071  27.605  1.00  0.00     0.060 A 
ATOM     28  C   UNL A   1      34.890  29.738  27.869  1.00  0.00     0.016 A 
ATOM     29  C   UNL A   1      35.432  32.105  27.906  1.00  0.00     0.016 A 
ATOM     30  C   UNL A   1      36.107  29.439  28.477  1.00  0.00     0.010 A 
ATOM     31  C   UNL A   1      36.650  31.803  28.526  1.00  0.00     0.010 A 
ATOM     32  C   UNL A   1      36.978  30.471  28.846  1.00  0.00    -0.014 A 
BRANCH  32  33
ATOM     33  C   UNL A   1      38.149  30.163  29.708  1.00  0.00     0.031 A 
ATOM     34  C   UNL A   1      39.189  29.199  29.202  1.00  0.00     0.074 A 
ATOM     35  C   UNL A   1      38.307  30.765  30.900  1.00  0.00     0.049 A 
ATOM     36  N   UNL A   1      40.272  28.759  29.790  1.00  0.00    -0.248 NA
ATOM     37  C   UNL A   1      38.973  28.659  27.851  1.00  0.00     0.031 C 
ATOM     38  C   UNL A   1      37.394  31.753  31.471  1.00  0.00     0.029 A 
ATOM     39  N   UNL A   1      39.291  30.629  31.846  1.00  0.00    -0.354 N 
ATOM     40  C   UNL A   1      40.870  27.891  28.882  1.00  0.00     0.074 A 
ATOM     41  C   UNL A   1      40.003  27.835  27.723  1.00  0.00     0.031 C 
ATOM     42  C   UNL A   1      37.856  32.126  32.677  1.00  0.00     0.029 A 
ATOM     43  C   UNL A   1      39.074  31.378  32.979  1.00  0.00     0.049 A 
ATOM     44  H   UNL A   1      40.079  30.052  31.725  1.00  0.00     0.167 HD
ATOM     45  C   UNL A   1      42.038  27.212  29.000  1.00  0.00     0.034 A 
ATOM     46  C   UNL A   1      39.765  31.431  34.136  1.00  0.00     0.034 A 
ATOM     47  C   UNL A   1      42.883  27.265  30.169  1.00  0.00     0.049 A 
ATOM     48  C   UNL A   1      41.014  30.595  34.284  1.00  0.00     0.074 A 
ATOM     49  C   UNL A   1      44.087  26.620  30.395  1.00  0.00     0.029 A 
ATOM     50  N   UNL A   1      42.606  27.996  31.318  1.00  0.00    -0.354 N 
ATOM     51  N   UNL A   1      41.569  29.777  33.419  1.00  0.00    -0.248 NA
ATOM     52  C   UNL A   1      41.733  30.697  35.561  1.00  0.00     0.031 C 
ATOM     53  C   UNL A   1      44.499  26.904  31.701  1.00  0.00     0.029 A 
ATOM     54  C   UNL A   1      43.597  27.791  32.266  1.00  0.00     0.049 A 
ATOM     55  H   UNL A   1      41.819  28.576  31.440  1.00  0.00     0.167 HD
ATOM     56  C   UNL A   1      42.718  29.291  34.039  1.00  0.00     0.074 A 
ATOM     57  C   UNL A   1      42.782  29.918  35.343  1.00  0.00     0.031 C 
ATOM     58  C   UNL A   1      43.641  28.412  33.570  1.00  0.00     0.034 A 
BRANCH  45  59
ATOM     59  C   UNL A   1      42.434  26.315  27.851  1.00  0.00     0.023 A 
ATOM     60  C   UNL A   1      42.045  24.965  27.796  1.00  0.00     0.031 A 
ATOM     61  C   UNL A   1      43.243  26.808  26.811  1.00  0.00     0.131 A 
ATOM     62  C   UNL A   1      42.526  24.138  26.770  1.00  0.00     0.055 A 
ATOM     63  C   UNL A   1      43.653  26.000  25.749  1.00  0.00     0.041 A 
ATOM     64  F   UNL A   1      43.666  28.082  26.820  1.00  0.00    -0.206 F 
ATOM     65  C   UNL A   1      43.308  24.652  25.732  1.00  0.00     0.022 A 
BRANCH  62  66
ATOM     66  S   UNL A   1      42.241  22.350  26.890  1.00  0.00     0.124 S 
ATOM     67  O   UNL A   1      40.863  22.239  26.417  1.00  0.00    -0.237 OA
ATOM     68  O   UNL A   1      43.266  21.807  26.006  1.00  0.00    -0.237 OA
ATOM     69  O   UNL A   1      42.429  22.068  28.311  1.00  0.00    -0.744 OA
ENDBRANCH  62  66
ENDBRANCH  45  59
BRANCH  46  70
ATOM     70  C   UNL A   1      39.271  32.265  35.270  1.00  0.00     0.023 A 
ATOM     71  C   UNL A   1      39.722  33.582  35.461  1.00  0.00     0.031 A 
ATOM     72  C   UNL A   1      38.373  31.734  36.214  1.00  0.00     0.131 A 
ATOM     73  C   UNL A   1      39.307  34.305  36.590  1.00  0.00     0.055 A 
ATOM     74  C   UNL A   1      37.923  32.476  37.306  1.00  0.00     0.041 A 
ATOM     75  F   UNL A   1      37.913  30.479  36.080  1.00  0.00    -0.206 F 
ATOM     76  C   UNL A   1      38.401  33.766  37.506  1.00  0.00     0.022 A 
BRANCH  73  77
ATOM     77  S   UNL A   1      40.037  35.939  36.892  1.00  0.00     0.124 S 
ATOM     78  O   UNL A   1      39.725  36.638  35.651  1.00  0.00    -0.237 OA
ATOM     79  O   UNL A   1      39.310  36.380  38.078  1.00  0.00    -0.237 OA
ATOM     80  O   UNL A   1      41.453  35.644  37.105  1.00  0.00    -0.744 OA
ENDBRANCH  73  77
ENDBRANCH  46  70
BRANCH  58  81
ATOM     81  C   UNL A   1      44.823  28.114  34.462  1.00  0.00     0.023 A 
ATOM     82  C   UNL A   1      44.813  27.044  35.375  1.00  0.00     0.031 A 
ATOM     83  C   UNL A   1      45.975  28.920  34.401  1.00  0.00     0.131 A 
ATOM     84  C   UNL A   1      45.910  26.843  36.227  1.00  0.00     0.055 A 
ATOM     85  C   UNL A   1      47.086  28.677  35.209  1.00  0.00     0.041 A 
ATOM     86  F   UNL A   1      46.039  29.955  33.549  1.00  0.00    -0.206 F 
ATOM     87  C   UNL A   1      47.053  27.642  36.138  1.00  0.00     0.022 A 
BRANCH  84  88
ATOM     88  S   UNL A   1      45.790  25.575  37.520  1.00  0.00     0.124 S 
ATOM     89  O   UNL A   1      46.883  24.676  37.167  1.00  0.00    -0.237 OA
ATOM     90  O   UNL A   1      45.972  26.355  38.740  1.00  0.00    -0.237 OA
ATOM     91  O   UNL A   1      44.449  25.022  37.334  1.00  0.00    -0.744 OA
ENDBRANCH  84  88
ENDBRANCH  58  81
ENDBRANCH  32  33
ENDBRANCH  25  27
ENDBRANCH  24  25
ENDBRANCH  23  24
ENDBRANCH  22  23
ENDBRANCH   1  22
TORSDOF 20
ENDMDL
