MODEL 1
REMARK VINA RESULT:      -9.3      0.000      0.000
REMARK SMILES CC[C@@H]1C=CC[C@@H]2C(=O)N(CCCC(=O)OCCOCCOC(=O)c3ccc(-c4c5nc(c(-c6cc(S(=O)(=O)[O-])ccc6F)c6ccc([nH]6)c(-c6cc(S(=O)(=O)[O-])ccc6F)c6nc(c(-c7cc(S(=O)(=O)[O-])ccc7F)c7ccc4[nH]7)C=C6)C=C5)cc3)C(=O)[C@@H]21
REMARK SMILES IDX 18 1 17 2 16 3 14 4 15 5 13 6 12 7 11 8 10 9 3 10 4 11 90 12
REMARK SMILES IDX 5 13 7 14 88 15 6 16 8 17 89 18 9 19 2 20 1 21 19 22 20 23
REMARK SMILES IDX 21 24 22 25 23 26 24 27 25 28 26 29 87 30 27 31 86 32 28 33
REMARK SMILES IDX 29 34 30 35 80 36 31 37 85 38 79 39 81 40 32 41 84 42 78 43
REMARK SMILES IDX 77 44 33 46 65 47 45 48 64 49 46 50 49 51 63 52 82 53 47 54
REMARK SMILES IDX 48 55 62 57 83 58 50 59 34 60 35 61 43 62 36 63 42 64 44 65
REMARK SMILES IDX 41 66 37 67 38 68 39 69 40 70 66 71 67 72 75 73 68 74 74 75
REMARK SMILES IDX 76 76 73 77 69 78 70 79 71 80 72 81 51 82 52 83 60 84 53 85
REMARK SMILES IDX 59 86 61 87 58 88 54 89 55 90 56 91 57 92
REMARK H PARENT 81 45 49 56
REMARK Flexibility Score: inf
ROOT
ATOM      1  C   UNL A   1      34.428  32.799  29.118  1.00  0.00     0.202 C 
ENDROOT
BRANCH   1   2
ATOM      2  C   UNL A   1      34.946  32.087  27.867  1.00  0.00     0.261 C 
BRANCH   2   3
ATOM      3  O   UNL A   1      34.098  30.973  27.565  1.00  0.00    -0.463 OA
BRANCH   3   4
ATOM      4  C   UNL A   1      34.679  29.766  27.398  1.00  0.00     0.305 C 
ATOM      5  O   UNL A   1      35.568  29.298  28.099  1.00  0.00    -0.252 OA
BRANCH   4   6
ATOM      6  C   UNL A   1      34.058  28.992  26.250  1.00  0.00     0.124 C 
BRANCH   6   7
ATOM      7  C   UNL A   1      33.368  27.652  26.554  1.00  0.00     0.034 C 
BRANCH   7   8
ATOM      8  C   UNL A   1      31.853  27.653  26.823  1.00  0.00     0.129 C 
BRANCH   8   9
ATOM      9  N   UNL A   1      31.096  27.276  25.649  1.00  0.00    -0.282 N 
ATOM     10  C   UNL A   1      30.955  24.824  23.511  1.00  0.00     0.024 C 
ATOM     11  C   UNL A   1      32.299  25.422  23.148  1.00  0.00    -0.027 C 
ATOM     12  C   UNL A   1      30.002  25.868  24.151  1.00  0.00     0.099 C 
ATOM     13  C   UNL A   1      32.333  26.598  22.503  1.00  0.00    -0.030 C 
ATOM     14  C   UNL A   1      30.143  27.281  23.518  1.00  0.00     0.096 C 
ATOM     15  C   UNL A   1      30.308  26.174  25.595  1.00  0.00     0.233 C 
ATOM     16  C   UNL A   1      31.061  27.374  22.290  1.00  0.00     0.041 C 
ATOM     17  C   UNL A   1      30.795  28.096  24.610  1.00  0.00     0.233 C 
ATOM     18  O   UNL A   1      29.859  25.576  26.560  1.00  0.00    -0.274 OA
ATOM     19  O   UNL A   1      31.006  29.297  24.533  1.00  0.00    -0.274 OA
BRANCH  10  20
ATOM     20  C   UNL A   1      31.079  23.403  24.114  1.00  0.00     0.005 C 
ATOM     21  C   UNL A   1      32.242  23.077  25.031  1.00  0.00     0.004 C 
ENDBRANCH  10  20
ENDBRANCH   8   9
ENDBRANCH   7   8
ENDBRANCH   6   7
ENDBRANCH   4   6
ENDBRANCH   3   4
ENDBRANCH   2   3
ENDBRANCH   1   2
BRANCH   1  22
ATOM     22  O   UNL A   1      33.273  33.623  28.952  1.00  0.00    -0.374 OA
BRANCH  22  23
ATOM     23  C   UNL A   1      33.470  35.023  28.769  1.00  0.00     0.202 C 
BRANCH  23  24
ATOM     24  C   UNL A   1      32.877  35.975  29.819  1.00  0.00     0.261 C 
BRANCH  24  25
ATOM     25  O   UNL A   1      33.689  36.117  30.997  1.00  0.00    -0.460 OA
BRANCH  25  26
ATOM     26  C   UNL A   1      33.294  35.335  32.033  1.00  0.00     0.338 C 
ATOM     27  O   UNL A   1      32.151  34.974  32.279  1.00  0.00    -0.246 OA
BRANCH  26  28
ATOM     28  C   UNL A   1      34.457  34.804  32.767  1.00  0.00     0.060 A 
ATOM     29  C   UNL A   1      35.710  35.355  32.468  1.00  0.00     0.016 A 
ATOM     30  C   UNL A   1      34.349  33.720  33.640  1.00  0.00     0.016 A 
ATOM     31  C   UNL A   1      36.866  34.786  32.995  1.00  0.00     0.010 A 
ATOM     32  C   UNL A   1      35.515  33.148  34.165  1.00  0.00     0.010 A 
ATOM     33  C   UNL A   1      36.781  33.653  33.813  1.00  0.00    -0.014 A 
BRANCH  33  34
ATOM     34  C   UNL A   1      38.022  32.921  34.177  1.00  0.00     0.031 A 
ATOM     35  C   UNL A   1      38.501  31.802  33.290  1.00  0.00     0.074 A 
ATOM     36  C   UNL A   1      38.742  33.282  35.255  1.00  0.00     0.049 A 
ATOM     37  N   UNL A   1      39.533  31.011  33.432  1.00  0.00    -0.248 NA
ATOM     38  C   UNL A   1      37.705  31.541  32.082  1.00  0.00     0.031 C 
ATOM     39  C   UNL A   1      38.410  34.385  36.157  1.00  0.00     0.029 A 
ATOM     40  N   UNL A   1      39.898  32.759  35.776  1.00  0.00    -0.354 N 
ATOM     41  C   UNL A   1      39.509  30.152  32.338  1.00  0.00     0.074 A 
ATOM     42  C   UNL A   1      38.335  30.497  31.564  1.00  0.00     0.031 C 
ATOM     43  C   UNL A   1      39.342  34.454  37.122  1.00  0.00     0.029 A 
ATOM     44  C   UNL A   1      40.308  33.373  36.937  1.00  0.00     0.049 A 
ATOM     45  H   UNL A   1      40.390  32.015  35.358  1.00  0.00     0.167 HD
ATOM     46  C   UNL A   1      40.389  29.175  32.007  1.00  0.00     0.034 A 
ATOM     47  C   UNL A   1      41.326  33.077  37.772  1.00  0.00     0.034 A 
ATOM     48  C   UNL A   1      41.551  28.840  32.796  1.00  0.00     0.049 A 
ATOM     49  C   UNL A   1      42.236  31.919  37.433  1.00  0.00     0.074 A 
ATOM     50  C   UNL A   1      42.514  27.878  32.545  1.00  0.00     0.029 A 
ATOM     51  N   UNL A   1      41.900  29.443  33.997  1.00  0.00    -0.354 N 
ATOM     52  N   UNL A   1      42.204  31.116  36.394  1.00  0.00    -0.248 NA
ATOM     53  C   UNL A   1      43.324  31.634  38.379  1.00  0.00     0.031 C 
ATOM     54  C   UNL A   1      43.394  27.842  33.631  1.00  0.00     0.029 A 
ATOM     55  C   UNL A   1      43.039  28.847  34.518  1.00  0.00     0.049 A 
ATOM     56  H   UNL A   1      41.411  30.186  34.419  1.00  0.00     0.167 HD
ATOM     57  C   UNL A   1      43.289  30.255  36.546  1.00  0.00     0.074 A 
ATOM     58  C   UNL A   1      43.961  30.646  37.768  1.00  0.00     0.031 C 
ATOM     59  C   UNL A   1      43.697  29.237  35.745  1.00  0.00     0.034 A 
BRANCH  46  60
ATOM     60  C   UNL A   1      40.095  28.362  30.767  1.00  0.00     0.023 A 
ATOM     61  C   UNL A   1      40.730  28.618  29.539  1.00  0.00     0.031 A 
ATOM     62  C   UNL A   1      39.145  27.325  30.810  1.00  0.00     0.131 A 
ATOM     63  C   UNL A   1      40.359  27.897  28.393  1.00  0.00     0.055 A 
ATOM     64  C   UNL A   1      38.841  26.555  29.685  1.00  0.00     0.041 A 
ATOM     65  F   UNL A   1      38.486  27.048  31.946  1.00  0.00    -0.206 F 
ATOM     66  C   UNL A   1      39.439  26.849  28.464  1.00  0.00     0.022 A 
BRANCH  63  67
ATOM     67  S   UNL A   1      40.985  28.445  26.782  1.00  0.00     0.124 S 
ATOM     68  O   UNL A   1      42.197  29.164  27.165  1.00  0.00    -0.237 OA
ATOM     69  O   UNL A   1      41.184  27.186  26.075  1.00  0.00    -0.237 OA
ATOM     70  O   UNL A   1      39.909  29.289  26.265  1.00  0.00    -0.744 OA
ENDBRANCH  63  67
ENDBRANCH  46  60
BRANCH  47  71
ATOM     71  C   UNL A   1      41.520  33.853  39.030  1.00  0.00     0.023 A 
ATOM     72  C   UNL A   1      40.891  33.472  40.226  1.00  0.00     0.031 A 
ATOM     73  C   UNL A   1      42.294  35.027  39.040  1.00  0.00     0.131 A 
ATOM     74  C   UNL A   1      41.005  34.283  41.367  1.00  0.00     0.055 A 
ATOM     75  C   UNL A   1      42.456  35.798  40.193  1.00  0.00     0.041 A 
ATOM     76  F   UNL A   1      42.914  35.443  37.924  1.00  0.00    -0.206 F 
ATOM     77  C   UNL A   1      41.796  35.434  41.362  1.00  0.00     0.022 A 
BRANCH  74  78
ATOM     78  S   UNL A   1      40.021  33.866  42.832  1.00  0.00     0.124 S 
ATOM     79  O   UNL A   1      38.679  33.768  42.270  1.00  0.00    -0.237 OA
ATOM     80  O   UNL A   1      40.632  32.611  43.260  1.00  0.00    -0.237 OA
ATOM     81  O   UNL A   1      40.244  35.001  43.725  1.00  0.00    -0.744 OA
ENDBRANCH  74  78
ENDBRANCH  47  71
BRANCH  59  82
ATOM     82  C   UNL A   1      44.963  28.509  36.140  1.00  0.00     0.023 A 
ATOM     83  C   UNL A   1      44.939  27.348  36.932  1.00  0.00     0.031 A 
ATOM     84  C   UNL A   1      46.215  28.995  35.719  1.00  0.00     0.131 A 
ATOM     85  C   UNL A   1      46.144  26.747  37.328  1.00  0.00     0.055 A 
ATOM     86  C   UNL A   1      47.406  28.352  36.060  1.00  0.00     0.041 A 
ATOM     87  F   UNL A   1      46.302  30.102  34.966  1.00  0.00    -0.206 F 
ATOM     88  C   UNL A   1      47.376  27.230  36.881  1.00  0.00     0.022 A 
BRANCH  85  89
ATOM     89  S   UNL A   1      46.086  25.383  38.523  1.00  0.00     0.124 S 
ATOM     90  O   UNL A   1      47.218  24.563  38.103  1.00  0.00    -0.237 OA
ATOM     91  O   UNL A   1      46.239  26.077  39.797  1.00  0.00    -0.237 OA
ATOM     92  O   UNL A   1      44.771  24.785  38.297  1.00  0.00    -0.744 OA
ENDBRANCH  85  89
ENDBRANCH  59  82
ENDBRANCH  33  34
ENDBRANCH  26  28
ENDBRANCH  25  26
ENDBRANCH  24  25
ENDBRANCH  23  24
ENDBRANCH  22  23
ENDBRANCH   1  22
TORSDOF 21
ENDMDL
MODEL 2
REMARK VINA RESULT:      -9.3      6.772     11.122
REMARK SMILES CC[C@@H]1C=CC[C@@H]2C(=O)N(CCCC(=O)OCCOCCOC(=O)c3ccc(-c4c5nc(c(-c6cc(S(=O)(=O)[O-])ccc6F)c6ccc([nH]6)c(-c6cc(S(=O)(=O)[O-])ccc6F)c6nc(c(-c7cc(S(=O)(=O)[O-])ccc7F)c7ccc4[nH]7)C=C6)C=C5)cc3)C(=O)[C@@H]21
REMARK SMILES IDX 18 1 17 2 16 3 14 4 15 5 13 6 12 7 11 8 10 9 3 10 4 11 90 12
REMARK SMILES IDX 5 13 7 14 88 15 6 16 8 17 89 18 9 19 2 20 1 21 19 22 20 23
REMARK SMILES IDX 21 24 22 25 23 26 24 27 25 28 26 29 87 30 27 31 86 32 28 33
REMARK SMILES IDX 29 34 30 35 80 36 31 37 85 38 79 39 81 40 32 41 84 42 78 43
REMARK SMILES IDX 77 44 33 46 65 47 45 48 64 49 46 50 49 51 63 52 82 53 47 54
REMARK SMILES IDX 48 55 62 57 83 58 50 59 34 60 35 61 43 62 36 63 42 64 44 65
REMARK SMILES IDX 41 66 37 67 38 68 39 69 40 70 66 71 67 72 75 73 68 74 74 75
REMARK SMILES IDX 76 76 73 77 69 78 70 79 71 80 72 81 51 82 52 83 60 84 53 85
REMARK SMILES IDX 59 86 61 87 58 88 54 89 55 90 56 91 57 92
REMARK H PARENT 81 45 49 56
REMARK Flexibility Score: inf
ROOT
ATOM      1  C   UNL A   1      37.178  21.675  25.254  1.00  0.00     0.202 C 
ENDROOT
BRANCH   1   2
ATOM      2  C   UNL A   1      35.749  22.144  25.528  1.00  0.00     0.261 C 
BRANCH   2   3
ATOM      3  O   UNL A   1      34.849  21.484  24.631  1.00  0.00    -0.463 OA
BRANCH   3   4
ATOM      4  C   UNL A   1      33.532  21.764  24.738  1.00  0.00     0.305 C 
ATOM      5  O   UNL A   1      32.880  21.740  25.775  1.00  0.00    -0.252 OA
BRANCH   4   6
ATOM      6  C   UNL A   1      32.932  22.186  23.411  1.00  0.00     0.124 C 
BRANCH   6   7
ATOM      7  C   UNL A   1      31.937  23.358  23.392  1.00  0.00     0.034 C 
BRANCH   7   8
ATOM      8  C   UNL A   1      32.483  24.780  23.171  1.00  0.00     0.129 C 
BRANCH   8   9
ATOM      9  N   UNL A   1      32.194  25.650  24.289  1.00  0.00    -0.282 N 
ATOM     10  C   UNL A   1      31.390  28.760  24.825  1.00  0.00     0.024 C 
ATOM     11  C   UNL A   1      32.812  28.930  24.330  1.00  0.00    -0.027 C 
ATOM     12  C   UNL A   1      31.156  27.368  25.470  1.00  0.00     0.099 C 
ATOM     13  C   UNL A   1      33.826  28.568  25.132  1.00  0.00    -0.030 C 
ATOM     14  C   UNL A   1      32.386  26.862  26.275  1.00  0.00     0.096 C 
ATOM     15  C   UNL A   1      30.992  26.250  24.473  1.00  0.00     0.233 C 
ATOM     16  C   UNL A   1      33.541  27.863  26.430  1.00  0.00     0.041 C 
ATOM     17  C   UNL A   1      32.912  25.719  25.439  1.00  0.00     0.233 C 
ATOM     18  O   UNL A   1      29.938  25.893  23.971  1.00  0.00    -0.274 OA
ATOM     19  O   UNL A   1      33.839  24.997  25.773  1.00  0.00    -0.274 OA
BRANCH  10  20
ATOM     20  C   UNL A   1      30.346  29.358  23.851  1.00  0.00     0.005 C 
ATOM     21  C   UNL A   1      30.565  29.244  22.355  1.00  0.00     0.004 C 
ENDBRANCH  10  20
ENDBRANCH   8   9
ENDBRANCH   7   8
ENDBRANCH   6   7
ENDBRANCH   4   6
ENDBRANCH   3   4
ENDBRANCH   2   3
ENDBRANCH   1   2
BRANCH   1  22
ATOM     22  O   UNL A   1      37.329  20.355  24.727  1.00  0.00    -0.374 OA
BRANCH  22  23
ATOM     23  C   UNL A   1      38.499  19.623  25.081  1.00  0.00     0.202 C 
BRANCH  23  24
ATOM     24  C   UNL A   1      39.652  20.389  25.748  1.00  0.00     0.261 C 
BRANCH  24  25
ATOM     25  O   UNL A   1      40.480  19.571  26.590  1.00  0.00    -0.460 OA
BRANCH  25  26
ATOM     26  C   UNL A   1      41.765  19.470  26.164  1.00  0.00     0.338 C 
ATOM     27  O   UNL A   1      42.261  18.527  25.562  1.00  0.00    -0.246 OA
BRANCH  26  28
ATOM     28  C   UNL A   1      42.488  20.739  26.358  1.00  0.00     0.060 A 
ATOM     29  C   UNL A   1      42.595  21.221  27.670  1.00  0.00     0.016 A 
ATOM     30  C   UNL A   1      42.949  21.501  25.283  1.00  0.00     0.016 A 
ATOM     31  C   UNL A   1      43.112  22.492  27.906  1.00  0.00     0.010 A 
ATOM     32  C   UNL A   1      43.465  22.781  25.525  1.00  0.00     0.010 A 
ATOM     33  C   UNL A   1      43.511  23.298  26.833  1.00  0.00    -0.014 A 
BRANCH  33  34
ATOM     34  C   UNL A   1      43.840  24.727  27.077  1.00  0.00     0.031 A 
ATOM     35  C   UNL A   1      45.239  25.216  26.807  1.00  0.00     0.074 A 
ATOM     36  C   UNL A   1      42.891  25.590  27.485  1.00  0.00     0.049 A 
ATOM     37  N   UNL A   1      45.752  26.406  26.980  1.00  0.00    -0.248 NA
ATOM     38  C   UNL A   1      46.184  24.224  26.273  1.00  0.00     0.031 C 
ATOM     39  C   UNL A   1      41.489  25.248  27.724  1.00  0.00     0.029 A 
ATOM     40  N   UNL A   1      42.962  26.930  27.770  1.00  0.00    -0.354 N 
ATOM     41  C   UNL A   1      47.082  26.308  26.584  1.00  0.00     0.074 A 
ATOM     42  C   UNL A   1      47.303  24.930  26.200  1.00  0.00     0.031 C 
ATOM     43  C   UNL A   1      40.833  26.351  28.123  1.00  0.00     0.029 A 
ATOM     44  C   UNL A   1      41.775  27.464  28.215  1.00  0.00     0.049 A 
ATOM     45  H   UNL A   1      43.786  27.461  27.666  1.00  0.00     0.167 HD
ATOM     46  C   UNL A   1      48.027  27.280  26.537  1.00  0.00     0.034 A 
ATOM     47  C   UNL A   1      41.489  28.700  28.674  1.00  0.00     0.034 A 
ATOM     48  C   UNL A   1      47.791  28.649  26.932  1.00  0.00     0.049 A 
ATOM     49  C   UNL A   1      42.583  29.741  28.705  1.00  0.00     0.074 A 
ATOM     50  C   UNL A   1      48.673  29.716  26.911  1.00  0.00     0.029 A 
ATOM     51  N   UNL A   1      46.593  29.138  27.435  1.00  0.00    -0.354 N 
ATOM     52  N   UNL A   1      43.837  29.637  28.326  1.00  0.00    -0.248 NA
ATOM     53  C   UNL A   1      42.222  31.068  29.222  1.00  0.00     0.031 C 
ATOM     54  C   UNL A   1      48.037  30.824  27.477  1.00  0.00     0.029 A 
ATOM     55  C   UNL A   1      46.725  30.479  27.764  1.00  0.00     0.049 A 
ATOM     56  H   UNL A   1      45.769  28.611  27.542  1.00  0.00     0.167 HD
ATOM     57  C   UNL A   1      44.400  30.896  28.525  1.00  0.00     0.074 A 
ATOM     58  C   UNL A   1      43.347  31.743  29.044  1.00  0.00     0.031 C 
ATOM     59  C   UNL A   1      45.671  31.315  28.293  1.00  0.00     0.034 A 
BRANCH  46  60
ATOM     60  C   UNL A   1      49.417  26.882  26.095  1.00  0.00     0.023 A 
ATOM     61  C   UNL A   1      49.943  27.268  24.850  1.00  0.00     0.031 A 
ATOM     62  C   UNL A   1      50.221  26.082  26.927  1.00  0.00     0.131 A 
ATOM     63  C   UNL A   1      51.202  26.798  24.445  1.00  0.00     0.055 A 
ATOM     64  C   UNL A   1      51.508  25.688  26.553  1.00  0.00     0.041 A 
ATOM     65  F   UNL A   1      49.766  25.660  28.118  1.00  0.00    -0.206 F 
ATOM     66  C   UNL A   1      52.000  26.035  25.299  1.00  0.00     0.022 A 
BRANCH  63  67
ATOM     67  S   UNL A   1      51.722  27.078  22.729  1.00  0.00     0.124 S 
ATOM     68  O   UNL A   1      52.156  28.471  22.776  1.00  0.00    -0.237 OA
ATOM     69  O   UNL A   1      52.774  26.084  22.551  1.00  0.00    -0.237 OA
ATOM     70  O   UNL A   1      50.502  26.841  21.959  1.00  0.00    -0.744 OA
ENDBRANCH  63  67
ENDBRANCH  46  60
BRANCH  47  71
ATOM     71  C   UNL A   1      40.124  29.018  29.184  1.00  0.00     0.023 A 
ATOM     72  C   UNL A   1      39.829  28.972  30.556  1.00  0.00     0.031 A 
ATOM     73  C   UNL A   1      39.074  29.316  28.296  1.00  0.00     0.131 A 
ATOM     74  C   UNL A   1      38.510  29.170  30.996  1.00  0.00     0.055 A 
ATOM     75  C   UNL A   1      37.777  29.573  28.743  1.00  0.00     0.041 A 
ATOM     76  F   UNL A   1      39.297  29.368  26.973  1.00  0.00    -0.206 F 
ATOM     77  C   UNL A   1      37.486  29.486  30.100  1.00  0.00     0.022 A 
BRANCH  74  78
ATOM     78  S   UNL A   1      38.130  28.908  32.749  1.00  0.00     0.124 S 
ATOM     79  O   UNL A   1      38.153  27.453  32.844  1.00  0.00    -0.237 OA
ATOM     80  O   UNL A   1      39.228  29.611  33.405  1.00  0.00    -0.237 OA
ATOM     81  O   UNL A   1      36.815  29.524  32.908  1.00  0.00    -0.744 OA
ENDBRANCH  74  78
ENDBRANCH  47  71
BRANCH  59  82
ATOM     82  C   UNL A   1      45.976  32.774  28.551  1.00  0.00     0.023 A 
ATOM     83  C   UNL A   1      46.408  33.235  29.807  1.00  0.00     0.031 A 
ATOM     84  C   UNL A   1      45.825  33.718  27.518  1.00  0.00     0.131 A 
ATOM     85  C   UNL A   1      46.614  34.608  30.015  1.00  0.00     0.055 A 
ATOM     86  C   UNL A   1      46.098  35.073  27.713  1.00  0.00     0.041 A 
ATOM     87  F   UNL A   1      45.411  33.339  26.299  1.00  0.00    -0.206 F 
ATOM     88  C   UNL A   1      46.481  35.527  28.971  1.00  0.00     0.022 A 
BRANCH  85  89
ATOM     89  S   UNL A   1      46.959  35.192  31.697  1.00  0.00     0.124 S 
ATOM     90  O   UNL A   1      46.085  36.356  31.800  1.00  0.00    -0.237 OA
ATOM     91  O   UNL A   1      46.584  34.040  32.511  1.00  0.00    -0.237 OA
ATOM     92  O   UNL A   1      48.390  35.493  31.670  1.00  0.00    -0.744 OA
ENDBRANCH  85  89
ENDBRANCH  59  82
ENDBRANCH  33  34
ENDBRANCH  26  28
ENDBRANCH  25  26
ENDBRANCH  24  25
ENDBRANCH  23  24
ENDBRANCH  22  23
ENDBRANCH   1  22
TORSDOF 21
ENDMDL
MODEL 3
REMARK VINA RESULT:      -9.1      7.215     12.100
REMARK SMILES CC[C@@H]1C=CC[C@@H]2C(=O)N(CCCC(=O)OCCOCCOC(=O)c3ccc(-c4c5nc(c(-c6cc(S(=O)(=O)[O-])ccc6F)c6ccc([nH]6)c(-c6cc(S(=O)(=O)[O-])ccc6F)c6nc(c(-c7cc(S(=O)(=O)[O-])ccc7F)c7ccc4[nH]7)C=C6)C=C5)cc3)C(=O)[C@@H]21
REMARK SMILES IDX 18 1 17 2 16 3 14 4 15 5 13 6 12 7 11 8 10 9 3 10 4 11 90 12
REMARK SMILES IDX 5 13 7 14 88 15 6 16 8 17 89 18 9 19 2 20 1 21 19 22 20 23
REMARK SMILES IDX 21 24 22 25 23 26 24 27 25 28 26 29 87 30 27 31 86 32 28 33
REMARK SMILES IDX 29 34 30 35 80 36 31 37 85 38 79 39 81 40 32 41 84 42 78 43
REMARK SMILES IDX 77 44 33 46 65 47 45 48 64 49 46 50 49 51 63 52 82 53 47 54
REMARK SMILES IDX 48 55 62 57 83 58 50 59 34 60 35 61 43 62 36 63 42 64 44 65
REMARK SMILES IDX 41 66 37 67 38 68 39 69 40 70 66 71 67 72 75 73 68 74 74 75
REMARK SMILES IDX 76 76 73 77 69 78 70 79 71 80 72 81 51 82 52 83 60 84 53 85
REMARK SMILES IDX 59 86 61 87 58 88 54 89 55 90 56 91 57 92
REMARK H PARENT 81 45 49 56
REMARK Flexibility Score: inf
ROOT
ATOM      1  C   UNL A   1      40.724  22.330  27.528  1.00  0.00     0.202 C 
ENDROOT
BRANCH   1   2
ATOM      2  C   UNL A   1      39.597  23.139  26.885  1.00  0.00     0.261 C 
BRANCH   2   3
ATOM      3  O   UNL A   1      39.102  22.441  25.737  1.00  0.00    -0.463 OA
BRANCH   3   4
ATOM      4  C   UNL A   1      37.767  22.264  25.633  1.00  0.00     0.305 C 
ATOM      5  O   UNL A   1      37.198  21.188  25.500  1.00  0.00    -0.252 OA
BRANCH   4   6
ATOM      6  C   UNL A   1      37.010  23.572  25.762  1.00  0.00     0.124 C 
BRANCH   6   7
ATOM      7  C   UNL A   1      35.500  23.581  25.473  1.00  0.00     0.034 C 
BRANCH   7   8
ATOM      8  C   UNL A   1      34.782  24.938  25.363  1.00  0.00     0.129 C 
BRANCH   8   9
ATOM      9  N   UNL A   1      33.429  24.795  24.874  1.00  0.00    -0.282 N 
ATOM     10  C   UNL A   1      31.113  26.633  23.508  1.00  0.00     0.024 C 
ATOM     11  C   UNL A   1      31.153  27.237  24.898  1.00  0.00    -0.027 C 
ATOM     12  C   UNL A   1      31.586  25.155  23.497  1.00  0.00     0.099 C 
ATOM     13  C   UNL A   1      30.644  26.536  25.923  1.00  0.00    -0.030 C 
ATOM     14  C   UNL A   1      31.137  24.369  24.760  1.00  0.00     0.096 C 
ATOM     15  C   UNL A   1      33.082  24.988  23.579  1.00  0.00     0.233 C 
ATOM     16  C   UNL A   1      30.190  25.117  25.711  1.00  0.00     0.041 C 
ATOM     17  C   UNL A   1      32.424  24.147  25.517  1.00  0.00     0.233 C 
ATOM     18  O   UNL A   1      33.846  24.956  22.628  1.00  0.00    -0.274 OA
ATOM     19  O   UNL A   1      32.510  23.487  26.542  1.00  0.00    -0.274 OA
BRANCH  10  20
ATOM     20  C   UNL A   1      31.599  27.619  22.418  1.00  0.00     0.005 C 
ATOM     21  C   UNL A   1      32.490  28.784  22.804  1.00  0.00     0.004 C 
ENDBRANCH  10  20
ENDBRANCH   8   9
ENDBRANCH   7   8
ENDBRANCH   6   7
ENDBRANCH   4   6
ENDBRANCH   3   4
ENDBRANCH   2   3
ENDBRANCH   1   2
BRANCH   1  22
ATOM     22  O   UNL A   1      41.427  21.424  26.676  1.00  0.00    -0.374 OA
BRANCH  22  23
ATOM     23  C   UNL A   1      41.821  20.165  27.216  1.00  0.00     0.202 C 
BRANCH  23  24
ATOM     24  C   UNL A   1      42.377  19.110  26.247  1.00  0.00     0.261 C 
BRANCH  24  25
ATOM     25  O   UNL A   1      42.770  19.645  24.972  1.00  0.00    -0.460 OA
BRANCH  25  26
ATOM     26  C   UNL A   1      44.114  19.707  24.794  1.00  0.00     0.338 C 
ATOM     27  O   UNL A   1      44.841  18.801  24.409  1.00  0.00    -0.246 OA
BRANCH  26  28
ATOM     28  C   UNL A   1      44.606  21.086  24.959  1.00  0.00     0.060 A 
ATOM     29  C   UNL A   1      45.351  21.369  26.111  1.00  0.00     0.016 A 
ATOM     30  C   UNL A   1      44.254  22.108  24.074  1.00  0.00     0.016 A 
ATOM     31  C   UNL A   1      45.699  22.682  26.413  1.00  0.00     0.010 A 
ATOM     32  C   UNL A   1      44.603  23.429  24.383  1.00  0.00     0.010 A 
ATOM     33  C   UNL A   1      45.291  23.727  25.575  1.00  0.00    -0.014 A 
BRANCH  33  34
ATOM     34  C   UNL A   1      45.465  25.133  26.024  1.00  0.00     0.031 A 
ATOM     35  C   UNL A   1      46.820  25.780  25.906  1.00  0.00     0.074 A 
ATOM     36  C   UNL A   1      44.417  25.841  26.484  1.00  0.00     0.049 A 
ATOM     37  N   UNL A   1      47.204  26.977  26.264  1.00  0.00    -0.248 NA
ATOM     38  C   UNL A   1      47.883  24.962  25.303  1.00  0.00     0.031 C 
ATOM     39  C   UNL A   1      43.046  25.342  26.591  1.00  0.00     0.029 A 
ATOM     40  N   UNL A   1      44.342  27.130  26.947  1.00  0.00    -0.354 N 
ATOM     41  C   UNL A   1      48.555  27.057  25.939  1.00  0.00     0.074 A 
ATOM     42  C   UNL A   1      48.928  25.771  25.391  1.00  0.00     0.031 C 
ATOM     43  C   UNL A   1      42.266  26.315  27.092  1.00  0.00     0.029 A 
ATOM     44  C   UNL A   1      43.088  27.487  27.387  1.00  0.00     0.049 A 
ATOM     45  H   UNL A   1      45.113  27.744  26.964  1.00  0.00     0.167 HD
ATOM     46  C   UNL A   1      49.400  28.109  26.078  1.00  0.00     0.034 A 
ATOM     47  C   UNL A   1      42.659  28.617  27.987  1.00  0.00     0.034 A 
ATOM     48  C   UNL A   1      49.011  29.383  26.635  1.00  0.00     0.049 A 
ATOM     49  C   UNL A   1      43.643  29.739  28.221  1.00  0.00     0.074 A 
ATOM     50  C   UNL A   1      49.783  30.519  26.807  1.00  0.00     0.029 A 
ATOM     51  N   UNL A   1      47.748  29.687  27.125  1.00  0.00    -0.354 N 
ATOM     52  N   UNL A   1      44.917  29.804  27.907  1.00  0.00    -0.248 NA
ATOM     53  C   UNL A   1      43.127  30.944  28.885  1.00  0.00     0.031 C 
ATOM     54  C   UNL A   1      49.014  31.477  27.476  1.00  0.00     0.029 A 
ATOM     55  C   UNL A   1      47.730  30.977  27.636  1.00  0.00     0.049 A 
ATOM     56  H   UNL A   1      46.976  29.077  27.112  1.00  0.00     0.167 HD
ATOM     57  C   UNL A   1      45.343  31.070  28.303  1.00  0.00     0.074 A 
ATOM     58  C   UNL A   1      44.187  31.738  28.866  1.00  0.00     0.031 C 
ATOM     59  C   UNL A   1      46.575  31.632  28.206  1.00  0.00     0.034 A 
BRANCH  46  60
ATOM     60  C   UNL A   1      50.842  27.904  25.671  1.00  0.00     0.023 A 
ATOM     61  C   UNL A   1      51.249  27.943  24.327  1.00  0.00     0.031 A 
ATOM     62  C   UNL A   1      51.821  27.644  26.647  1.00  0.00     0.131 A 
ATOM     63  C   UNL A   1      52.582  27.657  23.990  1.00  0.00     0.055 A 
ATOM     64  C   UNL A   1      53.162  27.444  26.312  1.00  0.00     0.041 A 
ATOM     65  F   UNL A   1      51.489  27.569  27.946  1.00  0.00    -0.206 F 
ATOM     66  C   UNL A   1      53.546  27.435  24.976  1.00  0.00     0.022 A 
BRANCH  63  67
ATOM     67  S   UNL A   1      53.007  27.434  22.241  1.00  0.00     0.124 S 
ATOM     68  O   UNL A   1      54.073  26.439  22.320  1.00  0.00    -0.237 OA
ATOM     69  O   UNL A   1      51.747  26.979  21.665  1.00  0.00    -0.237 OA
ATOM     70  O   UNL A   1      53.440  28.766  21.821  1.00  0.00    -0.744 OA
ENDBRANCH  63  67
ENDBRANCH  46  60
BRANCH  47  71
ATOM     71  C   UNL A   1      41.247  28.736  28.451  1.00  0.00     0.023 A 
ATOM     72  C   UNL A   1      40.913  28.607  29.809  1.00  0.00     0.031 A 
ATOM     73  C   UNL A   1      40.199  28.920  27.531  1.00  0.00     0.131 A 
ATOM     74  C   UNL A   1      39.564  28.615  30.202  1.00  0.00     0.055 A 
ATOM     75  C   UNL A   1      38.864  28.989  27.934  1.00  0.00     0.041 A 
ATOM     76  F   UNL A   1      40.459  29.043  26.220  1.00  0.00    -0.206 F 
ATOM     77  C   UNL A   1      38.540  28.821  29.275  1.00  0.00     0.022 A 
BRANCH  74  78
ATOM     78  S   UNL A   1      39.162  28.249  31.932  1.00  0.00     0.124 S 
ATOM     79  O   UNL A   1      38.336  27.055  31.798  1.00  0.00    -0.237 OA
ATOM     80  O   UNL A   1      40.485  28.054  32.516  1.00  0.00    -0.237 OA
ATOM     81  O   UNL A   1      38.458  29.450  32.377  1.00  0.00    -0.744 OA
ENDBRANCH  74  78
ENDBRANCH  47  71
BRANCH  59  82
ATOM     82  C   UNL A   1      46.722  33.063  28.671  1.00  0.00     0.023 A 
ATOM     83  C   UNL A   1      46.489  34.154  27.815  1.00  0.00     0.031 A 
ATOM     84  C   UNL A   1      47.111  33.337  29.996  1.00  0.00     0.131 A 
ATOM     85  C   UNL A   1      46.705  35.463  28.275  1.00  0.00     0.055 A 
ATOM     86  C   UNL A   1      47.256  34.643  30.467  1.00  0.00     0.041 A 
ATOM     87  F   UNL A   1      47.352  32.337  30.859  1.00  0.00    -0.206 F 
ATOM     88  C   UNL A   1      47.067  35.715  29.600  1.00  0.00     0.022 A 
BRANCH  85  89
ATOM     89  S   UNL A   1      46.605  36.831  27.088  1.00  0.00     0.124 S 
ATOM     90  O   UNL A   1      46.824  36.148  25.817  1.00  0.00    -0.237 OA
ATOM     91  O   UNL A   1      45.256  37.342  27.313  1.00  0.00    -0.237 OA
ATOM     92  O   UNL A   1      47.684  37.726  27.504  1.00  0.00    -0.744 OA
ENDBRANCH  85  89
ENDBRANCH  59  82
ENDBRANCH  33  34
ENDBRANCH  26  28
ENDBRANCH  25  26
ENDBRANCH  24  25
ENDBRANCH  23  24
ENDBRANCH  22  23
ENDBRANCH   1  22
TORSDOF 21
ENDMDL
