MODEL 1
REMARK VINA RESULT:     -11.8      0.000      0.000
REMARK SMILES Cc1cccc(O[C@H]2CC[C@@]([NH2+]C(C)C)(C(=O)OCCOCCOC(=O)c3ccc(-c4c5nc(c(-c6cc(S(=O)(=O)[O-])ccc6F)c6ccc([nH]6)c(-c6cc(S(=O)(=O)[O-])ccc6F)c6nc(c(-c7cc(S(=O)(=O)[O-])ccc7F)c7ccc4[nH]7)C=C6)C=C5)cc3)C2)c1
REMARK SMILES IDX 22 1 21 2 20 3 19 4 18 5 16 6 17 7 11 8 8 9 9 10 90 11 10 12
REMARK SMILES IDX 7 13 6 14 1 15 2 16 3 17 91 18 4 19 5 20 12 21 13 24 14 25
REMARK SMILES IDX 15 26 23 27 24 28 25 29 26 30 27 31 28 32 89 33 29 34 88 35
REMARK SMILES IDX 30 36 31 37 32 38 82 39 33 40 87 41 81 42 83 43 34 44 86 45
REMARK SMILES IDX 80 46 79 47 35 49 67 50 47 51 66 52 48 53 51 54 65 55 84 56
REMARK SMILES IDX 49 57 50 58 64 60 85 61 52 62 36 63 37 64 45 65 38 66 44 67
REMARK SMILES IDX 46 68 43 69 39 70 40 71 41 72 42 73 68 74 69 75 77 76 70 77
REMARK SMILES IDX 76 78 78 79 75 80 71 81 72 82 73 83 74 84 53 85 54 86 62 87
REMARK SMILES IDX 55 88 61 89 63 90 60 91 56 92 57 93 58 94 59 95
REMARK H PARENT 12 22 12 23 83 48 51 59
REMARK Flexibility Score: inf
ROOT
ATOM      1  C   UNL A   1      32.948  31.017  27.349  1.00  0.00     0.202 C 
ENDROOT
BRANCH   1   2
ATOM      2  O   UNL A   1      32.208  30.515  26.280  1.00  0.00    -0.374 OA
BRANCH   2   3
ATOM      3  C   UNL A   1      32.731  29.367  25.642  1.00  0.00     0.202 C 
BRANCH   3   4
ATOM      4  C   UNL A   1      32.124  28.273  26.453  1.00  0.00     0.261 C 
BRANCH   4   5
ATOM      5  O   UNL A   1      31.983  27.038  25.721  1.00  0.00    -0.459 OA
BRANCH   5   6
ATOM      6  C   UNL A   1      30.794  26.361  25.697  1.00  0.00     0.368 C 
ATOM      7  O   UNL A   1      30.063  26.152  26.654  1.00  0.00    -0.245 OA
BRANCH   6   8
ATOM      8  C   UNL A   1      30.506  25.850  24.260  1.00  0.00     0.198 C 
ATOM      9  C   UNL A   1      29.845  27.745  22.779  1.00  0.00     0.180 C 
ATOM     10  C   UNL A   1      31.298  27.389  22.478  1.00  0.00     0.052 C 
ATOM     11  C   UNL A   1      29.311  26.563  23.591  1.00  0.00     0.126 C 
ATOM     12  C   UNL A   1      31.710  26.226  23.365  1.00  0.00     0.085 C 
BRANCH   9  13
ATOM     13  O   UNL A   1      29.649  28.956  23.516  1.00  0.00    -0.490 OA
BRANCH  13  14
ATOM     14  C   UNL A   1      28.988  30.004  22.928  1.00  0.00     0.119 A 
ATOM     15  C   UNL A   1      29.318  33.771  23.411  1.00  0.00     0.044 C 
ATOM     16  C   UNL A   1      28.881  32.443  22.866  1.00  0.00    -0.047 A 
ATOM     17  C   UNL A   1      28.190  32.370  21.656  1.00  0.00     0.003 A 
ATOM     18  C   UNL A   1      29.205  31.251  23.528  1.00  0.00     0.049 A 
ATOM     19  C   UNL A   1      27.850  31.129  21.118  1.00  0.00     0.004 A 
ATOM     20  C   UNL A   1      28.250  29.949  21.750  1.00  0.00     0.046 A 
ENDBRANCH  13  14
ENDBRANCH   9  13
BRANCH   8  21
ATOM     21  N   UNL A   1      30.337  24.367  24.244  1.00  0.00    -0.330 N 
ATOM     22  H   UNL A   1      30.276  24.078  23.268  1.00  0.00     0.347 HD
ATOM     23  H   UNL A   1      29.502  24.198  24.806  1.00  0.00     0.347 HD
BRANCH  21  24
ATOM     24  C   UNL A   1      31.382  23.550  24.881  1.00  0.00     0.176 C 
ATOM     25  C   UNL A   1      30.927  22.695  26.063  1.00  0.00     0.075 C 
ATOM     26  C   UNL A   1      31.974  22.626  23.808  1.00  0.00     0.075 C 
ENDBRANCH  21  24
ENDBRANCH   8  21
ENDBRANCH   6   8
ENDBRANCH   5   6
ENDBRANCH   4   5
ENDBRANCH   3   4
ENDBRANCH   2   3
ENDBRANCH   1   2
BRANCH   1  27
ATOM     27  C   UNL A   1      34.444  30.818  27.169  1.00  0.00     0.261 C 
BRANCH  27  28
ATOM     28  O   UNL A   1      35.080  30.660  28.458  1.00  0.00    -0.460 OA
BRANCH  28  29
ATOM     29  C   UNL A   1      36.390  31.048  28.498  1.00  0.00     0.338 C 
ATOM     30  O   UNL A   1      36.764  32.199  28.439  1.00  0.00    -0.246 OA
BRANCH  29  31
ATOM     31  C   UNL A   1      37.295  29.859  28.548  1.00  0.00     0.060 A 
ATOM     32  C   UNL A   1      37.357  29.068  29.710  1.00  0.00     0.016 A 
ATOM     33  C   UNL A   1      38.247  29.693  27.550  1.00  0.00     0.016 A 
ATOM     34  C   UNL A   1      38.471  28.245  29.945  1.00  0.00     0.010 A 
ATOM     35  C   UNL A   1      39.390  28.977  27.842  1.00  0.00     0.010 A 
ATOM     36  C   UNL A   1      39.537  28.275  29.050  1.00  0.00    -0.014 A 
BRANCH  36  37
ATOM     37  C   UNL A   1      40.864  27.672  29.258  1.00  0.00     0.031 A 
ATOM     38  C   UNL A   1      41.032  26.260  28.835  1.00  0.00     0.074 A 
ATOM     39  C   UNL A   1      41.971  28.393  29.588  1.00  0.00     0.049 A 
ATOM     40  N   UNL A   1      42.075  25.557  29.084  1.00  0.00    -0.248 NA
ATOM     41  C   UNL A   1      40.021  25.488  28.110  1.00  0.00     0.031 C 
ATOM     42  C   UNL A   1      43.379  28.016  29.460  1.00  0.00     0.029 A 
ATOM     43  N   UNL A   1      42.082  29.674  30.139  1.00  0.00    -0.354 N 
ATOM     44  C   UNL A   1      42.050  24.443  28.284  1.00  0.00     0.074 A 
ATOM     45  C   UNL A   1      40.698  24.377  27.806  1.00  0.00     0.031 C 
ATOM     46  C   UNL A   1      44.150  28.849  30.186  1.00  0.00     0.029 A 
ATOM     47  C   UNL A   1      43.252  29.726  30.908  1.00  0.00     0.049 A 
ATOM     48  H   UNL A   1      41.446  30.414  30.009  1.00  0.00     0.167 HD
ATOM     49  C   UNL A   1      43.234  23.808  28.050  1.00  0.00     0.034 A 
ATOM     50  C   UNL A   1      43.198  29.950  32.246  1.00  0.00     0.034 A 
ATOM     51  C   UNL A   1      44.289  24.368  28.921  1.00  0.00     0.049 A 
ATOM     52  C   UNL A   1      43.717  28.689  32.893  1.00  0.00     0.074 A 
ATOM     53  C   UNL A   1      45.435  25.115  28.700  1.00  0.00     0.029 A 
ATOM     54  N   UNL A   1      44.054  24.429  30.299  1.00  0.00    -0.354 N 
ATOM     55  N   UNL A   1      43.613  27.506  32.333  1.00  0.00    -0.248 NA
ATOM     56  C   UNL A   1      44.590  28.688  34.059  1.00  0.00     0.031 C 
ATOM     57  C   UNL A   1      45.815  25.706  29.947  1.00  0.00     0.029 A 
ATOM     58  C   UNL A   1      44.925  25.293  30.931  1.00  0.00     0.049 A 
ATOM     59  H   UNL A   1      43.352  23.918  30.762  1.00  0.00     0.167 HD
ATOM     60  C   UNL A   1      44.525  26.665  32.903  1.00  0.00     0.074 A 
ATOM     61  C   UNL A   1      45.057  27.427  34.029  1.00  0.00     0.031 C 
ATOM     62  C   UNL A   1      44.891  25.453  32.384  1.00  0.00     0.034 A 
BRANCH  49  63
ATOM     63  C   UNL A   1      43.508  22.810  26.936  1.00  0.00     0.023 A 
ATOM     64  C   UNL A   1      42.882  21.545  26.994  1.00  0.00     0.031 A 
ATOM     65  C   UNL A   1      44.397  22.973  25.848  1.00  0.00     0.131 A 
ATOM     66  C   UNL A   1      43.149  20.538  26.042  1.00  0.00     0.055 A 
ATOM     67  C   UNL A   1      44.638  21.983  24.885  1.00  0.00     0.041 A 
ATOM     68  F   UNL A   1      45.115  24.079  25.652  1.00  0.00    -0.206 F 
ATOM     69  C   UNL A   1      44.018  20.754  24.979  1.00  0.00     0.022 A 
BRANCH  66  70
ATOM     70  S   UNL A   1      42.368  18.913  26.228  1.00  0.00     0.124 S 
ATOM     71  O   UNL A   1      42.505  18.670  27.660  1.00  0.00    -0.237 OA
ATOM     72  O   UNL A   1      41.016  19.160  25.738  1.00  0.00    -0.237 OA
ATOM     73  O   UNL A   1      43.180  18.046  25.376  1.00  0.00    -0.744 OA
ENDBRANCH  66  70
ENDBRANCH  49  63
BRANCH  50  74
ATOM     74  C   UNL A   1      42.070  30.873  32.607  1.00  0.00     0.023 A 
ATOM     75  C   UNL A   1      41.088  30.371  33.513  1.00  0.00     0.031 A 
ATOM     76  C   UNL A   1      42.199  32.265  32.516  1.00  0.00     0.131 A 
ATOM     77  C   UNL A   1      40.397  31.236  34.388  1.00  0.00     0.055 A 
ATOM     78  C   UNL A   1      41.491  33.123  33.376  1.00  0.00     0.041 A 
ATOM     79  F   UNL A   1      43.117  32.814  31.707  1.00  0.00    -0.206 F 
ATOM     80  C   UNL A   1      40.628  32.611  34.347  1.00  0.00     0.022 A 
BRANCH  77  81
ATOM     81  S   UNL A   1      39.476  30.540  35.820  1.00  0.00     0.124 S 
ATOM     82  O   UNL A   1      38.145  30.328  35.265  1.00  0.00    -0.237 OA
ATOM     83  O   UNL A   1      40.226  29.332  36.148  1.00  0.00    -0.237 OA
ATOM     84  O   UNL A   1      39.579  31.595  36.828  1.00  0.00    -0.744 OA
ENDBRANCH  77  81
ENDBRANCH  50  74
BRANCH  62  85
ATOM     85  C   UNL A   1      45.330  24.307  33.258  1.00  0.00     0.023 A 
ATOM     86  C   UNL A   1      46.603  24.269  33.837  1.00  0.00     0.031 A 
ATOM     87  C   UNL A   1      44.441  23.283  33.661  1.00  0.00     0.131 A 
ATOM     88  C   UNL A   1      46.994  23.212  34.664  1.00  0.00     0.055 A 
ATOM     89  C   UNL A   1      44.796  22.291  34.577  1.00  0.00     0.041 A 
ATOM     90  F   UNL A   1      43.180  23.212  33.214  1.00  0.00    -0.206 F 
ATOM     91  C   UNL A   1      46.091  22.236  35.068  1.00  0.00     0.022 A 
BRANCH  88  92
ATOM     92  S   UNL A   1      48.743  23.114  35.102  1.00  0.00     0.124 S 
ATOM     93  O   UNL A   1      48.909  21.682  35.334  1.00  0.00    -0.237 OA
ATOM     94  O   UNL A   1      49.399  23.639  33.909  1.00  0.00    -0.237 OA
ATOM     95  O   UNL A   1      48.845  23.955  36.293  1.00  0.00    -0.744 OA
ENDBRANCH  88  92
ENDBRANCH  62  85
ENDBRANCH  36  37
ENDBRANCH  29  31
ENDBRANCH  28  29
ENDBRANCH  27  28
ENDBRANCH   1  27
TORSDOF 21
ENDMDL
MODEL 2
REMARK VINA RESULT:     -11.6      5.061     11.203
REMARK SMILES Cc1cccc(O[C@H]2CC[C@@]([NH2+]C(C)C)(C(=O)OCCOCCOC(=O)c3ccc(-c4c5nc(c(-c6cc(S(=O)(=O)[O-])ccc6F)c6ccc([nH]6)c(-c6cc(S(=O)(=O)[O-])ccc6F)c6nc(c(-c7cc(S(=O)(=O)[O-])ccc7F)c7ccc4[nH]7)C=C6)C=C5)cc3)C2)c1
REMARK SMILES IDX 22 1 21 2 20 3 19 4 18 5 16 6 17 7 11 8 8 9 9 10 90 11 10 12
REMARK SMILES IDX 7 13 6 14 1 15 2 16 3 17 91 18 4 19 5 20 12 21 13 24 14 25
REMARK SMILES IDX 15 26 23 27 24 28 25 29 26 30 27 31 28 32 89 33 29 34 88 35
REMARK SMILES IDX 30 36 31 37 32 38 82 39 33 40 87 41 81 42 83 43 34 44 86 45
REMARK SMILES IDX 80 46 79 47 35 49 67 50 47 51 66 52 48 53 51 54 65 55 84 56
REMARK SMILES IDX 49 57 50 58 64 60 85 61 52 62 36 63 37 64 45 65 38 66 44 67
REMARK SMILES IDX 46 68 43 69 39 70 40 71 41 72 42 73 68 74 69 75 77 76 70 77
REMARK SMILES IDX 76 78 78 79 75 80 71 81 72 82 73 83 74 84 53 85 54 86 62 87
REMARK SMILES IDX 55 88 61 89 63 90 60 91 56 92 57 93 58 94 59 95
REMARK H PARENT 12 22 12 23 83 48 51 59
REMARK Flexibility Score: inf
ROOT
ATOM      1  C   UNL A   1      37.579  22.987  25.867  1.00  0.00     0.202 C 
ENDROOT
BRANCH   1   2
ATOM      2  O   UNL A   1      36.691  21.939  25.630  1.00  0.00    -0.374 OA
BRANCH   2   3
ATOM      3  C   UNL A   1      36.540  21.540  24.282  1.00  0.00     0.202 C 
BRANCH   3   4
ATOM      4  C   UNL A   1      36.254  22.844  23.616  1.00  0.00     0.261 C 
BRANCH   4   5
ATOM      5  O   UNL A   1      34.871  22.989  23.230  1.00  0.00    -0.459 OA
BRANCH   5   6
ATOM      6  C   UNL A   1      33.938  23.468  24.108  1.00  0.00     0.368 C 
ATOM      7  O   UNL A   1      34.158  24.175  25.082  1.00  0.00    -0.245 OA
BRANCH   6   8
ATOM      8  C   UNL A   1      32.528  22.953  23.714  1.00  0.00     0.198 C 
ATOM      9  C   UNL A   1      32.091  20.731  24.761  1.00  0.00     0.180 C 
ATOM     10  C   UNL A   1      31.341  21.792  25.562  1.00  0.00     0.052 C 
ATOM     11  C   UNL A   1      32.489  21.430  23.459  1.00  0.00     0.126 C 
ATOM     12  C   UNL A   1      31.588  23.150  24.926  1.00  0.00     0.085 C 
BRANCH   9  13
ATOM     13  O   UNL A   1      33.259  20.198  25.391  1.00  0.00    -0.490 OA
BRANCH  13  14
ATOM     14  C   UNL A   1      33.615  18.894  25.159  1.00  0.00     0.119 A 
ATOM     15  C   UNL A   1      31.813  15.623  25.927  1.00  0.00     0.044 C 
ATOM     16  C   UNL A   1      32.831  16.594  25.404  1.00  0.00    -0.047 A 
ATOM     17  C   UNL A   1      33.784  16.182  24.471  1.00  0.00     0.003 A 
ATOM     18  C   UNL A   1      32.811  17.939  25.795  1.00  0.00     0.049 A 
ATOM     19  C   UNL A   1      34.681  17.105  23.933  1.00  0.00     0.004 A 
ATOM     20  C   UNL A   1      34.595  18.458  24.274  1.00  0.00     0.046 A 
ENDBRANCH  13  14
ENDBRANCH   9  13
BRANCH   8  21
ATOM     21  N   UNL A   1      31.985  23.716  22.552  1.00  0.00    -0.330 N 
ATOM     22  H   UNL A   1      30.968  23.696  22.623  1.00  0.00     0.347 HD
ATOM     23  H   UNL A   1      32.379  23.252  21.733  1.00  0.00     0.347 HD
BRANCH  21  24
ATOM     24  C   UNL A   1      32.388  25.124  22.408  1.00  0.00     0.176 C 
ATOM     25  C   UNL A   1      32.639  25.598  20.976  1.00  0.00     0.075 C 
ATOM     26  C   UNL A   1      31.284  25.993  23.025  1.00  0.00     0.075 C 
ENDBRANCH  21  24
ENDBRANCH   8  21
ENDBRANCH   6   8
ENDBRANCH   5   6
ENDBRANCH   4   5
ENDBRANCH   3   4
ENDBRANCH   2   3
ENDBRANCH   1   2
BRANCH   1  27
ATOM     27  C   UNL A   1      38.964  22.502  26.262  1.00  0.00     0.261 C 
BRANCH  27  28
ATOM     28  O   UNL A   1      39.908  23.595  26.196  1.00  0.00    -0.460 OA
BRANCH  28  29
ATOM     29  C   UNL A   1      40.356  24.035  27.411  1.00  0.00     0.338 C 
ATOM     30  O   UNL A   1      40.942  23.342  28.214  1.00  0.00    -0.246 OA
BRANCH  29  31
ATOM     31  C   UNL A   1      39.960  25.457  27.640  1.00  0.00     0.060 A 
ATOM     32  C   UNL A   1      40.408  26.464  26.765  1.00  0.00     0.016 A 
ATOM     33  C   UNL A   1      39.367  25.806  28.847  1.00  0.00     0.016 A 
ATOM     34  C   UNL A   1      40.424  27.806  27.182  1.00  0.00     0.010 A 
ATOM     35  C   UNL A   1      39.497  27.106  29.292  1.00  0.00     0.010 A 
ATOM     36  C   UNL A   1      40.056  28.114  28.489  1.00  0.00    -0.014 A 
BRANCH  36  37
ATOM     37  C   UNL A   1      40.238  29.411  29.161  1.00  0.00     0.031 A 
ATOM     38  C   UNL A   1      39.126  30.387  29.047  1.00  0.00     0.074 A 
ATOM     39  C   UNL A   1      41.240  29.661  30.047  1.00  0.00     0.049 A 
ATOM     40  N   UNL A   1      39.196  31.603  29.448  1.00  0.00    -0.248 NA
ATOM     41  C   UNL A   1      37.827  30.093  28.438  1.00  0.00     0.031 C 
ATOM     42  C   UNL A   1      41.331  30.726  31.048  1.00  0.00     0.029 A 
ATOM     43  N   UNL A   1      42.451  28.991  30.253  1.00  0.00    -0.354 N 
ATOM     44  C   UNL A   1      37.925  32.116  29.505  1.00  0.00     0.074 A 
ATOM     45  C   UNL A   1      37.134  31.194  28.740  1.00  0.00     0.031 C 
ATOM     46  C   UNL A   1      42.597  30.833  31.496  1.00  0.00     0.029 A 
ATOM     47  C   UNL A   1      43.398  29.917  30.711  1.00  0.00     0.049 A 
ATOM     48  H   UNL A   1      42.611  28.032  30.102  1.00  0.00     0.167 HD
ATOM     49  C   UNL A   1      37.717  33.197  30.309  1.00  0.00     0.034 A 
ATOM     50  C   UNL A   1      44.513  30.191  29.987  1.00  0.00     0.034 A 
ATOM     51  C   UNL A   1      39.010  33.722  30.796  1.00  0.00     0.049 A 
ATOM     52  C   UNL A   1      44.392  31.638  29.579  1.00  0.00     0.074 A 
ATOM     53  C   UNL A   1      39.629  33.783  32.034  1.00  0.00     0.029 A 
ATOM     54  N   UNL A   1      40.005  34.020  29.858  1.00  0.00    -0.354 N 
ATOM     55  N   UNL A   1      43.235  32.239  29.418  1.00  0.00    -0.248 NA
ATOM     56  C   UNL A   1      45.515  32.565  29.571  1.00  0.00     0.031 C 
ATOM     57  C   UNL A   1      41.023  34.017  31.812  1.00  0.00     0.029 A 
ATOM     58  C   UNL A   1      41.249  34.132  30.445  1.00  0.00     0.049 A 
ATOM     59  H   UNL A   1      39.838  34.136  28.895  1.00  0.00     0.167 HD
ATOM     60  C   UNL A   1      43.423  33.588  29.491  1.00  0.00     0.074 A 
ATOM     61  C   UNL A   1      44.874  33.746  29.509  1.00  0.00     0.031 C 
ATOM     62  C   UNL A   1      42.418  34.503  29.649  1.00  0.00     0.034 A 
BRANCH  49  63
ATOM     63  C   UNL A   1      36.369  33.694  30.808  1.00  0.00     0.023 A 
ATOM     64  C   UNL A   1      35.476  34.270  29.878  1.00  0.00     0.031 A 
ATOM     65  C   UNL A   1      35.913  33.714  32.147  1.00  0.00     0.131 A 
ATOM     66  C   UNL A   1      34.242  34.827  30.277  1.00  0.00     0.055 A 
ATOM     67  C   UNL A   1      34.673  34.238  32.539  1.00  0.00     0.041 A 
ATOM     68  F   UNL A   1      36.635  33.258  33.170  1.00  0.00    -0.206 F 
ATOM     69  C   UNL A   1      33.829  34.804  31.604  1.00  0.00     0.022 A 
BRANCH  66  70
ATOM     70  S   UNL A   1      33.184  35.619  29.037  1.00  0.00     0.124 S 
ATOM     71  O   UNL A   1      34.150  36.385  28.256  1.00  0.00    -0.237 OA
ATOM     72  O   UNL A   1      32.573  34.474  28.372  1.00  0.00    -0.237 OA
ATOM     73  O   UNL A   1      32.266  36.425  29.840  1.00  0.00    -0.744 OA
ENDBRANCH  66  70
ENDBRANCH  49  63
BRANCH  50  74
ATOM     74  C   UNL A   1      45.004  28.978  29.250  1.00  0.00     0.023 A 
ATOM     75  C   UNL A   1      45.146  29.094  27.835  1.00  0.00     0.031 A 
ATOM     76  C   UNL A   1      45.764  27.986  29.885  1.00  0.00     0.131 A 
ATOM     77  C   UNL A   1      46.123  28.351  27.138  1.00  0.00     0.055 A 
ATOM     78  C   UNL A   1      46.721  27.234  29.183  1.00  0.00     0.041 A 
ATOM     79  F   UNL A   1      45.706  27.832  31.216  1.00  0.00    -0.206 F 
ATOM     80  C   UNL A   1      46.939  27.448  27.820  1.00  0.00     0.022 A 
BRANCH  77  81
ATOM     81  S   UNL A   1      46.578  28.826  25.420  1.00  0.00     0.124 S 
ATOM     82  O   UNL A   1      47.988  28.465  25.358  1.00  0.00    -0.237 OA
ATOM     83  O   UNL A   1      45.680  28.021  24.599  1.00  0.00    -0.237 OA
ATOM     84  O   UNL A   1      46.291  30.260  25.383  1.00  0.00    -0.744 OA
ENDBRANCH  77  81
ENDBRANCH  50  74
BRANCH  62  85
ATOM     85  C   UNL A   1      42.510  35.900  29.092  1.00  0.00     0.023 A 
ATOM     86  C   UNL A   1      43.318  36.876  29.684  1.00  0.00     0.031 A 
ATOM     87  C   UNL A   1      41.908  36.264  27.865  1.00  0.00     0.131 A 
ATOM     88  C   UNL A   1      43.415  38.163  29.148  1.00  0.00     0.055 A 
ATOM     89  C   UNL A   1      42.098  37.513  27.271  1.00  0.00     0.041 A 
ATOM     90  F   UNL A   1      41.135  35.420  27.168  1.00  0.00    -0.206 F 
ATOM     91  C   UNL A   1      42.838  38.484  27.926  1.00  0.00     0.022 A 
BRANCH  88  92
ATOM     92  S   UNL A   1      44.236  39.415  30.158  1.00  0.00     0.124 S 
ATOM     93  O   UNL A   1      45.155  38.601  30.949  1.00  0.00    -0.237 OA
ATOM     94  O   UNL A   1      44.858  40.274  29.156  1.00  0.00    -0.237 OA
ATOM     95  O   UNL A   1      43.139  40.023  30.908  1.00  0.00    -0.744 OA
ENDBRANCH  88  92
ENDBRANCH  62  85
ENDBRANCH  36  37
ENDBRANCH  29  31
ENDBRANCH  28  29
ENDBRANCH  27  28
ENDBRANCH   1  27
TORSDOF 21
ENDMDL
MODEL 3
REMARK VINA RESULT:     -11.4      4.472     10.432
REMARK SMILES Cc1cccc(O[C@H]2CC[C@@]([NH2+]C(C)C)(C(=O)OCCOCCOC(=O)c3ccc(-c4c5nc(c(-c6cc(S(=O)(=O)[O-])ccc6F)c6ccc([nH]6)c(-c6cc(S(=O)(=O)[O-])ccc6F)c6nc(c(-c7cc(S(=O)(=O)[O-])ccc7F)c7ccc4[nH]7)C=C6)C=C5)cc3)C2)c1
REMARK SMILES IDX 22 1 21 2 20 3 19 4 18 5 16 6 17 7 11 8 8 9 9 10 90 11 10 12
REMARK SMILES IDX 7 13 6 14 1 15 2 16 3 17 91 18 4 19 5 20 12 21 13 24 14 25
REMARK SMILES IDX 15 26 23 27 24 28 25 29 26 30 27 31 28 32 89 33 29 34 88 35
REMARK SMILES IDX 30 36 31 37 32 38 82 39 33 40 87 41 81 42 83 43 34 44 86 45
REMARK SMILES IDX 80 46 79 47 35 49 67 50 47 51 66 52 48 53 51 54 65 55 84 56
REMARK SMILES IDX 49 57 50 58 64 60 85 61 52 62 36 63 37 64 45 65 38 66 44 67
REMARK SMILES IDX 46 68 43 69 39 70 40 71 41 72 42 73 68 74 69 75 77 76 70 77
REMARK SMILES IDX 76 78 78 79 75 80 71 81 72 82 73 83 74 84 53 85 54 86 62 87
REMARK SMILES IDX 55 88 61 89 63 90 60 91 56 92 57 93 58 94 59 95
REMARK H PARENT 12 22 12 23 83 48 51 59
REMARK Flexibility Score: inf
ROOT
ATOM      1  C   UNL A   1      37.264  21.206  25.308  1.00  0.00     0.202 C 
ENDROOT
BRANCH   1   2
ATOM      2  O   UNL A   1      36.158  21.735  24.645  1.00  0.00    -0.374 OA
BRANCH   2   3
ATOM      3  C   UNL A   1      36.433  22.646  23.600  1.00  0.00     0.202 C 
BRANCH   3   4
ATOM      4  C   UNL A   1      35.628  23.831  24.018  1.00  0.00     0.261 C 
BRANCH   4   5
ATOM      5  O   UNL A   1      34.234  23.522  24.225  1.00  0.00    -0.459 OA
BRANCH   5   6
ATOM      6  C   UNL A   1      33.418  24.369  24.924  1.00  0.00     0.368 C 
ATOM      7  O   UNL A   1      33.777  25.219  25.727  1.00  0.00    -0.245 OA
BRANCH   6   8
ATOM      8  C   UNL A   1      31.933  24.075  24.580  1.00  0.00     0.198 C 
ATOM      9  C   UNL A   1      31.452  21.639  24.812  1.00  0.00     0.180 C 
ATOM     10  C   UNL A   1      30.895  22.354  26.039  1.00  0.00     0.052 C 
ATOM     11  C   UNL A   1      31.740  22.754  23.804  1.00  0.00     0.126 C 
ATOM     12  C   UNL A   1      31.169  23.843  25.904  1.00  0.00     0.085 C 
BRANCH   9  13
ATOM     13  O   UNL A   1      32.643  20.877  25.032  1.00  0.00    -0.490 OA
BRANCH  13  14
ATOM     14  C   UNL A   1      32.912  19.797  24.230  1.00  0.00     0.119 A 
ATOM     15  C   UNL A   1      35.085  16.719  24.808  1.00  0.00     0.044 C 
ATOM     16  C   UNL A   1      34.122  17.677  24.170  1.00  0.00    -0.047 A 
ATOM     17  C   UNL A   1      33.339  17.275  23.088  1.00  0.00     0.003 A 
ATOM     18  C   UNL A   1      33.949  18.971  24.681  1.00  0.00     0.049 A 
ATOM     19  C   UNL A   1      32.394  18.145  22.546  1.00  0.00     0.004 A 
ATOM     20  C   UNL A   1      32.179  19.402  23.117  1.00  0.00     0.046 A 
ENDBRANCH  13  14
ENDBRANCH   9  13
BRANCH   8  21
ATOM     21  N   UNL A   1      31.314  25.228  23.861  1.00  0.00    -0.330 N 
ATOM     22  H   UNL A   1      30.643  24.845  23.195  1.00  0.00     0.347 HD
ATOM     23  H   UNL A   1      32.103  25.730  23.452  1.00  0.00     0.347 HD
BRANCH  21  24
ATOM     24  C   UNL A   1      30.608  26.239  24.664  1.00  0.00     0.176 C 
ATOM     25  C   UNL A   1      31.272  27.614  24.729  1.00  0.00     0.075 C 
ATOM     26  C   UNL A   1      29.199  26.403  24.078  1.00  0.00     0.075 C 
ENDBRANCH  21  24
ENDBRANCH   8  21
ENDBRANCH   6   8
ENDBRANCH   5   6
ENDBRANCH   4   5
ENDBRANCH   3   4
ENDBRANCH   2   3
ENDBRANCH   1   2
BRANCH   1  27
ATOM     27  C   UNL A   1      38.468  22.133  25.267  1.00  0.00     0.261 C 
BRANCH  27  28
ATOM     28  O   UNL A   1      39.190  22.061  26.518  1.00  0.00    -0.460 OA
BRANCH  28  29
ATOM     29  C   UNL A   1      40.355  22.776  26.546  1.00  0.00     0.338 C 
ATOM     30  O   UNL A   1      41.455  22.296  26.374  1.00  0.00    -0.246 OA
BRANCH  29  31
ATOM     31  C   UNL A   1      40.092  24.206  26.889  1.00  0.00     0.060 A 
ATOM     32  C   UNL A   1      40.829  25.228  26.264  1.00  0.00     0.016 A 
ATOM     33  C   UNL A   1      39.308  24.500  27.997  1.00  0.00     0.016 A 
ATOM     34  C   UNL A   1      40.918  26.499  26.857  1.00  0.00     0.010 A 
ATOM     35  C   UNL A   1      39.496  25.710  28.634  1.00  0.00     0.010 A 
ATOM     36  C   UNL A   1      40.327  26.710  28.100  1.00  0.00    -0.014 A 
BRANCH  36  37
ATOM     37  C   UNL A   1      40.518  27.884  28.966  1.00  0.00     0.031 A 
ATOM     38  C   UNL A   1      39.492  28.953  28.884  1.00  0.00     0.074 A 
ATOM     39  C   UNL A   1      41.431  27.929  29.975  1.00  0.00     0.049 A 
ATOM     40  N   UNL A   1      39.598  30.092  29.462  1.00  0.00    -0.248 NA
ATOM     41  C   UNL A   1      38.252  28.851  28.113  1.00  0.00     0.031 C 
ATOM     42  C   UNL A   1      41.481  28.836  31.123  1.00  0.00     0.029 A 
ATOM     43  N   UNL A   1      42.565  27.141  30.202  1.00  0.00    -0.354 N 
ATOM     44  C   UNL A   1      38.365  30.694  29.465  1.00  0.00     0.074 A 
ATOM     45  C   UNL A   1      37.603  29.952  28.500  1.00  0.00     0.031 C 
ATOM     46  C   UNL A   1      42.694  28.778  31.706  1.00  0.00     0.029 A 
ATOM     47  C   UNL A   1      43.515  27.916  30.881  1.00  0.00     0.049 A 
ATOM     48  H   UNL A   1      42.677  26.202  29.931  1.00  0.00     0.167 HD
ATOM     49  C   UNL A   1      38.142  31.668  30.392  1.00  0.00     0.034 A 
ATOM     50  C   UNL A   1      44.718  28.195  30.319  1.00  0.00     0.034 A 
ATOM     51  C   UNL A   1      39.405  32.016  31.076  1.00  0.00     0.049 A 
ATOM     52  C   UNL A   1      44.738  29.690  30.114  1.00  0.00     0.074 A 
ATOM     53  C   UNL A   1      39.886  31.857  32.365  1.00  0.00     0.029 A 
ATOM     54  N   UNL A   1      40.515  32.358  30.295  1.00  0.00    -0.354 N 
ATOM     55  N   UNL A   1      43.649  30.398  29.927  1.00  0.00    -0.248 NA
ATOM     56  C   UNL A   1      45.915  30.516  30.352  1.00  0.00     0.031 C 
ATOM     57  C   UNL A   1      41.309  32.006  32.319  1.00  0.00     0.029 A 
ATOM     58  C   UNL A   1      41.691  32.287  31.013  1.00  0.00     0.049 A 
ATOM     59  H   UNL A   1      40.462  32.617  29.347  1.00  0.00     0.167 HD
ATOM     60  C   UNL A   1      43.916  31.706  30.212  1.00  0.00     0.074 A 
ATOM     61  C   UNL A   1      45.364  31.742  30.398  1.00  0.00     0.031 C 
ATOM     62  C   UNL A   1      42.962  32.669  30.399  1.00  0.00     0.034 A 
BRANCH  49  63
ATOM     63  C   UNL A   1      36.782  32.200  30.821  1.00  0.00     0.023 A 
ATOM     64  C   UNL A   1      35.967  32.826  29.852  1.00  0.00     0.031 A 
ATOM     65  C   UNL A   1      36.246  32.206  32.129  1.00  0.00     0.131 A 
ATOM     66  C   UNL A   1      34.729  33.415  30.190  1.00  0.00     0.055 A 
ATOM     67  C   UNL A   1      35.002  32.763  32.458  1.00  0.00     0.041 A 
ATOM     68  F   UNL A   1      36.889  31.704  33.184  1.00  0.00    -0.206 F 
ATOM     69  C   UNL A   1      34.236  33.378  31.488  1.00  0.00     0.022 A 
BRANCH  66  70
ATOM     70  S   UNL A   1      33.775  34.270  28.907  1.00  0.00     0.124 S 
ATOM     71  O   UNL A   1      34.743  35.239  28.401  1.00  0.00    -0.237 OA
ATOM     72  O   UNL A   1      33.417  33.180  28.008  1.00  0.00    -0.237 OA
ATOM     73  O   UNL A   1      32.656  34.850  29.647  1.00  0.00    -0.744 OA
ENDBRANCH  66  70
ENDBRANCH  49  63
BRANCH  50  74
ATOM     74  C   UNL A   1      45.207  27.059  29.467  1.00  0.00     0.023 A 
ATOM     75  C   UNL A   1      45.142  27.236  28.053  1.00  0.00     0.031 A 
ATOM     76  C   UNL A   1      46.129  26.120  29.949  1.00  0.00     0.131 A 
ATOM     77  C   UNL A   1      46.074  26.610  27.198  1.00  0.00     0.055 A 
ATOM     78  C   UNL A   1      47.043  25.484  29.090  1.00  0.00     0.041 A 
ATOM     79  F   UNL A   1      46.269  25.916  31.266  1.00  0.00    -0.206 F 
ATOM     80  C   UNL A   1      47.052  25.764  27.721  1.00  0.00     0.022 A 
BRANCH  77  81
ATOM     81  S   UNL A   1      46.246  27.184  25.459  1.00  0.00     0.124 S 
ATOM     82  O   UNL A   1      45.927  25.981  24.699  1.00  0.00    -0.237 OA
ATOM     83  O   UNL A   1      45.275  28.269  25.364  1.00  0.00    -0.237 OA
ATOM     84  O   UNL A   1      47.638  27.624  25.388  1.00  0.00    -0.744 OA
ENDBRANCH  77  81
ENDBRANCH  50  74
BRANCH  62  85
ATOM     85  C   UNL A   1      43.207  34.116  30.062  1.00  0.00     0.023 A 
ATOM     86  C   UNL A   1      43.070  34.601  28.757  1.00  0.00     0.031 A 
ATOM     87  C   UNL A   1      43.445  35.093  31.058  1.00  0.00     0.131 A 
ATOM     88  C   UNL A   1      43.278  35.950  28.457  1.00  0.00     0.055 A 
ATOM     89  C   UNL A   1      43.539  36.456  30.772  1.00  0.00     0.041 A 
ATOM     90  F   UNL A   1      43.566  34.779  32.355  1.00  0.00    -0.206 F 
ATOM     91  C   UNL A   1      43.480  36.892  29.458  1.00  0.00     0.022 A 
BRANCH  88  92
ATOM     92  S   UNL A   1      43.373  36.399  26.711  1.00  0.00     0.124 S 
ATOM     93  O   UNL A   1      42.676  35.281  26.080  1.00  0.00    -0.237 OA
ATOM     94  O   UNL A   1      42.674  37.679  26.673  1.00  0.00    -0.237 OA
ATOM     95  O   UNL A   1      44.810  36.463  26.451  1.00  0.00    -0.744 OA
ENDBRANCH  88  92
ENDBRANCH  62  85
ENDBRANCH  36  37
ENDBRANCH  29  31
ENDBRANCH  28  29
ENDBRANCH  27  28
ENDBRANCH   1  27
TORSDOF 21
ENDMDL
