MODEL 1
REMARK VINA RESULT:     -11.8      0.000      0.000
REMARK SMILES O=C(COc1ccc(Br)cc1/C=C1\C(=O)Nc2ccc(Br)cc21)OCCOCCOC(=O)c1ccc(-c2c3nc(c(-c4cc(S(=O)(=O)[O-])ccc4F)c4ccc([nH]4)c(-c4cc(S(=O)(=O)[O-])ccc4F)c4nc(c(-c5cc(S(=O)(=O)[O-])ccc5F)c5ccc2[nH]5)C=C4)C=C3)cc1
REMARK SMILES IDX 27 1 26 2 25 3 24 4 2 5 1 6 3 7 4 8 5 9 6 10 11 11 7 12
REMARK SMILES IDX 10 13 8 14 9 15 12 16 13 17 14 18 23 19 15 20 16 21 17 22
REMARK SMILES IDX 22 23 18 25 20 26 19 27 21 28 28 29 29 30 30 31 31 32 32 33
REMARK SMILES IDX 33 34 34 35 95 36 35 37 94 38 36 39 37 40 38 41 88 42 39 43
REMARK SMILES IDX 93 44 87 45 89 46 40 47 92 48 86 49 85 50 41 52 73 53 53 54
REMARK SMILES IDX 72 55 54 56 57 57 71 58 90 59 55 60 56 61 70 63 91 64 58 65
REMARK SMILES IDX 42 66 43 67 51 68 44 69 50 70 52 71 49 72 45 73 46 74 47 75
REMARK SMILES IDX 48 76 74 77 75 78 83 79 76 80 82 81 84 82 81 83 77 84 78 85
REMARK SMILES IDX 79 86 80 87 59 88 60 89 68 90 61 91 67 92 69 93 66 94 62 95
REMARK SMILES IDX 63 96 64 97 65 98
REMARK H PARENT 16 24 89 51 57 62
REMARK Flexibility Score: inf
ROOT
ATOM      1  O   UNL A   1      33.119  30.495  26.148  1.00  0.00    -0.374 OA
ENDROOT
BRANCH   1   2
ATOM      2  C   UNL A   1      33.640  29.370  26.855  1.00  0.00     0.202 C 
BRANCH   2   3
ATOM      3  C   UNL A   1      32.599  28.336  27.267  1.00  0.00     0.261 C 
BRANCH   3   4
ATOM      4  O   UNL A   1      32.313  27.419  26.200  1.00  0.00    -0.461 OA
BRANCH   4   5
ATOM      5  C   UNL A   1      33.295  26.881  25.433  1.00  0.00     0.344 C 
ATOM      6  O   UNL A   1      34.035  26.013  25.895  1.00  0.00    -0.248 OA
BRANCH   5   7
ATOM      7  C   UNL A   1      33.424  27.352  23.983  1.00  0.00     0.351 C 
BRANCH   7   8
ATOM      8  O   UNL A   1      32.675  26.700  22.954  1.00  0.00    -0.481 OA
BRANCH   8   9
ATOM      9  C   UNL A   1      31.344  27.048  22.956  1.00  0.00     0.127 A 
ATOM     10  C   UNL A   1      30.961  28.320  22.490  1.00  0.00     0.048 A 
ATOM     11  C   UNL A   1      30.386  26.118  23.412  1.00  0.00     0.018 A 
ATOM     12  C   UNL A   1      29.658  28.772  22.638  1.00  0.00     0.019 A 
ATOM     13  C   UNL A   1      29.082  26.616  23.549  1.00  0.00     0.027 A 
ATOM     14  C   UNL A   1      28.730  27.926  23.206  1.00  0.00     0.018 A 
ATOM     15  Br  UNL A   1      26.970  28.537  23.521  1.00  0.00    -0.051 Br
BRANCH  11  16
ATOM     16  C   UNL A   1      30.776  24.710  23.757  1.00  0.00     0.026 C 
ATOM     17  C   UNL A   1      30.817  24.071  24.947  1.00  0.00     0.050 C 
ATOM     18  C   UNL A   1      30.517  24.648  26.306  1.00  0.00     0.256 C 
ATOM     19  C   UNL A   1      31.674  22.900  25.220  1.00  0.00     0.012 A 
ATOM     20  O   UNL A   1      29.520  25.190  26.712  1.00  0.00    -0.269 OA
ATOM     21  N   UNL A   1      31.589  24.242  27.082  1.00  0.00    -0.321 N 
ATOM     22  C   UNL A   1      32.244  23.178  26.475  1.00  0.00     0.049 A 
ATOM     23  C   UNL A   1      31.909  21.677  24.622  1.00  0.00     0.026 A 
ATOM     24  H   UNL A   1      31.849  24.648  27.941  1.00  0.00     0.170 HD
ATOM     25  C   UNL A   1      33.184  22.377  27.081  1.00  0.00     0.028 A 
ATOM     26  C   UNL A   1      32.787  20.798  25.278  1.00  0.00     0.018 A 
ATOM     27  C   UNL A   1      33.460  21.162  26.463  1.00  0.00     0.018 A 
ATOM     28  Br  UNL A   1      33.018  19.034  24.625  1.00  0.00    -0.051 Br
ENDBRANCH  11  16
ENDBRANCH   8   9
ENDBRANCH   7   8
ENDBRANCH   5   7
ENDBRANCH   4   5
ENDBRANCH   3   4
ENDBRANCH   2   3
ENDBRANCH   1   2
BRANCH   1  29
ATOM     29  C   UNL A   1      31.799  30.911  26.540  1.00  0.00     0.202 C 
BRANCH  29  30
ATOM     30  C   UNL A   1      31.667  32.376  26.979  1.00  0.00     0.261 C 
BRANCH  30  31
ATOM     31  O   UNL A   1      32.920  33.071  26.830  1.00  0.00    -0.460 OA
BRANCH  31  32
ATOM     32  C   UNL A   1      33.406  33.660  27.951  1.00  0.00     0.338 C 
ATOM     33  O   UNL A   1      32.833  34.481  28.647  1.00  0.00    -0.246 OA
BRANCH  32  34
ATOM     34  C   UNL A   1      34.649  32.966  28.361  1.00  0.00     0.060 A 
ATOM     35  C   UNL A   1      35.916  33.485  28.082  1.00  0.00     0.016 A 
ATOM     36  C   UNL A   1      34.521  31.744  29.039  1.00  0.00     0.016 A 
ATOM     37  C   UNL A   1      37.052  32.806  28.534  1.00  0.00     0.010 A 
ATOM     38  C   UNL A   1      35.655  31.066  29.486  1.00  0.00     0.010 A 
ATOM     39  C   UNL A   1      36.927  31.610  29.265  1.00  0.00    -0.014 A 
BRANCH  39  40
ATOM     40  C   UNL A   1      38.101  31.052  29.978  1.00  0.00     0.031 A 
ATOM     41  C   UNL A   1      38.448  31.451  31.378  1.00  0.00     0.074 A 
ATOM     42  C   UNL A   1      38.881  30.187  29.301  1.00  0.00     0.049 A 
ATOM     43  N   UNL A   1      39.390  30.976  32.151  1.00  0.00    -0.248 NA
ATOM     44  C   UNL A   1      37.645  32.518  31.991  1.00  0.00     0.031 C 
ATOM     45  C   UNL A   1      38.655  29.784  27.912  1.00  0.00     0.029 A 
ATOM     46  N   UNL A   1      40.003  29.494  29.672  1.00  0.00    -0.354 N 
ATOM     47  C   UNL A   1      39.284  31.666  33.351  1.00  0.00     0.074 A 
ATOM     48  C   UNL A   1      38.216  32.631  33.184  1.00  0.00     0.031 C 
ATOM     49  C   UNL A   1      39.592  28.896  27.556  1.00  0.00     0.029 A 
ATOM     50  C   UNL A   1      40.503  28.684  28.679  1.00  0.00     0.049 A 
ATOM     51  H   UNL A   1      40.414  29.569  30.564  1.00  0.00     0.167 HD
ATOM     52  C   UNL A   1      40.003  31.489  34.486  1.00  0.00     0.034 A 
ATOM     53  C   UNL A   1      41.565  27.854  28.671  1.00  0.00     0.034 A 
ATOM     54  C   UNL A   1      41.079  30.535  34.611  1.00  0.00     0.049 A 
ATOM     55  C   UNL A   1      42.355  27.683  29.942  1.00  0.00     0.074 A 
ATOM     56  C   UNL A   1      41.837  30.246  35.733  1.00  0.00     0.029 A 
ATOM     57  N   UNL A   1      41.560  29.727  33.589  1.00  0.00    -0.354 N 
ATOM     58  N   UNL A   1      42.164  28.253  31.109  1.00  0.00    -0.248 NA
ATOM     59  C   UNL A   1      43.486  26.748  29.909  1.00  0.00     0.031 C 
ATOM     60  C   UNL A   1      42.817  29.321  35.372  1.00  0.00     0.029 A 
ATOM     61  C   UNL A   1      42.624  28.965  34.046  1.00  0.00     0.049 A 
ATOM     62  H   UNL A   1      41.197  29.698  32.674  1.00  0.00     0.167 HD
ATOM     63  C   UNL A   1      43.134  27.726  31.957  1.00  0.00     0.074 A 
ATOM     64  C   UNL A   1      43.894  26.774  31.172  1.00  0.00     0.031 C 
ATOM     65  C   UNL A   1      43.370  28.008  33.262  1.00  0.00     0.034 A 
BRANCH  52  66
ATOM     66  C   UNL A   1      39.652  32.308  35.706  1.00  0.00     0.023 A 
ATOM     67  C   UNL A   1      38.794  31.784  36.691  1.00  0.00     0.031 A 
ATOM     68  C   UNL A   1      40.040  33.656  35.812  1.00  0.00     0.131 A 
ATOM     69  C   UNL A   1      38.322  32.614  37.717  1.00  0.00     0.055 A 
ATOM     70  C   UNL A   1      39.600  34.467  36.858  1.00  0.00     0.041 A 
ATOM     71  F   UNL A   1      40.853  34.206  34.895  1.00  0.00    -0.206 F 
ATOM     72  C   UNL A   1      38.725  33.951  37.809  1.00  0.00     0.022 A 
BRANCH  69  73
ATOM     73  S   UNL A   1      37.113  32.015  38.930  1.00  0.00     0.124 S 
ATOM     74  O   UNL A   1      35.934  32.812  38.597  1.00  0.00    -0.237 OA
ATOM     75  O   UNL A   1      37.021  30.597  38.594  1.00  0.00    -0.237 OA
ATOM     76  O   UNL A   1      37.726  32.322  40.217  1.00  0.00    -0.744 OA
ENDBRANCH  69  73
ENDBRANCH  52  66
BRANCH  53  77
ATOM     77  C   UNL A   1      41.858  27.072  27.436  1.00  0.00     0.023 A 
ATOM     78  C   UNL A   1      41.589  25.691  27.374  1.00  0.00     0.031 A 
ATOM     79  C   UNL A   1      42.532  27.663  26.354  1.00  0.00     0.131 A 
ATOM     80  C   UNL A   1      42.059  24.938  26.290  1.00  0.00     0.055 A 
ATOM     81  C   UNL A   1      42.933  26.920  25.242  1.00  0.00     0.041 A 
ATOM     82  F   UNL A   1      42.828  28.971  26.376  1.00  0.00    -0.206 F 
ATOM     83  C   UNL A   1      42.714  25.546  25.215  1.00  0.00     0.022 A 
BRANCH  80  84
ATOM     84  S   UNL A   1      41.967  23.125  26.309  1.00  0.00     0.124 S 
ATOM     85  O   UNL A   1      40.528  22.894  26.389  1.00  0.00    -0.237 OA
ATOM     86  O   UNL A   1      42.592  22.782  25.034  1.00  0.00    -0.237 OA
ATOM     87  O   UNL A   1      42.733  22.754  27.494  1.00  0.00    -0.744 OA
ENDBRANCH  80  84
ENDBRANCH  53  77
BRANCH  65  88
ATOM     88  C   UNL A   1      44.499  27.288  33.964  1.00  0.00     0.023 A 
ATOM     89  C   UNL A   1      44.223  26.162  34.766  1.00  0.00     0.031 A 
ATOM     90  C   UNL A   1      45.806  27.804  33.972  1.00  0.00     0.131 A 
ATOM     91  C   UNL A   1      45.227  25.621  35.578  1.00  0.00     0.055 A 
ATOM     92  C   UNL A   1      46.816  27.229  34.744  1.00  0.00     0.041 A 
ATOM     93  F   UNL A   1      46.118  28.882  33.234  1.00  0.00    -0.206 F 
ATOM     94  C   UNL A   1      46.524  26.142  35.564  1.00  0.00     0.022 A 
BRANCH  91  95
ATOM     95  S   UNL A   1      44.864  24.286  36.751  1.00  0.00     0.124 S 
ATOM     96  O   UNL A   1      43.778  24.864  37.540  1.00  0.00    -0.237 OA
ATOM     97  O   UNL A   1      44.476  23.194  35.862  1.00  0.00    -0.237 OA
ATOM     98  O   UNL A   1      46.121  24.094  37.469  1.00  0.00    -0.744 OA
ENDBRANCH  91  95
ENDBRANCH  65  88
ENDBRANCH  39  40
ENDBRANCH  32  34
ENDBRANCH  31  32
ENDBRANCH  30  31
ENDBRANCH  29  30
ENDBRANCH   1  29
TORSDOF 20
ENDMDL
MODEL 2
REMARK VINA RESULT:     -11.7      1.323      7.400
REMARK SMILES O=C(COc1ccc(Br)cc1/C=C1\C(=O)Nc2ccc(Br)cc21)OCCOCCOC(=O)c1ccc(-c2c3nc(c(-c4cc(S(=O)(=O)[O-])ccc4F)c4ccc([nH]4)c(-c4cc(S(=O)(=O)[O-])ccc4F)c4nc(c(-c5cc(S(=O)(=O)[O-])ccc5F)c5ccc2[nH]5)C=C4)C=C3)cc1
REMARK SMILES IDX 27 1 26 2 25 3 24 4 2 5 1 6 3 7 4 8 5 9 6 10 11 11 7 12
REMARK SMILES IDX 10 13 8 14 9 15 12 16 13 17 14 18 23 19 15 20 16 21 17 22
REMARK SMILES IDX 22 23 18 25 20 26 19 27 21 28 28 29 29 30 30 31 31 32 32 33
REMARK SMILES IDX 33 34 34 35 95 36 35 37 94 38 36 39 37 40 38 41 88 42 39 43
REMARK SMILES IDX 93 44 87 45 89 46 40 47 92 48 86 49 85 50 41 52 73 53 53 54
REMARK SMILES IDX 72 55 54 56 57 57 71 58 90 59 55 60 56 61 70 63 91 64 58 65
REMARK SMILES IDX 42 66 43 67 51 68 44 69 50 70 52 71 49 72 45 73 46 74 47 75
REMARK SMILES IDX 48 76 74 77 75 78 83 79 76 80 82 81 84 82 81 83 77 84 78 85
REMARK SMILES IDX 79 86 80 87 59 88 60 89 68 90 61 91 67 92 69 93 66 94 62 95
REMARK SMILES IDX 63 96 64 97 65 98
REMARK H PARENT 16 24 89 51 57 62
REMARK Flexibility Score: inf
ROOT
ATOM      1  O   UNL A   1      32.355  30.532  26.215  1.00  0.00    -0.374 OA
ENDROOT
BRANCH   1   2
ATOM      2  C   UNL A   1      32.297  29.482  27.180  1.00  0.00     0.202 C 
BRANCH   2   3
ATOM      3  C   UNL A   1      31.860  28.130  26.628  1.00  0.00     0.261 C 
BRANCH   3   4
ATOM      4  O   UNL A   1      32.892  27.142  26.773  1.00  0.00    -0.461 OA
BRANCH   4   5
ATOM      5  C   UNL A   1      33.646  26.732  25.722  1.00  0.00     0.344 C 
ATOM      6  O   UNL A   1      34.303  25.693  25.801  1.00  0.00    -0.248 OA
BRANCH   5   7
ATOM      7  C   UNL A   1      33.622  27.568  24.441  1.00  0.00     0.351 C 
BRANCH   7   8
ATOM      8  O   UNL A   1      33.025  27.035  23.255  1.00  0.00    -0.481 OA
BRANCH   8   9
ATOM      9  C   UNL A   1      31.716  27.423  23.093  1.00  0.00     0.127 A 
ATOM     10  C   UNL A   1      31.431  28.739  22.681  1.00  0.00     0.048 A 
ATOM     11  C   UNL A   1      30.682  26.492  23.327  1.00  0.00     0.018 A 
ATOM     12  C   UNL A   1      30.130  29.220  22.674  1.00  0.00     0.019 A 
ATOM     13  C   UNL A   1      29.383  27.020  23.313  1.00  0.00     0.027 A 
ATOM     14  C   UNL A   1      29.112  28.362  23.031  1.00  0.00     0.018 A 
ATOM     15  Br  UNL A   1      27.337  29.003  23.135  1.00  0.00    -0.051 Br
BRANCH  11  16
ATOM     16  C   UNL A   1      30.989  25.050  23.609  1.00  0.00     0.026 C 
ATOM     17  C   UNL A   1      30.899  24.335  24.752  1.00  0.00     0.050 C 
ATOM     18  C   UNL A   1      30.498  24.836  26.115  1.00  0.00     0.256 C 
ATOM     19  C   UNL A   1      31.686  23.114  25.021  1.00  0.00     0.012 A 
ATOM     20  O   UNL A   1      29.490  25.392  26.469  1.00  0.00    -0.269 OA
ATOM     21  N   UNL A   1      31.481  24.337  26.954  1.00  0.00    -0.321 N 
ATOM     22  C   UNL A   1      32.149  23.288  26.336  1.00  0.00     0.049 A 
ATOM     23  C   UNL A   1      31.930  21.923  24.364  1.00  0.00     0.026 A 
ATOM     24  H   UNL A   1      31.677  24.676  27.857  1.00  0.00     0.170 HD
ATOM     25  C   UNL A   1      33.002  22.411  26.967  1.00  0.00     0.028 A 
ATOM     26  C   UNL A   1      32.713  20.968  25.034  1.00  0.00     0.018 A 
ATOM     27  C   UNL A   1      33.289  21.228  26.295  1.00  0.00     0.018 A 
ATOM     28  Br  UNL A   1      32.938  19.241  24.286  1.00  0.00    -0.051 Br
ENDBRANCH  11  16
ENDBRANCH   8   9
ENDBRANCH   7   8
ENDBRANCH   5   7
ENDBRANCH   4   5
ENDBRANCH   3   4
ENDBRANCH   2   3
ENDBRANCH   1   2
BRANCH   1  29
ATOM     29  C   UNL A   1      31.222  31.418  26.199  1.00  0.00     0.202 C 
BRANCH  29  30
ATOM     30  C   UNL A   1      31.483  32.840  26.713  1.00  0.00     0.261 C 
BRANCH  30  31
ATOM     31  O   UNL A   1      32.893  33.137  26.706  1.00  0.00    -0.460 OA
BRANCH  31  32
ATOM     32  C   UNL A   1      33.379  33.727  27.827  1.00  0.00     0.338 C 
ATOM     33  O   UNL A   1      32.817  34.572  28.504  1.00  0.00    -0.246 OA
BRANCH  32  34
ATOM     34  C   UNL A   1      34.597  33.006  28.264  1.00  0.00     0.060 A 
ATOM     35  C   UNL A   1      35.856  33.611  28.268  1.00  0.00     0.016 A 
ATOM     36  C   UNL A   1      34.453  31.671  28.671  1.00  0.00     0.016 A 
ATOM     37  C   UNL A   1      36.962  32.893  28.734  1.00  0.00     0.010 A 
ATOM     38  C   UNL A   1      35.558  30.954  29.131  1.00  0.00     0.010 A 
ATOM     39  C   UNL A   1      36.813  31.572  29.197  1.00  0.00    -0.014 A 
BRANCH  39  40
ATOM     40  C   UNL A   1      37.916  30.922  29.945  1.00  0.00     0.031 A 
ATOM     41  C   UNL A   1      38.794  29.879  29.327  1.00  0.00     0.074 A 
ATOM     42  C   UNL A   1      38.082  31.279  31.234  1.00  0.00     0.049 A 
ATOM     43  N   UNL A   1      39.848  29.295  29.836  1.00  0.00    -0.248 NA
ATOM     44  C   UNL A   1      38.448  29.427  27.973  1.00  0.00     0.031 C 
ATOM     45  C   UNL A   1      37.238  32.243  31.939  1.00  0.00     0.029 A 
ATOM     46  N   UNL A   1      39.000  30.888  32.173  1.00  0.00    -0.354 N 
ATOM     47  C   UNL A   1      40.310  28.423  28.860  1.00  0.00     0.074 A 
ATOM     48  C   UNL A   1      39.388  28.517  27.746  1.00  0.00     0.031 C 
ATOM     49  C   UNL A   1      37.691  32.390  33.191  1.00  0.00     0.029 A 
ATOM     50  C   UNL A   1      38.841  31.510  33.389  1.00  0.00     0.049 A 
ATOM     51  H   UNL A   1      39.706  30.224  31.996  1.00  0.00     0.167 HD
ATOM     52  C   UNL A   1      41.413  27.636  28.893  1.00  0.00     0.034 A 
ATOM     53  C   UNL A   1      39.545  31.400  34.534  1.00  0.00     0.034 A 
ATOM     54  C   UNL A   1      42.298  27.547  30.030  1.00  0.00     0.049 A 
ATOM     55  C   UNL A   1      40.760  30.511  34.548  1.00  0.00     0.074 A 
ATOM     56  C   UNL A   1      43.468  26.816  30.145  1.00  0.00     0.029 A 
ATOM     57  N   UNL A   1      42.113  28.191  31.246  1.00  0.00    -0.354 N 
ATOM     58  N   UNL A   1      41.258  29.785  33.574  1.00  0.00    -0.248 NA
ATOM     59  C   UNL A   1      41.524  30.437  35.800  1.00  0.00     0.031 C 
ATOM     60  C   UNL A   1      43.949  26.961  31.447  1.00  0.00     0.029 A 
ATOM     61  C   UNL A   1      43.128  27.849  32.126  1.00  0.00     0.049 A 
ATOM     62  H   UNL A   1      41.370  28.804  31.453  1.00  0.00     0.167 HD
ATOM     63  C   UNL A   1      42.406  29.189  34.086  1.00  0.00     0.074 A 
ATOM     64  C   UNL A   1      42.542  29.659  35.450  1.00  0.00     0.031 C 
ATOM     65  C   UNL A   1      43.265  28.331  33.481  1.00  0.00     0.034 A 
BRANCH  52  66
ATOM     66  C   UNL A   1      41.766  26.824  27.670  1.00  0.00     0.023 A 
ATOM     67  C   UNL A   1      41.568  25.430  27.660  1.00  0.00     0.031 A 
ATOM     68  C   UNL A   1      42.440  27.406  26.581  1.00  0.00     0.131 A 
ATOM     69  C   UNL A   1      42.074  24.662  26.603  1.00  0.00     0.055 A 
ATOM     70  C   UNL A   1      42.906  26.642  25.511  1.00  0.00     0.041 A 
ATOM     71  F   UNL A   1      42.660  28.731  26.545  1.00  0.00    -0.206 F 
ATOM     72  C   UNL A   1      42.736  25.261  25.526  1.00  0.00     0.022 A 
BRANCH  69  73
ATOM     73  S   UNL A   1      41.955  22.852  26.615  1.00  0.00     0.124 S 
ATOM     74  O   UNL A   1      42.298  22.520  25.233  1.00  0.00    -0.237 OA
ATOM     75  O   UNL A   1      42.960  22.486  27.610  1.00  0.00    -0.237 OA
ATOM     76  O   UNL A   1      40.570  22.593  26.990  1.00  0.00    -0.744 OA
ENDBRANCH  69  73
ENDBRANCH  52  66
BRANCH  53  77
ATOM     77  C   UNL A   1      39.148  32.231  35.706  1.00  0.00     0.023 A 
ATOM     78  C   UNL A   1      39.636  33.542  35.862  1.00  0.00     0.031 A 
ATOM     79  C   UNL A   1      38.387  31.681  36.752  1.00  0.00     0.131 A 
ATOM     80  C   UNL A   1      39.421  34.228  37.065  1.00  0.00     0.055 A 
ATOM     81  C   UNL A   1      38.114  32.396  37.919  1.00  0.00     0.041 A 
ATOM     82  F   UNL A   1      37.917  30.428  36.658  1.00  0.00    -0.206 F 
ATOM     83  C   UNL A   1      38.648  33.670  38.087  1.00  0.00     0.022 A 
BRANCH  80  84
ATOM     84  S   UNL A   1      40.260  35.802  37.400  1.00  0.00     0.124 S 
ATOM     85  O   UNL A   1      39.810  36.103  38.756  1.00  0.00    -0.237 OA
ATOM     86  O   UNL A   1      41.665  35.426  37.269  1.00  0.00    -0.237 OA
ATOM     87  O   UNL A   1      39.756  36.690  36.357  1.00  0.00    -0.744 OA
ENDBRANCH  80  84
ENDBRANCH  53  77
BRANCH  65  88
ATOM     88  C   UNL A   1      44.451  27.822  34.266  1.00  0.00     0.023 A 
ATOM     89  C   UNL A   1      44.339  26.636  35.018  1.00  0.00     0.031 A 
ATOM     90  C   UNL A   1      45.625  28.584  34.400  1.00  0.00     0.131 A 
ATOM     91  C   UNL A   1      45.360  26.274  35.906  1.00  0.00     0.055 A 
ATOM     92  C   UNL A   1      46.662  28.191  35.247  1.00  0.00     0.041 A 
ATOM     93  F   UNL A   1      45.777  29.728  33.713  1.00  0.00    -0.206 F 
ATOM     94  C   UNL A   1      46.524  27.040  36.018  1.00  0.00     0.022 A 
BRANCH  91  95
ATOM     95  S   UNL A   1      45.173  24.852  37.017  1.00  0.00     0.124 S 
ATOM     96  O   UNL A   1      46.564  24.470  37.255  1.00  0.00    -0.237 OA
ATOM     97  O   UNL A   1      44.484  25.443  38.160  1.00  0.00    -0.237 OA
ATOM     98  O   UNL A   1      44.391  23.896  36.239  1.00  0.00    -0.744 OA
ENDBRANCH  91  95
ENDBRANCH  65  88
ENDBRANCH  39  40
ENDBRANCH  32  34
ENDBRANCH  31  32
ENDBRANCH  30  31
ENDBRANCH  29  30
ENDBRANCH   1  29
TORSDOF 20
ENDMDL
MODEL 3
REMARK VINA RESULT:     -11.3      1.866      7.638
REMARK SMILES O=C(COc1ccc(Br)cc1/C=C1\C(=O)Nc2ccc(Br)cc21)OCCOCCOC(=O)c1ccc(-c2c3nc(c(-c4cc(S(=O)(=O)[O-])ccc4F)c4ccc([nH]4)c(-c4cc(S(=O)(=O)[O-])ccc4F)c4nc(c(-c5cc(S(=O)(=O)[O-])ccc5F)c5ccc2[nH]5)C=C4)C=C3)cc1
REMARK SMILES IDX 27 1 26 2 25 3 24 4 2 5 1 6 3 7 4 8 5 9 6 10 11 11 7 12
REMARK SMILES IDX 10 13 8 14 9 15 12 16 13 17 14 18 23 19 15 20 16 21 17 22
REMARK SMILES IDX 22 23 18 25 20 26 19 27 21 28 28 29 29 30 30 31 31 32 32 33
REMARK SMILES IDX 33 34 34 35 95 36 35 37 94 38 36 39 37 40 38 41 88 42 39 43
REMARK SMILES IDX 93 44 87 45 89 46 40 47 92 48 86 49 85 50 41 52 73 53 53 54
REMARK SMILES IDX 72 55 54 56 57 57 71 58 90 59 55 60 56 61 70 63 91 64 58 65
REMARK SMILES IDX 42 66 43 67 51 68 44 69 50 70 52 71 49 72 45 73 46 74 47 75
REMARK SMILES IDX 48 76 74 77 75 78 83 79 76 80 82 81 84 82 81 83 77 84 78 85
REMARK SMILES IDX 79 86 80 87 59 88 60 89 68 90 61 91 67 92 69 93 66 94 62 95
REMARK SMILES IDX 63 96 64 97 65 98
REMARK H PARENT 16 24 89 51 57 62
REMARK Flexibility Score: inf
ROOT
ATOM      1  O   UNL A   1      32.919  30.483  27.609  1.00  0.00    -0.374 OA
ENDROOT
BRANCH   1   2
ATOM      2  C   UNL A   1      32.025  30.394  26.500  1.00  0.00     0.202 C 
BRANCH   2   3
ATOM      3  C   UNL A   1      31.767  28.979  25.998  1.00  0.00     0.261 C 
BRANCH   3   4
ATOM      4  O   UNL A   1      32.762  28.060  26.475  1.00  0.00    -0.461 OA
BRANCH   4   5
ATOM      5  C   UNL A   1      33.530  27.329  25.627  1.00  0.00     0.344 C 
ATOM      6  O   UNL A   1      34.042  26.277  26.008  1.00  0.00    -0.248 OA
BRANCH   5   7
ATOM      7  C   UNL A   1      33.702  27.828  24.191  1.00  0.00     0.351 C 
BRANCH   7   8
ATOM      8  O   UNL A   1      33.040  27.151  23.118  1.00  0.00    -0.481 OA
BRANCH   8   9
ATOM      9  C   UNL A   1      31.732  27.545  22.961  1.00  0.00     0.127 A 
ATOM     10  C   UNL A   1      31.452  28.847  22.505  1.00  0.00     0.048 A 
ATOM     11  C   UNL A   1      30.694  26.632  23.245  1.00  0.00     0.018 A 
ATOM     12  C   UNL A   1      30.155  29.339  22.500  1.00  0.00     0.019 A 
ATOM     13  C   UNL A   1      29.400  27.170  23.231  1.00  0.00     0.027 A 
ATOM     14  C   UNL A   1      29.135  28.504  22.904  1.00  0.00     0.018 A 
ATOM     15  Br  UNL A   1      27.367  29.164  23.011  1.00  0.00    -0.051 Br
BRANCH  11  16
ATOM     16  C   UNL A   1      30.994  25.199  23.576  1.00  0.00     0.026 C 
ATOM     17  C   UNL A   1      30.919  24.528  24.747  1.00  0.00     0.050 C 
ATOM     18  C   UNL A   1      30.547  25.083  26.097  1.00  0.00     0.256 C 
ATOM     19  C   UNL A   1      31.699  23.311  25.046  1.00  0.00     0.012 A 
ATOM     20  O   UNL A   1      29.550  25.661  26.446  1.00  0.00    -0.269 OA
ATOM     21  N   UNL A   1      31.540  24.607  26.936  1.00  0.00    -0.321 N 
ATOM     22  C   UNL A   1      32.188  23.529  26.346  1.00  0.00     0.049 A 
ATOM     23  C   UNL A   1      31.921  22.094  24.430  1.00  0.00     0.026 A 
ATOM     24  H   UNL A   1      31.755  24.978  27.822  1.00  0.00     0.170 HD
ATOM     25  C   UNL A   1      33.044  22.668  26.995  1.00  0.00     0.028 A 
ATOM     26  C   UNL A   1      32.707  21.157  25.123  1.00  0.00     0.018 A 
ATOM     27  C   UNL A   1      33.308  21.458  26.362  1.00  0.00     0.018 A 
ATOM     28  Br  UNL A   1      32.903  19.401  24.436  1.00  0.00    -0.051 Br
ENDBRANCH  11  16
ENDBRANCH   8   9
ENDBRANCH   7   8
ENDBRANCH   5   7
ENDBRANCH   4   5
ENDBRANCH   3   4
ENDBRANCH   2   3
ENDBRANCH   1   2
BRANCH   1  29
ATOM     29  C   UNL A   1      33.704  31.686  27.672  1.00  0.00     0.202 C 
BRANCH  29  30
ATOM     30  C   UNL A   1      32.964  32.983  27.314  1.00  0.00     0.261 C 
BRANCH  30  31
ATOM     31  O   UNL A   1      32.546  33.680  28.504  1.00  0.00    -0.460 OA
BRANCH  31  32
ATOM     32  C   UNL A   1      33.326  34.722  28.884  1.00  0.00     0.338 C 
ATOM     33  O   UNL A   1      33.073  35.907  28.743  1.00  0.00    -0.246 OA
BRANCH  32  34
ATOM     34  C   UNL A   1      34.427  34.216  29.736  1.00  0.00     0.060 A 
ATOM     35  C   UNL A   1      34.188  33.566  30.949  1.00  0.00     0.016 A 
ATOM     36  C   UNL A   1      35.742  34.420  29.291  1.00  0.00     0.016 A 
ATOM     37  C   UNL A   1      35.266  33.071  31.688  1.00  0.00     0.010 A 
ATOM     38  C   UNL A   1      36.818  33.928  30.031  1.00  0.00     0.010 A 
ATOM     39  C   UNL A   1      36.584  33.222  31.218  1.00  0.00    -0.014 A 
BRANCH  39  40
ATOM     40  C   UNL A   1      37.687  32.457  31.849  1.00  0.00     0.031 A 
ATOM     41  C   UNL A   1      38.334  31.286  31.178  1.00  0.00     0.074 A 
ATOM     42  C   UNL A   1      38.072  32.835  33.084  1.00  0.00     0.049 A 
ATOM     43  N   UNL A   1      39.364  30.586  31.574  1.00  0.00    -0.248 NA
ATOM     44  C   UNL A   1      37.751  30.837  29.906  1.00  0.00     0.031 C 
ATOM     45  C   UNL A   1      37.461  33.927  33.842  1.00  0.00     0.029 A 
ATOM     46  N   UNL A   1      39.052  32.358  33.915  1.00  0.00    -0.354 N 
ATOM     47  C   UNL A   1      39.574  29.626  30.594  1.00  0.00     0.074 A 
ATOM     48  C   UNL A   1      38.528  29.802  29.607  1.00  0.00     0.031 C 
ATOM     49  C   UNL A   1      38.096  34.056  35.014  1.00  0.00     0.029 A 
ATOM     50  C   UNL A   1      39.141  33.039  35.106  1.00  0.00     0.049 A 
ATOM     51  H   UNL A   1      39.637  31.601  33.682  1.00  0.00     0.167 HD
ATOM     52  C   UNL A   1      40.562  28.701  30.524  1.00  0.00     0.034 A 
ATOM     53  C   UNL A   1      39.975  32.877  36.153  1.00  0.00     0.034 A 
ATOM     54  C   UNL A   1      41.576  28.535  31.538  1.00  0.00     0.049 A 
ATOM     55  C   UNL A   1      41.058  31.835  36.056  1.00  0.00     0.074 A 
ATOM     56  C   UNL A   1      42.648  27.660  31.538  1.00  0.00     0.029 A 
ATOM     57  N   UNL A   1      41.642  29.241  32.732  1.00  0.00    -0.354 N 
ATOM     58  N   UNL A   1      41.322  31.015  35.065  1.00  0.00    -0.248 NA
ATOM     59  C   UNL A   1      41.970  31.704  37.199  1.00  0.00     0.031 C 
ATOM     60  C   UNL A   1      43.317  27.786  32.756  1.00  0.00     0.029 A 
ATOM     61  C   UNL A   1      42.716  28.798  33.488  1.00  0.00     0.049 A 
ATOM     62  H   UNL A   1      41.018  29.954  33.002  1.00  0.00     0.167 HD
ATOM     63  C   UNL A   1      42.444  30.291  35.453  1.00  0.00     0.074 A 
ATOM     64  C   UNL A   1      42.823  30.787  36.761  1.00  0.00     0.031 C 
ATOM     65  C   UNL A   1      43.097  29.306  34.787  1.00  0.00     0.034 A 
BRANCH  52  66
ATOM     66  C   UNL A   1      40.639  27.806  29.309  1.00  0.00     0.023 A 
ATOM     67  C   UNL A   1      41.530  28.105  28.261  1.00  0.00     0.031 A 
ATOM     68  C   UNL A   1      39.723  26.755  29.123  1.00  0.00     0.131 A 
ATOM     69  C   UNL A   1      41.459  27.385  27.061  1.00  0.00     0.055 A 
ATOM     70  C   UNL A   1      39.684  26.015  27.941  1.00  0.00     0.041 A 
ATOM     71  F   UNL A   1      38.847  26.434  30.090  1.00  0.00    -0.206 F 
ATOM     72  C   UNL A   1      40.545  26.338  26.898  1.00  0.00     0.022 A 
BRANCH  69  73
ATOM     73  S   UNL A   1      42.499  27.823  25.640  1.00  0.00     0.124 S 
ATOM     74  O   UNL A   1      43.813  27.963  26.263  1.00  0.00    -0.237 OA
ATOM     75  O   UNL A   1      42.341  26.656  24.776  1.00  0.00    -0.237 OA
ATOM     76  O   UNL A   1      41.912  29.062  25.142  1.00  0.00    -0.744 OA
ENDBRANCH  69  73
ENDBRANCH  52  66
BRANCH  53  77
ATOM     77  C   UNL A   1      39.851  33.794  37.322  1.00  0.00     0.023 A 
ATOM     78  C   UNL A   1      39.221  33.374  38.508  1.00  0.00     0.031 A 
ATOM     79  C   UNL A   1      40.238  35.141  37.222  1.00  0.00     0.131 A 
ATOM     80  C   UNL A   1      38.930  34.307  39.512  1.00  0.00     0.055 A 
ATOM     81  C   UNL A   1      40.011  36.052  38.255  1.00  0.00     0.041 A 
ATOM     82  F   UNL A   1      40.824  35.594  36.103  1.00  0.00    -0.206 F 
ATOM     83  C   UNL A   1      39.336  35.640  39.401  1.00  0.00     0.022 A 
BRANCH  80  84
ATOM     84  S   UNL A   1      37.885  33.856  40.926  1.00  0.00     0.124 S 
ATOM     85  O   UNL A   1      38.797  33.053  41.734  1.00  0.00    -0.237 OA
ATOM     86  O   UNL A   1      37.543  35.166  41.474  1.00  0.00    -0.237 OA
ATOM     87  O   UNL A   1      36.775  33.130  40.317  1.00  0.00    -0.744 OA
ENDBRANCH  80  84
ENDBRANCH  53  77
BRANCH  65  88
ATOM     88  C   UNL A   1      44.305  28.672  35.436  1.00  0.00     0.023 A 
ATOM     89  C   UNL A   1      44.134  27.653  36.394  1.00  0.00     0.031 A 
ATOM     90  C   UNL A   1      45.600  29.179  35.231  1.00  0.00     0.131 A 
ATOM     91  C   UNL A   1      45.230  27.210  37.145  1.00  0.00     0.055 A 
ATOM     92  C   UNL A   1      46.697  28.698  35.945  1.00  0.00     0.041 A 
ATOM     93  F   UNL A   1      45.814  30.158  34.337  1.00  0.00    -0.206 F 
ATOM     94  C   UNL A   1      46.512  27.720  36.919  1.00  0.00     0.022 A 
BRANCH  91  95
ATOM     95  S   UNL A   1      45.017  26.028  38.504  1.00  0.00     0.124 S 
ATOM     96  O   UNL A   1      44.611  26.902  39.603  1.00  0.00    -0.237 OA
ATOM     97  O   UNL A   1      43.971  25.150  37.987  1.00  0.00    -0.237 OA
ATOM     98  O   UNL A   1      46.334  25.417  38.651  1.00  0.00    -0.744 OA
ENDBRANCH  91  95
ENDBRANCH  65  88
ENDBRANCH  39  40
ENDBRANCH  32  34
ENDBRANCH  31  32
ENDBRANCH  30  31
ENDBRANCH  29  30
ENDBRANCH   1  29
TORSDOF 20
ENDMDL
