MODEL 1
REMARK VINA RESULT:     -10.9      0.000      0.000
REMARK SMILES C[C@H]1[C@H](C(=O)OCCOCCOC(=O)c2ccc(-c3c4nc(c(-c5cc(S(=O)(=O)[O-])ccc5F)c5ccc([nH]5)c(-c5cc(S(=O)(=O)[O-])ccc5F)c5nc(c(-c6cc(S(=O)(=O)[O-])ccc6F)c6ccc3[nH]6)C=C5)C=C4)cc2)CCN1C(=O)[C@H]1CC[C@@H](C[NH3+])CC1
REMARK SMILES IDX 8 1 7 2 6 3 4 4 5 5 3 6 1 7 2 8 80 9 78 10 79 11 81 12 82 13
REMARK SMILES IDX 83 14 90 15 84 16 89 17 85 18 86 19 87 20 88 21 9 25 10 26
REMARK SMILES IDX 11 27 12 28 13 29 14 30 15 31 16 32 77 33 17 34 76 35 18 36
REMARK SMILES IDX 19 37 20 38 70 39 21 40 75 41 69 42 71 43 22 44 74 45 68 46
REMARK SMILES IDX 67 47 23 49 55 50 35 51 54 52 36 53 39 54 53 55 72 56 37 57
REMARK SMILES IDX 38 58 52 60 73 61 40 62 24 63 25 64 33 65 26 66 32 67 34 68
REMARK SMILES IDX 31 69 27 70 28 71 29 72 30 73 56 74 57 75 65 76 58 77 64 78
REMARK SMILES IDX 66 79 63 80 59 81 60 82 61 83 62 84 41 85 42 86 50 87 43 88
REMARK SMILES IDX 49 89 51 90 48 91 44 92 45 93 46 94 47 95
REMARK H PARENT 88 22 88 23 88 24 71 48 39 59
REMARK Flexibility Score: inf
ROOT
ATOM      1  C   UNL A   1      33.410  29.197  26.065  1.00  0.00     0.202 C 
ENDROOT
BRANCH   1   2
ATOM      2  C   UNL A   1      32.983  28.035  25.161  1.00  0.00     0.261 C 
BRANCH   2   3
ATOM      3  O   UNL A   1      32.460  28.445  23.884  1.00  0.00    -0.463 OA
BRANCH   3   4
ATOM      4  C   UNL A   1      31.169  28.097  23.651  1.00  0.00     0.311 C 
ATOM      5  O   UNL A   1      30.196  28.810  23.877  1.00  0.00    -0.252 OA
BRANCH   4   6
ATOM      6  C   UNL A   1      31.003  26.692  23.129  1.00  0.00     0.123 C 
ATOM      7  C   UNL A   1      31.934  26.102  20.913  1.00  0.00     0.032 C 
ATOM      8  C   UNL A   1      32.209  26.020  22.420  1.00  0.00     0.096 C 
ATOM      9  N   UNL A   1      32.208  24.627  22.931  1.00  0.00    -0.339 N 
ATOM     10  C   UNL A   1      30.623  25.746  24.254  1.00  0.00     0.039 C 
ATOM     11  C   UNL A   1      30.979  24.394  23.680  1.00  0.00     0.121 C 
BRANCH   9  12
ATOM     12  C   UNL A   1      33.123  23.595  22.902  1.00  0.00     0.225 C 
ATOM     13  O   UNL A   1      33.562  23.215  21.804  1.00  0.00    -0.275 OA
BRANCH  12  14
ATOM     14  C   UNL A   1      33.693  22.882  24.135  1.00  0.00     0.078 C 
ATOM     15  C   UNL A   1      33.647  21.359  24.025  1.00  0.00     0.014 C 
ATOM     16  C   UNL A   1      34.998  23.420  24.719  1.00  0.00     0.014 C 
ATOM     17  C   UNL A   1      34.050  20.667  25.326  1.00  0.00     0.010 C 
ATOM     18  C   UNL A   1      35.330  22.696  26.035  1.00  0.00     0.010 C 
ATOM     19  C   UNL A   1      35.398  21.168  25.871  1.00  0.00     0.044 C 
BRANCH  19  20
ATOM     20  C   UNL A   1      36.571  20.694  24.986  1.00  0.00     0.262 C 
BRANCH  20  21
ATOM     21  N   UNL A   1      36.764  19.255  25.060  1.00  0.00    -0.357 N 
ATOM     22  H   UNL A   1      36.405  18.820  24.211  1.00  0.00     0.344 HD
ATOM     23  H   UNL A   1      36.263  18.887  25.870  1.00  0.00     0.344 HD
ATOM     24  H   UNL A   1      37.758  19.050  25.154  1.00  0.00     0.344 HD
ENDBRANCH  20  21
ENDBRANCH  19  20
ENDBRANCH  12  14
ENDBRANCH   9  12
ENDBRANCH   4   6
ENDBRANCH   3   4
ENDBRANCH   2   3
ENDBRANCH   1   2
BRANCH   1  25
ATOM     25  O   UNL A   1      32.840  30.475  25.806  1.00  0.00    -0.374 OA
BRANCH  25  26
ATOM     26  C   UNL A   1      31.611  30.802  26.447  1.00  0.00     0.202 C 
BRANCH  26  27
ATOM     27  C   UNL A   1      31.408  32.247  26.914  1.00  0.00     0.261 C 
BRANCH  27  28
ATOM     28  O   UNL A   1      32.585  33.065  26.763  1.00  0.00    -0.460 OA
BRANCH  28  29
ATOM     29  C   UNL A   1      33.160  33.424  27.939  1.00  0.00     0.338 C 
ATOM     30  O   UNL A   1      32.645  34.113  28.814  1.00  0.00    -0.246 OA
BRANCH  29  31
ATOM     31  C   UNL A   1      34.465  32.768  28.139  1.00  0.00     0.060 A 
ATOM     32  C   UNL A   1      34.459  31.462  28.641  1.00  0.00     0.016 A 
ATOM     33  C   UNL A   1      35.672  33.451  27.980  1.00  0.00     0.016 A 
ATOM     34  C   UNL A   1      35.648  30.869  29.059  1.00  0.00     0.010 A 
ATOM     35  C   UNL A   1      36.868  32.858  28.406  1.00  0.00     0.010 A 
ATOM     36  C   UNL A   1      36.853  31.583  28.995  1.00  0.00    -0.014 A 
BRANCH  36  37
ATOM     37  C   UNL A   1      38.046  31.033  29.688  1.00  0.00     0.031 A 
ATOM     38  C   UNL A   1      38.316  31.427  31.116  1.00  0.00     0.074 A 
ATOM     39  C   UNL A   1      38.835  30.132  29.075  1.00  0.00     0.049 A 
ATOM     40  N   UNL A   1      39.230  30.986  31.942  1.00  0.00    -0.248 NA
ATOM     41  C   UNL A   1      37.438  32.461  31.687  1.00  0.00     0.031 C 
ATOM     42  C   UNL A   1      38.669  29.667  27.699  1.00  0.00     0.029 A 
ATOM     43  N   UNL A   1      39.924  29.438  29.537  1.00  0.00    -0.354 N 
ATOM     44  C   UNL A   1      39.030  31.675  33.135  1.00  0.00     0.074 A 
ATOM     45  C   UNL A   1      37.943  32.603  32.903  1.00  0.00     0.031 C 
ATOM     46  C   UNL A   1      39.620  28.756  27.430  1.00  0.00     0.029 A 
ATOM     47  C   UNL A   1      40.469  28.584  28.606  1.00  0.00     0.049 A 
ATOM     48  H   UNL A   1      40.282  29.542  30.447  1.00  0.00     0.167 HD
ATOM     49  C   UNL A   1      39.679  31.534  34.318  1.00  0.00     0.034 A 
ATOM     50  C   UNL A   1      41.530  27.757  28.697  1.00  0.00     0.034 A 
ATOM     51  C   UNL A   1      40.775  30.618  34.530  1.00  0.00     0.049 A 
ATOM     52  C   UNL A   1      42.267  27.650  30.009  1.00  0.00     0.074 A 
ATOM     53  C   UNL A   1      41.492  30.382  35.691  1.00  0.00     0.029 A 
ATOM     54  N   UNL A   1      41.323  29.794  33.555  1.00  0.00    -0.354 N 
ATOM     55  N   UNL A   1      42.038  28.275  31.141  1.00  0.00    -0.248 NA
ATOM     56  C   UNL A   1      43.389  26.705  30.058  1.00  0.00     0.031 C 
ATOM     57  C   UNL A   1      42.511  29.466  35.401  1.00  0.00     0.029 A 
ATOM     58  C   UNL A   1      42.385  29.072  34.079  1.00  0.00     0.049 A 
ATOM     59  H   UNL A   1      41.002  29.731  32.626  1.00  0.00     0.167 HD
ATOM     60  C   UNL A   1      42.973  27.775  32.045  1.00  0.00     0.074 A 
ATOM     61  C   UNL A   1      43.752  26.785  31.330  1.00  0.00     0.031 C 
ATOM     62  C   UNL A   1      43.167  28.100  33.351  1.00  0.00     0.034 A 
BRANCH  49  63
ATOM     63  C   UNL A   1      39.243  32.425  35.457  1.00  0.00     0.023 A 
ATOM     64  C   UNL A   1      39.698  33.752  35.574  1.00  0.00     0.031 A 
ATOM     65  C   UNL A   1      38.384  31.936  36.457  1.00  0.00     0.131 A 
ATOM     66  C   UNL A   1      39.350  34.516  36.698  1.00  0.00     0.055 A 
ATOM     67  C   UNL A   1      37.981  32.727  37.536  1.00  0.00     0.041 A 
ATOM     68  F   UNL A   1      37.933  30.673  36.412  1.00  0.00    -0.206 F 
ATOM     69  C   UNL A   1      38.477  34.021  37.668  1.00  0.00     0.022 A 
BRANCH  66  70
ATOM     70  S   UNL A   1      40.168  36.117  36.946  1.00  0.00     0.124 S 
ATOM     71  O   UNL A   1      39.878  36.795  35.686  1.00  0.00    -0.237 OA
ATOM     72  O   UNL A   1      39.489  36.640  38.126  1.00  0.00    -0.237 OA
ATOM     73  O   UNL A   1      41.572  35.758  37.143  1.00  0.00    -0.744 OA
ENDBRANCH  66  70
ENDBRANCH  49  63
BRANCH  50  74
ATOM     74  C   UNL A   1      41.970  26.969  27.512  1.00  0.00     0.023 A 
ATOM     75  C   UNL A   1      41.709  25.594  27.411  1.00  0.00     0.031 A 
ATOM     76  C   UNL A   1      42.707  27.580  26.480  1.00  0.00     0.131 A 
ATOM     77  C   UNL A   1      42.218  24.864  26.326  1.00  0.00     0.055 A 
ATOM     78  C   UNL A   1      43.170  26.858  25.379  1.00  0.00     0.041 A 
ATOM     79  F   UNL A   1      42.979  28.893  26.526  1.00  0.00    -0.206 F 
ATOM     80  C   UNL A   1      42.938  25.489  25.304  1.00  0.00     0.022 A 
BRANCH  77  81
ATOM     81  S   UNL A   1      41.990  23.064  26.305  1.00  0.00     0.124 S 
ATOM     82  O   UNL A   1      42.619  22.700  25.040  1.00  0.00    -0.237 OA
ATOM     83  O   UNL A   1      42.697  22.657  27.514  1.00  0.00    -0.237 OA
ATOM     84  O   UNL A   1      40.538  22.905  26.351  1.00  0.00    -0.744 OA
ENDBRANCH  77  81
ENDBRANCH  50  74
BRANCH  62  85
ATOM     85  C   UNL A   1      44.243  27.341  34.089  1.00  0.00     0.023 A 
ATOM     86  C   UNL A   1      44.049  26.019  34.527  1.00  0.00     0.031 A 
ATOM     87  C   UNL A   1      45.469  27.962  34.387  1.00  0.00     0.131 A 
ATOM     88  C   UNL A   1      45.036  25.385  35.297  1.00  0.00     0.055 A 
ATOM     89  C   UNL A   1      46.473  27.304  35.100  1.00  0.00     0.041 A 
ATOM     90  F   UNL A   1      45.710  29.224  33.994  1.00  0.00    -0.206 F 
ATOM     91  C   UNL A   1      46.253  26.014  35.574  1.00  0.00     0.022 A 
BRANCH  88  92
ATOM     92  S   UNL A   1      44.664  23.768  36.031  1.00  0.00     0.124 S 
ATOM     93  O   UNL A   1      44.765  24.051  37.459  1.00  0.00    -0.237 OA
ATOM     94  O   UNL A   1      43.320  23.501  35.528  1.00  0.00    -0.237 OA
ATOM     95  O   UNL A   1      45.710  22.899  35.495  1.00  0.00    -0.744 OA
ENDBRANCH  88  92
ENDBRANCH  62  85
ENDBRANCH  36  37
ENDBRANCH  29  31
ENDBRANCH  28  29
ENDBRANCH  27  28
ENDBRANCH  26  27
ENDBRANCH  25  26
ENDBRANCH   1  25
TORSDOF 21
ENDMDL
MODEL 2
REMARK VINA RESULT:     -10.7      1.766      7.700
REMARK SMILES C[C@H]1[C@H](C(=O)OCCOCCOC(=O)c2ccc(-c3c4nc(c(-c5cc(S(=O)(=O)[O-])ccc5F)c5ccc([nH]5)c(-c5cc(S(=O)(=O)[O-])ccc5F)c5nc(c(-c6cc(S(=O)(=O)[O-])ccc6F)c6ccc3[nH]6)C=C5)C=C4)cc2)CCN1C(=O)[C@H]1CC[C@@H](C[NH3+])CC1
REMARK SMILES IDX 8 1 7 2 6 3 4 4 5 5 3 6 1 7 2 8 80 9 78 10 79 11 81 12 82 13
REMARK SMILES IDX 83 14 90 15 84 16 89 17 85 18 86 19 87 20 88 21 9 25 10 26
REMARK SMILES IDX 11 27 12 28 13 29 14 30 15 31 16 32 77 33 17 34 76 35 18 36
REMARK SMILES IDX 19 37 20 38 70 39 21 40 75 41 69 42 71 43 22 44 74 45 68 46
REMARK SMILES IDX 67 47 23 49 55 50 35 51 54 52 36 53 39 54 53 55 72 56 37 57
REMARK SMILES IDX 38 58 52 60 73 61 40 62 24 63 25 64 33 65 26 66 32 67 34 68
REMARK SMILES IDX 31 69 27 70 28 71 29 72 30 73 56 74 57 75 65 76 58 77 64 78
REMARK SMILES IDX 66 79 63 80 59 81 60 82 61 83 62 84 41 85 42 86 50 87 43 88
REMARK SMILES IDX 49 89 51 90 48 91 44 92 45 93 46 94 47 95
REMARK H PARENT 88 22 88 23 88 24 71 48 39 59
REMARK Flexibility Score: inf
ROOT
ATOM      1  C   UNL A   1      32.540  30.034  25.828  1.00  0.00     0.202 C 
ENDROOT
BRANCH   1   2
ATOM      2  C   UNL A   1      31.401  29.491  24.958  1.00  0.00     0.261 C 
BRANCH   2   3
ATOM      3  O   UNL A   1      31.588  28.130  24.527  1.00  0.00    -0.463 OA
BRANCH   3   4
ATOM      4  C   UNL A   1      31.802  27.971  23.196  1.00  0.00     0.311 C 
ATOM      5  O   UNL A   1      32.228  28.841  22.443  1.00  0.00    -0.252 OA
BRANCH   4   6
ATOM      6  C   UNL A   1      31.406  26.612  22.674  1.00  0.00     0.123 C 
ATOM      7  C   UNL A   1      32.512  25.721  20.648  1.00  0.00     0.032 C 
ATOM      8  C   UNL A   1      32.525  25.656  22.181  1.00  0.00     0.096 C 
ATOM      9  N   UNL A   1      32.130  24.326  22.704  1.00  0.00    -0.339 N 
ATOM     10  C   UNL A   1      30.652  25.832  23.736  1.00  0.00     0.039 C 
ATOM     11  C   UNL A   1      30.779  24.408  23.247  1.00  0.00     0.121 C 
BRANCH   9  12
ATOM     12  C   UNL A   1      32.781  23.117  22.840  1.00  0.00     0.225 C 
ATOM     13  O   UNL A   1      32.524  22.206  22.036  1.00  0.00    -0.275 OA
BRANCH  12  14
ATOM     14  C   UNL A   1      33.849  22.799  23.894  1.00  0.00     0.078 C 
ATOM     15  C   UNL A   1      33.891  23.815  25.034  1.00  0.00     0.014 C 
ATOM     16  C   UNL A   1      33.975  21.348  24.355  1.00  0.00     0.014 C 
ATOM     17  C   UNL A   1      35.072  23.586  25.976  1.00  0.00     0.010 C 
ATOM     18  C   UNL A   1      35.192  21.186  25.279  1.00  0.00     0.010 C 
ATOM     19  C   UNL A   1      35.151  22.139  26.488  1.00  0.00     0.044 C 
BRANCH  19  20
ATOM     20  C   UNL A   1      34.006  21.830  27.476  1.00  0.00     0.262 C 
BRANCH  20  21
ATOM     21  N   UNL A   1      33.390  20.539  27.210  1.00  0.00    -0.357 N 
ATOM     22  H   UNL A   1      33.215  20.445  26.211  1.00  0.00     0.344 HD
ATOM     23  H   UNL A   1      32.508  20.474  27.718  1.00  0.00     0.344 HD
ATOM     24  H   UNL A   1      34.015  19.795  27.518  1.00  0.00     0.344 HD
ENDBRANCH  20  21
ENDBRANCH  19  20
ENDBRANCH  12  14
ENDBRANCH   9  12
ENDBRANCH   4   6
ENDBRANCH   3   4
ENDBRANCH   2   3
ENDBRANCH   1   2
BRANCH   1  25
ATOM     25  O   UNL A   1      32.194  30.924  26.884  1.00  0.00    -0.374 OA
BRANCH  25  26
ATOM     26  C   UNL A   1      31.415  32.073  26.562  1.00  0.00     0.202 C 
BRANCH  26  27
ATOM     27  C   UNL A   1      32.060  33.450  26.749  1.00  0.00     0.261 C 
BRANCH  27  28
ATOM     28  O   UNL A   1      32.163  33.847  28.131  1.00  0.00    -0.460 OA
BRANCH  28  29
ATOM     29  C   UNL A   1      33.267  34.588  28.409  1.00  0.00     0.338 C 
ATOM     30  O   UNL A   1      33.309  35.809  28.512  1.00  0.00    -0.246 OA
BRANCH  29  31
ATOM     31  C   UNL A   1      34.433  33.743  28.724  1.00  0.00     0.060 A 
ATOM     32  C   UNL A   1      34.183  32.468  29.245  1.00  0.00     0.016 A 
ATOM     33  C   UNL A   1      35.741  34.225  28.652  1.00  0.00     0.016 A 
ATOM     34  C   UNL A   1      35.228  31.711  29.768  1.00  0.00     0.010 A 
ATOM     35  C   UNL A   1      36.792  33.466  29.183  1.00  0.00     0.010 A 
ATOM     36  C   UNL A   1      36.532  32.226  29.789  1.00  0.00    -0.014 A 
BRANCH  36  37
ATOM     37  C   UNL A   1      37.567  31.518  30.585  1.00  0.00     0.031 A 
ATOM     38  C   UNL A   1      38.400  30.450  29.928  1.00  0.00     0.074 A 
ATOM     39  C   UNL A   1      37.814  31.881  31.857  1.00  0.00     0.049 A 
ATOM     40  N   UNL A   1      39.425  29.787  30.399  1.00  0.00    -0.248 NA
ATOM     41  C   UNL A   1      38.023  30.078  28.555  1.00  0.00     0.031 C 
ATOM     42  C   UNL A   1      37.080  32.907  32.597  1.00  0.00     0.029 A 
ATOM     43  N   UNL A   1      38.759  31.435  32.745  1.00  0.00    -0.354 N 
ATOM     44  C   UNL A   1      39.826  28.930  29.379  1.00  0.00     0.074 A 
ATOM     45  C   UNL A   1      38.897  29.120  28.285  1.00  0.00     0.031 C 
ATOM     46  C   UNL A   1      37.610  33.018  33.828  1.00  0.00     0.029 A 
ATOM     47  C   UNL A   1      38.708  32.064  33.967  1.00  0.00     0.049 A 
ATOM     48  H   UNL A   1      39.413  30.732  32.528  1.00  0.00     0.167 HD
ATOM     49  C   UNL A   1      40.882  28.077  29.349  1.00  0.00     0.034 A 
ATOM     50  C   UNL A   1      39.462  31.890  35.071  1.00  0.00     0.034 A 
ATOM     51  C   UNL A   1      41.790  27.882  30.454  1.00  0.00     0.049 A 
ATOM     52  C   UNL A   1      40.603  30.903  35.031  1.00  0.00     0.074 A 
ATOM     53  C   UNL A   1      42.900  27.059  30.526  1.00  0.00     0.029 A 
ATOM     54  N   UNL A   1      41.686  28.511  31.689  1.00  0.00    -0.354 N 
ATOM     55  N   UNL A   1      40.997  30.131  34.044  1.00  0.00    -0.248 NA
ATOM     56  C   UNL A   1      41.413  30.783  36.250  1.00  0.00     0.031 C 
ATOM     57  C   UNL A   1      43.427  27.141  31.821  1.00  0.00     0.029 A 
ATOM     58  C   UNL A   1      42.692  28.071  32.537  1.00  0.00     0.049 A 
ATOM     59  H   UNL A   1      40.996  29.173  31.927  1.00  0.00     0.167 HD
ATOM     60  C   UNL A   1      42.122  29.457  34.516  1.00  0.00     0.074 A 
ATOM     61  C   UNL A   1      42.350  29.929  35.867  1.00  0.00     0.031 C 
ATOM     62  C   UNL A   1      42.899  28.535  33.889  1.00  0.00     0.034 A 
BRANCH  49  63
ATOM     63  C   UNL A   1      41.078  27.263  28.092  1.00  0.00     0.023 A 
ATOM     64  C   UNL A   1      40.720  25.903  28.028  1.00  0.00     0.031 A 
ATOM     65  C   UNL A   1      41.658  27.843  26.949  1.00  0.00     0.131 A 
ATOM     66  C   UNL A   1      41.009  25.155  26.877  1.00  0.00     0.055 A 
ATOM     67  C   UNL A   1      41.875  27.110  25.780  1.00  0.00     0.041 A 
ATOM     68  F   UNL A   1      42.039  29.129  26.955  1.00  0.00    -0.206 F 
ATOM     69  C   UNL A   1      41.563  25.754  25.744  1.00  0.00     0.022 A 
BRANCH  66  70
ATOM     70  S   UNL A   1      40.780  23.355  26.932  1.00  0.00     0.124 S 
ATOM     71  O   UNL A   1      41.228  23.041  28.285  1.00  0.00    -0.237 OA
ATOM     72  O   UNL A   1      39.351  23.211  26.681  1.00  0.00    -0.237 OA
ATOM     73  O   UNL A   1      41.653  22.866  25.865  1.00  0.00    -0.744 OA
ENDBRANCH  66  70
ENDBRANCH  49  63
BRANCH  50  74
ATOM     74  C   UNL A   1      39.165  32.657  36.313  1.00  0.00     0.023 A 
ATOM     75  C   UNL A   1      38.348  32.124  37.322  1.00  0.00     0.031 A 
ATOM     76  C   UNL A   1      39.660  33.963  36.483  1.00  0.00     0.131 A 
ATOM     77  C   UNL A   1      38.013  32.910  38.436  1.00  0.00     0.055 A 
ATOM     78  C   UNL A   1      39.362  34.722  37.615  1.00  0.00     0.041 A 
ATOM     79  F   UNL A   1      40.449  34.516  35.549  1.00  0.00    -0.206 F 
ATOM     80  C   UNL A   1      38.523  34.200  38.594  1.00  0.00     0.022 A 
BRANCH  77  81
ATOM     81  S   UNL A   1      36.835  32.245  39.646  1.00  0.00     0.124 S 
ATOM     82  O   UNL A   1      36.894  33.250  40.701  1.00  0.00    -0.237 OA
ATOM     83  O   UNL A   1      35.600  32.200  38.870  1.00  0.00    -0.237 OA
ATOM     84  O   UNL A   1      37.400  30.942  39.990  1.00  0.00    -0.744 OA
ENDBRANCH  77  81
ENDBRANCH  50  74
BRANCH  62  85
ATOM     85  C   UNL A   1      44.090  28.014  34.655  1.00  0.00     0.023 A 
ATOM     86  C   UNL A   1      44.013  26.850  35.443  1.00  0.00     0.031 A 
ATOM     87  C   UNL A   1      45.312  28.708  34.623  1.00  0.00     0.131 A 
ATOM     88  C   UNL A   1      45.114  26.456  36.218  1.00  0.00     0.055 A 
ATOM     89  C   UNL A   1      46.425  28.276  35.348  1.00  0.00     0.041 A 
ATOM     90  F   UNL A   1      45.445  29.825  33.888  1.00  0.00    -0.206 F 
ATOM     91  C   UNL A   1      46.324  27.154  36.165  1.00  0.00     0.022 A 
BRANCH  88  92
ATOM     92  S   UNL A   1      44.909  25.085  37.388  1.00  0.00     0.124 S 
ATOM     93  O   UNL A   1      43.857  25.587  38.265  1.00  0.00    -0.237 OA
ATOM     94  O   UNL A   1      44.534  23.981  36.509  1.00  0.00    -0.237 OA
ATOM     95  O   UNL A   1      46.227  24.962  38.008  1.00  0.00    -0.744 OA
ENDBRANCH  88  92
ENDBRANCH  62  85
ENDBRANCH  36  37
ENDBRANCH  29  31
ENDBRANCH  28  29
ENDBRANCH  27  28
ENDBRANCH  26  27
ENDBRANCH  25  26
ENDBRANCH   1  25
TORSDOF 21
ENDMDL
MODEL 3
REMARK VINA RESULT:     -10.4      1.858      7.759
REMARK SMILES C[C@H]1[C@H](C(=O)OCCOCCOC(=O)c2ccc(-c3c4nc(c(-c5cc(S(=O)(=O)[O-])ccc5F)c5ccc([nH]5)c(-c5cc(S(=O)(=O)[O-])ccc5F)c5nc(c(-c6cc(S(=O)(=O)[O-])ccc6F)c6ccc3[nH]6)C=C5)C=C4)cc2)CCN1C(=O)[C@H]1CC[C@@H](C[NH3+])CC1
REMARK SMILES IDX 8 1 7 2 6 3 4 4 5 5 3 6 1 7 2 8 80 9 78 10 79 11 81 12 82 13
REMARK SMILES IDX 83 14 90 15 84 16 89 17 85 18 86 19 87 20 88 21 9 25 10 26
REMARK SMILES IDX 11 27 12 28 13 29 14 30 15 31 16 32 77 33 17 34 76 35 18 36
REMARK SMILES IDX 19 37 20 38 70 39 21 40 75 41 69 42 71 43 22 44 74 45 68 46
REMARK SMILES IDX 67 47 23 49 55 50 35 51 54 52 36 53 39 54 53 55 72 56 37 57
REMARK SMILES IDX 38 58 52 60 73 61 40 62 24 63 25 64 33 65 26 66 32 67 34 68
REMARK SMILES IDX 31 69 27 70 28 71 29 72 30 73 56 74 57 75 65 76 58 77 64 78
REMARK SMILES IDX 66 79 63 80 59 81 60 82 61 83 62 84 41 85 42 86 50 87 43 88
REMARK SMILES IDX 49 89 51 90 48 91 44 92 45 93 46 94 47 95
REMARK H PARENT 88 22 88 23 88 24 71 48 39 59
REMARK Flexibility Score: inf
ROOT
ATOM      1  C   UNL A   1      32.787  30.154  26.147  1.00  0.00     0.202 C 
ENDROOT
BRANCH   1   2
ATOM      2  C   UNL A   1      31.788  29.770  25.050  1.00  0.00     0.261 C 
BRANCH   2   3
ATOM      3  O   UNL A   1      31.804  28.373  24.703  1.00  0.00    -0.463 OA
BRANCH   3   4
ATOM      4  C   UNL A   1      32.067  28.106  23.397  1.00  0.00     0.311 C 
ATOM      5  O   UNL A   1      32.663  28.858  22.632  1.00  0.00    -0.252 OA
BRANCH   4   6
ATOM      6  C   UNL A   1      31.499  26.794  22.918  1.00  0.00     0.123 C 
ATOM      7  C   UNL A   1      32.608  25.599  21.057  1.00  0.00     0.032 C 
ATOM      8  C   UNL A   1      32.484  25.641  22.586  1.00  0.00     0.096 C 
ATOM      9  N   UNL A   1      31.835  24.429  23.144  1.00  0.00    -0.339 N 
ATOM     10  C   UNL A   1      30.543  26.218  23.948  1.00  0.00     0.039 C 
ATOM     11  C   UNL A   1      30.475  24.761  23.554  1.00  0.00     0.121 C 
BRANCH   9  12
ATOM     12  C   UNL A   1      32.266  23.146  23.408  1.00  0.00     0.225 C 
ATOM     13  O   UNL A   1      31.974  22.241  22.608  1.00  0.00    -0.275 OA
BRANCH  12  14
ATOM     14  C   UNL A   1      33.130  22.729  24.604  1.00  0.00     0.078 C 
ATOM     15  C   UNL A   1      34.172  21.667  24.255  1.00  0.00     0.014 C 
ATOM     16  C   UNL A   1      33.661  23.839  25.511  1.00  0.00     0.014 C 
ATOM     17  C   UNL A   1      34.900  21.135  25.488  1.00  0.00     0.010 C 
ATOM     18  C   UNL A   1      34.360  23.234  26.740  1.00  0.00     0.010 C 
ATOM     19  C   UNL A   1      35.487  22.258  26.360  1.00  0.00     0.044 C 
BRANCH  19  20
ATOM     20  C   UNL A   1      36.684  22.940  25.663  1.00  0.00     0.262 C 
BRANCH  20  21
ATOM     21  N   UNL A   1      37.586  23.566  26.618  1.00  0.00    -0.357 N 
ATOM     22  H   UNL A   1      37.770  22.921  27.385  1.00  0.00     0.344 HD
ATOM     23  H   UNL A   1      37.157  24.416  26.983  1.00  0.00     0.344 HD
ATOM     24  H   UNL A   1      38.462  23.801  26.153  1.00  0.00     0.344 HD
ENDBRANCH  20  21
ENDBRANCH  19  20
ENDBRANCH  12  14
ENDBRANCH   9  12
ENDBRANCH   4   6
ENDBRANCH   3   4
ENDBRANCH   2   3
ENDBRANCH   1   2
BRANCH   1  25
ATOM     25  O   UNL A   1      32.303  30.935  27.234  1.00  0.00    -0.374 OA
BRANCH  25  26
ATOM     26  C   UNL A   1      31.618  32.148  26.934  1.00  0.00     0.202 C 
BRANCH  26  27
ATOM     27  C   UNL A   1      32.400  33.460  27.054  1.00  0.00     0.261 C 
BRANCH  27  28
ATOM     28  O   UNL A   1      32.382  34.013  28.385  1.00  0.00    -0.460 OA
BRANCH  28  29
ATOM     29  C   UNL A   1      33.499  34.716  28.703  1.00  0.00     0.338 C 
ATOM     30  O   UNL A   1      33.583  35.937  28.792  1.00  0.00    -0.246 OA
BRANCH  29  31
ATOM     31  C   UNL A   1      34.618  33.834  29.081  1.00  0.00     0.060 A 
ATOM     32  C   UNL A   1      34.310  32.679  29.810  1.00  0.00     0.016 A 
ATOM     33  C   UNL A   1      35.950  34.186  28.861  1.00  0.00     0.016 A 
ATOM     34  C   UNL A   1      35.328  31.925  30.386  1.00  0.00     0.010 A 
ATOM     35  C   UNL A   1      36.976  33.432  29.445  1.00  0.00     0.010 A 
ATOM     36  C   UNL A   1      36.666  32.325  30.253  1.00  0.00    -0.014 A 
BRANCH  36  37
ATOM     37  C   UNL A   1      37.697  31.662  31.091  1.00  0.00     0.031 A 
ATOM     38  C   UNL A   1      38.556  30.582  30.487  1.00  0.00     0.074 A 
ATOM     39  C   UNL A   1      37.917  32.074  32.353  1.00  0.00     0.049 A 
ATOM     40  N   UNL A   1      39.582  29.952  30.999  1.00  0.00    -0.248 NA
ATOM     41  C   UNL A   1      38.207  30.155  29.124  1.00  0.00     0.031 C 
ATOM     42  C   UNL A   1      37.157  33.116  33.042  1.00  0.00     0.029 A 
ATOM     43  N   UNL A   1      38.854  31.675  33.272  1.00  0.00    -0.354 N 
ATOM     44  C   UNL A   1      40.012  29.064  30.018  1.00  0.00     0.074 A 
ATOM     45  C   UNL A   1      39.099  29.200  28.903  1.00  0.00     0.031 C 
ATOM     46  C   UNL A   1      37.665  33.280  34.276  1.00  0.00     0.029 A 
ATOM     47  C   UNL A   1      38.773  32.347  34.469  1.00  0.00     0.049 A 
ATOM     48  H   UNL A   1      39.520  30.974  33.092  1.00  0.00     0.167 HD
ATOM     49  C   UNL A   1      41.079  28.226  30.036  1.00  0.00     0.034 A 
ATOM     50  C   UNL A   1      39.511  32.225  35.590  1.00  0.00     0.034 A 
ATOM     51  C   UNL A   1      41.971  28.085  31.163  1.00  0.00     0.049 A 
ATOM     52  C   UNL A   1      40.666  31.254  35.606  1.00  0.00     0.074 A 
ATOM     53  C   UNL A   1      43.092  27.281  31.283  1.00  0.00     0.029 A 
ATOM     54  N   UNL A   1      41.838  28.757  32.372  1.00  0.00    -0.354 N 
ATOM     55  N   UNL A   1      41.088  30.452  34.654  1.00  0.00    -0.248 NA
ATOM     56  C   UNL A   1      41.457  31.191  36.841  1.00  0.00     0.031 C 
ATOM     57  C   UNL A   1      43.595  27.418  32.583  1.00  0.00     0.029 A 
ATOM     58  C   UNL A   1      42.836  28.363  33.252  1.00  0.00     0.049 A 
ATOM     59  H   UNL A   1      41.135  29.417  32.575  1.00  0.00     0.167 HD
ATOM     60  C   UNL A   1      42.213  29.812  35.169  1.00  0.00     0.074 A 
ATOM     61  C   UNL A   1      42.412  30.336  36.505  1.00  0.00     0.031 C 
ATOM     62  C   UNL A   1      43.013  28.880  34.589  1.00  0.00     0.034 A 
BRANCH  49  63
ATOM     63  C   UNL A   1      41.308  27.369  28.813  1.00  0.00     0.023 A 
ATOM     64  C   UNL A   1      42.318  27.668  27.881  1.00  0.00     0.031 A 
ATOM     65  C   UNL A   1      40.486  26.257  28.558  1.00  0.00     0.131 A 
ATOM     66  C   UNL A   1      42.435  26.908  26.706  1.00  0.00     0.055 A 
ATOM     67  C   UNL A   1      40.657  25.459  27.424  1.00  0.00     0.041 A 
ATOM     68  F   UNL A   1      39.492  25.934  29.400  1.00  0.00    -0.206 F 
ATOM     69  C   UNL A   1      41.627  25.792  26.483  1.00  0.00     0.022 A 
BRANCH  66  70
ATOM     70  S   UNL A   1      43.567  27.483  25.410  1.00  0.00     0.124 S 
ATOM     71  O   UNL A   1      42.633  27.919  24.375  1.00  0.00    -0.237 OA
ATOM     72  O   UNL A   1      44.311  28.540  26.086  1.00  0.00    -0.237 OA
ATOM     73  O   UNL A   1      44.342  26.289  25.076  1.00  0.00    -0.744 OA
ENDBRANCH  66  70
ENDBRANCH  49  63
BRANCH  50  74
ATOM     74  C   UNL A   1      39.182  33.032  36.798  1.00  0.00     0.023 A 
ATOM     75  C   UNL A   1      39.800  34.269  37.040  1.00  0.00     0.031 A 
ATOM     76  C   UNL A   1      38.272  32.549  37.756  1.00  0.00     0.131 A 
ATOM     77  C   UNL A   1      39.536  34.960  38.233  1.00  0.00     0.055 A 
ATOM     78  C   UNL A   1      37.977  33.262  38.918  1.00  0.00     0.041 A 
ATOM     79  F   UNL A   1      37.651  31.374  37.569  1.00  0.00    -0.206 F 
ATOM     80  C   UNL A   1      38.621  34.470  39.168  1.00  0.00     0.022 A 
BRANCH  77  81
ATOM     81  S   UNL A   1      40.465  36.478  38.583  1.00  0.00     0.124 S 
ATOM     82  O   UNL A   1      41.382  36.533  37.449  1.00  0.00    -0.237 OA
ATOM     83  O   UNL A   1      39.406  37.481  38.602  1.00  0.00    -0.237 OA
ATOM     84  O   UNL A   1      41.086  36.206  39.877  1.00  0.00    -0.744 OA
ENDBRANCH  77  81
ENDBRANCH  50  74
BRANCH  62  85
ATOM     85  C   UNL A   1      44.199  28.404  35.393  1.00  0.00     0.023 A 
ATOM     86  C   UNL A   1      44.086  27.368  36.338  1.00  0.00     0.031 A 
ATOM     87  C   UNL A   1      45.454  29.017  35.234  1.00  0.00     0.131 A 
ATOM     88  C   UNL A   1      45.187  27.025  37.136  1.00  0.00     0.055 A 
ATOM     89  C   UNL A   1      46.565  28.628  35.987  1.00  0.00     0.041 A 
ATOM     90  F   UNL A   1      45.622  30.011  34.347  1.00  0.00    -0.206 F 
ATOM     91  C   UNL A   1      46.431  27.638  36.956  1.00  0.00     0.022 A 
BRANCH  88  92
ATOM     92  S   UNL A   1      44.947  25.843  38.491  1.00  0.00     0.124 S 
ATOM     93  O   UNL A   1      44.236  24.757  37.826  1.00  0.00    -0.237 OA
ATOM     94  O   UNL A   1      46.318  25.553  38.898  1.00  0.00    -0.237 OA
ATOM     95  O   UNL A   1      44.158  26.595  39.467  1.00  0.00    -0.744 OA
ENDBRANCH  88  92
ENDBRANCH  62  85
ENDBRANCH  36  37
ENDBRANCH  29  31
ENDBRANCH  28  29
ENDBRANCH  27  28
ENDBRANCH  26  27
ENDBRANCH  25  26
ENDBRANCH   1  25
TORSDOF 21
ENDMDL
