MODEL 1
REMARK VINA RESULT:     -11.7      0.000      0.000
REMARK SMILES Cc1nc(C)c(C(=O)N2CCC([C@H](C)C(=O)OCCOCCOC(=O)c3ccc(-c4c5nc(c(-c6cc(S(=O)(=O)[O-])ccc6F)c6ccc([nH]6)c(-c6cc(S(=O)(=O)[O-])ccc6F)c6nc(c(-c7cc(S(=O)(=O)[O-])ccc7F)c7ccc4[nH]7)C=C6)C=C5)cc3)CC2)s1
REMARK SMILES IDX 21 1 20 2 19 3 18 4 17 5 15 6 16 7 13 8 14 9 12 10 7 11 8 12
REMARK SMILES IDX 9 13 10 14 90 15 11 16 89 17 6 18 1 19 2 20 3 21 91 22 4 23
REMARK SMILES IDX 5 24 22 25 23 26 24 27 25 28 26 29 27 30 88 31 28 32 87 33
REMARK SMILES IDX 29 34 30 35 31 36 81 37 32 38 86 39 80 40 82 41 33 42 85 43
REMARK SMILES IDX 79 44 78 45 34 47 66 48 46 49 65 50 47 51 50 52 64 53 83 54
REMARK SMILES IDX 48 55 49 56 63 58 84 59 51 60 35 61 36 62 44 63 37 64 43 65
REMARK SMILES IDX 45 66 42 67 38 68 39 69 40 70 41 71 67 72 68 73 76 74 69 75
REMARK SMILES IDX 75 76 77 77 74 78 70 79 71 80 72 81 73 82 52 83 53 84 61 85
REMARK SMILES IDX 54 86 60 87 62 88 59 89 55 90 56 91 57 92 58 93
REMARK H PARENT 82 46 50 57
REMARK Flexibility Score: inf
ROOT
ATOM      1  C   UNL A   1      36.524  23.051  23.747  1.00  0.00     0.202 C 
ENDROOT
BRANCH   1   2
ATOM      2  O   UNL A   1      35.552  22.938  22.711  1.00  0.00    -0.374 OA
BRANCH   2   3
ATOM      3  C   UNL A   1      34.202  23.270  23.035  1.00  0.00     0.202 C 
BRANCH   3   4
ATOM      4  C   UNL A   1      33.295  22.107  23.443  1.00  0.00     0.261 C 
BRANCH   4   5
ATOM      5  O   UNL A   1      33.510  21.706  24.808  1.00  0.00    -0.463 OA
BRANCH   5   6
ATOM      6  C   UNL A   1      32.430  21.763  25.633  1.00  0.00     0.309 C 
ATOM      7  O   UNL A   1      31.347  21.230  25.428  1.00  0.00    -0.252 OA
BRANCH   6   8
ATOM      8  C   UNL A   1      32.696  22.643  26.847  1.00  0.00     0.099 C 
ATOM      9  C   UNL A   1      33.957  22.197  27.599  1.00  0.00     0.020 C 
BRANCH   8  10
ATOM     10  C   UNL A   1      32.559  24.163  26.534  1.00  0.00     0.006 C 
ATOM     11  C   UNL A   1      32.692  27.638  24.049  1.00  0.00     0.265 C 
ATOM     12  O   UNL A   1      33.791  27.803  23.518  1.00  0.00    -0.268 OA
ATOM     13  N   UNL A   1      32.532  26.669  25.046  1.00  0.00    -0.338 N 
ATOM     14  C   UNL A   1      33.679  26.334  25.871  1.00  0.00     0.120 C 
ATOM     15  C   UNL A   1      31.264  26.041  25.404  1.00  0.00     0.120 C 
ATOM     16  C   UNL A   1      33.855  24.831  26.046  1.00  0.00     0.026 C 
ATOM     17  C   UNL A   1      31.416  24.528  25.561  1.00  0.00     0.026 C 
BRANCH  11  18
ATOM     18  C   UNL A   1      31.563  28.488  23.716  1.00  0.00     0.115 A 
ATOM     19  C   UNL A   1      28.229  29.638  22.089  1.00  0.00     0.079 C 
ATOM     20  C   UNL A   1      29.477  29.383  22.854  1.00  0.00     0.091 A 
ATOM     21  N   UNL A   1      29.883  30.107  23.871  1.00  0.00    -0.246 NA
ATOM     22  S   UNL A   1      30.468  28.046  22.464  1.00  0.00    -0.113 S 
ATOM     23  C   UNL A   1      31.061  29.585  24.399  1.00  0.00     0.061 A 
ATOM     24  C   UNL A   1      31.618  30.229  25.620  1.00  0.00     0.068 C 
ENDBRANCH  11  18
ENDBRANCH   8  10
ENDBRANCH   6   8
ENDBRANCH   5   6
ENDBRANCH   4   5
ENDBRANCH   3   4
ENDBRANCH   2   3
ENDBRANCH   1   2
BRANCH   1  25
ATOM     25  C   UNL A   1      37.177  21.754  24.239  1.00  0.00     0.261 C 
BRANCH  25  26
ATOM     26  O   UNL A   1      37.432  21.759  25.656  1.00  0.00    -0.460 OA
BRANCH  26  27
ATOM     27  C   UNL A   1      38.716  21.487  25.993  1.00  0.00     0.338 C 
ATOM     28  O   UNL A   1      39.355  20.489  25.686  1.00  0.00    -0.246 OA
BRANCH  27  29
ATOM     29  C   UNL A   1      39.345  22.645  26.655  1.00  0.00     0.060 A 
ATOM     30  C   UNL A   1      38.750  23.897  26.456  1.00  0.00     0.016 A 
ATOM     31  C   UNL A   1      40.549  22.536  27.355  1.00  0.00     0.016 A 
ATOM     32  C   UNL A   1      39.388  25.053  26.899  1.00  0.00     0.010 A 
ATOM     33  C   UNL A   1      41.192  23.700  27.795  1.00  0.00     0.010 A 
ATOM     34  C   UNL A   1      40.635  24.966  27.530  1.00  0.00    -0.014 A 
BRANCH  34  35
ATOM     35  C   UNL A   1      41.422  26.206  27.748  1.00  0.00     0.031 A 
ATOM     36  C   UNL A   1      40.797  27.338  28.519  1.00  0.00     0.074 A 
ATOM     37  C   UNL A   1      42.690  26.306  27.311  1.00  0.00     0.049 A 
ATOM     38  N   UNL A   1      41.291  28.509  28.827  1.00  0.00    -0.248 NA
ATOM     39  C   UNL A   1      39.427  27.114  29.003  1.00  0.00     0.031 C 
ATOM     40  C   UNL A   1      43.414  25.266  26.584  1.00  0.00     0.029 A 
ATOM     41  N   UNL A   1      43.589  27.338  27.410  1.00  0.00    -0.354 N 
ATOM     42  C   UNL A   1      40.294  29.164  29.544  1.00  0.00     0.074 A 
ATOM     43  C   UNL A   1      39.153  28.273  29.581  1.00  0.00     0.031 C 
ATOM     44  C   UNL A   1      44.643  25.719  26.286  1.00  0.00     0.029 A 
ATOM     45  C   UNL A   1      44.781  27.091  26.772  1.00  0.00     0.049 A 
ATOM     46  H   UNL A   1      43.399  28.175  27.892  1.00  0.00     0.167 HD
ATOM     47  C   UNL A   1      40.332  30.388  30.129  1.00  0.00     0.034 A 
ATOM     48  C   UNL A   1      45.850  27.890  26.578  1.00  0.00     0.034 A 
ATOM     49  C   UNL A   1      41.469  31.274  30.064  1.00  0.00     0.049 A 
ATOM     50  C   UNL A   1      45.844  29.280  27.164  1.00  0.00     0.074 A 
ATOM     51  C   UNL A   1      41.623  32.528  30.630  1.00  0.00     0.029 A 
ATOM     52  N   UNL A   1      42.648  31.006  29.376  1.00  0.00    -0.354 N 
ATOM     53  N   UNL A   1      44.904  29.881  27.858  1.00  0.00    -0.248 NA
ATOM     54  C   UNL A   1      47.048  30.095  26.952  1.00  0.00     0.031 C 
ATOM     55  C   UNL A   1      42.859  33.046  30.225  1.00  0.00     0.029 A 
ATOM     56  C   UNL A   1      43.514  32.085  29.470  1.00  0.00     0.049 A 
ATOM     57  H   UNL A   1      42.838  30.171  28.890  1.00  0.00     0.167 HD
ATOM     58  C   UNL A   1      45.414  31.136  28.183  1.00  0.00     0.074 A 
ATOM     59  C   UNL A   1      46.748  31.198  27.621  1.00  0.00     0.031 C 
ATOM     60  C   UNL A   1      44.834  32.144  28.885  1.00  0.00     0.034 A 
BRANCH  47  61
ATOM     61  C   UNL A   1      39.079  30.850  30.836  1.00  0.00     0.023 A 
ATOM     62  C   UNL A   1      38.034  31.493  30.147  1.00  0.00     0.031 A 
ATOM     63  C   UNL A   1      38.949  30.698  32.228  1.00  0.00     0.131 A 
ATOM     64  C   UNL A   1      36.954  32.037  30.859  1.00  0.00     0.055 A 
ATOM     65  C   UNL A   1      37.831  31.166  32.920  1.00  0.00     0.041 A 
ATOM     66  F   UNL A   1      39.922  30.112  32.945  1.00  0.00    -0.206 F 
ATOM     67  C   UNL A   1      36.833  31.857  32.238  1.00  0.00     0.022 A 
BRANCH  64  68
ATOM     68  S   UNL A   1      35.797  33.125  29.981  1.00  0.00     0.124 S 
ATOM     69  O   UNL A   1      34.626  32.263  29.844  1.00  0.00    -0.237 OA
ATOM     70  O   UNL A   1      35.662  34.248  30.901  1.00  0.00    -0.237 OA
ATOM     71  O   UNL A   1      36.491  33.423  28.729  1.00  0.00    -0.744 OA
ENDBRANCH  64  68
ENDBRANCH  47  61
BRANCH  48  72
ATOM     72  C   UNL A   1      46.993  27.415  25.748  1.00  0.00     0.023 A 
ATOM     73  C   UNL A   1      47.143  27.808  24.410  1.00  0.00     0.031 A 
ATOM     74  C   UNL A   1      47.942  26.527  26.288  1.00  0.00     0.131 A 
ATOM     75  C   UNL A   1      48.201  27.290  23.646  1.00  0.00     0.055 A 
ATOM     76  C   UNL A   1      49.018  26.052  25.537  1.00  0.00     0.041 A 
ATOM     77  F   UNL A   1      47.844  26.123  27.564  1.00  0.00    -0.206 F 
ATOM     78  C   UNL A   1      49.146  26.426  24.203  1.00  0.00     0.022 A 
BRANCH  75  79
ATOM     79  S   UNL A   1      48.292  27.717  21.885  1.00  0.00     0.124 S 
ATOM     80  O   UNL A   1      49.440  28.618  21.856  1.00  0.00    -0.237 OA
ATOM     81  O   UNL A   1      48.486  26.410  21.266  1.00  0.00    -0.237 OA
ATOM     82  O   UNL A   1      46.999  28.345  21.618  1.00  0.00    -0.744 OA
ENDBRANCH  75  79
ENDBRANCH  48  72
BRANCH  60  83
ATOM     83  C   UNL A   1      45.661  33.386  29.114  1.00  0.00     0.023 A 
ATOM     84  C   UNL A   1      45.724  34.421  28.163  1.00  0.00     0.031 A 
ATOM     85  C   UNL A   1      46.405  33.532  30.299  1.00  0.00     0.131 A 
ATOM     86  C   UNL A   1      46.552  35.532  28.391  1.00  0.00     0.055 A 
ATOM     87  C   UNL A   1      47.182  34.665  30.545  1.00  0.00     0.041 A 
ATOM     88  F   UNL A   1      46.385  32.575  31.240  1.00  0.00    -0.206 F 
ATOM     89  C   UNL A   1      47.269  35.667  29.583  1.00  0.00     0.022 A 
BRANCH  86  90
ATOM     90  S   UNL A   1      46.749  36.761  27.072  1.00  0.00     0.124 S 
ATOM     91  O   UNL A   1      48.137  37.175  27.248  1.00  0.00    -0.237 OA
ATOM     92  O   UNL A   1      46.463  35.981  25.872  1.00  0.00    -0.237 OA
ATOM     93  O   UNL A   1      45.752  37.778  27.400  1.00  0.00    -0.744 OA
ENDBRANCH  86  90
ENDBRANCH  60  83
ENDBRANCH  34  35
ENDBRANCH  27  29
ENDBRANCH  26  27
ENDBRANCH  25  26
ENDBRANCH   1  25
TORSDOF 19
ENDMDL
MODEL 2
REMARK VINA RESULT:     -11.2      4.599      7.065
REMARK SMILES Cc1nc(C)c(C(=O)N2CCC([C@H](C)C(=O)OCCOCCOC(=O)c3ccc(-c4c5nc(c(-c6cc(S(=O)(=O)[O-])ccc6F)c6ccc([nH]6)c(-c6cc(S(=O)(=O)[O-])ccc6F)c6nc(c(-c7cc(S(=O)(=O)[O-])ccc7F)c7ccc4[nH]7)C=C6)C=C5)cc3)CC2)s1
REMARK SMILES IDX 21 1 20 2 19 3 18 4 17 5 15 6 16 7 13 8 14 9 12 10 7 11 8 12
REMARK SMILES IDX 9 13 10 14 90 15 11 16 89 17 6 18 1 19 2 20 3 21 91 22 4 23
REMARK SMILES IDX 5 24 22 25 23 26 24 27 25 28 26 29 27 30 88 31 28 32 87 33
REMARK SMILES IDX 29 34 30 35 31 36 81 37 32 38 86 39 80 40 82 41 33 42 85 43
REMARK SMILES IDX 79 44 78 45 34 47 66 48 46 49 65 50 47 51 50 52 64 53 83 54
REMARK SMILES IDX 48 55 49 56 63 58 84 59 51 60 35 61 36 62 44 63 37 64 43 65
REMARK SMILES IDX 45 66 42 67 38 68 39 69 40 70 41 71 67 72 68 73 76 74 69 75
REMARK SMILES IDX 75 76 77 77 74 78 70 79 71 80 72 81 73 82 52 83 53 84 61 85
REMARK SMILES IDX 54 86 60 87 62 88 59 89 55 90 56 91 57 92 58 93
REMARK H PARENT 82 46 50 57
REMARK Flexibility Score: inf
ROOT
ATOM      1  C   UNL A   1      43.028  20.105  25.827  1.00  0.00     0.202 C 
ENDROOT
BRANCH   1   2
ATOM      2  O   UNL A   1      41.683  19.897  25.402  1.00  0.00    -0.374 OA
BRANCH   2   3
ATOM      3  C   UNL A   1      40.644  20.204  26.331  1.00  0.00     0.202 C 
BRANCH   3   4
ATOM      4  C   UNL A   1      39.796  21.439  26.019  1.00  0.00     0.261 C 
BRANCH   4   5
ATOM      5  O   UNL A   1      38.388  21.176  26.153  1.00  0.00    -0.463 OA
BRANCH   5   6
ATOM      6  C   UNL A   1      37.578  21.720  25.205  1.00  0.00     0.309 C 
ATOM      7  O   UNL A   1      37.508  21.362  24.036  1.00  0.00    -0.252 OA
BRANCH   6   8
ATOM      8  C   UNL A   1      36.788  22.903  25.751  1.00  0.00     0.099 C 
ATOM      9  C   UNL A   1      37.716  23.992  26.304  1.00  0.00     0.020 C 
BRANCH   8  10
ATOM     10  C   UNL A   1      35.650  23.363  24.792  1.00  0.00     0.006 C 
ATOM     11  C   UNL A   1      31.636  24.401  23.753  1.00  0.00     0.265 C 
ATOM     12  O   UNL A   1      30.832  23.500  23.997  1.00  0.00    -0.268 OA
ATOM     13  N   UNL A   1      33.011  24.158  23.843  1.00  0.00    -0.338 N 
ATOM     14  C   UNL A   1      33.491  22.810  23.593  1.00  0.00     0.120 C 
ATOM     15  C   UNL A   1      34.028  25.183  24.059  1.00  0.00     0.120 C 
ATOM     16  C   UNL A   1      34.506  22.348  24.630  1.00  0.00     0.026 C 
ATOM     17  C   UNL A   1      35.043  24.746  25.114  1.00  0.00     0.026 C 
BRANCH  11  18
ATOM     18  C   UNL A   1      31.186  25.703  23.293  1.00  0.00     0.115 A 
ATOM     19  C   UNL A   1      29.898  29.364  23.428  1.00  0.00     0.079 C 
ATOM     20  C   UNL A   1      30.440  28.008  23.151  1.00  0.00     0.091 A 
ATOM     21  N   UNL A   1      30.932  27.630  21.994  1.00  0.00    -0.246 NA
ATOM     22  S   UNL A   1      30.497  26.834  24.392  1.00  0.00    -0.113 S 
ATOM     23  C   UNL A   1      31.397  26.320  22.070  1.00  0.00     0.061 A 
ATOM     24  C   UNL A   1      32.074  25.755  20.871  1.00  0.00     0.068 C 
ENDBRANCH  11  18
ENDBRANCH   8  10
ENDBRANCH   6   8
ENDBRANCH   5   6
ENDBRANCH   4   5
ENDBRANCH   3   4
ENDBRANCH   2   3
ENDBRANCH   1   2
BRANCH   1  25
ATOM     25  C   UNL A   1      43.712  21.402  25.376  1.00  0.00     0.261 C 
BRANCH  25  26
ATOM     26  O   UNL A   1      42.783  22.484  25.181  1.00  0.00    -0.460 OA
BRANCH  26  27
ATOM     27  C   UNL A   1      43.358  23.711  25.138  1.00  0.00     0.338 C 
ATOM     28  O   UNL A   1      44.256  24.070  24.386  1.00  0.00    -0.246 OA
BRANCH  27  29
ATOM     29  C   UNL A   1      42.647  24.659  26.015  1.00  0.00     0.060 A 
ATOM     30  C   UNL A   1      43.131  25.973  26.064  1.00  0.00     0.016 A 
ATOM     31  C   UNL A   1      41.609  24.254  26.858  1.00  0.00     0.016 A 
ATOM     32  C   UNL A   1      42.625  26.870  27.001  1.00  0.00     0.010 A 
ATOM     33  C   UNL A   1      41.106  25.157  27.804  1.00  0.00     0.010 A 
ATOM     34  C   UNL A   1      41.641  26.455  27.908  1.00  0.00    -0.014 A 
BRANCH  34  35
ATOM     35  C   UNL A   1      41.312  27.326  29.064  1.00  0.00     0.031 A 
ATOM     36  C   UNL A   1      40.062  28.164  29.010  1.00  0.00     0.074 A 
ATOM     37  C   UNL A   1      42.084  27.335  30.164  1.00  0.00     0.049 A 
ATOM     38  N   UNL A   1      39.578  28.996  29.895  1.00  0.00    -0.248 NA
ATOM     39  C   UNL A   1      39.254  28.045  27.788  1.00  0.00     0.031 C 
ATOM     40  C   UNL A   1      43.297  26.542  30.348  1.00  0.00     0.029 A 
ATOM     41  N   UNL A   1      41.962  28.043  31.334  1.00  0.00    -0.354 N 
ATOM     42  C   UNL A   1      38.406  29.501  29.340  1.00  0.00     0.074 A 
ATOM     43  C   UNL A   1      38.282  28.914  28.022  1.00  0.00     0.031 C 
ATOM     44  C   UNL A   1      43.821  26.822  31.554  1.00  0.00     0.029 A 
ATOM     45  C   UNL A   1      42.998  27.835  32.212  1.00  0.00     0.049 A 
ATOM     46  H   UNL A   1      41.206  28.644  31.525  1.00  0.00     0.167 HD
ATOM     47  C   UNL A   1      37.510  30.363  29.883  1.00  0.00     0.034 A 
ATOM     48  C   UNL A   1      43.267  28.416  33.400  1.00  0.00     0.034 A 
ATOM     49  C   UNL A   1      37.659  30.957  31.190  1.00  0.00     0.049 A 
ATOM     50  C   UNL A   1      42.303  29.435  33.954  1.00  0.00     0.074 A 
ATOM     51  C   UNL A   1      36.808  31.831  31.845  1.00  0.00     0.029 A 
ATOM     52  N   UNL A   1      38.742  30.753  32.038  1.00  0.00    -0.354 N 
ATOM     53  N   UNL A   1      41.188  29.890  33.429  1.00  0.00    -0.248 NA
ATOM     54  C   UNL A   1      42.627  30.010  35.266  1.00  0.00     0.031 C 
ATOM     55  C   UNL A   1      37.409  32.209  33.052  1.00  0.00     0.029 A 
ATOM     56  C   UNL A   1      38.599  31.512  33.190  1.00  0.00     0.049 A 
ATOM     57  H   UNL A   1      39.502  30.156  31.846  1.00  0.00     0.167 HD
ATOM     58  C   UNL A   1      40.667  30.788  34.358  1.00  0.00     0.074 A 
ATOM     59  C   UNL A   1      41.584  30.798  35.481  1.00  0.00     0.031 C 
ATOM     60  C   UNL A   1      39.533  31.532  34.293  1.00  0.00     0.034 A 
BRANCH  47  61
ATOM     61  C   UNL A   1      36.325  30.749  29.029  1.00  0.00     0.023 A 
ATOM     62  C   UNL A   1      35.397  29.794  28.576  1.00  0.00     0.031 A 
ATOM     63  C   UNL A   1      36.150  32.081  28.613  1.00  0.00     0.131 A 
ATOM     64  C   UNL A   1      34.394  30.166  27.667  1.00  0.00     0.055 A 
ATOM     65  C   UNL A   1      35.100  32.461  27.775  1.00  0.00     0.041 A 
ATOM     66  F   UNL A   1      37.016  33.034  28.994  1.00  0.00    -0.206 F 
ATOM     67  C   UNL A   1      34.225  31.498  27.282  1.00  0.00     0.022 A 
BRANCH  64  68
ATOM     68  S   UNL A   1      33.423  28.860  26.866  1.00  0.00     0.124 S 
ATOM     69  O   UNL A   1      34.411  27.791  26.740  1.00  0.00    -0.237 OA
ATOM     70  O   UNL A   1      32.350  28.630  27.826  1.00  0.00    -0.237 OA
ATOM     71  O   UNL A   1      33.010  29.466  25.601  1.00  0.00    -0.744 OA
ENDBRANCH  64  68
ENDBRANCH  47  61
BRANCH  48  72
ATOM     72  C   UNL A   1      44.530  28.088  34.119  1.00  0.00     0.023 A 
ATOM     73  C   UNL A   1      45.693  28.855  33.950  1.00  0.00     0.031 A 
ATOM     74  C   UNL A   1      44.593  26.970  34.971  1.00  0.00     0.131 A 
ATOM     75  C   UNL A   1      46.878  28.476  34.601  1.00  0.00     0.055 A 
ATOM     76  C   UNL A   1      45.761  26.625  35.651  1.00  0.00     0.041 A 
ATOM     77  F   UNL A   1      43.507  26.205  35.168  1.00  0.00    -0.206 F 
ATOM     78  C   UNL A   1      46.917  27.375  35.460  1.00  0.00     0.022 A 
BRANCH  75  79
ATOM     79  S   UNL A   1      48.394  29.413  34.261  1.00  0.00     0.124 S 
ATOM     80  O   UNL A   1      47.908  30.446  33.352  1.00  0.00    -0.237 OA
ATOM     81  O   UNL A   1      48.778  29.861  35.595  1.00  0.00    -0.237 OA
ATOM     82  O   UNL A   1      49.282  28.420  33.660  1.00  0.00    -0.744 OA
ENDBRANCH  75  79
ENDBRANCH  48  72
BRANCH  60  83
ATOM     83  C   UNL A   1      39.206  32.393  35.489  1.00  0.00     0.023 A 
ATOM     84  C   UNL A   1      39.680  33.713  35.604  1.00  0.00     0.031 A 
ATOM     85  C   UNL A   1      38.416  31.881  36.534  1.00  0.00     0.131 A 
ATOM     86  C   UNL A   1      39.400  34.458  36.762  1.00  0.00     0.055 A 
ATOM     87  C   UNL A   1      38.094  32.646  37.656  1.00  0.00     0.041 A 
ATOM     88  F   UNL A   1      37.939  30.627  36.478  1.00  0.00    -0.206 F 
ATOM     89  C   UNL A   1      38.597  33.938  37.781  1.00  0.00     0.022 A 
BRANCH  86  90
ATOM     90  S   UNL A   1      40.170  36.088  36.959  1.00  0.00     0.124 S 
ATOM     91  O   UNL A   1      39.440  36.631  38.100  1.00  0.00    -0.237 OA
ATOM     92  O   UNL A   1      41.569  35.746  37.200  1.00  0.00    -0.237 OA
ATOM     93  O   UNL A   1      39.906  36.749  35.683  1.00  0.00    -0.744 OA
ENDBRANCH  86  90
ENDBRANCH  60  83
ENDBRANCH  34  35
ENDBRANCH  27  29
ENDBRANCH  26  27
ENDBRANCH  25  26
ENDBRANCH   1  25
TORSDOF 19
ENDMDL
MODEL 3
REMARK VINA RESULT:     -11.2      1.221      7.530
REMARK SMILES Cc1nc(C)c(C(=O)N2CCC([C@H](C)C(=O)OCCOCCOC(=O)c3ccc(-c4c5nc(c(-c6cc(S(=O)(=O)[O-])ccc6F)c6ccc([nH]6)c(-c6cc(S(=O)(=O)[O-])ccc6F)c6nc(c(-c7cc(S(=O)(=O)[O-])ccc7F)c7ccc4[nH]7)C=C6)C=C5)cc3)CC2)s1
REMARK SMILES IDX 21 1 20 2 19 3 18 4 17 5 15 6 16 7 13 8 14 9 12 10 7 11 8 12
REMARK SMILES IDX 9 13 10 14 90 15 11 16 89 17 6 18 1 19 2 20 3 21 91 22 4 23
REMARK SMILES IDX 5 24 22 25 23 26 24 27 25 28 26 29 27 30 88 31 28 32 87 33
REMARK SMILES IDX 29 34 30 35 31 36 81 37 32 38 86 39 80 40 82 41 33 42 85 43
REMARK SMILES IDX 79 44 78 45 34 47 66 48 46 49 65 50 47 51 50 52 64 53 83 54
REMARK SMILES IDX 48 55 49 56 63 58 84 59 51 60 35 61 36 62 44 63 37 64 43 65
REMARK SMILES IDX 45 66 42 67 38 68 39 69 40 70 41 71 67 72 68 73 76 74 69 75
REMARK SMILES IDX 75 76 77 77 74 78 70 79 71 80 72 81 73 82 52 83 53 84 61 85
REMARK SMILES IDX 54 86 60 87 62 88 59 89 55 90 56 91 57 92 58 93
REMARK H PARENT 82 46 50 57
REMARK Flexibility Score: inf
ROOT
ATOM      1  C   UNL A   1      37.407  20.763  24.631  1.00  0.00     0.202 C 
ENDROOT
BRANCH   1   2
ATOM      2  O   UNL A   1      36.483  21.294  25.576  1.00  0.00    -0.374 OA
BRANCH   2   3
ATOM      3  C   UNL A   1      35.112  21.368  25.186  1.00  0.00     0.202 C 
BRANCH   3   4
ATOM      4  C   UNL A   1      34.083  20.935  26.233  1.00  0.00     0.261 C 
BRANCH   4   5
ATOM      5  O   UNL A   1      32.779  21.483  25.969  1.00  0.00    -0.463 OA
BRANCH   5   6
ATOM      6  C   UNL A   1      32.305  22.380  26.874  1.00  0.00     0.309 C 
ATOM      7  O   UNL A   1      32.761  22.570  27.995  1.00  0.00    -0.252 OA
BRANCH   6   8
ATOM      8  C   UNL A   1      31.068  23.103  26.357  1.00  0.00     0.099 C 
ATOM      9  C   UNL A   1      29.820  22.735  27.169  1.00  0.00     0.020 C 
BRANCH   8  10
ATOM     10  C   UNL A   1      31.320  24.618  26.094  1.00  0.00     0.006 C 
ATOM     11  C   UNL A   1      31.701  28.125  23.680  1.00  0.00     0.265 C 
ATOM     12  O   UNL A   1      32.552  28.007  22.797  1.00  0.00    -0.268 OA
ATOM     13  N   UNL A   1      31.587  27.154  24.681  1.00  0.00    -0.338 N 
ATOM     14  C   UNL A   1      32.777  26.410  25.058  1.00  0.00     0.120 C 
ATOM     15  C   UNL A   1      30.383  26.900  25.466  1.00  0.00     0.120 C 
ATOM     16  C   UNL A   1      32.519  24.914  25.177  1.00  0.00     0.026 C 
ATOM     17  C   UNL A   1      30.095  25.403  25.577  1.00  0.00     0.026 C 
BRANCH  11  18
ATOM     18  C   UNL A   1      30.854  29.302  23.752  1.00  0.00     0.115 A 
ATOM     19  C   UNL A   1      27.833  31.657  23.108  1.00  0.00     0.079 C 
ATOM     20  C   UNL A   1      29.043  30.902  23.530  1.00  0.00     0.091 A 
ATOM     21  N   UNL A   1      29.804  31.234  24.547  1.00  0.00    -0.246 NA
ATOM     22  S   UNL A   1      29.497  29.476  22.707  1.00  0.00    -0.113 S 
ATOM     23  C   UNL A   1      30.828  30.305  24.709  1.00  0.00     0.061 A 
ATOM     24  C   UNL A   1      31.738  30.473  25.875  1.00  0.00     0.068 C 
ENDBRANCH  11  18
ENDBRANCH   8  10
ENDBRANCH   6   8
ENDBRANCH   5   6
ENDBRANCH   4   5
ENDBRANCH   3   4
ENDBRANCH   2   3
ENDBRANCH   1   2
BRANCH   1  25
ATOM     25  C   UNL A   1      38.565  19.920  25.181  1.00  0.00     0.261 C 
BRANCH  25  26
ATOM     26  O   UNL A   1      39.088  20.432  26.420  1.00  0.00    -0.460 OA
BRANCH  26  27
ATOM     27  C   UNL A   1      40.380  20.839  26.354  1.00  0.00     0.338 C 
ATOM     28  O   UNL A   1      41.288  20.287  25.746  1.00  0.00    -0.246 OA
BRANCH  27  29
ATOM     29  C   UNL A   1      40.549  22.163  26.980  1.00  0.00     0.060 A 
ATOM     30  C   UNL A   1      39.926  23.251  26.355  1.00  0.00     0.016 A 
ATOM     31  C   UNL A   1      41.389  22.363  28.078  1.00  0.00     0.016 A 
ATOM     32  C   UNL A   1      40.189  24.550  26.784  1.00  0.00     0.010 A 
ATOM     33  C   UNL A   1      41.658  23.671  28.504  1.00  0.00     0.010 A 
ATOM     34  C   UNL A   1      41.093  24.771  27.831  1.00  0.00    -0.014 A 
BRANCH  34  35
ATOM     35  C   UNL A   1      41.569  26.152  28.094  1.00  0.00     0.031 A 
ATOM     36  C   UNL A   1      42.947  26.547  27.633  1.00  0.00     0.074 A 
ATOM     37  C   UNL A   1      40.771  27.057  28.688  1.00  0.00     0.049 A 
ATOM     38  N   UNL A   1      43.571  27.690  27.754  1.00  0.00    -0.248 NA
ATOM     39  C   UNL A   1      43.723  25.505  26.945  1.00  0.00     0.031 C 
ATOM     40  C   UNL A   1      39.407  26.804  29.145  1.00  0.00     0.029 A 
ATOM     41  N   UNL A   1      40.998  28.371  29.012  1.00  0.00    -0.354 N 
ATOM     42  C   UNL A   1      44.814  27.508  27.157  1.00  0.00     0.074 A 
ATOM     43  C   UNL A   1      44.869  26.129  26.717  1.00  0.00     0.031 C 
ATOM     44  C   UNL A   1      38.923  27.923  29.711  1.00  0.00     0.029 A 
ATOM     45  C   UNL A   1      39.953  28.960  29.682  1.00  0.00     0.049 A 
ATOM     46  H   UNL A   1      41.831  28.846  28.788  1.00  0.00     0.167 HD
ATOM     47  C   UNL A   1      45.812  28.411  26.978  1.00  0.00     0.034 A 
ATOM     48  C   UNL A   1      39.849  30.186  30.234  1.00  0.00     0.034 A 
ATOM     49  C   UNL A   1      45.751  29.776  27.443  1.00  0.00     0.049 A 
ATOM     50  C   UNL A   1      41.001  31.152  30.100  1.00  0.00     0.074 A 
ATOM     51  C   UNL A   1      46.696  30.779  27.305  1.00  0.00     0.029 A 
ATOM     52  N   UNL A   1      44.691  30.328  28.152  1.00  0.00    -0.354 N 
ATOM     53  N   UNL A   1      42.164  30.977  29.514  1.00  0.00    -0.248 NA
ATOM     54  C   UNL A   1      40.821  32.485  30.690  1.00  0.00     0.031 C 
ATOM     55  C   UNL A   1      46.239  31.911  27.992  1.00  0.00     0.029 A 
ATOM     56  C   UNL A   1      44.974  31.643  28.492  1.00  0.00     0.049 A 
ATOM     57  H   UNL A   1      43.859  29.853  28.381  1.00  0.00     0.167 HD
ATOM     58  C   UNL A   1      42.844  32.185  29.648  1.00  0.00     0.074 A 
ATOM     59  C   UNL A   1      41.955  33.084  30.356  1.00  0.00     0.031 C 
ATOM     60  C   UNL A   1      44.088  32.523  29.219  1.00  0.00     0.034 A 
BRANCH  47  61
ATOM     61  C   UNL A   1      47.070  27.918  26.301  1.00  0.00     0.023 A 
ATOM     62  C   UNL A   1      47.305  28.133  24.931  1.00  0.00     0.031 A 
ATOM     63  C   UNL A   1      48.021  27.173  27.020  1.00  0.00     0.131 A 
ATOM     64  C   UNL A   1      48.411  27.536  24.307  1.00  0.00     0.055 A 
ATOM     65  C   UNL A   1      49.164  26.652  26.411  1.00  0.00     0.041 A 
ATOM     66  F   UNL A   1      47.841  26.915  28.325  1.00  0.00    -0.206 F 
ATOM     67  C   UNL A   1      49.355  26.817  25.043  1.00  0.00     0.022 A 
BRANCH  64  68
ATOM     68  S   UNL A   1      48.508  27.571  22.495  1.00  0.00     0.124 S 
ATOM     69  O   UNL A   1      49.751  28.308  22.279  1.00  0.00    -0.237 OA
ATOM     70  O   UNL A   1      48.536  26.153  22.154  1.00  0.00    -0.237 OA
ATOM     71  O   UNL A   1      47.294  28.285  22.101  1.00  0.00    -0.744 OA
ENDBRANCH  64  68
ENDBRANCH  47  61
BRANCH  48  72
ATOM     72  C   UNL A   1      38.631  30.552  31.010  1.00  0.00     0.023 A 
ATOM     73  C   UNL A   1      37.559  31.234  30.417  1.00  0.00     0.031 A 
ATOM     74  C   UNL A   1      38.542  30.241  32.380  1.00  0.00     0.131 A 
ATOM     75  C   UNL A   1      36.455  31.612  31.199  1.00  0.00     0.055 A 
ATOM     76  C   UNL A   1      37.423  30.578  33.142  1.00  0.00     0.041 A 
ATOM     77  F   UNL A   1      39.542  29.587  32.994  1.00  0.00    -0.206 F 
ATOM     78  C   UNL A   1      36.375  31.278  32.553  1.00  0.00     0.022 A 
BRANCH  75  79
ATOM     79  S   UNL A   1      35.145  32.605  30.432  1.00  0.00     0.124 S 
ATOM     80  O   UNL A   1      34.210  32.770  31.540  1.00  0.00    -0.237 OA
ATOM     81  O   UNL A   1      35.872  33.801  30.022  1.00  0.00    -0.237 OA
ATOM     82  O   UNL A   1      34.672  31.759  29.337  1.00  0.00    -0.744 OA
ENDBRANCH  75  79
ENDBRANCH  48  72
BRANCH  60  83
ATOM     83  C   UNL A   1      44.542  33.940  29.477  1.00  0.00     0.023 A 
ATOM     84  C   UNL A   1      44.378  34.956  28.518  1.00  0.00     0.031 A 
ATOM     85  C   UNL A   1      45.155  34.275  30.697  1.00  0.00     0.131 A 
ATOM     86  C   UNL A   1      44.868  36.247  28.777  1.00  0.00     0.055 A 
ATOM     87  C   UNL A   1      45.589  35.573  30.971  1.00  0.00     0.041 A 
ATOM     88  F   UNL A   1      45.339  33.344  31.647  1.00  0.00    -0.206 F 
ATOM     89  C   UNL A   1      45.458  36.565  30.003  1.00  0.00     0.022 A 
BRANCH  86  90
ATOM     90  S   UNL A   1      44.801  37.488  27.456  1.00  0.00     0.124 S 
ATOM     91  O   UNL A   1      44.739  38.734  28.213  1.00  0.00    -0.237 OA
ATOM     92  O   UNL A   1      46.046  37.242  26.733  1.00  0.00    -0.237 OA
ATOM     93  O   UNL A   1      43.583  37.146  26.724  1.00  0.00    -0.744 OA
ENDBRANCH  86  90
ENDBRANCH  60  83
ENDBRANCH  34  35
ENDBRANCH  27  29
ENDBRANCH  26  27
ENDBRANCH  25  26
ENDBRANCH   1  25
TORSDOF 19
ENDMDL
