MODEL 1
REMARK VINA RESULT:      -9.5      0.000      0.000
REMARK SMILES O=C(Cc1cccn(C(F)F)c1=O)OCCOCCOC(=O)c1ccc(-c2c3nc(c(-c4cc(S(=O)(=O)[O-])ccc4F)c4ccc([nH]4)c(-c4cc(S(=O)(=O)[O-])ccc4F)c4nc(c(-c5cc(S(=O)(=O)[O-])ccc5F)c5ccc2[nH]5)C=C4)C=C3)cc1
REMARK SMILES IDX 18 1 17 2 16 3 15 4 14 5 2 6 1 7 3 8 4 9 5 10 12 11 6 12
REMARK SMILES IDX 8 13 13 14 7 15 9 16 10 17 11 18 19 19 20 20 21 21 22 22
REMARK SMILES IDX 23 23 24 24 85 25 25 26 84 27 26 28 27 29 28 30 78 31 29 32
REMARK SMILES IDX 83 33 77 34 79 35 30 36 82 37 76 38 75 39 31 41 63 42 43 43
REMARK SMILES IDX 62 44 44 45 47 46 61 47 80 48 45 49 46 50 60 52 81 53 48 54
REMARK SMILES IDX 32 55 33 56 41 57 34 58 40 59 42 60 39 61 35 62 36 63 37 64
REMARK SMILES IDX 38 65 64 66 65 67 73 68 66 69 72 70 74 71 71 72 67 73 68 74
REMARK SMILES IDX 69 75 70 76 49 77 50 78 58 79 51 80 57 81 59 82 56 83 52 84
REMARK SMILES IDX 53 85 54 86 55 87
REMARK H PARENT 79 40 47 51
REMARK Flexibility Score: inf
ROOT
ATOM      1  C   UNL A   1      34.326  35.327  28.309  1.00  0.00     0.202 C 
ENDROOT
BRANCH   1   2
ATOM      2  O   UNL A   1      33.809  36.242  29.282  1.00  0.00    -0.374 OA
BRANCH   2   3
ATOM      3  C   UNL A   1      32.832  35.742  30.185  1.00  0.00     0.202 C 
BRANCH   3   4
ATOM      4  C   UNL A   1      33.121  35.908  31.671  1.00  0.00     0.261 C 
BRANCH   4   5
ATOM      5  O   UNL A   1      34.415  35.448  32.089  1.00  0.00    -0.463 OA
BRANCH   5   6
ATOM      6  C   UNL A   1      34.774  34.154  32.269  1.00  0.00     0.310 C 
ATOM      7  O   UNL A   1      33.947  33.259  32.086  1.00  0.00    -0.252 OA
BRANCH   6   8
ATOM      8  C   UNL A   1      36.132  33.817  32.872  1.00  0.00     0.164 C 
BRANCH   8   9
ATOM      9  C   UNL A   1      37.391  34.218  32.162  1.00  0.00     0.029 A 
ATOM     10  C   UNL A   1      37.512  34.093  30.828  1.00  0.00     0.011 A 
ATOM     11  C   UNL A   1      38.607  34.602  32.956  1.00  0.00     0.258 A 
ATOM     12  C   UNL A   1      38.781  34.272  30.171  1.00  0.00     0.019 A 
ATOM     13  N   UNL A   1      39.811  34.497  32.285  1.00  0.00    -0.258 N 
ATOM     14  O   UNL A   1      38.514  34.872  34.146  1.00  0.00    -0.269 OA
ATOM     15  C   UNL A   1      39.889  34.404  30.909  1.00  0.00     0.095 A 
BRANCH  13  16
ATOM     16  C   UNL A   1      41.015  34.544  33.076  1.00  0.00     0.451 C 
ATOM     17  F   UNL A   1      41.811  33.491  32.745  1.00  0.00    -0.185 F 
ATOM     18  F   UNL A   1      41.714  35.665  32.775  1.00  0.00    -0.185 F 
ENDBRANCH  13  16
ENDBRANCH   8   9
ENDBRANCH   6   8
ENDBRANCH   5   6
ENDBRANCH   4   5
ENDBRANCH   3   4
ENDBRANCH   2   3
ENDBRANCH   1   2
BRANCH   1  19
ATOM     19  C   UNL A   1      33.761  33.900  28.308  1.00  0.00     0.261 C 
BRANCH  19  20
ATOM     20  O   UNL A   1      34.632  32.983  27.623  1.00  0.00    -0.460 OA
BRANCH  20  21
ATOM     21  C   UNL A   1      34.402  31.666  27.852  1.00  0.00     0.338 C 
ATOM     22  O   UNL A   1      33.373  31.052  27.616  1.00  0.00    -0.246 OA
BRANCH  21  23
ATOM     23  C   UNL A   1      35.683  31.016  28.201  1.00  0.00     0.060 A 
ATOM     24  C   UNL A   1      36.897  31.680  28.025  1.00  0.00     0.016 A 
ATOM     25  C   UNL A   1      35.650  29.717  28.726  1.00  0.00     0.016 A 
ATOM     26  C   UNL A   1      38.080  31.053  28.418  1.00  0.00     0.010 A 
ATOM     27  C   UNL A   1      36.834  29.091  29.117  1.00  0.00     0.010 A 
ATOM     28  C   UNL A   1      38.053  29.769  28.992  1.00  0.00    -0.014 A 
BRANCH  28  29
ATOM     29  C   UNL A   1      39.274  29.235  29.643  1.00  0.00     0.031 A 
ATOM     30  C   UNL A   1      39.745  29.726  30.975  1.00  0.00     0.074 A 
ATOM     31  C   UNL A   1      39.962  28.284  28.981  1.00  0.00     0.049 A 
ATOM     32  N   UNL A   1      40.729  29.276  31.708  1.00  0.00    -0.248 NA
ATOM     33  C   UNL A   1      39.032  30.871  31.558  1.00  0.00     0.031 C 
ATOM     34  C   UNL A   1      39.609  27.782  27.653  1.00  0.00     0.029 A 
ATOM     35  N   UNL A   1      41.080  27.568  29.324  1.00  0.00    -0.354 N 
ATOM     36  C   UNL A   1      40.745  30.062  32.852  1.00  0.00     0.074 A 
ATOM     37  C   UNL A   1      39.704  31.056  32.689  1.00  0.00     0.031 C 
ATOM     38  C   UNL A   1      40.467  26.813  27.309  1.00  0.00     0.029 A 
ATOM     39  C   UNL A   1      41.454  26.648  28.372  1.00  0.00     0.049 A 
ATOM     40  H   UNL A   1      41.567  27.698  30.169  1.00  0.00     0.167 HD
ATOM     41  C   UNL A   1      41.543  29.942  33.939  1.00  0.00     0.034 A 
ATOM     42  C   UNL A   1      42.470  25.761  28.357  1.00  0.00     0.034 A 
ATOM     43  C   UNL A   1      42.583  28.946  34.062  1.00  0.00     0.049 A 
ATOM     44  C   UNL A   1      43.351  25.656  29.573  1.00  0.00     0.074 A 
ATOM     45  C   UNL A   1      43.414  28.710  35.143  1.00  0.00     0.029 A 
ATOM     46  N   UNL A   1      42.943  28.033  33.078  1.00  0.00    -0.354 N 
ATOM     47  N   UNL A   1      43.281  26.327  30.700  1.00  0.00    -0.248 NA
ATOM     48  C   UNL A   1      44.435  24.666  29.535  1.00  0.00     0.031 C 
ATOM     49  C   UNL A   1      44.325  27.716  34.786  1.00  0.00     0.029 A 
ATOM     50  C   UNL A   1      44.007  27.259  33.516  1.00  0.00     0.049 A 
ATOM     51  H   UNL A   1      42.506  27.947  32.200  1.00  0.00     0.167 HD
ATOM     52  C   UNL A   1      44.290  25.823  31.513  1.00  0.00     0.074 A 
ATOM     53  C   UNL A   1      44.942  24.772  30.757  1.00  0.00     0.031 C 
ATOM     54  C   UNL A   1      44.644  26.200  32.767  1.00  0.00     0.034 A 
BRANCH  41  55
ATOM     55  C   UNL A   1      41.334  30.874  35.109  1.00  0.00     0.023 A 
ATOM     56  C   UNL A   1      40.103  30.886  35.793  1.00  0.00     0.031 A 
ATOM     57  C   UNL A   1      42.284  31.858  35.437  1.00  0.00     0.131 A 
ATOM     58  C   UNL A   1      39.837  31.889  36.734  1.00  0.00     0.055 A 
ATOM     59  C   UNL A   1      42.032  32.827  36.409  1.00  0.00     0.041 A 
ATOM     60  F   UNL A   1      43.470  31.896  34.810  1.00  0.00    -0.206 F 
ATOM     61  C   UNL A   1      40.798  32.855  37.051  1.00  0.00     0.022 A 
BRANCH  58  62
ATOM     62  S   UNL A   1      38.209  32.032  37.522  1.00  0.00     0.124 S 
ATOM     63  O   UNL A   1      38.570  32.357  38.900  1.00  0.00    -0.237 OA
ATOM     64  O   UNL A   1      37.597  33.120  36.765  1.00  0.00    -0.237 OA
ATOM     65  O   UNL A   1      37.611  30.715  37.332  1.00  0.00    -0.744 OA
ENDBRANCH  58  62
ENDBRANCH  41  55
BRANCH  42  66
ATOM     66  C   UNL A   1      42.628  24.865  27.174  1.00  0.00     0.023 A 
ATOM     67  C   UNL A   1      42.062  23.576  27.165  1.00  0.00     0.031 A 
ATOM     68  C   UNL A   1      43.454  25.230  26.097  1.00  0.00     0.131 A 
ATOM     69  C   UNL A   1      42.392  22.676  26.145  1.00  0.00     0.055 A 
ATOM     70  C   UNL A   1      43.716  24.355  25.042  1.00  0.00     0.041 A 
ATOM     71  F   UNL A   1      44.033  26.440  26.068  1.00  0.00    -0.206 F 
ATOM     72  C   UNL A   1      43.200  23.064  25.072  1.00  0.00     0.022 A 
BRANCH  69  73
ATOM     73  S   UNL A   1      41.907  20.930  26.255  1.00  0.00     0.124 S 
ATOM     74  O   UNL A   1      42.802  20.304  25.288  1.00  0.00    -0.237 OA
ATOM     75  O   UNL A   1      42.186  20.633  27.658  1.00  0.00    -0.237 OA
ATOM     76  O   UNL A   1      40.494  20.943  25.894  1.00  0.00    -0.744 OA
ENDBRANCH  69  73
ENDBRANCH  42  66
BRANCH  54  77
ATOM     77  C   UNL A   1      45.790  25.483  33.446  1.00  0.00     0.023 A 
ATOM     78  C   UNL A   1      45.526  24.405  34.313  1.00  0.00     0.031 A 
ATOM     79  C   UNL A   1      47.108  25.966  33.371  1.00  0.00     0.131 A 
ATOM     80  C   UNL A   1      46.552  23.884  35.112  1.00  0.00     0.055 A 
ATOM     81  C   UNL A   1      48.139  25.404  34.125  1.00  0.00     0.041 A 
ATOM     82  F   UNL A   1      47.412  27.000  32.568  1.00  0.00    -0.206 F 
ATOM     83  C   UNL A   1      47.858  24.370  35.014  1.00  0.00     0.022 A 
BRANCH  80  84
ATOM     84  S   UNL A   1      46.207  22.631  36.378  1.00  0.00     0.124 S 
ATOM     85  O   UNL A   1      45.165  23.282  37.171  1.00  0.00    -0.237 OA
ATOM     86  O   UNL A   1      45.760  21.498  35.572  1.00  0.00    -0.237 OA
ATOM     87  O   UNL A   1      47.486  22.454  37.057  1.00  0.00    -0.744 OA
ENDBRANCH  80  84
ENDBRANCH  54  77
ENDBRANCH  28  29
ENDBRANCH  21  23
ENDBRANCH  20  21
ENDBRANCH  19  20
ENDBRANCH   1  19
TORSDOF 19
ENDMDL
MODEL 2
REMARK VINA RESULT:      -9.4      4.679     10.617
REMARK SMILES O=C(Cc1cccn(C(F)F)c1=O)OCCOCCOC(=O)c1ccc(-c2c3nc(c(-c4cc(S(=O)(=O)[O-])ccc4F)c4ccc([nH]4)c(-c4cc(S(=O)(=O)[O-])ccc4F)c4nc(c(-c5cc(S(=O)(=O)[O-])ccc5F)c5ccc2[nH]5)C=C4)C=C3)cc1
REMARK SMILES IDX 18 1 17 2 16 3 15 4 14 5 2 6 1 7 3 8 4 9 5 10 12 11 6 12
REMARK SMILES IDX 8 13 13 14 7 15 9 16 10 17 11 18 19 19 20 20 21 21 22 22
REMARK SMILES IDX 23 23 24 24 85 25 25 26 84 27 26 28 27 29 28 30 78 31 29 32
REMARK SMILES IDX 83 33 77 34 79 35 30 36 82 37 76 38 75 39 31 41 63 42 43 43
REMARK SMILES IDX 62 44 44 45 47 46 61 47 80 48 45 49 46 50 60 52 81 53 48 54
REMARK SMILES IDX 32 55 33 56 41 57 34 58 40 59 42 60 39 61 35 62 36 63 37 64
REMARK SMILES IDX 38 65 64 66 65 67 73 68 66 69 72 70 74 71 71 72 67 73 68 74
REMARK SMILES IDX 69 75 70 76 49 77 50 78 58 79 51 80 57 81 59 82 56 83 52 84
REMARK SMILES IDX 53 85 54 86 55 87
REMARK H PARENT 79 40 47 51
REMARK Flexibility Score: inf
ROOT
ATOM      1  C   UNL A   1      42.192  19.560  26.377  1.00  0.00     0.202 C 
ENDROOT
BRANCH   1   2
ATOM      2  O   UNL A   1      42.686  19.237  25.072  1.00  0.00    -0.374 OA
BRANCH   2   3
ATOM      3  C   UNL A   1      44.016  18.741  24.989  1.00  0.00     0.202 C 
BRANCH   3   4
ATOM      4  C   UNL A   1      44.860  19.232  23.820  1.00  0.00     0.261 C 
BRANCH   4   5
ATOM      5  O   UNL A   1      44.968  20.659  23.712  1.00  0.00    -0.463 OA
BRANCH   5   6
ATOM      6  C   UNL A   1      45.613  21.472  24.584  1.00  0.00     0.310 C 
ATOM      7  O   UNL A   1      46.481  21.008  25.325  1.00  0.00    -0.252 OA
BRANCH   6   8
ATOM      8  C   UNL A   1      45.141  22.908  24.779  1.00  0.00     0.164 C 
BRANCH   8   9
ATOM      9  C   UNL A   1      45.369  23.605  26.087  1.00  0.00     0.029 A 
ATOM     10  C   UNL A   1      46.480  24.334  26.306  1.00  0.00     0.011 A 
ATOM     11  C   UNL A   1      44.441  23.356  27.240  1.00  0.00     0.258 A 
ATOM     12  C   UNL A   1      46.805  24.826  27.620  1.00  0.00     0.019 A 
ATOM     13  N   UNL A   1      44.958  23.638  28.491  1.00  0.00    -0.258 N 
ATOM     14  O   UNL A   1      43.350  22.829  27.059  1.00  0.00    -0.269 OA
ATOM     15  C   UNL A   1      46.083  24.419  28.670  1.00  0.00     0.095 A 
BRANCH  13  16
ATOM     16  C   UNL A   1      44.242  23.126  29.632  1.00  0.00     0.451 C 
ATOM     17  F   UNL A   1      43.712  24.166  30.333  1.00  0.00    -0.185 F 
ATOM     18  F   UNL A   1      43.198  22.372  29.213  1.00  0.00    -0.185 F 
ENDBRANCH  13  16
ENDBRANCH   8   9
ENDBRANCH   6   8
ENDBRANCH   5   6
ENDBRANCH   4   5
ENDBRANCH   3   4
ENDBRANCH   2   3
ENDBRANCH   1   2
BRANCH   1  19
ATOM     19  C   UNL A   1      40.684  19.803  26.523  1.00  0.00     0.261 C 
BRANCH  19  20
ATOM     20  O   UNL A   1      40.406  21.059  27.166  1.00  0.00    -0.460 OA
BRANCH  20  21
ATOM     21  C   UNL A   1      39.527  21.870  26.526  1.00  0.00     0.338 C 
ATOM     22  O   UNL A   1      38.579  21.523  25.840  1.00  0.00    -0.246 OA
BRANCH  21  23
ATOM     23  C   UNL A   1      39.736  23.256  26.994  1.00  0.00     0.060 A 
ATOM     24  C   UNL A   1      40.338  23.516  28.226  1.00  0.00     0.016 A 
ATOM     25  C   UNL A   1      39.327  24.309  26.164  1.00  0.00     0.016 A 
ATOM     26  C   UNL A   1      40.567  24.839  28.607  1.00  0.00     0.010 A 
ATOM     27  C   UNL A   1      39.556  25.631  26.548  1.00  0.00     0.010 A 
ATOM     28  C   UNL A   1      40.205  25.902  27.759  1.00  0.00    -0.014 A 
BRANCH  28  29
ATOM     29  C   UNL A   1      40.694  27.270  28.054  1.00  0.00     0.031 A 
ATOM     30  C   UNL A   1      39.802  28.331  28.616  1.00  0.00     0.074 A 
ATOM     31  C   UNL A   1      41.989  27.535  27.786  1.00  0.00     0.049 A 
ATOM     32  N   UNL A   1      40.119  29.531  29.021  1.00  0.00    -0.248 NA
ATOM     33  C   UNL A   1      38.372  28.012  28.731  1.00  0.00     0.031 C 
ATOM     34  C   UNL A   1      42.921  26.579  27.186  1.00  0.00     0.029 A 
ATOM     35  N   UNL A   1      42.745  28.661  27.984  1.00  0.00    -0.354 N 
ATOM     36  C   UNL A   1      38.937  30.111  29.464  1.00  0.00     0.074 A 
ATOM     37  C   UNL A   1      37.885  29.145  29.224  1.00  0.00     0.031 C 
ATOM     38  C   UNL A   1      44.132  27.144  27.102  1.00  0.00     0.029 A 
ATOM     39  C   UNL A   1      44.059  28.513  27.604  1.00  0.00     0.049 A 
ATOM     40  H   UNL A   1      42.383  29.495  28.363  1.00  0.00     0.167 HD
ATOM     41  C   UNL A   1      38.764  31.326  30.035  1.00  0.00     0.034 A 
ATOM     42  C   UNL A   1      45.094  29.375  27.663  1.00  0.00     0.034 A 
ATOM     43  C   UNL A   1      39.836  32.272  30.245  1.00  0.00     0.049 A 
ATOM     44  C   UNL A   1      44.871  30.726  28.291  1.00  0.00     0.074 A 
ATOM     45  C   UNL A   1      39.771  33.510  30.860  1.00  0.00     0.029 A 
ATOM     46  N   UNL A   1      41.154  32.096  29.843  1.00  0.00    -0.354 N 
ATOM     47  N   UNL A   1      43.772  31.217  28.815  1.00  0.00    -0.248 NA
ATOM     48  C   UNL A   1      46.023  31.633  28.360  1.00  0.00     0.031 C 
ATOM     49  C   UNL A   1      41.025  34.115  30.757  1.00  0.00     0.029 A 
ATOM     50  C   UNL A   1      41.901  33.219  30.165  1.00  0.00     0.049 A 
ATOM     51  H   UNL A   1      41.506  31.293  29.397  1.00  0.00     0.167 HD
ATOM     52  C   UNL A   1      44.106  32.478  29.299  1.00  0.00     0.074 A 
ATOM     53  C   UNL A   1      45.516  32.663  29.028  1.00  0.00     0.031 C 
ATOM     54  C   UNL A   1      43.313  33.395  29.908  1.00  0.00     0.034 A 
BRANCH  41  55
ATOM     55  C   UNL A   1      37.385  31.723  30.508  1.00  0.00     0.023 A 
ATOM     56  C   UNL A   1      36.503  32.391  29.637  1.00  0.00     0.031 A 
ATOM     57  C   UNL A   1      37.012  31.593  31.858  1.00  0.00     0.131 A 
ATOM     58  C   UNL A   1      35.315  32.942  30.135  1.00  0.00     0.055 A 
ATOM     59  C   UNL A   1      35.806  32.103  32.339  1.00  0.00     0.041 A 
ATOM     60  F   UNL A   1      37.821  30.973  32.732  1.00  0.00    -0.206 F 
ATOM     61  C   UNL A   1      34.958  32.795  31.479  1.00  0.00     0.022 A 
BRANCH  58  62
ATOM     62  S   UNL A   1      34.227  33.940  29.080  1.00  0.00     0.124 S 
ATOM     63  O   UNL A   1      33.232  34.414  30.039  1.00  0.00    -0.237 OA
ATOM     64  O   UNL A   1      35.143  34.960  28.576  1.00  0.00    -0.237 OA
ATOM     65  O   UNL A   1      33.731  32.991  28.090  1.00  0.00    -0.744 OA
ENDBRANCH  58  62
ENDBRANCH  41  55
BRANCH  42  66
ATOM     66  C   UNL A   1      46.433  28.928  27.180  1.00  0.00     0.023 A 
ATOM     67  C   UNL A   1      46.666  28.702  25.810  1.00  0.00     0.031 A 
ATOM     68  C   UNL A   1      47.453  28.594  28.087  1.00  0.00     0.131 A 
ATOM     69  C   UNL A   1      47.854  28.087  25.396  1.00  0.00     0.055 A 
ATOM     70  C   UNL A   1      48.668  28.055  27.661  1.00  0.00     0.041 A 
ATOM     71  F   UNL A   1      47.273  28.773  29.404  1.00  0.00    -0.206 F 
ATOM     72  C   UNL A   1      48.865  27.780  26.312  1.00  0.00     0.022 A 
BRANCH  69  73
ATOM     73  S   UNL A   1      48.063  27.530  23.682  1.00  0.00     0.124 S 
ATOM     74  O   UNL A   1      47.882  26.087  23.806  1.00  0.00    -0.237 OA
ATOM     75  O   UNL A   1      46.984  28.245  23.004  1.00  0.00    -0.237 OA
ATOM     76  O   UNL A   1      49.410  27.971  23.338  1.00  0.00    -0.744 OA
ENDBRANCH  69  73
ENDBRANCH  42  66
BRANCH  54  77
ATOM     77  C   UNL A   1      43.925  34.706  30.350  1.00  0.00     0.023 A 
ATOM     78  C   UNL A   1      44.355  34.864  31.682  1.00  0.00     0.031 A 
ATOM     79  C   UNL A   1      43.926  35.836  29.514  1.00  0.00     0.131 A 
ATOM     80  C   UNL A   1      44.713  36.133  32.154  1.00  0.00     0.055 A 
ATOM     81  C   UNL A   1      44.340  37.087  29.973  1.00  0.00     0.041 A 
ATOM     82  F   UNL A   1      43.514  35.742  28.239  1.00  0.00    -0.206 F 
ATOM     83  C   UNL A   1      44.719  37.242  31.303  1.00  0.00     0.022 A 
BRANCH  80  84
ATOM     84  S   UNL A   1      45.083  36.409  33.908  1.00  0.00     0.124 S 
ATOM     85  O   UNL A   1      45.760  35.166  34.273  1.00  0.00    -0.237 OA
ATOM     86  O   UNL A   1      45.937  37.593  33.858  1.00  0.00    -0.237 OA
ATOM     87  O   UNL A   1      43.772  36.605  34.519  1.00  0.00    -0.744 OA
ENDBRANCH  80  84
ENDBRANCH  54  77
ENDBRANCH  28  29
ENDBRANCH  21  23
ENDBRANCH  20  21
ENDBRANCH  19  20
ENDBRANCH   1  19
TORSDOF 19
ENDMDL
MODEL 3
REMARK VINA RESULT:      -9.3      1.870      2.246
REMARK SMILES O=C(Cc1cccn(C(F)F)c1=O)OCCOCCOC(=O)c1ccc(-c2c3nc(c(-c4cc(S(=O)(=O)[O-])ccc4F)c4ccc([nH]4)c(-c4cc(S(=O)(=O)[O-])ccc4F)c4nc(c(-c5cc(S(=O)(=O)[O-])ccc5F)c5ccc2[nH]5)C=C4)C=C3)cc1
REMARK SMILES IDX 18 1 17 2 16 3 15 4 14 5 2 6 1 7 3 8 4 9 5 10 12 11 6 12
REMARK SMILES IDX 8 13 13 14 7 15 9 16 10 17 11 18 19 19 20 20 21 21 22 22
REMARK SMILES IDX 23 23 24 24 85 25 25 26 84 27 26 28 27 29 28 30 78 31 29 32
REMARK SMILES IDX 83 33 77 34 79 35 30 36 82 37 76 38 75 39 31 41 63 42 43 43
REMARK SMILES IDX 62 44 44 45 47 46 61 47 80 48 45 49 46 50 60 52 81 53 48 54
REMARK SMILES IDX 32 55 33 56 41 57 34 58 40 59 42 60 39 61 35 62 36 63 37 64
REMARK SMILES IDX 38 65 64 66 65 67 73 68 66 69 72 70 74 71 71 72 67 73 68 74
REMARK SMILES IDX 69 75 70 76 49 77 50 78 58 79 51 80 57 81 59 82 56 83 52 84
REMARK SMILES IDX 53 85 54 86 55 87
REMARK H PARENT 79 40 47 51
REMARK Flexibility Score: inf
ROOT
ATOM      1  C   UNL A   1      34.277  34.681  28.296  1.00  0.00     0.202 C 
ENDROOT
BRANCH   1   2
ATOM      2  O   UNL A   1      34.317  35.251  29.610  1.00  0.00    -0.374 OA
BRANCH   2   3
ATOM      3  C   UNL A   1      33.082  35.361  30.305  1.00  0.00     0.202 C 
BRANCH   3   4
ATOM      4  C   UNL A   1      33.148  35.837  31.750  1.00  0.00     0.261 C 
BRANCH   4   5
ATOM      5  O   UNL A   1      34.145  35.189  32.554  1.00  0.00    -0.463 OA
BRANCH   5   6
ATOM      6  C   UNL A   1      34.053  33.942  33.075  1.00  0.00     0.310 C 
ATOM      7  O   UNL A   1      32.945  33.439  33.263  1.00  0.00    -0.252 OA
BRANCH   6   8
ATOM      8  C   UNL A   1      35.301  33.241  33.598  1.00  0.00     0.164 C 
BRANCH   8   9
ATOM      9  C   UNL A   1      36.631  33.486  32.948  1.00  0.00     0.029 A 
ATOM     10  C   UNL A   1      37.647  34.052  33.626  1.00  0.00     0.011 A 
ATOM     11  C   UNL A   1      36.794  33.262  31.473  1.00  0.00     0.258 A 
ATOM     12  C   UNL A   1      38.846  34.482  32.956  1.00  0.00     0.019 A 
ATOM     13  N   UNL A   1      37.851  33.933  30.885  1.00  0.00    -0.258 N 
ATOM     14  O   UNL A   1      35.964  32.619  30.844  1.00  0.00    -0.269 OA
ATOM     15  C   UNL A   1      38.891  34.470  31.619  1.00  0.00     0.095 A 
BRANCH  13  16
ATOM     16  C   UNL A   1      37.865  34.010  29.446  1.00  0.00     0.451 C 
ATOM     17  F   UNL A   1      38.807  34.911  29.053  1.00  0.00    -0.185 F 
ATOM     18  F   UNL A   1      38.239  32.814  28.930  1.00  0.00    -0.185 F 
ENDBRANCH  13  16
ENDBRANCH   8   9
ENDBRANCH   6   8
ENDBRANCH   5   6
ENDBRANCH   4   5
ENDBRANCH   3   4
ENDBRANCH   2   3
ENDBRANCH   1   2
BRANCH   1  19
ATOM     19  C   UNL A   1      33.741  33.250  28.161  1.00  0.00     0.261 C 
BRANCH  19  20
ATOM     20  O   UNL A   1      34.655  32.404  27.442  1.00  0.00    -0.460 OA
BRANCH  20  21
ATOM     21  C   UNL A   1      34.401  31.073  27.500  1.00  0.00     0.338 C 
ATOM     22  O   UNL A   1      33.415  30.498  27.066  1.00  0.00    -0.246 OA
BRANCH  21  23
ATOM     23  C   UNL A   1      35.626  30.378  27.947  1.00  0.00     0.060 A 
ATOM     24  C   UNL A   1      36.783  30.386  27.168  1.00  0.00     0.016 A 
ATOM     25  C   UNL A   1      35.604  29.718  29.184  1.00  0.00     0.016 A 
ATOM     26  C   UNL A   1      37.935  29.764  27.651  1.00  0.00     0.010 A 
ATOM     27  C   UNL A   1      36.756  29.096  29.665  1.00  0.00     0.010 A 
ATOM     28  C   UNL A   1      37.937  29.142  28.914  1.00  0.00    -0.014 A 
BRANCH  28  29
ATOM     29  C   UNL A   1      39.225  28.728  29.521  1.00  0.00     0.031 A 
ATOM     30  C   UNL A   1      39.769  29.378  30.753  1.00  0.00     0.074 A 
ATOM     31  C   UNL A   1      39.905  27.737  28.911  1.00  0.00     0.049 A 
ATOM     32  N   UNL A   1      40.823  29.047  31.451  1.00  0.00    -0.248 NA
ATOM     33  C   UNL A   1      39.049  30.552  31.266  1.00  0.00     0.031 C 
ATOM     34  C   UNL A   1      39.479  27.081  27.675  1.00  0.00     0.029 A 
ATOM     35  N   UNL A   1      41.076  27.104  29.240  1.00  0.00    -0.354 N 
ATOM     36  C   UNL A   1      40.887  29.953  32.501  1.00  0.00     0.074 A 
ATOM     37  C   UNL A   1      39.793  30.884  32.315  1.00  0.00     0.031 C 
ATOM     38  C   UNL A   1      40.353  26.113  27.370  1.00  0.00     0.029 A 
ATOM     39  C   UNL A   1      41.421  26.101  28.364  1.00  0.00     0.049 A 
ATOM     40  H   UNL A   1      41.618  27.344  30.027  1.00  0.00     0.167 HD
ATOM     41  C   UNL A   1      41.767  29.981  33.530  1.00  0.00     0.034 A 
ATOM     42  C   UNL A   1      42.473  25.257  28.364  1.00  0.00     0.034 A 
ATOM     43  C   UNL A   1      42.857  29.044  33.675  1.00  0.00     0.049 A 
ATOM     44  C   UNL A   1      43.444  25.317  29.513  1.00  0.00     0.074 A 
ATOM     45  C   UNL A   1      43.774  28.958  34.708  1.00  0.00     0.029 A 
ATOM     46  N   UNL A   1      43.185  28.044  32.769  1.00  0.00    -0.354 N 
ATOM     47  N   UNL A   1      43.426  26.103  30.565  1.00  0.00    -0.248 NA
ATOM     48  C   UNL A   1      44.566  24.370  29.496  1.00  0.00     0.031 C 
ATOM     49  C   UNL A   1      44.702  27.966  34.388  1.00  0.00     0.029 A 
ATOM     50  C   UNL A   1      44.313  27.362  33.203  1.00  0.00     0.049 A 
ATOM     51  H   UNL A   1      42.690  27.847  31.942  1.00  0.00     0.167 HD
ATOM     52  C   UNL A   1      44.514  25.728  31.346  1.00  0.00     0.074 A 
ATOM     53  C   UNL A   1      45.156  24.627  30.657  1.00  0.00     0.031 C 
ATOM     54  C   UNL A   1      44.941  26.252  32.522  1.00  0.00     0.034 A 
BRANCH  41  55
ATOM     55  C   UNL A   1      41.602  31.026  34.608  1.00  0.00     0.023 A 
ATOM     56  C   UNL A   1      40.436  31.049  35.398  1.00  0.00     0.031 A 
ATOM     57  C   UNL A   1      42.512  32.090  34.738  1.00  0.00     0.131 A 
ATOM     58  C   UNL A   1      40.190  32.137  36.246  1.00  0.00     0.055 A 
ATOM     59  C   UNL A   1      42.285  33.148  35.620  1.00  0.00     0.041 A 
ATOM     60  F   UNL A   1      43.635  32.121  34.002  1.00  0.00    -0.206 F 
ATOM     61  C   UNL A   1      41.112  33.181  36.368  1.00  0.00     0.022 A 
BRANCH  58  62
ATOM     62  S   UNL A   1      38.632  32.279  37.164  1.00  0.00     0.124 S 
ATOM     63  O   UNL A   1      38.186  33.621  36.793  1.00  0.00    -0.237 OA
ATOM     64  O   UNL A   1      37.846  31.184  36.603  1.00  0.00    -0.237 OA
ATOM     65  O   UNL A   1      39.029  32.122  38.558  1.00  0.00    -0.744 OA
ENDBRANCH  58  62
ENDBRANCH  41  55
BRANCH  42  66
ATOM     66  C   UNL A   1      42.585  24.244  27.274  1.00  0.00     0.023 A 
ATOM     67  C   UNL A   1      41.893  23.020  27.353  1.00  0.00     0.031 A 
ATOM     68  C   UNL A   1      43.482  24.427  26.208  1.00  0.00     0.131 A 
ATOM     69  C   UNL A   1      42.170  22.002  26.433  1.00  0.00     0.055 A 
ATOM     70  C   UNL A   1      43.695  23.437  25.247  1.00  0.00     0.041 A 
ATOM     71  F   UNL A   1      44.180  25.568  26.099  1.00  0.00    -0.206 F 
ATOM     72  C   UNL A   1      43.052  22.209  25.368  1.00  0.00     0.022 A 
BRANCH  69  73
ATOM     73  S   UNL A   1      41.509  20.329  26.675  1.00  0.00     0.124 S 
ATOM     74  O   UNL A   1      41.932  19.655  25.451  1.00  0.00    -0.237 OA
ATOM     75  O   UNL A   1      42.195  19.912  27.895  1.00  0.00    -0.237 OA
ATOM     76  O   UNL A   1      40.073  20.543  26.814  1.00  0.00    -0.744 OA
ENDBRANCH  69  73
ENDBRANCH  42  66
BRANCH  54  77
ATOM     77  C   UNL A   1      46.165  25.657  33.182  1.00  0.00     0.023 A 
ATOM     78  C   UNL A   1      47.449  26.013  32.725  1.00  0.00     0.031 A 
ATOM     79  C   UNL A   1      46.061  24.627  34.132  1.00  0.00     0.131 A 
ATOM     80  C   UNL A   1      48.571  25.306  33.176  1.00  0.00     0.055 A 
ATOM     81  C   UNL A   1      47.188  23.965  34.622  1.00  0.00     0.041 A 
ATOM     82  F   UNL A   1      44.859  24.241  34.592  1.00  0.00    -0.206 F 
ATOM     83  C   UNL A   1      48.448  24.292  34.130  1.00  0.00     0.022 A 
BRANCH  80  84
ATOM     84  S   UNL A   1      50.212  25.604  32.464  1.00  0.00     0.124 S 
ATOM     85  O   UNL A   1      50.069  26.956  31.929  1.00  0.00    -0.237 OA
ATOM     86  O   UNL A   1      51.079  25.486  33.634  1.00  0.00    -0.237 OA
ATOM     87  O   UNL A   1      50.361  24.552  31.464  1.00  0.00    -0.744 OA
ENDBRANCH  80  84
ENDBRANCH  54  77
ENDBRANCH  28  29
ENDBRANCH  21  23
ENDBRANCH  20  21
ENDBRANCH  19  20
ENDBRANCH   1  19
TORSDOF 19
ENDMDL
