MODEL 1
REMARK VINA RESULT:     -11.4      0.000      0.000
REMARK SMILES [NH3+][C@]1(C(=O)OCCOCCOC(=O)c2ccc(-c3c4nc(c(-c5cc(S(=O)(=O)[O-])ccc5F)c5ccc([nH]5)c(-c5cc(S(=O)(=O)[O-])ccc5F)c5nc(c(-c6cc(S(=O)(=O)[O-])ccc6F)c6ccc3[nH]6)C=C5)C=C4)cc2)CC[C@@H](Sc2ccc(Cl)c(Cl)c2)C1
REMARK SMILES IDX 9 1 8 2 7 3 6 4 5 5 3 6 4 7 2 8 77 9 89 10 78 11 79 12 1 13
REMARK SMILES IDX 80 17 81 18 82 19 88 20 83 21 86 22 84 23 87 24 85 25 10 26
REMARK SMILES IDX 11 27 12 28 13 29 14 30 15 31 76 32 16 33 75 34 17 35 18 36
REMARK SMILES IDX 19 37 69 38 20 39 74 40 68 41 70 42 21 43 73 44 67 45 66 46
REMARK SMILES IDX 22 48 54 49 34 50 53 51 35 52 38 53 52 54 71 55 36 56 37 57
REMARK SMILES IDX 51 59 72 60 39 61 23 62 24 63 32 64 25 65 31 66 33 67 30 68
REMARK SMILES IDX 26 69 27 70 28 71 29 72 55 73 56 74 64 75 57 76 63 77 65 78
REMARK SMILES IDX 62 79 58 80 59 81 60 82 61 83 40 84 41 85 49 86 42 87 48 88
REMARK SMILES IDX 50 89 47 90 43 91 44 92 45 93 46 94
REMARK H PARENT 1 14 1 15 1 16 70 47 38 58
REMARK Flexibility Score: inf
ROOT
ATOM      1  C   UNL A   1      31.892  30.952  26.535  1.00  0.00     0.202 C 
ENDROOT
BRANCH   1   2
ATOM      2  O   UNL A   1      31.239  30.422  25.384  1.00  0.00    -0.374 OA
BRANCH   2   3
ATOM      3  C   UNL A   1      31.513  29.051  25.078  1.00  0.00     0.202 C 
BRANCH   3   4
ATOM      4  C   UNL A   1      32.994  28.664  24.995  1.00  0.00     0.261 C 
BRANCH   4   5
ATOM      5  O   UNL A   1      33.173  27.358  24.408  1.00  0.00    -0.459 OA
BRANCH   5   6
ATOM      6  C   UNL A   1      33.247  27.314  23.049  1.00  0.00     0.368 C 
ATOM      7  O   UNL A   1      33.903  28.086  22.358  1.00  0.00    -0.245 OA
BRANCH   6   8
ATOM      8  C   UNL A   1      32.499  26.091  22.459  1.00  0.00     0.193 C 
ATOM      9  C   UNL A   1      33.412  24.895  22.151  1.00  0.00     0.082 C 
ATOM     10  C   UNL A   1      31.471  25.571  23.492  1.00  0.00     0.095 C 
ATOM     11  C   UNL A   1      32.560  23.663  22.428  1.00  0.00     0.022 C 
ATOM     12  C   UNL A   1      31.663  24.059  23.596  1.00  0.00     0.059 C 
BRANCH   8  13
ATOM     13  N   UNL A   1      31.778  26.497  21.224  1.00  0.00    -0.343 N 
ATOM     14  H   UNL A   1      32.408  27.026  20.621  1.00  0.00     0.345 HD
ATOM     15  H   UNL A   1      30.978  27.079  21.474  1.00  0.00     0.345 HD
ATOM     16  H   UNL A   1      31.452  25.666  20.732  1.00  0.00     0.345 HD
ENDBRANCH   8  13
BRANCH  12  17
ATOM     17  S   UNL A   1      32.201  23.504  25.267  1.00  0.00    -0.122 SA
BRANCH  17  18
ATOM     18  C   UNL A   1      32.976  21.928  24.976  1.00  0.00     0.009 A 
ATOM     19  C   UNL A   1      32.169  20.813  24.730  1.00  0.00     0.017 A 
ATOM     20  C   UNL A   1      34.360  21.757  25.085  1.00  0.00     0.037 A 
ATOM     21  C   UNL A   1      32.737  19.548  24.562  1.00  0.00     0.023 A 
ATOM     22  C   UNL A   1      34.934  20.490  24.913  1.00  0.00     0.060 A 
ATOM     23  C   UNL A   1      34.120  19.382  24.649  1.00  0.00     0.059 A 
ATOM     24  Cl  UNL A   1      36.650  20.358  25.061  1.00  0.00    -0.083 Cl
ATOM     25  Cl  UNL A   1      34.755  17.792  24.442  1.00  0.00    -0.083 Cl
ENDBRANCH  17  18
ENDBRANCH  12  17
ENDBRANCH   6   8
ENDBRANCH   5   6
ENDBRANCH   4   5
ENDBRANCH   3   4
ENDBRANCH   2   3
ENDBRANCH   1   2
BRANCH   1  26
ATOM     26  C   UNL A   1      31.534  32.384  26.941  1.00  0.00     0.261 C 
BRANCH  26  27
ATOM     27  O   UNL A   1      32.663  33.268  26.858  1.00  0.00    -0.460 OA
BRANCH  27  28
ATOM     28  C   UNL A   1      33.172  33.615  28.064  1.00  0.00     0.338 C 
ATOM     29  O   UNL A   1      32.605  34.257  28.940  1.00  0.00    -0.246 OA
BRANCH  28  30
ATOM     30  C   UNL A   1      34.477  32.965  28.280  1.00  0.00     0.060 A 
ATOM     31  C   UNL A   1      34.453  31.670  28.808  1.00  0.00     0.016 A 
ATOM     32  C   UNL A   1      35.692  33.615  28.042  1.00  0.00     0.016 A 
ATOM     33  C   UNL A   1      35.641  31.049  29.176  1.00  0.00     0.010 A 
ATOM     34  C   UNL A   1      36.888  32.988  28.417  1.00  0.00     0.010 A 
ATOM     35  C   UNL A   1      36.862  31.721  29.029  1.00  0.00    -0.014 A 
BRANCH  35  36
ATOM     36  C   UNL A   1      38.062  31.146  29.684  1.00  0.00     0.031 A 
ATOM     37  C   UNL A   1      38.356  31.516  31.114  1.00  0.00     0.074 A 
ATOM     38  C   UNL A   1      38.804  30.218  29.052  1.00  0.00     0.049 A 
ATOM     39  N   UNL A   1      39.282  31.061  31.917  1.00  0.00    -0.248 NA
ATOM     40  C   UNL A   1      37.481  32.532  31.721  1.00  0.00     0.031 C 
ATOM     41  C   UNL A   1      38.582  29.750  27.684  1.00  0.00     0.029 A 
ATOM     42  N   UNL A   1      39.881  29.487  29.485  1.00  0.00    -0.354 N 
ATOM     43  C   UNL A   1      39.090  31.718  33.129  1.00  0.00     0.074 A 
ATOM     44  C   UNL A   1      37.995  32.643  32.936  1.00  0.00     0.031 C 
ATOM     45  C   UNL A   1      39.485  28.797  27.396  1.00  0.00     0.029 A 
ATOM     46  C   UNL A   1      40.365  28.605  28.546  1.00  0.00     0.049 A 
ATOM     47  H   UNL A   1      40.270  29.582  30.385  1.00  0.00     0.167 HD
ATOM     48  C   UNL A   1      39.755  31.551  34.299  1.00  0.00     0.034 A 
ATOM     49  C   UNL A   1      41.403  27.747  28.612  1.00  0.00     0.034 A 
ATOM     50  C   UNL A   1      40.857  30.637  34.472  1.00  0.00     0.049 A 
ATOM     51  C   UNL A   1      42.179  27.643  29.904  1.00  0.00     0.074 A 
ATOM     52  C   UNL A   1      41.615  30.401  35.606  1.00  0.00     0.029 A 
ATOM     53  N   UNL A   1      41.365  29.809  33.479  1.00  0.00    -0.354 N 
ATOM     54  N   UNL A   1      41.983  28.269  31.043  1.00  0.00    -0.248 NA
ATOM     55  C   UNL A   1      43.307  26.701  29.922  1.00  0.00     0.031 C 
ATOM     56  C   UNL A   1      42.618  29.480  35.281  1.00  0.00     0.029 A 
ATOM     57  C   UNL A   1      42.441  29.082  33.966  1.00  0.00     0.049 A 
ATOM     58  H   UNL A   1      41.011  29.747  32.562  1.00  0.00     0.167 HD
ATOM     59  C   UNL A   1      42.944  27.769  31.919  1.00  0.00     0.074 A 
ATOM     60  C   UNL A   1      43.695  26.774  31.185  1.00  0.00     0.031 C 
ATOM     61  C   UNL A   1      43.187  28.103  33.214  1.00  0.00     0.034 A 
BRANCH  48  62
ATOM     62  C   UNL A   1      39.328  32.408  35.467  1.00  0.00     0.023 A 
ATOM     63  C   UNL A   1      39.765  33.737  35.608  1.00  0.00     0.031 A 
ATOM     64  C   UNL A   1      38.486  31.882  36.464  1.00  0.00     0.131 A 
ATOM     65  C   UNL A   1      39.403  34.477  36.744  1.00  0.00     0.055 A 
ATOM     66  C   UNL A   1      38.071  32.647  37.555  1.00  0.00     0.041 A 
ATOM     67  F   UNL A   1      38.058  30.612  36.395  1.00  0.00    -0.206 F 
ATOM     68  C   UNL A   1      38.539  33.950  37.707  1.00  0.00     0.022 A 
BRANCH  65  69
ATOM     69  S   UNL A   1      40.168  36.100  37.009  1.00  0.00     0.124 S 
ATOM     70  O   UNL A   1      39.410  36.600  38.154  1.00  0.00    -0.237 OA
ATOM     71  O   UNL A   1      41.562  35.755  37.265  1.00  0.00    -0.237 OA
ATOM     72  O   UNL A   1      39.922  36.805  35.753  1.00  0.00    -0.744 OA
ENDBRANCH  65  69
ENDBRANCH  48  62
BRANCH  49  73
ATOM     73  C   UNL A   1      41.797  26.931  27.425  1.00  0.00     0.023 A 
ATOM     74  C   UNL A   1      41.509  25.558  27.355  1.00  0.00     0.031 A 
ATOM     75  C   UNL A   1      42.551  27.498  26.380  1.00  0.00     0.131 A 
ATOM     76  C   UNL A   1      42.025  24.787  26.302  1.00  0.00     0.055 A 
ATOM     77  C   UNL A   1      43.008  26.738  25.303  1.00  0.00     0.041 A 
ATOM     78  F   UNL A   1      42.859  28.804  26.397  1.00  0.00    -0.206 F 
ATOM     79  C   UNL A   1      42.762  25.370  25.269  1.00  0.00     0.022 A 
BRANCH  76  80
ATOM     80  S   UNL A   1      41.824  22.984  26.365  1.00  0.00     0.124 S 
ATOM     81  O   UNL A   1      42.507  22.565  25.147  1.00  0.00    -0.237 OA
ATOM     82  O   UNL A   1      42.488  22.651  27.621  1.00  0.00    -0.237 OA
ATOM     83  O   UNL A   1      40.374  22.803  26.362  1.00  0.00    -0.744 OA
ENDBRANCH  76  80
ENDBRANCH  49  73
BRANCH  61  84
ATOM     84  C   UNL A   1      44.293  27.345  33.913  1.00  0.00     0.023 A 
ATOM     85  C   UNL A   1      44.054  26.113  34.548  1.00  0.00     0.031 A 
ATOM     86  C   UNL A   1      45.589  27.885  33.985  1.00  0.00     0.131 A 
ATOM     87  C   UNL A   1      45.072  25.503  35.294  1.00  0.00     0.055 A 
ATOM     88  C   UNL A   1      46.617  27.238  34.672  1.00  0.00     0.041 A 
ATOM     89  F   UNL A   1      45.876  29.058  33.398  1.00  0.00    -0.206 F 
ATOM     90  C   UNL A   1      46.356  26.050  35.348  1.00  0.00     0.022 A 
BRANCH  87  91
ATOM     91  S   UNL A   1      44.660  24.050  36.299  1.00  0.00     0.124 S 
ATOM     92  O   UNL A   1      45.821  23.192  36.086  1.00  0.00    -0.237 OA
ATOM     93  O   UNL A   1      44.528  24.623  37.634  1.00  0.00    -0.237 OA
ATOM     94  O   UNL A   1      43.414  23.565  35.707  1.00  0.00    -0.744 OA
ENDBRANCH  87  91
ENDBRANCH  61  84
ENDBRANCH  35  36
ENDBRANCH  28  30
ENDBRANCH  27  28
ENDBRANCH  26  27
ENDBRANCH   1  26
TORSDOF 20
ENDMDL
MODEL 2
REMARK VINA RESULT:     -11.2      4.711     10.133
REMARK SMILES [NH3+][C@]1(C(=O)OCCOCCOC(=O)c2ccc(-c3c4nc(c(-c5cc(S(=O)(=O)[O-])ccc5F)c5ccc([nH]5)c(-c5cc(S(=O)(=O)[O-])ccc5F)c5nc(c(-c6cc(S(=O)(=O)[O-])ccc6F)c6ccc3[nH]6)C=C5)C=C4)cc2)CC[C@@H](Sc2ccc(Cl)c(Cl)c2)C1
REMARK SMILES IDX 9 1 8 2 7 3 6 4 5 5 3 6 4 7 2 8 77 9 89 10 78 11 79 12 1 13
REMARK SMILES IDX 80 17 81 18 82 19 88 20 83 21 86 22 84 23 87 24 85 25 10 26
REMARK SMILES IDX 11 27 12 28 13 29 14 30 15 31 76 32 16 33 75 34 17 35 18 36
REMARK SMILES IDX 19 37 69 38 20 39 74 40 68 41 70 42 21 43 73 44 67 45 66 46
REMARK SMILES IDX 22 48 54 49 34 50 53 51 35 52 38 53 52 54 71 55 36 56 37 57
REMARK SMILES IDX 51 59 72 60 39 61 23 62 24 63 32 64 25 65 31 66 33 67 30 68
REMARK SMILES IDX 26 69 27 70 28 71 29 72 55 73 56 74 64 75 57 76 63 77 65 78
REMARK SMILES IDX 62 79 58 80 59 81 60 82 61 83 40 84 41 85 49 86 42 87 48 88
REMARK SMILES IDX 50 89 47 90 43 91 44 92 45 93 46 94
REMARK H PARENT 1 14 1 15 1 16 70 47 38 58
REMARK Flexibility Score: inf
ROOT
ATOM      1  C   UNL A   1      35.704  21.004  25.118  1.00  0.00     0.202 C 
ENDROOT
BRANCH   1   2
ATOM      2  O   UNL A   1      35.324  22.064  24.245  1.00  0.00    -0.374 OA
BRANCH   2   3
ATOM      3  C   UNL A   1      33.922  22.199  23.989  1.00  0.00     0.202 C 
BRANCH   3   4
ATOM      4  C   UNL A   1      33.541  22.800  22.631  1.00  0.00     0.261 C 
BRANCH   4   5
ATOM      5  O   UNL A   1      33.378  24.231  22.707  1.00  0.00    -0.459 OA
BRANCH   5   6
ATOM      6  C   UNL A   1      32.116  24.704  22.511  1.00  0.00     0.368 C 
ATOM      7  O   UNL A   1      31.091  24.147  22.892  1.00  0.00    -0.245 OA
BRANCH   6   8
ATOM      8  C   UNL A   1      32.109  26.105  21.847  1.00  0.00     0.193 C 
ATOM      9  C   UNL A   1      30.932  26.991  22.279  1.00  0.00     0.082 C 
ATOM     10  C   UNL A   1      33.383  26.878  22.268  1.00  0.00     0.095 C 
ATOM     11  C   UNL A   1      31.484  28.410  22.287  1.00  0.00     0.022 C 
ATOM     12  C   UNL A   1      32.937  28.266  22.725  1.00  0.00     0.059 C 
BRANCH   8  13
ATOM     13  N   UNL A   1      32.103  25.955  20.369  1.00  0.00    -0.343 N 
ATOM     14  H   UNL A   1      31.995  24.971  20.127  1.00  0.00     0.345 HD
ATOM     15  H   UNL A   1      32.983  26.304  19.988  1.00  0.00     0.345 HD
ATOM     16  H   UNL A   1      31.329  26.489  19.976  1.00  0.00     0.345 HD
ENDBRANCH   8  13
BRANCH  12  17
ATOM     17  S   UNL A   1      33.296  28.600  24.499  1.00  0.00    -0.122 SA
BRANCH  17  18
ATOM     18  C   UNL A   1      32.894  27.072  25.322  1.00  0.00     0.009 A 
ATOM     19  C   UNL A   1      33.923  26.170  25.609  1.00  0.00     0.017 A 
ATOM     20  C   UNL A   1      31.572  26.709  25.596  1.00  0.00     0.037 A 
ATOM     21  C   UNL A   1      33.639  24.933  26.194  1.00  0.00     0.023 A 
ATOM     22  C   UNL A   1      31.284  25.471  26.186  1.00  0.00     0.060 A 
ATOM     23  C   UNL A   1      32.320  24.581  26.487  1.00  0.00     0.059 A 
ATOM     24  Cl  UNL A   1      29.626  25.095  26.494  1.00  0.00    -0.083 Cl
ATOM     25  Cl  UNL A   1      32.039  23.035  27.199  1.00  0.00    -0.083 Cl
ENDBRANCH  17  18
ENDBRANCH  12  17
ENDBRANCH   6   8
ENDBRANCH   5   6
ENDBRANCH   4   5
ENDBRANCH   3   4
ENDBRANCH   2   3
ENDBRANCH   1   2
BRANCH   1  26
ATOM     26  C   UNL A   1      37.110  20.423  24.938  1.00  0.00     0.261 C 
BRANCH  26  27
ATOM     27  O   UNL A   1      38.130  21.424  25.078  1.00  0.00    -0.460 OA
BRANCH  27  28
ATOM     28  C   UNL A   1      39.151  21.052  25.885  1.00  0.00     0.338 C 
ATOM     29  O   UNL A   1      39.722  19.968  25.890  1.00  0.00    -0.246 OA
BRANCH  28  30
ATOM     30  C   UNL A   1      39.628  22.200  26.677  1.00  0.00     0.060 A 
ATOM     31  C   UNL A   1      39.007  23.431  26.435  1.00  0.00     0.016 A 
ATOM     32  C   UNL A   1      40.693  22.105  27.578  1.00  0.00     0.016 A 
ATOM     33  C   UNL A   1      39.499  24.585  27.034  1.00  0.00     0.010 A 
ATOM     34  C   UNL A   1      41.189  23.270  28.177  1.00  0.00     0.010 A 
ATOM     35  C   UNL A   1      40.622  24.521  27.869  1.00  0.00    -0.014 A 
BRANCH  35  36
ATOM     36  C   UNL A   1      41.279  25.793  28.259  1.00  0.00     0.031 A 
ATOM     37  C   UNL A   1      42.678  26.065  27.773  1.00  0.00     0.074 A 
ATOM     38  C   UNL A   1      40.593  26.736  28.930  1.00  0.00     0.049 A 
ATOM     39  N   UNL A   1      43.408  27.143  27.901  1.00  0.00    -0.248 NA
ATOM     40  C   UNL A   1      43.341  24.975  27.039  1.00  0.00     0.031 C 
ATOM     41  C   UNL A   1      39.217  26.598  29.407  1.00  0.00     0.029 A 
ATOM     42  N   UNL A   1      40.952  28.005  29.307  1.00  0.00    -0.354 N 
ATOM     43  C   UNL A   1      44.606  26.870  27.247  1.00  0.00     0.074 A 
ATOM     44  C   UNL A   1      44.525  25.505  26.773  1.00  0.00     0.031 C 
ATOM     45  C   UNL A   1      38.843  27.745  29.999  1.00  0.00     0.029 A 
ATOM     46  C   UNL A   1      39.958  28.689  29.967  1.00  0.00     0.049 A 
ATOM     47  H   UNL A   1      41.839  28.392  29.120  1.00  0.00     0.167 HD
ATOM     48  C   UNL A   1      45.668  27.689  27.044  1.00  0.00     0.034 A 
ATOM     49  C   UNL A   1      39.954  29.933  30.489  1.00  0.00     0.034 A 
ATOM     50  C   UNL A   1      45.742  29.042  27.538  1.00  0.00     0.049 A 
ATOM     51  C   UNL A   1      41.184  30.794  30.320  1.00  0.00     0.074 A 
ATOM     52  C   UNL A   1      46.776  29.954  27.409  1.00  0.00     0.029 A 
ATOM     53  N   UNL A   1      44.742  29.679  28.263  1.00  0.00    -0.354 N 
ATOM     54  N   UNL A   1      42.309  30.522  29.695  1.00  0.00    -0.248 NA
ATOM     55  C   UNL A   1      41.136  32.137  30.914  1.00  0.00     0.031 C 
ATOM     56  C   UNL A   1      46.427  31.116  28.108  1.00  0.00     0.029 A 
ATOM     57  C   UNL A   1      45.145  30.960  28.610  1.00  0.00     0.049 A 
ATOM     58  H   UNL A   1      43.874  29.278  28.496  1.00  0.00     0.167 HD
ATOM     59  C   UNL A   1      43.084  31.676  29.796  1.00  0.00     0.074 A 
ATOM     60  C   UNL A   1      42.288  32.648  30.513  1.00  0.00     0.031 C 
ATOM     61  C   UNL A   1      44.342  31.912  29.338  1.00  0.00     0.034 A 
BRANCH  48  62
ATOM     62  C   UNL A   1      46.847  27.122  26.290  1.00  0.00     0.023 A 
ATOM     63  C   UNL A   1      47.895  26.455  26.950  1.00  0.00     0.031 A 
ATOM     64  C   UNL A   1      46.933  27.265  24.894  1.00  0.00     0.131 A 
ATOM     65  C   UNL A   1      49.007  26.005  26.221  1.00  0.00     0.055 A 
ATOM     66  C   UNL A   1      48.008  26.752  24.166  1.00  0.00     0.041 A 
ATOM     67  F   UNL A   1      45.975  27.915  24.214  1.00  0.00    -0.206 F 
ATOM     68  C   UNL A   1      49.059  26.127  24.830  1.00  0.00     0.022 A 
BRANCH  65  69
ATOM     69  S   UNL A   1      50.440  25.360  27.126  1.00  0.00     0.124 S 
ATOM     70  O   UNL A   1      49.842  24.262  27.882  1.00  0.00    -0.237 OA
ATOM     71  O   UNL A   1      51.348  24.978  26.051  1.00  0.00    -0.237 OA
ATOM     72  O   UNL A   1      50.876  26.497  27.934  1.00  0.00    -0.744 OA
ENDBRANCH  65  69
ENDBRANCH  48  62
BRANCH  49  73
ATOM     73  C   UNL A   1      38.770  30.445  31.239  1.00  0.00     0.023 A 
ATOM     74  C   UNL A   1      37.730  31.125  30.585  1.00  0.00     0.031 A 
ATOM     75  C   UNL A   1      38.707  30.339  32.642  1.00  0.00     0.131 A 
ATOM     76  C   UNL A   1      36.707  31.728  31.335  1.00  0.00     0.055 A 
ATOM     77  C   UNL A   1      37.654  30.886  33.376  1.00  0.00     0.041 A 
ATOM     78  F   UNL A   1      39.675  29.702  33.319  1.00  0.00    -0.206 F 
ATOM     79  C   UNL A   1      36.656  31.602  32.725  1.00  0.00     0.022 A 
BRANCH  76  80
ATOM     80  S   UNL A   1      35.509  32.786  30.477  1.00  0.00     0.124 S 
ATOM     81  O   UNL A   1      34.314  32.605  31.292  1.00  0.00    -0.237 OA
ATOM     82  O   UNL A   1      36.150  34.095  30.560  1.00  0.00    -0.237 OA
ATOM     83  O   UNL A   1      35.444  32.209  29.136  1.00  0.00    -0.744 OA
ENDBRANCH  76  80
ENDBRANCH  49  73
BRANCH  61  84
ATOM     84  C   UNL A   1      44.903  33.294  29.578  1.00  0.00     0.023 A 
ATOM     85  C   UNL A   1      44.646  34.357  28.693  1.00  0.00     0.031 A 
ATOM     86  C   UNL A   1      45.741  33.540  30.679  1.00  0.00     0.131 A 
ATOM     87  C   UNL A   1      45.286  35.591  28.878  1.00  0.00     0.055 A 
ATOM     88  C   UNL A   1      46.321  34.792  30.897  1.00  0.00     0.041 A 
ATOM     89  F   UNL A   1      46.021  32.564  31.558  1.00  0.00    -0.206 F 
ATOM     90  C   UNL A   1      46.110  35.820  29.983  1.00  0.00     0.022 A 
BRANCH  87  91
ATOM     91  S   UNL A   1      45.127  36.853  27.585  1.00  0.00     0.124 S 
ATOM     92  O   UNL A   1      46.506  36.995  27.127  1.00  0.00    -0.237 OA
ATOM     93  O   UNL A   1      44.206  36.223  26.646  1.00  0.00    -0.237 OA
ATOM     94  O   UNL A   1      44.589  38.010  28.298  1.00  0.00    -0.744 OA
ENDBRANCH  87  91
ENDBRANCH  61  84
ENDBRANCH  35  36
ENDBRANCH  28  30
ENDBRANCH  27  28
ENDBRANCH  26  27
ENDBRANCH   1  26
TORSDOF 20
ENDMDL
MODEL 3
REMARK VINA RESULT:     -11.2      2.340      2.967
REMARK SMILES [NH3+][C@]1(C(=O)OCCOCCOC(=O)c2ccc(-c3c4nc(c(-c5cc(S(=O)(=O)[O-])ccc5F)c5ccc([nH]5)c(-c5cc(S(=O)(=O)[O-])ccc5F)c5nc(c(-c6cc(S(=O)(=O)[O-])ccc6F)c6ccc3[nH]6)C=C5)C=C4)cc2)CC[C@@H](Sc2ccc(Cl)c(Cl)c2)C1
REMARK SMILES IDX 9 1 8 2 7 3 6 4 5 5 3 6 4 7 2 8 77 9 89 10 78 11 79 12 1 13
REMARK SMILES IDX 80 17 81 18 82 19 88 20 83 21 86 22 84 23 87 24 85 25 10 26
REMARK SMILES IDX 11 27 12 28 13 29 14 30 15 31 76 32 16 33 75 34 17 35 18 36
REMARK SMILES IDX 19 37 69 38 20 39 74 40 68 41 70 42 21 43 73 44 67 45 66 46
REMARK SMILES IDX 22 48 54 49 34 50 53 51 35 52 38 53 52 54 71 55 36 56 37 57
REMARK SMILES IDX 51 59 72 60 39 61 23 62 24 63 32 64 25 65 31 66 33 67 30 68
REMARK SMILES IDX 26 69 27 70 28 71 29 72 55 73 56 74 64 75 57 76 63 77 65 78
REMARK SMILES IDX 62 79 58 80 59 81 60 82 61 83 40 84 41 85 49 86 42 87 48 88
REMARK SMILES IDX 50 89 47 90 43 91 44 92 45 93 46 94
REMARK H PARENT 1 14 1 15 1 16 70 47 38 58
REMARK Flexibility Score: inf
ROOT
ATOM      1  C   UNL A   1      32.705  29.685  25.042  1.00  0.00     0.202 C 
ENDROOT
BRANCH   1   2
ATOM      2  O   UNL A   1      32.396  28.312  24.816  1.00  0.00    -0.374 OA
BRANCH   2   3
ATOM      3  C   UNL A   1      31.587  27.676  25.810  1.00  0.00     0.202 C 
BRANCH   3   4
ATOM      4  C   UNL A   1      32.137  26.368  26.390  1.00  0.00     0.261 C 
BRANCH   4   5
ATOM      5  O   UNL A   1      31.654  25.217  25.667  1.00  0.00    -0.459 OA
BRANCH   5   6
ATOM      6  C   UNL A   1      31.666  24.034  26.341  1.00  0.00     0.368 C 
ATOM      7  O   UNL A   1      31.428  23.906  27.538  1.00  0.00    -0.245 OA
BRANCH   6   8
ATOM      8  C   UNL A   1      31.900  22.824  25.401  1.00  0.00     0.193 C 
ATOM      9  C   UNL A   1      31.571  23.110  23.928  1.00  0.00     0.082 C 
ATOM     10  C   UNL A   1      33.399  22.440  25.422  1.00  0.00     0.095 C 
ATOM     11  C   UNL A   1      32.575  22.287  23.131  1.00  0.00     0.022 C 
ATOM     12  C   UNL A   1      33.848  22.297  23.969  1.00  0.00     0.059 C 
BRANCH   8  13
ATOM     13  N   UNL A   1      31.098  21.665  25.874  1.00  0.00    -0.343 N 
ATOM     14  H   UNL A   1      30.862  21.069  25.081  1.00  0.00     0.345 HD
ATOM     15  H   UNL A   1      30.242  22.000  26.314  1.00  0.00     0.345 HD
ATOM     16  H   UNL A   1      31.641  21.130  26.551  1.00  0.00     0.345 HD
ENDBRANCH   8  13
BRANCH  12  17
ATOM     17  S   UNL A   1      35.141  23.512  23.482  1.00  0.00    -0.122 SA
BRANCH  17  18
ATOM     18  C   UNL A   1      36.561  23.051  24.454  1.00  0.00     0.009 A 
ATOM     19  C   UNL A   1      37.045  21.743  24.363  1.00  0.00     0.017 A 
ATOM     20  C   UNL A   1      37.139  23.930  25.375  1.00  0.00     0.037 A 
ATOM     21  C   UNL A   1      38.116  21.325  25.157  1.00  0.00     0.023 A 
ATOM     22  C   UNL A   1      38.215  23.516  26.171  1.00  0.00     0.060 A 
ATOM     23  C   UNL A   1      38.706  22.210  26.061  1.00  0.00     0.059 A 
ATOM     24  Cl  UNL A   1      38.877  24.659  27.286  1.00  0.00    -0.083 Cl
ATOM     25  Cl  UNL A   1      40.017  21.627  27.019  1.00  0.00    -0.083 Cl
ENDBRANCH  17  18
ENDBRANCH  12  17
ENDBRANCH   6   8
ENDBRANCH   5   6
ENDBRANCH   4   5
ENDBRANCH   3   4
ENDBRANCH   2   3
ENDBRANCH   1   2
BRANCH   1  26
ATOM     26  C   UNL A   1      32.148  30.323  26.318  1.00  0.00     0.261 C 
BRANCH  26  27
ATOM     27  O   UNL A   1      33.073  30.238  27.413  1.00  0.00    -0.460 OA
BRANCH  27  28
ATOM     28  C   UNL A   1      33.759  31.384  27.636  1.00  0.00     0.338 C 
ATOM     29  O   UNL A   1      33.298  32.519  27.666  1.00  0.00    -0.246 OA
BRANCH  28  30
ATOM     30  C   UNL A   1      35.150  31.086  28.019  1.00  0.00     0.060 A 
ATOM     31  C   UNL A   1      35.430  29.767  28.393  1.00  0.00     0.016 A 
ATOM     32  C   UNL A   1      36.143  32.069  28.083  1.00  0.00     0.016 A 
ATOM     33  C   UNL A   1      36.680  29.441  28.906  1.00  0.00     0.010 A 
ATOM     34  C   UNL A   1      37.401  31.739  28.604  1.00  0.00     0.010 A 
ATOM     35  C   UNL A   1      37.657  30.433  29.061  1.00  0.00    -0.014 A 
BRANCH  35  36
ATOM     36  C   UNL A   1      38.863  30.109  29.862  1.00  0.00     0.031 A 
ATOM     37  C   UNL A   1      38.983  30.673  31.254  1.00  0.00     0.074 A 
ATOM     38  C   UNL A   1      39.773  29.231  29.400  1.00  0.00     0.049 A 
ATOM     39  N   UNL A   1      39.890  30.445  32.168  1.00  0.00    -0.248 NA
ATOM     40  C   UNL A   1      37.933  31.616  31.672  1.00  0.00     0.031 C 
ATOM     41  C   UNL A   1      39.731  28.588  28.087  1.00  0.00     0.029 A 
ATOM     42  N   UNL A   1      40.896  28.712  29.992  1.00  0.00    -0.354 N 
ATOM     43  C   UNL A   1      39.511  31.199  33.275  1.00  0.00     0.074 A 
ATOM     44  C   UNL A   1      38.323  31.932  32.897  1.00  0.00     0.031 C 
ATOM     45  C   UNL A   1      40.774  27.747  27.980  1.00  0.00     0.029 A 
ATOM     46  C   UNL A   1      41.571  27.810  29.203  1.00  0.00     0.049 A 
ATOM     47  H   UNL A   1      41.191  28.961  30.898  1.00  0.00     0.167 HD
ATOM     48  C   UNL A   1      40.090  31.258  34.500  1.00  0.00     0.034 A 
ATOM     49  C   UNL A   1      42.704  27.119  29.443  1.00  0.00     0.034 A 
ATOM     50  C   UNL A   1      41.285  30.533  34.858  1.00  0.00     0.049 A 
ATOM     51  C   UNL A   1      43.375  27.270  30.788  1.00  0.00     0.074 A 
ATOM     52  C   UNL A   1      41.968  30.535  36.062  1.00  0.00     0.029 A 
ATOM     53  N   UNL A   1      41.980  29.681  34.009  1.00  0.00    -0.354 N 
ATOM     54  N   UNL A   1      43.001  27.984  31.827  1.00  0.00    -0.248 NA
ATOM     55  C   UNL A   1      44.611  26.505  30.998  1.00  0.00     0.031 C 
ATOM     56  C   UNL A   1      43.108  29.734  35.921  1.00  0.00     0.029 A 
ATOM     57  C   UNL A   1      43.098  29.172  34.654  1.00  0.00     0.049 A 
ATOM     58  H   UNL A   1      41.717  29.469  33.085  1.00  0.00     0.167 HD
ATOM     59  C   UNL A   1      43.942  27.726  32.821  1.00  0.00     0.074 A 
ATOM     60  C   UNL A   1      44.878  26.771  32.267  1.00  0.00     0.031 C 
ATOM     61  C   UNL A   1      44.028  28.231  34.079  1.00  0.00     0.034 A 
BRANCH  48  62
ATOM     62  C   UNL A   1      39.456  32.170  35.523  1.00  0.00     0.023 A 
ATOM     63  C   UNL A   1      39.890  33.495  35.702  1.00  0.00     0.031 A 
ATOM     64  C   UNL A   1      38.414  31.702  36.343  1.00  0.00     0.131 A 
ATOM     65  C   UNL A   1      39.323  34.288  36.712  1.00  0.00     0.055 A 
ATOM     66  C   UNL A   1      37.805  32.518  37.298  1.00  0.00     0.041 A 
ATOM     67  F   UNL A   1      37.975  30.438  36.235  1.00  0.00    -0.206 F 
ATOM     68  C   UNL A   1      38.266  33.817  37.494  1.00  0.00     0.022 A 
BRANCH  65  69
ATOM     69  S   UNL A   1      40.060  35.906  37.069  1.00  0.00     0.124 S 
ATOM     70  O   UNL A   1      39.328  36.305  38.269  1.00  0.00    -0.237 OA
ATOM     71  O   UNL A   1      41.468  35.577  37.258  1.00  0.00    -0.237 OA
ATOM     72  O   UNL A   1      39.759  36.692  35.875  1.00  0.00    -0.744 OA
ENDBRANCH  65  69
ENDBRANCH  48  62
BRANCH  49  73
ATOM     73  C   UNL A   1      43.302  26.241  28.394  1.00  0.00     0.023 A 
ATOM     74  C   UNL A   1      44.368  26.683  27.593  1.00  0.00     0.031 A 
ATOM     75  C   UNL A   1      42.753  24.975  28.117  1.00  0.00     0.131 A 
ATOM     76  C   UNL A   1      44.807  25.896  26.516  1.00  0.00     0.055 A 
ATOM     77  C   UNL A   1      43.235  24.171  27.084  1.00  0.00     0.041 A 
ATOM     78  F   UNL A   1      41.730  24.503  28.848  1.00  0.00    -0.206 F 
ATOM     79  C   UNL A   1      44.257  24.638  26.264  1.00  0.00     0.022 A 
BRANCH  76  80
ATOM     80  S   UNL A   1      46.028  26.597  25.370  1.00  0.00     0.124 S 
ATOM     81  O   UNL A   1      47.070  27.049  26.284  1.00  0.00    -0.237 OA
ATOM     82  O   UNL A   1      46.358  25.443  24.540  1.00  0.00    -0.237 OA
ATOM     83  O   UNL A   1      45.288  27.659  24.693  1.00  0.00    -0.744 OA
ENDBRANCH  76  80
ENDBRANCH  49  73
BRANCH  61  84
ATOM     84  C   UNL A   1      45.161  27.720  34.940  1.00  0.00     0.023 A 
ATOM     85  C   UNL A   1      44.964  26.697  35.885  1.00  0.00     0.031 A 
ATOM     86  C   UNL A   1      46.441  28.295  34.846  1.00  0.00     0.131 A 
ATOM     87  C   UNL A   1      46.005  26.338  36.753  1.00  0.00     0.055 A 
ATOM     88  C   UNL A   1      47.493  27.884  35.666  1.00  0.00     0.041 A 
ATOM     89  F   UNL A   1      46.688  29.274  33.961  1.00  0.00    -0.206 F 
ATOM     90  C   UNL A   1      47.273  26.914  36.639  1.00  0.00     0.022 A 
BRANCH  87  91
ATOM     91  S   UNL A   1      45.644  25.197  38.116  1.00  0.00     0.124 S 
ATOM     92  O   UNL A   1      46.915  24.499  38.275  1.00  0.00    -0.237 OA
ATOM     93  O   UNL A   1      45.280  26.109  39.196  1.00  0.00    -0.237 OA
ATOM     94  O   UNL A   1      44.547  24.380  37.600  1.00  0.00    -0.744 OA
ENDBRANCH  87  91
ENDBRANCH  61  84
ENDBRANCH  35  36
ENDBRANCH  28  30
ENDBRANCH  27  28
ENDBRANCH  26  27
ENDBRANCH   1  26
TORSDOF 20
ENDMDL
