MODEL 1
REMARK VINA RESULT:     -10.9      0.000      0.000
REMARK SMILES O=C(CC1(C[S@](=O)C[C@H]2Cc3ccccc3S2)CC1)OCCOCCOC(=O)c1ccc(-c2c3nc(c(-c4cc(S(=O)(=O)[O-])ccc4F)c4ccc([nH]4)c(-c4cc(S(=O)(=O)[O-])ccc4F)c4nc(c(-c5cc(S(=O)(=O)[O-])ccc5F)c5ccc2[nH]5)C=C4)C=C3)cc1
REMARK SMILES IDX 22 1 21 2 20 3 2 4 1 5 3 6 4 7 18 8 19 9 5 10 6 11 7 12 8 13
REMARK SMILES IDX 9 14 10 15 17 16 11 17 16 18 12 19 15 20 13 21 14 22 23 23
REMARK SMILES IDX 24 24 25 25 26 26 27 27 28 28 29 29 30 30 91 31 31 32 90 33
REMARK SMILES IDX 32 34 33 35 34 36 84 37 35 38 89 39 83 40 85 41 36 42 88 43
REMARK SMILES IDX 82 44 81 45 37 47 69 48 49 49 68 50 50 51 53 52 67 53 86 54
REMARK SMILES IDX 51 55 52 56 66 58 87 59 54 60 38 61 39 62 47 63 40 64 46 65
REMARK SMILES IDX 48 66 45 67 41 68 42 69 43 70 44 71 70 72 71 73 79 74 72 75
REMARK SMILES IDX 78 76 80 77 77 78 73 79 74 80 75 81 76 82 55 83 56 84 64 85
REMARK SMILES IDX 57 86 63 87 65 88 62 89 58 90 59 91 60 92 61 93
REMARK H PARENT 85 46 53 57
REMARK Flexibility Score: inf
ROOT
ATOM      1  C   UNL A   1      32.496  29.770  25.343  1.00  0.00     0.202 C 
ENDROOT
BRANCH   1   2
ATOM      2  C   UNL A   1      32.193  28.703  24.283  1.00  0.00     0.261 C 
BRANCH   2   3
ATOM      3  O   UNL A   1      30.834  28.607  23.859  1.00  0.00    -0.463 OA
BRANCH   3   4
ATOM      4  C   UNL A   1      30.484  27.494  23.169  1.00  0.00     0.306 C 
ATOM      5  O   UNL A   1      30.588  27.439  21.947  1.00  0.00    -0.252 OA
BRANCH   4   6
ATOM      6  C   UNL A   1      29.760  26.430  23.955  1.00  0.00     0.130 C 
BRANCH   6   7
ATOM      7  C   UNL A   1      30.531  25.443  24.814  1.00  0.00    -0.008 C 
ATOM      8  C   UNL A   1      31.062  25.904  26.166  1.00  0.00     0.009 C 
ATOM      9  C   UNL A   1      29.981  24.875  26.118  1.00  0.00     0.009 C 
BRANCH   7  10
ATOM     10  C   UNL A   1      31.309  24.447  23.973  1.00  0.00     0.112 C 
BRANCH  10  11
ATOM     11  S   UNL A   1      33.116  24.573  24.287  1.00  0.00     0.023 S 
ATOM     12  O   UNL A   1      33.712  25.639  23.420  1.00  0.00    -0.260 OA
BRANCH  11  13
ATOM     13  C   UNL A   1      33.581  22.956  23.616  1.00  0.00     0.120 C 
BRANCH  13  14
ATOM     14  C   UNL A   1      33.310  21.710  24.472  1.00  0.00     0.068 C 
ATOM     15  C   UNL A   1      32.361  20.618  23.939  1.00  0.00     0.052 C 
ATOM     16  S   UNL A   1      34.851  20.888  25.050  1.00  0.00    -0.121 SA
ATOM     17  C   UNL A   1      33.058  19.293  23.950  1.00  0.00    -0.033 A 
ATOM     18  C   UNL A   1      34.320  19.286  24.535  1.00  0.00     0.011 A 
ATOM     19  C   UNL A   1      32.525  18.125  23.408  1.00  0.00     0.005 A 
ATOM     20  C   UNL A   1      35.048  18.110  24.638  1.00  0.00     0.015 A 
ATOM     21  C   UNL A   1      33.260  16.943  23.486  1.00  0.00     0.000 A 
ATOM     22  C   UNL A   1      34.511  16.932  24.112  1.00  0.00     0.001 A 
ENDBRANCH  13  14
ENDBRANCH  11  13
ENDBRANCH  10  11
ENDBRANCH   7  10
ENDBRANCH   6   7
ENDBRANCH   4   6
ENDBRANCH   3   4
ENDBRANCH   2   3
ENDBRANCH   1   2
BRANCH   1  23
ATOM     23  O   UNL A   1      31.542  30.791  25.594  1.00  0.00    -0.374 OA
BRANCH  23  24
ATOM     24  C   UNL A   1      31.560  31.418  26.880  1.00  0.00     0.202 C 
BRANCH  24  25
ATOM     25  C   UNL A   1      31.710  32.939  26.865  1.00  0.00     0.261 C 
BRANCH  25  26
ATOM     26  O   UNL A   1      33.099  33.289  26.936  1.00  0.00    -0.460 OA
BRANCH  26  27
ATOM     27  C   UNL A   1      33.507  33.867  28.093  1.00  0.00     0.338 C 
ATOM     28  O   UNL A   1      32.889  34.667  28.773  1.00  0.00    -0.246 OA
BRANCH  27  29
ATOM     29  C   UNL A   1      34.712  33.137  28.546  1.00  0.00     0.060 A 
ATOM     30  C   UNL A   1      35.976  33.731  28.519  1.00  0.00     0.016 A 
ATOM     31  C   UNL A   1      34.564  31.791  28.917  1.00  0.00     0.016 A 
ATOM     32  C   UNL A   1      37.092  32.984  28.895  1.00  0.00     0.010 A 
ATOM     33  C   UNL A   1      35.680  31.042  29.280  1.00  0.00     0.010 A 
ATOM     34  C   UNL A   1      36.945  31.646  29.299  1.00  0.00    -0.014 A 
BRANCH  34  35
ATOM     35  C   UNL A   1      38.066  30.964  29.981  1.00  0.00     0.031 A 
ATOM     36  C   UNL A   1      38.881  29.902  29.320  1.00  0.00     0.074 A 
ATOM     37  C   UNL A   1      38.297  31.319  31.258  1.00  0.00     0.049 A 
ATOM     38  N   UNL A   1      39.932  29.281  29.784  1.00  0.00    -0.248 NA
ATOM     39  C   UNL A   1      38.468  29.475  27.977  1.00  0.00     0.031 C 
ATOM     40  C   UNL A   1      37.512  32.316  31.991  1.00  0.00     0.029 A 
ATOM     41  N   UNL A   1      39.232  30.896  32.164  1.00  0.00    -0.354 N 
ATOM     42  C   UNL A   1      40.317  28.390  28.793  1.00  0.00     0.074 A 
ATOM     43  C   UNL A   1      39.363  28.529  27.712  1.00  0.00     0.031 C 
ATOM     44  C   UNL A   1      38.008  32.439  33.227  1.00  0.00     0.029 A 
ATOM     45  C   UNL A   1      39.121  31.507  33.390  1.00  0.00     0.049 A 
ATOM     46  H   UNL A   1      39.917  30.219  31.958  1.00  0.00     0.167 HD
ATOM     47  C   UNL A   1      41.379  27.550  28.798  1.00  0.00     0.034 A 
ATOM     48  C   UNL A   1      39.829  31.339  34.524  1.00  0.00     0.034 A 
ATOM     49  C   UNL A   1      42.303  27.440  29.902  1.00  0.00     0.049 A 
ATOM     50  C   UNL A   1      40.996  30.392  34.506  1.00  0.00     0.074 A 
ATOM     51  C   UNL A   1      43.466  26.694  29.965  1.00  0.00     0.029 A 
ATOM     52  N   UNL A   1      42.162  28.063  31.135  1.00  0.00    -0.354 N 
ATOM     53  N   UNL A   1      41.440  29.663  33.510  1.00  0.00    -0.248 NA
ATOM     54  C   UNL A   1      41.768  30.250  35.746  1.00  0.00     0.031 C 
ATOM     55  C   UNL A   1      43.976  26.793  31.259  1.00  0.00     0.029 A 
ATOM     56  C   UNL A   1      43.186  27.673  31.983  1.00  0.00     0.049 A 
ATOM     57  H   UNL A   1      41.440  28.690  31.371  1.00  0.00     0.167 HD
ATOM     58  C   UNL A   1      42.554  28.986  33.996  1.00  0.00     0.074 A 
ATOM     59  C   UNL A   1      42.727  29.410  35.371  1.00  0.00     0.031 C 
ATOM     60  C   UNL A   1      43.355  28.098  33.355  1.00  0.00     0.034 A 
BRANCH  47  61
ATOM     61  C   UNL A   1      41.635  26.679  27.592  1.00  0.00     0.023 A 
ATOM     62  C   UNL A   1      41.397  25.293  27.663  1.00  0.00     0.031 A 
ATOM     63  C   UNL A   1      42.262  27.185  26.439  1.00  0.00     0.131 A 
ATOM     64  C   UNL A   1      41.816  24.457  26.620  1.00  0.00     0.055 A 
ATOM     65  C   UNL A   1      42.642  26.353  25.384  1.00  0.00     0.041 A 
ATOM     66  F   UNL A   1      42.522  28.498  26.325  1.00  0.00    -0.206 F 
ATOM     67  C   UNL A   1      42.432  24.980  25.479  1.00  0.00     0.022 A 
BRANCH  64  68
ATOM     68  S   UNL A   1      41.652  22.654  26.737  1.00  0.00     0.124 S 
ATOM     69  O   UNL A   1      40.267  22.510  27.183  1.00  0.00    -0.237 OA
ATOM     70  O   UNL A   1      41.910  22.233  25.363  1.00  0.00    -0.237 OA
ATOM     71  O   UNL A   1      42.662  22.271  27.717  1.00  0.00    -0.744 OA
ENDBRANCH  64  68
ENDBRANCH  47  61
BRANCH  48  72
ATOM     72  C   UNL A   1      39.464  32.162  35.711  1.00  0.00     0.023 A 
ATOM     73  C   UNL A   1      38.761  31.589  36.789  1.00  0.00     0.031 A 
ATOM     74  C   UNL A   1      39.636  33.555  35.697  1.00  0.00     0.131 A 
ATOM     75  C   UNL A   1      38.174  32.417  37.754  1.00  0.00     0.055 A 
ATOM     76  C   UNL A   1      39.115  34.368  36.704  1.00  0.00     0.041 A 
ATOM     77  F   UNL A   1      40.281  34.145  34.680  1.00  0.00    -0.206 F 
ATOM     78  C   UNL A   1      38.360  33.801  37.727  1.00  0.00     0.022 A 
BRANCH  75  79
ATOM     79  S   UNL A   1      37.016  31.739  38.976  1.00  0.00     0.124 S 
ATOM     80  O   UNL A   1      35.893  32.666  38.879  1.00  0.00    -0.237 OA
ATOM     81  O   UNL A   1      36.777  30.399  38.446  1.00  0.00    -0.237 OA
ATOM     82  O   UNL A   1      37.766  31.788  40.228  1.00  0.00    -0.744 OA
ENDBRANCH  75  79
ENDBRANCH  48  72
BRANCH  60  83
ATOM     83  C   UNL A   1      44.507  27.482  34.112  1.00  0.00     0.023 A 
ATOM     84  C   UNL A   1      44.293  26.335  34.900  1.00  0.00     0.031 A 
ATOM     85  C   UNL A   1      45.745  28.139  34.213  1.00  0.00     0.131 A 
ATOM     86  C   UNL A   1      45.274  25.921  35.809  1.00  0.00     0.055 A 
ATOM     87  C   UNL A   1      46.742  27.690  35.081  1.00  0.00     0.041 A 
ATOM     88  F   UNL A   1      45.994  29.240  33.487  1.00  0.00    -0.206 F 
ATOM     89  C   UNL A   1      46.501  26.588  35.899  1.00  0.00     0.022 A 
BRANCH  86  90
ATOM     90  S   UNL A   1      44.953  24.576  36.982  1.00  0.00     0.124 S 
ATOM     91  O   UNL A   1      46.243  24.447  37.657  1.00  0.00    -0.237 OA
ATOM     92  O   UNL A   1      43.876  25.129  37.797  1.00  0.00    -0.237 OA
ATOM     93  O   UNL A   1      44.584  23.448  36.132  1.00  0.00    -0.744 OA
ENDBRANCH  86  90
ENDBRANCH  60  83
ENDBRANCH  34  35
ENDBRANCH  27  29
ENDBRANCH  26  27
ENDBRANCH  25  26
ENDBRANCH  24  25
ENDBRANCH  23  24
ENDBRANCH   1  23
TORSDOF 22
ENDMDL
MODEL 2
REMARK VINA RESULT:     -10.6      1.612      7.623
REMARK SMILES O=C(CC1(C[S@](=O)C[C@H]2Cc3ccccc3S2)CC1)OCCOCCOC(=O)c1ccc(-c2c3nc(c(-c4cc(S(=O)(=O)[O-])ccc4F)c4ccc([nH]4)c(-c4cc(S(=O)(=O)[O-])ccc4F)c4nc(c(-c5cc(S(=O)(=O)[O-])ccc5F)c5ccc2[nH]5)C=C4)C=C3)cc1
REMARK SMILES IDX 22 1 21 2 20 3 2 4 1 5 3 6 4 7 18 8 19 9 5 10 6 11 7 12 8 13
REMARK SMILES IDX 9 14 10 15 17 16 11 17 16 18 12 19 15 20 13 21 14 22 23 23
REMARK SMILES IDX 24 24 25 25 26 26 27 27 28 28 29 29 30 30 91 31 31 32 90 33
REMARK SMILES IDX 32 34 33 35 34 36 84 37 35 38 89 39 83 40 85 41 36 42 88 43
REMARK SMILES IDX 82 44 81 45 37 47 69 48 49 49 68 50 50 51 53 52 67 53 86 54
REMARK SMILES IDX 51 55 52 56 66 58 87 59 54 60 38 61 39 62 47 63 40 64 46 65
REMARK SMILES IDX 48 66 45 67 41 68 42 69 43 70 44 71 70 72 71 73 79 74 72 75
REMARK SMILES IDX 78 76 80 77 77 78 73 79 74 80 75 81 76 82 55 83 56 84 64 85
REMARK SMILES IDX 57 86 63 87 65 88 62 89 58 90 59 91 60 92 61 93
REMARK H PARENT 85 46 53 57
REMARK Flexibility Score: inf
ROOT
ATOM      1  C   UNL A   1      33.379  29.472  25.762  1.00  0.00     0.202 C 
ENDROOT
BRANCH   1   2
ATOM      2  C   UNL A   1      33.633  28.312  24.790  1.00  0.00     0.261 C 
BRANCH   2   3
ATOM      3  O   UNL A   1      32.834  28.298  23.608  1.00  0.00    -0.463 OA
BRANCH   3   4
ATOM      4  C   UNL A   1      32.944  27.210  22.806  1.00  0.00     0.306 C 
ATOM      5  O   UNL A   1      33.888  27.078  22.033  1.00  0.00    -0.252 OA
BRANCH   4   6
ATOM      6  C   UNL A   1      31.742  26.300  22.760  1.00  0.00     0.130 C 
BRANCH   6   7
ATOM      7  C   UNL A   1      31.726  24.999  23.544  1.00  0.00    -0.008 C 
ATOM      8  C   UNL A   1      30.656  24.798  24.611  1.00  0.00     0.009 C 
ATOM      9  C   UNL A   1      30.631  23.950  23.382  1.00  0.00     0.009 C 
BRANCH   7  10
ATOM     10  C   UNL A   1      33.121  24.430  23.726  1.00  0.00     0.112 C 
BRANCH  10  11
ATOM     11  S   UNL A   1      33.676  24.565  25.473  1.00  0.00     0.023 S 
ATOM     12  O   UNL A   1      35.104  25.012  25.524  1.00  0.00    -0.260 OA
BRANCH  11  13
ATOM     13  C   UNL A   1      33.609  22.800  25.875  1.00  0.00     0.120 C 
BRANCH  13  14
ATOM     14  C   UNL A   1      33.715  21.788  24.723  1.00  0.00     0.068 C 
ATOM     15  C   UNL A   1      34.906  20.810  24.683  1.00  0.00     0.052 C 
ATOM     16  S   UNL A   1      32.174  20.815  24.479  1.00  0.00    -0.121 SA
ATOM     17  C   UNL A   1      34.402  19.403  24.593  1.00  0.00    -0.033 A 
ATOM     18  C   UNL A   1      33.026  19.270  24.438  1.00  0.00     0.011 A 
ATOM     19  C   UNL A   1      35.216  18.275  24.672  1.00  0.00     0.005 A 
ATOM     20  C   UNL A   1      32.445  18.017  24.305  1.00  0.00     0.015 A 
ATOM     21  C   UNL A   1      34.637  17.011  24.564  1.00  0.00     0.000 A 
ATOM     22  C   UNL A   1      33.258  16.883  24.366  1.00  0.00     0.001 A 
ENDBRANCH  13  14
ENDBRANCH  11  13
ENDBRANCH  10  11
ENDBRANCH   7  10
ENDBRANCH   6   7
ENDBRANCH   4   6
ENDBRANCH   3   4
ENDBRANCH   2   3
ENDBRANCH   1   2
BRANCH   1  23
ATOM     23  O   UNL A   1      32.293  30.355  25.524  1.00  0.00    -0.374 OA
BRANCH  23  24
ATOM     24  C   UNL A   1      31.582  30.857  26.658  1.00  0.00     0.202 C 
BRANCH  24  25
ATOM     25  C   UNL A   1      31.499  32.381  26.757  1.00  0.00     0.261 C 
BRANCH  25  26
ATOM     26  O   UNL A   1      32.817  32.942  26.683  1.00  0.00    -0.460 OA
BRANCH  26  27
ATOM     27  C   UNL A   1      33.213  33.671  27.756  1.00  0.00     0.338 C 
ATOM     28  O   UNL A   1      32.574  34.533  28.336  1.00  0.00    -0.246 OA
BRANCH  27  29
ATOM     29  C   UNL A   1      34.440  33.038  28.288  1.00  0.00     0.060 A 
ATOM     30  C   UNL A   1      35.683  33.669  28.197  1.00  0.00     0.016 A 
ATOM     31  C   UNL A   1      34.338  31.736  28.804  1.00  0.00     0.016 A 
ATOM     32  C   UNL A   1      36.822  33.007  28.654  1.00  0.00     0.010 A 
ATOM     33  C   UNL A   1      35.477  31.072  29.249  1.00  0.00     0.010 A 
ATOM     34  C   UNL A   1      36.720  31.718  29.203  1.00  0.00    -0.014 A 
BRANCH  34  35
ATOM     35  C   UNL A   1      37.860  31.154  29.957  1.00  0.00     0.031 A 
ATOM     36  C   UNL A   1      38.157  31.537  31.369  1.00  0.00     0.074 A 
ATOM     37  C   UNL A   1      38.656  30.298  29.290  1.00  0.00     0.049 A 
ATOM     38  N   UNL A   1      39.080  31.061  32.161  1.00  0.00    -0.248 NA
ATOM     39  C   UNL A   1      37.324  32.587  31.971  1.00  0.00     0.031 C 
ATOM     40  C   UNL A   1      38.460  29.909  27.892  1.00  0.00     0.029 A 
ATOM     41  N   UNL A   1      39.774  29.608  29.677  1.00  0.00    -0.354 N 
ATOM     42  C   UNL A   1      38.943  31.745  33.360  1.00  0.00     0.074 A 
ATOM     43  C   UNL A   1      37.865  32.695  33.180  1.00  0.00     0.031 C 
ATOM     44  C   UNL A   1      39.415  29.040  27.542  1.00  0.00     0.029 A 
ATOM     45  C   UNL A   1      40.312  28.835  28.676  1.00  0.00     0.049 A 
ATOM     46  H   UNL A   1      40.156  29.662  30.583  1.00  0.00     0.167 HD
ATOM     47  C   UNL A   1      39.655  31.573  34.500  1.00  0.00     0.034 A 
ATOM     48  C   UNL A   1      41.407  28.050  28.664  1.00  0.00     0.034 A 
ATOM     49  C   UNL A   1      40.727  30.617  34.634  1.00  0.00     0.049 A 
ATOM     50  C   UNL A   1      42.184  27.884  29.939  1.00  0.00     0.074 A 
ATOM     51  C   UNL A   1      41.442  30.296  35.774  1.00  0.00     0.029 A 
ATOM     52  N   UNL A   1      41.258  29.853  33.602  1.00  0.00    -0.354 N 
ATOM     53  N   UNL A   1      41.954  28.426  31.112  1.00  0.00    -0.248 NA
ATOM     54  C   UNL A   1      43.355  27.001  29.906  1.00  0.00     0.031 C 
ATOM     55  C   UNL A   1      42.458  29.412  35.414  1.00  0.00     0.029 A 
ATOM     56  C   UNL A   1      42.328  29.105  34.068  1.00  0.00     0.049 A 
ATOM     57  H   UNL A   1      40.923  29.845  32.676  1.00  0.00     0.167 HD
ATOM     58  C   UNL A   1      42.940  27.937  31.962  1.00  0.00     0.074 A 
ATOM     59  C   UNL A   1      43.757  27.039  31.171  1.00  0.00     0.031 C 
ATOM     60  C   UNL A   1      43.141  28.210  33.276  1.00  0.00     0.034 A 
BRANCH  47  61
ATOM     61  C   UNL A   1      39.318  32.409  35.711  1.00  0.00     0.023 A 
ATOM     62  C   UNL A   1      39.947  33.656  35.900  1.00  0.00     0.031 A 
ATOM     63  C   UNL A   1      38.511  31.911  36.748  1.00  0.00     0.131 A 
ATOM     64  C   UNL A   1      39.788  34.341  37.111  1.00  0.00     0.055 A 
ATOM     65  C   UNL A   1      38.324  32.617  37.939  1.00  0.00     0.041 A 
ATOM     66  F   UNL A   1      37.897  30.722  36.623  1.00  0.00    -0.206 F 
ATOM     67  C   UNL A   1      38.976  33.831  38.129  1.00  0.00     0.022 A 
BRANCH  64  68
ATOM     68  S   UNL A   1      40.691  35.880  37.445  1.00  0.00     0.124 S 
ATOM     69  O   UNL A   1      41.637  35.452  38.475  1.00  0.00    -0.237 OA
ATOM     70  O   UNL A   1      41.282  36.177  36.143  1.00  0.00    -0.237 OA
ATOM     71  O   UNL A   1      39.657  36.803  37.897  1.00  0.00    -0.744 OA
ENDBRANCH  64  68
ENDBRANCH  47  61
BRANCH  48  72
ATOM     72  C   UNL A   1      41.739  27.324  27.406  1.00  0.00     0.023 A 
ATOM     73  C   UNL A   1      41.574  25.929  27.321  1.00  0.00     0.031 A 
ATOM     74  C   UNL A   1      42.403  27.979  26.356  1.00  0.00     0.131 A 
ATOM     75  C   UNL A   1      42.152  25.223  26.257  1.00  0.00     0.055 A 
ATOM     76  C   UNL A   1      42.909  27.280  25.260  1.00  0.00     0.041 A 
ATOM     77  F   UNL A   1      42.601  29.305  26.405  1.00  0.00    -0.206 F 
ATOM     78  C   UNL A   1      42.805  25.892  25.219  1.00  0.00     0.022 A 
BRANCH  75  79
ATOM     79  S   UNL A   1      42.220  23.410  26.275  1.00  0.00     0.124 S 
ATOM     80  O   UNL A   1      43.014  23.146  27.471  1.00  0.00    -0.237 OA
ATOM     81  O   UNL A   1      40.804  23.062  26.368  1.00  0.00    -0.237 OA
ATOM     82  O   UNL A   1      42.861  23.076  25.007  1.00  0.00    -0.744 OA
ENDBRANCH  75  79
ENDBRANCH  48  72
BRANCH  60  83
ATOM     83  C   UNL A   1      44.303  27.555  33.983  1.00  0.00     0.023 A 
ATOM     84  C   UNL A   1      44.090  26.395  34.754  1.00  0.00     0.031 A 
ATOM     85  C   UNL A   1      45.557  28.184  34.059  1.00  0.00     0.131 A 
ATOM     86  C   UNL A   1      45.089  25.943  35.623  1.00  0.00     0.055 A 
ATOM     87  C   UNL A   1      46.571  27.696  34.886  1.00  0.00     0.041 A 
ATOM     88  F   UNL A   1      45.807  29.295  33.348  1.00  0.00    -0.206 F 
ATOM     89  C   UNL A   1      46.332  26.583  35.688  1.00  0.00     0.022 A 
BRANCH  86  90
ATOM     90  S   UNL A   1      44.776  24.579  36.777  1.00  0.00     0.124 S 
ATOM     91  O   UNL A   1      44.602  23.446  35.870  1.00  0.00    -0.237 OA
ATOM     92  O   UNL A   1      46.003  24.560  37.569  1.00  0.00    -0.237 OA
ATOM     93  O   UNL A   1      43.572  24.991  37.492  1.00  0.00    -0.744 OA
ENDBRANCH  86  90
ENDBRANCH  60  83
ENDBRANCH  34  35
ENDBRANCH  27  29
ENDBRANCH  26  27
ENDBRANCH  25  26
ENDBRANCH  24  25
ENDBRANCH  23  24
ENDBRANCH   1  23
TORSDOF 22
ENDMDL
MODEL 3
REMARK VINA RESULT:     -10.5      1.600      7.621
REMARK SMILES O=C(CC1(C[S@](=O)C[C@H]2Cc3ccccc3S2)CC1)OCCOCCOC(=O)c1ccc(-c2c3nc(c(-c4cc(S(=O)(=O)[O-])ccc4F)c4ccc([nH]4)c(-c4cc(S(=O)(=O)[O-])ccc4F)c4nc(c(-c5cc(S(=O)(=O)[O-])ccc5F)c5ccc2[nH]5)C=C4)C=C3)cc1
REMARK SMILES IDX 22 1 21 2 20 3 2 4 1 5 3 6 4 7 18 8 19 9 5 10 6 11 7 12 8 13
REMARK SMILES IDX 9 14 10 15 17 16 11 17 16 18 12 19 15 20 13 21 14 22 23 23
REMARK SMILES IDX 24 24 25 25 26 26 27 27 28 28 29 29 30 30 91 31 31 32 90 33
REMARK SMILES IDX 32 34 33 35 34 36 84 37 35 38 89 39 83 40 85 41 36 42 88 43
REMARK SMILES IDX 82 44 81 45 37 47 69 48 49 49 68 50 50 51 53 52 67 53 86 54
REMARK SMILES IDX 51 55 52 56 66 58 87 59 54 60 38 61 39 62 47 63 40 64 46 65
REMARK SMILES IDX 48 66 45 67 41 68 42 69 43 70 44 71 70 72 71 73 79 74 72 75
REMARK SMILES IDX 78 76 80 77 77 78 73 79 74 80 75 81 76 82 55 83 56 84 64 85
REMARK SMILES IDX 57 86 63 87 65 88 62 89 58 90 59 91 60 92 61 93
REMARK H PARENT 85 46 53 57
REMARK Flexibility Score: inf
ROOT
ATOM      1  C   UNL A   1      32.486  30.587  26.905  1.00  0.00     0.202 C 
ENDROOT
BRANCH   1   2
ATOM      2  C   UNL A   1      33.070  29.672  25.820  1.00  0.00     0.261 C 
BRANCH   2   3
ATOM      3  O   UNL A   1      32.230  29.418  24.695  1.00  0.00    -0.463 OA
BRANCH   3   4
ATOM      4  C   UNL A   1      31.498  28.277  24.722  1.00  0.00     0.306 C 
ATOM      5  O   UNL A   1      30.436  28.184  24.114  1.00  0.00    -0.252 OA
BRANCH   4   6
ATOM      6  C   UNL A   1      31.946  27.228  25.709  1.00  0.00     0.130 C 
BRANCH   6   7
ATOM      7  C   UNL A   1      32.596  25.942  25.229  1.00  0.00    -0.008 C 
ATOM      8  C   UNL A   1      33.789  26.030  24.284  1.00  0.00     0.009 C 
ATOM      9  C   UNL A   1      33.990  25.507  25.668  1.00  0.00     0.009 C 
BRANCH   7  10
ATOM     10  C   UNL A   1      31.592  24.810  25.109  1.00  0.00     0.112 C 
BRANCH  10  11
ATOM     11  S   UNL A   1      31.045  24.583  23.369  1.00  0.00     0.023 S 
ATOM     12  O   UNL A   1      29.671  25.148  23.186  1.00  0.00    -0.260 OA
BRANCH  11  13
ATOM     13  C   UNL A   1      30.927  22.775  23.398  1.00  0.00     0.120 C 
BRANCH  13  14
ATOM     14  C   UNL A   1      32.227  21.961  23.315  1.00  0.00     0.068 C 
ATOM     15  C   UNL A   1      33.479  22.597  22.680  1.00  0.00     0.052 C 
ATOM     16  S   UNL A   1      32.719  21.230  24.929  1.00  0.00    -0.121 SA
ATOM     17  C   UNL A   1      34.626  22.521  23.638  1.00  0.00    -0.033 A 
ATOM     18  C   UNL A   1      34.382  21.808  24.807  1.00  0.00     0.011 A 
ATOM     19  C   UNL A   1      35.864  23.123  23.423  1.00  0.00     0.005 A 
ATOM     20  C   UNL A   1      35.381  21.637  25.755  1.00  0.00     0.015 A 
ATOM     21  C   UNL A   1      36.865  22.977  24.383  1.00  0.00     0.000 A 
ATOM     22  C   UNL A   1      36.630  22.224  25.537  1.00  0.00     0.001 A 
ENDBRANCH  13  14
ENDBRANCH  11  13
ENDBRANCH  10  11
ENDBRANCH   7  10
ENDBRANCH   6   7
ENDBRANCH   4   6
ENDBRANCH   3   4
ENDBRANCH   2   3
ENDBRANCH   1   2
BRANCH   1  23
ATOM     23  O   UNL A   1      31.539  31.580  26.542  1.00  0.00    -0.374 OA
BRANCH  23  24
ATOM     24  C   UNL A   1      31.809  32.931  26.929  1.00  0.00     0.202 C 
BRANCH  24  25
ATOM     25  C   UNL A   1      33.147  33.155  27.631  1.00  0.00     0.261 C 
BRANCH  25  26
ATOM     26  O   UNL A   1      33.244  34.519  28.064  1.00  0.00    -0.460 OA
BRANCH  26  27
ATOM     27  C   UNL A   1      33.463  34.708  29.389  1.00  0.00     0.338 C 
ATOM     28  O   UNL A   1      32.705  35.222  30.193  1.00  0.00    -0.246 OA
BRANCH  27  29
ATOM     29  C   UNL A   1      34.660  33.917  29.752  1.00  0.00     0.060 A 
ATOM     30  C   UNL A   1      35.918  34.218  29.225  1.00  0.00     0.016 A 
ATOM     31  C   UNL A   1      34.480  32.791  30.570  1.00  0.00     0.016 A 
ATOM     32  C   UNL A   1      37.006  33.407  29.546  1.00  0.00     0.010 A 
ATOM     33  C   UNL A   1      35.564  31.975  30.879  1.00  0.00     0.010 A 
ATOM     34  C   UNL A   1      36.838  32.298  30.392  1.00  0.00    -0.014 A 
BRANCH  34  35
ATOM     35  C   UNL A   1      38.027  31.634  30.968  1.00  0.00     0.031 A 
ATOM     36  C   UNL A   1      38.578  31.996  32.308  1.00  0.00     0.074 A 
ATOM     37  C   UNL A   1      38.625  30.703  30.202  1.00  0.00     0.049 A 
ATOM     38  N   UNL A   1      39.568  31.440  32.954  1.00  0.00    -0.248 NA
ATOM     39  C   UNL A   1      37.950  33.122  33.011  1.00  0.00     0.031 C 
ATOM     40  C   UNL A   1      38.175  30.327  28.861  1.00  0.00     0.029 A 
ATOM     41  N   UNL A   1      39.722  29.914  30.422  1.00  0.00    -0.354 N 
ATOM     42  C   UNL A   1      39.686  32.141  34.145  1.00  0.00     0.074 A 
ATOM     43  C   UNL A   1      38.684  33.186  34.117  1.00  0.00     0.031 C 
ATOM     44  C   UNL A   1      38.978  29.370  28.382  1.00  0.00     0.029 A 
ATOM     45  C   UNL A   1      40.022  29.088  29.365  1.00  0.00     0.049 A 
ATOM     46  H   UNL A   1      40.247  29.937  31.255  1.00  0.00     0.167 HD
ATOM     47  C   UNL A   1      40.550  31.910  35.162  1.00  0.00     0.034 A 
ATOM     48  C   UNL A   1      41.024  28.204  29.197  1.00  0.00     0.034 A 
ATOM     49  C   UNL A   1      41.538  30.858  35.145  1.00  0.00     0.049 A 
ATOM     50  C   UNL A   1      41.975  27.974  30.337  1.00  0.00     0.074 A 
ATOM     51  C   UNL A   1      42.392  30.478  36.165  1.00  0.00     0.029 A 
ATOM     52  N   UNL A   1      41.826  30.042  34.059  1.00  0.00    -0.354 N 
ATOM     53  N   UNL A   1      41.985  28.541  31.520  1.00  0.00    -0.248 NA
ATOM     54  C   UNL A   1      43.040  26.984  30.138  1.00  0.00     0.031 C 
ATOM     55  C   UNL A   1      43.253  29.500  35.668  1.00  0.00     0.029 A 
ATOM     56  C   UNL A   1      42.883  29.199  34.366  1.00  0.00     0.049 A 
ATOM     57  H   UNL A   1      41.350  30.059  33.197  1.00  0.00     0.167 HD
ATOM     58  C   UNL A   1      43.044  27.967  32.214  1.00  0.00     0.074 A 
ATOM     59  C   UNL A   1      43.639  26.991  31.324  1.00  0.00     0.031 C 
ATOM     60  C   UNL A   1      43.475  28.227  33.474  1.00  0.00     0.034 A 
BRANCH  47  61
ATOM     61  C   UNL A   1      40.488  32.781  36.394  1.00  0.00     0.023 A 
ATOM     62  C   UNL A   1      39.770  32.346  37.525  1.00  0.00     0.031 A 
ATOM     63  C   UNL A   1      40.992  34.093  36.393  1.00  0.00     0.131 A 
ATOM     64  C   UNL A   1      39.544  33.227  38.590  1.00  0.00     0.055 A 
ATOM     65  C   UNL A   1      40.798  34.955  37.475  1.00  0.00     0.041 A 
ATOM     66  F   UNL A   1      41.674  34.561  35.334  1.00  0.00    -0.206 F 
ATOM     67  C   UNL A   1      40.059  34.527  38.573  1.00  0.00     0.022 A 
BRANCH  64  68
ATOM     68  S   UNL A   1      38.509  32.750  40.002  1.00  0.00     0.124 S 
ATOM     69  O   UNL A   1      39.513  32.354  40.987  1.00  0.00    -0.237 OA
ATOM     70  O   UNL A   1      37.802  33.993  40.298  1.00  0.00    -0.237 OA
ATOM     71  O   UNL A   1      37.686  31.663  39.483  1.00  0.00    -0.744 OA
ENDBRANCH  64  68
ENDBRANCH  47  61
BRANCH  48  72
ATOM     72  C   UNL A   1      41.085  27.443  27.917  1.00  0.00     0.023 A 
ATOM     73  C   UNL A   1      40.815  26.061  27.894  1.00  0.00     0.031 A 
ATOM     74  C   UNL A   1      41.598  28.039  26.754  1.00  0.00     0.131 A 
ATOM     75  C   UNL A   1      41.152  25.306  26.764  1.00  0.00     0.055 A 
ATOM     76  C   UNL A   1      41.859  27.294  25.604  1.00  0.00     0.041 A 
ATOM     77  F   UNL A   1      41.888  29.348  26.738  1.00  0.00    -0.206 F 
ATOM     78  C   UNL A   1      41.658  25.916  25.613  1.00  0.00     0.022 A 
BRANCH  75  79
ATOM     79  S   UNL A   1      41.102  23.492  26.811  1.00  0.00     0.124 S 
ATOM     80  O   UNL A   1      39.682  23.221  26.612  1.00  0.00    -0.237 OA
ATOM     81  O   UNL A   1      41.974  23.143  25.692  1.00  0.00    -0.237 OA
ATOM     82  O   UNL A   1      41.627  23.167  28.134  1.00  0.00    -0.744 OA
ENDBRANCH  75  79
ENDBRANCH  48  72
BRANCH  60  83
ATOM     83  C   UNL A   1      44.669  27.470  34.003  1.00  0.00     0.023 A 
ATOM     84  C   UNL A   1      44.478  26.277  34.726  1.00  0.00     0.031 A 
ATOM     85  C   UNL A   1      45.958  28.029  33.969  1.00  0.00     0.131 A 
ATOM     86  C   UNL A   1      45.541  25.719  35.445  1.00  0.00     0.055 A 
ATOM     87  C   UNL A   1      47.029  27.438  34.643  1.00  0.00     0.041 A 
ATOM     88  F   UNL A   1      46.190  29.168  33.298  1.00  0.00    -0.206 F 
ATOM     89  C   UNL A   1      46.818  26.290  35.402  1.00  0.00     0.022 A 
BRANCH  86  90
ATOM     90  S   UNL A   1      45.282  24.303  36.548  1.00  0.00     0.124 S 
ATOM     91  O   UNL A   1      46.644  24.005  36.985  1.00  0.00    -0.237 OA
ATOM     92  O   UNL A   1      44.408  24.867  37.573  1.00  0.00    -0.237 OA
ATOM     93  O   UNL A   1      44.673  23.293  35.688  1.00  0.00    -0.744 OA
ENDBRANCH  86  90
ENDBRANCH  60  83
ENDBRANCH  34  35
ENDBRANCH  27  29
ENDBRANCH  26  27
ENDBRANCH  25  26
ENDBRANCH  24  25
ENDBRANCH  23  24
ENDBRANCH   1  23
TORSDOF 22
ENDMDL
