MODEL 1
REMARK VINA RESULT:     -10.8      0.000      0.000
REMARK SMILES COc1ccccc1NC(=O)N[C@@](C)(C(=O)OCCOCCOC(=O)c1ccc(-c2c3nc(c(-c4cc(S(=O)(=O)[O-])ccc4F)c4ccc([nH]4)c(-c4cc(S(=O)(=O)[O-])ccc4F)c4nc(c(-c5cc(S(=O)(=O)[O-])ccc5F)c5ccc2[nH]5)C=C4)C=C3)cc1)C(F)(F)F
REMARK SMILES IDX 20 1 19 2 18 3 17 4 15 5 16 6 13 7 14 8 12 9 9 10 10 11
REMARK SMILES IDX 11 13 8 15 3 16 4 17 5 18 7 19 6 20 2 21 1 22 89 23 90 24
REMARK SMILES IDX 91 25 92 26 21 27 22 28 23 29 24 30 25 31 26 32 27 33 88 34
REMARK SMILES IDX 28 35 87 36 29 37 30 38 31 39 81 40 32 41 86 42 80 43 82 44
REMARK SMILES IDX 33 45 85 46 79 47 78 48 34 50 66 51 46 52 65 53 47 54 50 55
REMARK SMILES IDX 64 56 83 57 48 58 49 59 63 61 84 62 51 63 35 64 36 65 44 66
REMARK SMILES IDX 37 67 43 68 45 69 42 70 38 71 39 72 40 73 41 74 67 75 68 76
REMARK SMILES IDX 76 77 69 78 75 79 77 80 74 81 70 82 71 83 72 84 73 85 52 86
REMARK SMILES IDX 53 87 61 88 54 89 60 90 62 91 59 92 55 93 56 94 57 95 58 96
REMARK H PARENT 9 12 12 14 82 49 50 60
REMARK Flexibility Score: inf
ROOT
ATOM      1  O   UNL A   1      31.870  30.597  26.066  1.00  0.00    -0.374 OA
ENDROOT
BRANCH   1   2
ATOM      2  C   UNL A   1      32.080  29.744  27.186  1.00  0.00     0.202 C 
BRANCH   2   3
ATOM      3  C   UNL A   1      31.693  28.264  27.060  1.00  0.00     0.261 C 
BRANCH   3   4
ATOM      4  O   UNL A   1      32.595  27.498  26.235  1.00  0.00    -0.461 OA
BRANCH   4   5
ATOM      5  C   UNL A   1      31.924  26.756  25.309  1.00  0.00     0.341 C 
ATOM      6  O   UNL A   1      30.921  27.166  24.728  1.00  0.00    -0.249 OA
BRANCH   5   7
ATOM      7  C   UNL A   1      32.709  25.514  24.834  1.00  0.00     0.232 C 
ATOM      8  C   UNL A   1      34.180  25.895  25.090  1.00  0.00     0.058 C 
BRANCH   7   9
ATOM      9  N   UNL A   1      32.606  25.211  23.370  1.00  0.00    -0.314 N 
ATOM     10  N   UNL A   1      34.042  23.379  22.714  1.00  0.00    -0.305 N 
ATOM     11  C   UNL A   1      33.256  24.444  22.485  1.00  0.00     0.320 C 
ATOM     12  H   UNL A   1      34.351  22.978  21.871  1.00  0.00     0.172 HD
ATOM     13  O   UNL A   1      33.022  24.686  21.293  1.00  0.00    -0.248 OA
ATOM     14  H   UNL A   1      31.868  25.708  22.947  1.00  0.00     0.166 HD
BRANCH  10  15
ATOM     15  C   UNL A   1      34.545  22.682  23.823  1.00  0.00     0.085 A 
ATOM     16  C   UNL A   1      33.844  21.550  24.283  1.00  0.00     0.142 A 
ATOM     17  C   UNL A   1      34.137  20.991  25.530  1.00  0.00     0.048 A 
ATOM     18  C   UNL A   1      35.222  21.466  26.262  1.00  0.00     0.004 A 
ATOM     19  C   UNL A   1      35.717  23.033  24.482  1.00  0.00     0.030 A 
ATOM     20  C   UNL A   1      36.048  22.439  25.706  1.00  0.00     0.002 A 
BRANCH  16  21
ATOM     21  O   UNL A   1      32.760  21.044  23.612  1.00  0.00    -0.495 OA
ATOM     22  C   UNL A   1      32.557  19.660  23.911  1.00  0.00     0.278 C 
ENDBRANCH  16  21
ENDBRANCH  10  15
ENDBRANCH   7   9
BRANCH   7  23
ATOM     23  C   UNL A   1      32.089  24.460  25.797  1.00  0.00     0.422 C 
ATOM     24  F   UNL A   1      33.022  23.888  26.593  1.00  0.00    -0.168 F 
ATOM     25  F   UNL A   1      31.121  24.988  26.575  1.00  0.00    -0.168 F 
ATOM     26  F   UNL A   1      31.502  23.405  25.182  1.00  0.00    -0.168 F 
ENDBRANCH   7  23
ENDBRANCH   5   7
ENDBRANCH   4   5
ENDBRANCH   3   4
ENDBRANCH   2   3
ENDBRANCH   1   2
BRANCH   1  27
ATOM     27  C   UNL A   1      31.023  31.733  26.221  1.00  0.00     0.202 C 
BRANCH  27  28
ATOM     28  C   UNL A   1      31.589  33.022  26.836  1.00  0.00     0.261 C 
BRANCH  28  29
ATOM     29  O   UNL A   1      33.024  33.106  26.785  1.00  0.00    -0.460 OA
BRANCH  29  30
ATOM     30  C   UNL A   1      33.599  33.606  27.905  1.00  0.00     0.338 C 
ATOM     31  O   UNL A   1      33.109  34.409  28.690  1.00  0.00    -0.246 OA
BRANCH  30  32
ATOM     32  C   UNL A   1      34.846  32.880  28.200  1.00  0.00     0.060 A 
ATOM     33  C   UNL A   1      34.747  31.526  28.550  1.00  0.00     0.016 A 
ATOM     34  C   UNL A   1      36.076  33.537  28.236  1.00  0.00     0.016 A 
ATOM     35  C   UNL A   1      35.873  30.831  28.977  1.00  0.00     0.010 A 
ATOM     36  C   UNL A   1      37.203  32.844  28.688  1.00  0.00     0.010 A 
ATOM     37  C   UNL A   1      37.095  31.501  29.096  1.00  0.00    -0.014 A 
BRANCH  37  38
ATOM     38  C   UNL A   1      38.198  30.839  29.828  1.00  0.00     0.031 A 
ATOM     39  C   UNL A   1      38.406  31.183  31.278  1.00  0.00     0.074 A 
ATOM     40  C   UNL A   1      38.949  29.898  29.230  1.00  0.00     0.049 A 
ATOM     41  N   UNL A   1      39.318  30.759  32.111  1.00  0.00    -0.248 NA
ATOM     42  C   UNL A   1      37.450  32.137  31.865  1.00  0.00     0.031 C 
ATOM     43  C   UNL A   1      38.778  29.437  27.852  1.00  0.00     0.029 A 
ATOM     44  N   UNL A   1      40.002  29.160  29.704  1.00  0.00    -0.354 N 
ATOM     45  C   UNL A   1      39.054  31.398  33.317  1.00  0.00     0.074 A 
ATOM     46  C   UNL A   1      37.919  32.265  33.096  1.00  0.00     0.031 C 
ATOM     47  C   UNL A   1      39.704  28.498  27.590  1.00  0.00     0.029 A 
ATOM     48  C   UNL A   1      40.558  28.327  28.763  1.00  0.00     0.049 A 
ATOM     49  H   UNL A   1      40.329  29.221  30.631  1.00  0.00     0.167 HD
ATOM     50  C   UNL A   1      39.701  31.264  34.502  1.00  0.00     0.034 A 
ATOM     51  C   UNL A   1      41.652  27.542  28.835  1.00  0.00     0.034 A 
ATOM     52  C   UNL A   1      40.839  30.397  34.692  1.00  0.00     0.049 A 
ATOM     53  C   UNL A   1      42.419  27.490  30.136  1.00  0.00     0.074 A 
ATOM     54  C   UNL A   1      41.573  30.178  35.845  1.00  0.00     0.029 A 
ATOM     55  N   UNL A   1      41.417  29.614  33.700  1.00  0.00    -0.354 N 
ATOM     56  N   UNL A   1      42.170  28.105  31.270  1.00  0.00    -0.248 NA
ATOM     57  C   UNL A   1      43.609  26.631  30.168  1.00  0.00     0.031 C 
ATOM     58  C   UNL A   1      42.640  29.332  35.529  1.00  0.00     0.029 A 
ATOM     59  C   UNL A   1      42.519  28.943  34.204  1.00  0.00     0.049 A 
ATOM     60  H   UNL A   1      41.089  29.546  32.773  1.00  0.00     0.167 HD
ATOM     61  C   UNL A   1      43.152  27.677  32.159  1.00  0.00     0.074 A 
ATOM     62  C   UNL A   1      43.987  26.742  31.433  1.00  0.00     0.031 C 
ATOM     63  C   UNL A   1      43.346  28.020  33.459  1.00  0.00     0.034 A 
BRANCH  50  64
ATOM     64  C   UNL A   1      39.230  32.119  35.654  1.00  0.00     0.023 A 
ATOM     65  C   UNL A   1      39.645  33.454  35.812  1.00  0.00     0.031 A 
ATOM     66  C   UNL A   1      38.369  31.581  36.627  1.00  0.00     0.131 A 
ATOM     67  C   UNL A   1      39.255  34.179  36.947  1.00  0.00     0.055 A 
ATOM     68  C   UNL A   1      37.918  32.335  37.712  1.00  0.00     0.041 A 
ATOM     69  F   UNL A   1      37.960  30.304  36.546  1.00  0.00    -0.206 F 
ATOM     70  C   UNL A   1      38.372  33.638  37.885  1.00  0.00     0.022 A 
BRANCH  67  71
ATOM     71  S   UNL A   1      40.032  35.788  37.260  1.00  0.00     0.124 S 
ATOM     72  O   UNL A   1      41.427  35.408  37.464  1.00  0.00    -0.237 OA
ATOM     73  O   UNL A   1      39.741  36.522  36.033  1.00  0.00    -0.237 OA
ATOM     74  O   UNL A   1      39.344  36.274  38.455  1.00  0.00    -0.744 OA
ENDBRANCH  67  71
ENDBRANCH  50  64
BRANCH  51  75
ATOM     75  C   UNL A   1      42.121  26.784  27.640  1.00  0.00     0.023 A 
ATOM     76  C   UNL A   1      41.811  25.425  27.473  1.00  0.00     0.031 A 
ATOM     77  C   UNL A   1      42.940  27.395  26.672  1.00  0.00     0.131 A 
ATOM     78  C   UNL A   1      42.360  24.710  26.396  1.00  0.00     0.055 A 
ATOM     79  C   UNL A   1      43.430  26.695  25.569  1.00  0.00     0.041 A 
ATOM     80  F   UNL A   1      43.273  28.691  26.784  1.00  0.00    -0.206 F 
ATOM     81  C   UNL A   1      43.153  25.339  25.435  1.00  0.00     0.022 A 
BRANCH  78  82
ATOM     82  S   UNL A   1      42.106  22.915  26.327  1.00  0.00     0.124 S 
ATOM     83  O   UNL A   1      40.658  22.816  26.469  1.00  0.00    -0.237 OA
ATOM     84  O   UNL A   1      42.647  22.583  25.014  1.00  0.00    -0.237 OA
ATOM     85  O   UNL A   1      42.881  22.418  27.462  1.00  0.00    -0.744 OA
ENDBRANCH  78  82
ENDBRANCH  51  75
BRANCH  63  86
ATOM     86  C   UNL A   1      44.476  27.334  34.191  1.00  0.00     0.023 A 
ATOM     87  C   UNL A   1      44.322  26.064  34.774  1.00  0.00     0.031 A 
ATOM     88  C   UNL A   1      45.725  27.970  34.313  1.00  0.00     0.131 A 
ATOM     89  C   UNL A   1      45.378  25.499  35.504  1.00  0.00     0.055 A 
ATOM     90  C   UNL A   1      46.795  27.370  34.979  1.00  0.00     0.041 A 
ATOM     91  F   UNL A   1      45.929  29.186  33.780  1.00  0.00    -0.206 F 
ATOM     92  C   UNL A   1      46.620  26.133  35.593  1.00  0.00     0.022 A 
BRANCH  89  93
ATOM     93  S   UNL A   1      45.074  23.968  36.428  1.00  0.00     0.124 S 
ATOM     94  O   UNL A   1      46.355  23.280  36.304  1.00  0.00    -0.237 OA
ATOM     95  O   UNL A   1      44.743  24.465  37.758  1.00  0.00    -0.237 OA
ATOM     96  O   UNL A   1      43.965  23.346  35.706  1.00  0.00    -0.744 OA
ENDBRANCH  89  93
ENDBRANCH  63  86
ENDBRANCH  37  38
ENDBRANCH  30  32
ENDBRANCH  29  30
ENDBRANCH  28  29
ENDBRANCH  27  28
ENDBRANCH   1  27
TORSDOF 21
ENDMDL
MODEL 2
REMARK VINA RESULT:     -10.5      2.032      2.601
REMARK SMILES COc1ccccc1NC(=O)N[C@@](C)(C(=O)OCCOCCOC(=O)c1ccc(-c2c3nc(c(-c4cc(S(=O)(=O)[O-])ccc4F)c4ccc([nH]4)c(-c4cc(S(=O)(=O)[O-])ccc4F)c4nc(c(-c5cc(S(=O)(=O)[O-])ccc5F)c5ccc2[nH]5)C=C4)C=C3)cc1)C(F)(F)F
REMARK SMILES IDX 20 1 19 2 18 3 17 4 15 5 16 6 13 7 14 8 12 9 9 10 10 11
REMARK SMILES IDX 11 13 8 15 3 16 4 17 5 18 7 19 6 20 2 21 1 22 89 23 90 24
REMARK SMILES IDX 91 25 92 26 21 27 22 28 23 29 24 30 25 31 26 32 27 33 88 34
REMARK SMILES IDX 28 35 87 36 29 37 30 38 31 39 81 40 32 41 86 42 80 43 82 44
REMARK SMILES IDX 33 45 85 46 79 47 78 48 34 50 66 51 46 52 65 53 47 54 50 55
REMARK SMILES IDX 64 56 83 57 48 58 49 59 63 61 84 62 51 63 35 64 36 65 44 66
REMARK SMILES IDX 37 67 43 68 45 69 42 70 38 71 39 72 40 73 41 74 67 75 68 76
REMARK SMILES IDX 76 77 69 78 75 79 77 80 74 81 70 82 71 83 72 84 73 85 52 86
REMARK SMILES IDX 53 87 61 88 54 89 60 90 62 91 59 92 55 93 56 94 57 95 58 96
REMARK H PARENT 9 12 12 14 82 49 50 60
REMARK Flexibility Score: inf
ROOT
ATOM      1  O   UNL A   1      31.562  29.524  24.803  1.00  0.00    -0.374 OA
ENDROOT
BRANCH   1   2
ATOM      2  C   UNL A   1      30.634  29.205  23.771  1.00  0.00     0.202 C 
BRANCH   2   3
ATOM      3  C   UNL A   1      30.049  27.787  23.726  1.00  0.00     0.261 C 
BRANCH   3   4
ATOM      4  O   UNL A   1      30.772  26.837  24.535  1.00  0.00    -0.461 OA
BRANCH   4   5
ATOM      5  C   UNL A   1      31.417  25.911  23.771  1.00  0.00     0.341 C 
ATOM      6  O   UNL A   1      31.681  26.096  22.584  1.00  0.00    -0.249 OA
BRANCH   5   7
ATOM      7  C   UNL A   1      32.055  24.773  24.596  1.00  0.00     0.232 C 
ATOM      8  C   UNL A   1      31.977  23.556  23.655  1.00  0.00     0.058 C 
BRANCH   7   9
ATOM      9  N   UNL A   1      31.310  24.386  25.838  1.00  0.00    -0.314 N 
ATOM     10  N   UNL A   1      32.141  22.327  26.796  1.00  0.00    -0.305 N 
ATOM     11  C   UNL A   1      31.249  23.319  26.645  1.00  0.00     0.320 C 
ATOM     12  H   UNL A   1      31.858  21.697  27.496  1.00  0.00     0.172 HD
ATOM     13  O   UNL A   1      30.290  23.295  27.428  1.00  0.00    -0.248 OA
ATOM     14  H   UNL A   1      30.707  25.105  26.139  1.00  0.00     0.166 HD
BRANCH  10  15
ATOM     15  C   UNL A   1      33.366  21.940  26.230  1.00  0.00     0.085 A 
ATOM     16  C   UNL A   1      33.386  20.837  25.354  1.00  0.00     0.142 A 
ATOM     17  C   UNL A   1      34.597  20.244  24.986  1.00  0.00     0.048 A 
ATOM     18  C   UNL A   1      35.799  20.832  25.372  1.00  0.00     0.004 A 
ATOM     19  C   UNL A   1      34.563  22.605  26.466  1.00  0.00     0.030 A 
ATOM     20  C   UNL A   1      35.779  22.046  26.053  1.00  0.00     0.002 A 
BRANCH  16  21
ATOM     21  O   UNL A   1      32.236  20.209  24.949  1.00  0.00    -0.495 OA
ATOM     22  C   UNL A   1      32.304  19.829  23.572  1.00  0.00     0.278 C 
ENDBRANCH  16  21
ENDBRANCH  10  15
ENDBRANCH   7   9
BRANCH   7  23
ATOM     23  C   UNL A   1      33.466  25.395  24.808  1.00  0.00     0.422 C 
ATOM     24  F   UNL A   1      33.767  25.537  26.120  1.00  0.00    -0.168 F 
ATOM     25  F   UNL A   1      34.437  24.668  24.217  1.00  0.00    -0.168 F 
ATOM     26  F   UNL A   1      33.616  26.646  24.308  1.00  0.00    -0.168 F 
ENDBRANCH   7  23
ENDBRANCH   5   7
ENDBRANCH   4   5
ENDBRANCH   3   4
ENDBRANCH   2   3
ENDBRANCH   1   2
BRANCH   1  27
ATOM     27  C   UNL A   1      31.374  30.724  25.547  1.00  0.00     0.202 C 
BRANCH  27  28
ATOM     28  C   UNL A   1      32.061  30.887  26.911  1.00  0.00     0.261 C 
BRANCH  28  29
ATOM     29  O   UNL A   1      33.492  30.745  26.859  1.00  0.00    -0.460 OA
BRANCH  29  30
ATOM     30  C   UNL A   1      34.174  31.630  27.624  1.00  0.00     0.338 C 
ATOM     31  O   UNL A   1      33.725  32.630  28.172  1.00  0.00    -0.246 OA
BRANCH  30  32
ATOM     32  C   UNL A   1      35.523  31.116  27.911  1.00  0.00     0.060 A 
ATOM     33  C   UNL A   1      35.711  29.726  27.891  1.00  0.00     0.016 A 
ATOM     34  C   UNL A   1      36.557  31.968  28.296  1.00  0.00     0.016 A 
ATOM     35  C   UNL A   1      36.923  29.180  28.294  1.00  0.00     0.010 A 
ATOM     36  C   UNL A   1      37.769  31.417  28.724  1.00  0.00     0.010 A 
ATOM     37  C   UNL A   1      37.940  30.019  28.761  1.00  0.00    -0.014 A 
BRANCH  37  38
ATOM     38  C   UNL A   1      39.094  29.414  29.461  1.00  0.00     0.031 A 
ATOM     39  C   UNL A   1      39.435  29.904  30.842  1.00  0.00     0.074 A 
ATOM     40  C   UNL A   1      39.777  28.398  28.904  1.00  0.00     0.049 A 
ATOM     41  N   UNL A   1      40.412  29.550  31.632  1.00  0.00    -0.248 NA
ATOM     42  C   UNL A   1      38.548  30.937  31.404  1.00  0.00     0.031 C 
ATOM     43  C   UNL A   1      39.478  27.798  27.604  1.00  0.00     0.029 A 
ATOM     44  N   UNL A   1      40.858  27.691  29.361  1.00  0.00    -0.354 N 
ATOM     45  C   UNL A   1      40.266  30.319  32.782  1.00  0.00     0.074 A 
ATOM     46  C   UNL A   1      39.126  31.183  32.569  1.00  0.00     0.031 C 
ATOM     47  C   UNL A   1      40.364  26.816  27.364  1.00  0.00     0.029 A 
ATOM     48  C   UNL A   1      41.317  26.751  28.470  1.00  0.00     0.049 A 
ATOM     49  H   UNL A   1      41.267  27.842  30.244  1.00  0.00     0.167 HD
ATOM     50  C   UNL A   1      41.013  30.296  33.913  1.00  0.00     0.034 A 
ATOM     51  C   UNL A   1      42.403  25.953  28.530  1.00  0.00     0.034 A 
ATOM     52  C   UNL A   1      42.152  29.429  34.095  1.00  0.00     0.049 A 
ATOM     53  C   UNL A   1      43.282  26.021  29.757  1.00  0.00     0.074 A 
ATOM     54  C   UNL A   1      42.983  29.317  35.196  1.00  0.00     0.029 A 
ATOM     55  N   UNL A   1      42.628  28.532  33.146  1.00  0.00    -0.354 N 
ATOM     56  N   UNL A   1      43.142  26.758  30.836  1.00  0.00    -0.248 NA
ATOM     57  C   UNL A   1      44.458  25.143  29.777  1.00  0.00     0.031 C 
ATOM     58  C   UNL A   1      44.006  28.417  34.881  1.00  0.00     0.029 A 
ATOM     59  C   UNL A   1      43.763  27.893  33.622  1.00  0.00     0.049 A 
ATOM     60  H   UNL A   1      42.219  28.374  32.264  1.00  0.00     0.167 HD
ATOM     61  C   UNL A   1      44.194  26.404  31.677  1.00  0.00     0.074 A 
ATOM     62  C   UNL A   1      44.948  25.380  30.985  1.00  0.00     0.031 C 
ATOM     63  C   UNL A   1      44.508  26.878  32.911  1.00  0.00     0.034 A 
BRANCH  50  64
ATOM     64  C   UNL A   1      40.658  31.278  35.003  1.00  0.00     0.023 A 
ATOM     65  C   UNL A   1      39.633  31.025  35.932  1.00  0.00     0.031 A 
ATOM     66  C   UNL A   1      41.343  32.504  35.101  1.00  0.00     0.131 A 
ATOM     67  C   UNL A   1      39.278  32.007  36.869  1.00  0.00     0.055 A 
ATOM     68  C   UNL A   1      41.040  33.442  36.088  1.00  0.00     0.041 A 
ATOM     69  F   UNL A   1      42.313  32.815  34.226  1.00  0.00    -0.206 F 
ATOM     70  C   UNL A   1      39.993  33.204  36.972  1.00  0.00     0.022 A 
BRANCH  67  71
ATOM     71  S   UNL A   1      37.777  31.763  37.858  1.00  0.00     0.124 S 
ATOM     72  O   UNL A   1      37.405  30.398  37.498  1.00  0.00    -0.237 OA
ATOM     73  O   UNL A   1      38.261  31.956  39.220  1.00  0.00    -0.237 OA
ATOM     74  O   UNL A   1      36.870  32.799  37.366  1.00  0.00    -0.744 OA
ENDBRANCH  67  71
ENDBRANCH  50  64
BRANCH  51  75
ATOM     75  C   UNL A   1      42.753  25.062  27.387  1.00  0.00     0.023 A 
ATOM     76  C   UNL A   1      42.258  23.751  27.308  1.00  0.00     0.031 A 
ATOM     77  C   UNL A   1      43.640  25.492  26.382  1.00  0.00     0.131 A 
ATOM     78  C   UNL A   1      42.695  22.900  26.280  1.00  0.00     0.055 A 
ATOM     79  C   UNL A   1      44.021  24.661  25.327  1.00  0.00     0.041 A 
ATOM     80  F   UNL A   1      44.148  26.734  26.409  1.00  0.00    -0.206 F 
ATOM     81  C   UNL A   1      43.559  23.351  25.281  1.00  0.00     0.022 A 
BRANCH  78  82
ATOM     82  S   UNL A   1      42.197  21.156  26.328  1.00  0.00     0.124 S 
ATOM     83  O   UNL A   1      42.226  20.880  27.760  1.00  0.00    -0.237 OA
ATOM     84  O   UNL A   1      40.876  21.202  25.710  1.00  0.00    -0.237 OA
ATOM     85  O   UNL A   1      43.228  20.485  25.540  1.00  0.00    -0.744 OA
ENDBRANCH  78  82
ENDBRANCH  51  75
BRANCH  63  86
ATOM     86  C   UNL A   1      45.689  26.248  33.611  1.00  0.00     0.023 A 
ATOM     87  C   UNL A   1      45.569  25.056  34.345  1.00  0.00     0.031 A 
ATOM     88  C   UNL A   1      46.954  26.860  33.547  1.00  0.00     0.131 A 
ATOM     89  C   UNL A   1      46.678  24.547  35.037  1.00  0.00     0.055 A 
ATOM     90  C   UNL A   1      48.071  26.309  34.177  1.00  0.00     0.041 A 
ATOM     91  F   UNL A   1      47.129  28.002  32.863  1.00  0.00    -0.206 F 
ATOM     92  C   UNL A   1      47.933  25.154  34.940  1.00  0.00     0.022 A 
BRANCH  89  93
ATOM     93  S   UNL A   1      46.436  23.138  36.152  1.00  0.00     0.124 S 
ATOM     94  O   UNL A   1      46.534  23.770  37.464  1.00  0.00    -0.237 OA
ATOM     95  O   UNL A   1      45.112  22.660  35.771  1.00  0.00    -0.237 OA
ATOM     96  O   UNL A   1      47.539  22.239  35.815  1.00  0.00    -0.744 OA
ENDBRANCH  89  93
ENDBRANCH  63  86
ENDBRANCH  37  38
ENDBRANCH  30  32
ENDBRANCH  29  30
ENDBRANCH  28  29
ENDBRANCH  27  28
ENDBRANCH   1  27
TORSDOF 21
ENDMDL
MODEL 3
REMARK VINA RESULT:     -10.4      4.690     10.354
REMARK SMILES COc1ccccc1NC(=O)N[C@@](C)(C(=O)OCCOCCOC(=O)c1ccc(-c2c3nc(c(-c4cc(S(=O)(=O)[O-])ccc4F)c4ccc([nH]4)c(-c4cc(S(=O)(=O)[O-])ccc4F)c4nc(c(-c5cc(S(=O)(=O)[O-])ccc5F)c5ccc2[nH]5)C=C4)C=C3)cc1)C(F)(F)F
REMARK SMILES IDX 20 1 19 2 18 3 17 4 15 5 16 6 13 7 14 8 12 9 9 10 10 11
REMARK SMILES IDX 11 13 8 15 3 16 4 17 5 18 7 19 6 20 2 21 1 22 89 23 90 24
REMARK SMILES IDX 91 25 92 26 21 27 22 28 23 29 24 30 25 31 26 32 27 33 88 34
REMARK SMILES IDX 28 35 87 36 29 37 30 38 31 39 81 40 32 41 86 42 80 43 82 44
REMARK SMILES IDX 33 45 85 46 79 47 78 48 34 50 66 51 46 52 65 53 47 54 50 55
REMARK SMILES IDX 64 56 83 57 48 58 49 59 63 61 84 62 51 63 35 64 36 65 44 66
REMARK SMILES IDX 37 67 43 68 45 69 42 70 38 71 39 72 40 73 41 74 67 75 68 76
REMARK SMILES IDX 76 77 69 78 75 79 77 80 74 81 70 82 71 83 72 84 73 85 52 86
REMARK SMILES IDX 53 87 61 88 54 89 60 90 62 91 59 92 55 93 56 94 57 95 58 96
REMARK H PARENT 9 12 12 14 82 49 50 60
REMARK Flexibility Score: inf
ROOT
ATOM      1  O   UNL A   1      36.528  21.223  24.812  1.00  0.00    -0.374 OA
ENDROOT
BRANCH   1   2
ATOM      2  C   UNL A   1      35.715  21.785  25.836  1.00  0.00     0.202 C 
BRANCH   2   3
ATOM      3  C   UNL A   1      35.162  23.202  25.636  1.00  0.00     0.261 C 
BRANCH   3   4
ATOM      4  O   UNL A   1      33.740  23.305  25.862  1.00  0.00    -0.461 OA
BRANCH   4   5
ATOM      5  C   UNL A   1      33.069  23.620  24.719  1.00  0.00     0.341 C 
ATOM      6  O   UNL A   1      33.562  24.308  23.826  1.00  0.00    -0.249 OA
BRANCH   5   7
ATOM      7  C   UNL A   1      31.786  22.788  24.512  1.00  0.00     0.232 C 
ATOM      8  C   UNL A   1      30.992  23.598  23.469  1.00  0.00     0.058 C 
BRANCH   7   9
ATOM      9  N   UNL A   1      30.897  22.671  25.712  1.00  0.00    -0.314 N 
ATOM     10  N   UNL A   1      30.025  24.815  26.414  1.00  0.00    -0.305 N 
ATOM     11  C   UNL A   1      30.302  23.511  26.570  1.00  0.00     0.320 C 
ATOM     12  H   UNL A   1      29.539  25.171  27.192  1.00  0.00     0.172 HD
ATOM     13  O   UNL A   1      29.861  22.993  27.606  1.00  0.00    -0.248 OA
ATOM     14  H   UNL A   1      30.698  21.731  25.928  1.00  0.00     0.166 HD
BRANCH  10  15
ATOM     15  C   UNL A   1      30.237  25.810  25.447  1.00  0.00     0.085 A 
ATOM     16  C   UNL A   1      31.406  26.592  25.530  1.00  0.00     0.142 A 
ATOM     17  C   UNL A   1      31.533  27.762  24.774  1.00  0.00     0.048 A 
ATOM     18  C   UNL A   1      30.562  28.082  23.829  1.00  0.00     0.004 A 
ATOM     19  C   UNL A   1      29.366  26.052  24.393  1.00  0.00     0.030 A 
ATOM     20  C   UNL A   1      29.517  27.193  23.594  1.00  0.00     0.002 A 
BRANCH  16  21
ATOM     21  O   UNL A   1      32.391  26.333  26.448  1.00  0.00    -0.495 OA
ATOM     22  C   UNL A   1      33.448  27.292  26.368  1.00  0.00     0.278 C 
ENDBRANCH  16  21
ENDBRANCH  10  15
ENDBRANCH   7   9
BRANCH   7  23
ATOM     23  C   UNL A   1      32.439  21.466  24.012  1.00  0.00     0.422 C 
ATOM     24  F   UNL A   1      32.741  20.631  25.032  1.00  0.00    -0.168 F 
ATOM     25  F   UNL A   1      31.651  20.810  23.134  1.00  0.00    -0.168 F 
ATOM     26  F   UNL A   1      33.620  21.625  23.366  1.00  0.00    -0.168 F 
ENDBRANCH   7  23
ENDBRANCH   5   7
ENDBRANCH   4   5
ENDBRANCH   3   4
ENDBRANCH   2   3
ENDBRANCH   1   2
BRANCH   1  27
ATOM     27  C   UNL A   1      37.069  19.919  25.005  1.00  0.00     0.202 C 
BRANCH  27  28
ATOM     28  C   UNL A   1      38.591  19.720  24.993  1.00  0.00     0.261 C 
BRANCH  28  29
ATOM     29  O   UNL A   1      39.192  19.765  26.300  1.00  0.00    -0.460 OA
BRANCH  29  30
ATOM     30  C   UNL A   1      40.503  20.103  26.306  1.00  0.00     0.338 C 
ATOM     31  O   UNL A   1      41.420  19.505  25.757  1.00  0.00    -0.246 OA
BRANCH  30  32
ATOM     32  C   UNL A   1      40.677  21.443  26.890  1.00  0.00     0.060 A 
ATOM     33  C   UNL A   1      40.031  22.519  26.264  1.00  0.00     0.016 A 
ATOM     34  C   UNL A   1      41.538  21.659  27.966  1.00  0.00     0.016 A 
ATOM     35  C   UNL A   1      40.274  23.820  26.684  1.00  0.00     0.010 A 
ATOM     36  C   UNL A   1      41.801  22.971  28.373  1.00  0.00     0.010 A 
ATOM     37  C   UNL A   1      41.199  24.056  27.707  1.00  0.00    -0.014 A 
BRANCH  37  38
ATOM     38  C   UNL A   1      41.668  25.441  27.935  1.00  0.00     0.031 A 
ATOM     39  C   UNL A   1      43.038  25.825  27.445  1.00  0.00     0.074 A 
ATOM     40  C   UNL A   1      40.858  26.353  28.501  1.00  0.00     0.049 A 
ATOM     41  N   UNL A   1      43.672  26.962  27.557  1.00  0.00    -0.248 NA
ATOM     42  C   UNL A   1      43.792  24.780  26.733  1.00  0.00     0.031 C 
ATOM     43  C   UNL A   1      39.486  26.101  28.940  1.00  0.00     0.029 A 
ATOM     44  N   UNL A   1      41.072  27.673  28.801  1.00  0.00    -0.354 N 
ATOM     45  C   UNL A   1      44.902  26.770  26.937  1.00  0.00     0.074 A 
ATOM     46  C   UNL A   1      44.936  25.397  26.484  1.00  0.00     0.031 C 
ATOM     47  C   UNL A   1      38.982  27.233  29.462  1.00  0.00     0.029 A 
ATOM     48  C   UNL A   1      40.011  28.271  29.437  1.00  0.00     0.049 A 
ATOM     49  H   UNL A   1      41.907  28.148  28.582  1.00  0.00     0.167 HD
ATOM     50  C   UNL A   1      45.905  27.664  26.758  1.00  0.00     0.034 A 
ATOM     51  C   UNL A   1      39.898  29.506  29.966  1.00  0.00     0.034 A 
ATOM     52  C   UNL A   1      45.847  29.027  27.229  1.00  0.00     0.049 A 
ATOM     53  C   UNL A   1      41.070  30.453  29.847  1.00  0.00     0.074 A 
ATOM     54  C   UNL A   1      46.800  30.023  27.105  1.00  0.00     0.029 A 
ATOM     55  N   UNL A   1      44.781  29.583  27.926  1.00  0.00    -0.354 N 
ATOM     56  N   UNL A   1      42.234  30.261  29.268  1.00  0.00    -0.248 NA
ATOM     57  C   UNL A   1      40.909  31.784  30.445  1.00  0.00     0.031 C 
ATOM     58  C   UNL A   1      46.346  31.150  27.798  1.00  0.00     0.029 A 
ATOM     59  C   UNL A   1      45.069  30.893  28.272  1.00  0.00     0.049 A 
ATOM     60  H   UNL A   1      43.943  29.113  28.143  1.00  0.00     0.167 HD
ATOM     61  C   UNL A   1      42.928  31.461  29.402  1.00  0.00     0.074 A 
ATOM     62  C   UNL A   1      42.046  32.371  30.103  1.00  0.00     0.031 C 
ATOM     63  C   UNL A   1      44.178  31.785  28.981  1.00  0.00     0.034 A 
BRANCH  50  64
ATOM     64  C   UNL A   1      47.164  27.175  26.083  1.00  0.00     0.023 A 
ATOM     65  C   UNL A   1      48.250  26.659  26.813  1.00  0.00     0.031 A 
ATOM     66  C   UNL A   1      47.290  27.249  24.684  1.00  0.00     0.131 A 
ATOM     67  C   UNL A   1      49.434  26.302  26.150  1.00  0.00     0.055 A 
ATOM     68  C   UNL A   1      48.440  26.815  24.023  1.00  0.00     0.041 A 
ATOM     69  F   UNL A   1      46.299  27.758  23.936  1.00  0.00    -0.206 F 
ATOM     70  C   UNL A   1      49.527  26.351  24.756  1.00  0.00     0.022 A 
BRANCH  67  71
ATOM     71  S   UNL A   1      50.902  25.912  27.141  1.00  0.00     0.124 S 
ATOM     72  O   UNL A   1      50.313  25.655  28.453  1.00  0.00    -0.237 OA
ATOM     73  O   UNL A   1      51.450  24.751  26.449  1.00  0.00    -0.237 OA
ATOM     74  O   UNL A   1      51.708  27.128  27.055  1.00  0.00    -0.744 OA
ENDBRANCH  67  71
ENDBRANCH  50  64
BRANCH  51  75
ATOM     75  C   UNL A   1      38.661  29.908  30.696  1.00  0.00     0.023 A 
ATOM     76  C   UNL A   1      37.659  30.664  30.068  1.00  0.00     0.031 A 
ATOM     77  C   UNL A   1      38.491  29.592  32.057  1.00  0.00     0.131 A 
ATOM     78  C   UNL A   1      36.560  31.123  30.812  1.00  0.00     0.055 A 
ATOM     79  C   UNL A   1      37.365  29.997  32.775  1.00  0.00     0.041 A 
ATOM     80  F   UNL A   1      39.420  28.876  32.710  1.00  0.00    -0.206 F 
ATOM     81  C   UNL A   1      36.398  30.781  32.156  1.00  0.00     0.022 A 
BRANCH  78  82
ATOM     82  S   UNL A   1      35.394  32.265  30.021  1.00  0.00     0.124 S 
ATOM     83  O   UNL A   1      34.423  32.482  31.088  1.00  0.00    -0.237 OA
ATOM     84  O   UNL A   1      36.254  33.398  29.696  1.00  0.00    -0.237 OA
ATOM     85  O   UNL A   1      34.901  31.509  28.872  1.00  0.00    -0.744 OA
ENDBRANCH  78  82
ENDBRANCH  51  75
BRANCH  63  86
ATOM     86  C   UNL A   1      44.640  33.202  29.222  1.00  0.00     0.023 A 
ATOM     87  C   UNL A   1      44.328  34.247  28.334  1.00  0.00     0.031 A 
ATOM     88  C   UNL A   1      45.414  33.509  30.356  1.00  0.00     0.131 A 
ATOM     89  C   UNL A   1      44.839  35.533  28.562  1.00  0.00     0.055 A 
ATOM     90  C   UNL A   1      45.858  34.806  30.616  1.00  0.00     0.041 A 
ATOM     91  F   UNL A   1      45.746  32.551  31.237  1.00  0.00    -0.206 F 
ATOM     92  C   UNL A   1      45.584  35.824  29.708  1.00  0.00     0.022 A 
BRANCH  89  93
ATOM     93  S   UNL A   1      44.606  36.800  27.286  1.00  0.00     0.124 S 
ATOM     94  O   UNL A   1      44.423  38.006  28.086  1.00  0.00    -0.237 OA
ATOM     95  O   UNL A   1      45.851  36.718  26.531  1.00  0.00    -0.237 OA
ATOM     96  O   UNL A   1      43.416  36.348  26.566  1.00  0.00    -0.744 OA
ENDBRANCH  89  93
ENDBRANCH  63  86
ENDBRANCH  37  38
ENDBRANCH  30  32
ENDBRANCH  29  30
ENDBRANCH  28  29
ENDBRANCH  27  28
ENDBRANCH   1  27
TORSDOF 21
ENDMDL
