MODEL 1
REMARK VINA RESULT:     -11.8      0.000      0.000
REMARK SMILES C#Cc1cc(Cl)c2c(c1)C=C(C(=O)OCCOCCOC(=O)c1ccc(-c3c4nc(c(-c5cc(S(=O)(=O)[O-])ccc5F)c5ccc([nH]5)c(-c5cc(S(=O)(=O)[O-])ccc5F)c5nc(c(-c6cc(S(=O)(=O)[O-])ccc6F)c6ccc3[nH]6)C=C5)C=C4)cc1)[C@@H](C(F)(F)F)O2
REMARK SMILES IDX 18 1 17 2 16 3 15 4 14 5 12 6 13 7 11 8 3 9 4 10 9 11 5 12
REMARK SMILES IDX 8 13 6 14 7 15 10 16 91 17 86 18 2 19 1 20 87 21 88 22 89 23
REMARK SMILES IDX 90 24 19 25 20 26 21 27 22 28 23 29 24 30 85 31 25 32 84 33
REMARK SMILES IDX 26 34 27 35 28 36 78 37 29 38 83 39 77 40 79 41 30 42 82 43
REMARK SMILES IDX 76 44 75 45 31 47 63 48 43 49 62 50 44 51 47 52 61 53 80 54
REMARK SMILES IDX 45 55 46 56 60 58 81 59 48 60 32 61 33 62 41 63 34 64 40 65
REMARK SMILES IDX 42 66 39 67 35 68 36 69 37 70 38 71 64 72 65 73 73 74 66 75
REMARK SMILES IDX 72 76 74 77 71 78 67 79 68 80 69 81 70 82 49 83 50 84 58 85
REMARK SMILES IDX 51 86 57 87 59 88 56 89 52 90 53 91 54 92 55 93
REMARK H PARENT 79 46 47 57
REMARK Flexibility Score: inf
ROOT
ATOM      1  C   UNL A   1      35.167  20.584  25.414  1.00  0.00     0.202 C 
ENDROOT
BRANCH   1   2
ATOM      2  O   UNL A   1      34.094  20.588  24.477  1.00  0.00    -0.374 OA
BRANCH   2   3
ATOM      3  C   UNL A   1      33.621  21.833  23.970  1.00  0.00     0.202 C 
BRANCH   3   4
ATOM      4  C   UNL A   1      32.215  21.903  23.365  1.00  0.00     0.261 C 
BRANCH   4   5
ATOM      5  O   UNL A   1      31.638  23.211  23.465  1.00  0.00    -0.460 OA
BRANCH   5   6
ATOM      6  C   UNL A   1      31.140  23.503  24.688  1.00  0.00     0.338 C 
ATOM      7  O   UNL A   1      30.887  22.718  25.587  1.00  0.00    -0.246 OA
BRANCH   6   8
ATOM      8  C   UNL A   1      31.075  24.967  24.858  1.00  0.00     0.087 C 
ATOM      9  C   UNL A   1      29.479  29.126  23.070  1.00  0.00     0.027 A 
ATOM     10  C   UNL A   1      30.369  29.823  23.886  1.00  0.00     0.041 A 
ATOM     11  C   UNL A   1      29.382  27.738  23.177  1.00  0.00     0.029 A 
ATOM     12  C   UNL A   1      31.142  29.133  24.825  1.00  0.00     0.084 A 
ATOM     13  C   UNL A   1      30.189  27.045  24.086  1.00  0.00     0.020 A 
ATOM     14  Cl  UNL A   1      32.235  30.042  25.806  1.00  0.00    -0.080 Cl
ATOM     15  C   UNL A   1      31.057  27.738  24.932  1.00  0.00     0.146 A 
ATOM     16  C   UNL A   1      30.183  25.595  24.082  1.00  0.00     0.027 C 
ATOM     17  O   UNL A   1      31.825  27.110  25.874  1.00  0.00    -0.474 OA
ATOM     18  C   UNL A   1      31.990  25.665  25.823  1.00  0.00     0.316 C 
BRANCH   9  19
ATOM     19  C   UNL A   1      28.697  29.818  22.095  1.00  0.00    -0.070 C 
ATOM     20  C   UNL A   1      28.034  30.419  21.291  1.00  0.00     0.010 C 
ENDBRANCH   9  19
BRANCH  18  21
ATOM     21  C   UNL A   1      33.470  25.351  25.558  1.00  0.00     0.430 C 
ATOM     22  F   UNL A   1      33.710  25.190  24.236  1.00  0.00    -0.167 F 
ATOM     23  F   UNL A   1      34.281  26.343  25.987  1.00  0.00    -0.167 F 
ATOM     24  F   UNL A   1      33.856  24.214  26.183  1.00  0.00    -0.167 F 
ENDBRANCH  18  21
ENDBRANCH   6   8
ENDBRANCH   5   6
ENDBRANCH   4   5
ENDBRANCH   3   4
ENDBRANCH   2   3
ENDBRANCH   1   2
BRANCH   1  25
ATOM     25  C   UNL A   1      36.612  20.363  24.943  1.00  0.00     0.261 C 
BRANCH  25  26
ATOM     26  O   UNL A   1      37.486  21.477  25.177  1.00  0.00    -0.460 OA
BRANCH  26  27
ATOM     27  C   UNL A   1      38.633  21.152  25.828  1.00  0.00     0.338 C 
ATOM     28  O   UNL A   1      39.216  20.082  25.799  1.00  0.00    -0.246 OA
BRANCH  27  29
ATOM     29  C   UNL A   1      39.210  22.357  26.448  1.00  0.00     0.060 A 
ATOM     30  C   UNL A   1      38.689  23.604  26.081  1.00  0.00     0.016 A 
ATOM     31  C   UNL A   1      40.309  22.266  27.302  1.00  0.00     0.016 A 
ATOM     32  C   UNL A   1      39.286  24.773  26.545  1.00  0.00     0.010 A 
ATOM     33  C   UNL A   1      40.915  23.440  27.755  1.00  0.00     0.010 A 
ATOM     34  C   UNL A   1      40.427  24.698  27.354  1.00  0.00    -0.014 A 
BRANCH  34  35
ATOM     35  C   UNL A   1      41.193  25.932  27.652  1.00  0.00     0.031 A 
ATOM     36  C   UNL A   1      40.523  27.033  28.429  1.00  0.00     0.074 A 
ATOM     37  C   UNL A   1      42.479  26.048  27.275  1.00  0.00     0.049 A 
ATOM     38  N   UNL A   1      40.984  28.212  28.753  1.00  0.00    -0.248 NA
ATOM     39  C   UNL A   1      39.155  26.769  28.909  1.00  0.00     0.031 C 
ATOM     40  C   UNL A   1      43.249  25.019  26.577  1.00  0.00     0.029 A 
ATOM     41  N   UNL A   1      43.368  27.081  27.434  1.00  0.00    -0.354 N 
ATOM     42  C   UNL A   1      39.968  28.831  29.472  1.00  0.00     0.074 A 
ATOM     43  C   UNL A   1      38.849  27.914  29.503  1.00  0.00     0.031 C 
ATOM     44  C   UNL A   1      44.498  25.473  26.373  1.00  0.00     0.029 A 
ATOM     45  C   UNL A   1      44.603  26.839  26.881  1.00  0.00     0.049 A 
ATOM     46  H   UNL A   1      43.141  27.920  27.900  1.00  0.00     0.167 HD
ATOM     47  C   UNL A   1      39.974  30.049  30.063  1.00  0.00     0.034 A 
ATOM     48  C   UNL A   1      45.686  27.636  26.776  1.00  0.00     0.034 A 
ATOM     49  C   UNL A   1      41.097  30.950  30.033  1.00  0.00     0.049 A 
ATOM     50  C   UNL A   1      45.627  29.031  27.349  1.00  0.00     0.074 A 
ATOM     51  C   UNL A   1      41.202  32.204  30.606  1.00  0.00     0.029 A 
ATOM     52  N   UNL A   1      42.304  30.698  29.398  1.00  0.00    -0.354 N 
ATOM     53  N   UNL A   1      44.650  29.612  28.005  1.00  0.00    -0.248 NA
ATOM     54  C   UNL A   1      46.814  29.879  27.166  1.00  0.00     0.031 C 
ATOM     55  C   UNL A   1      42.442  32.741  30.256  1.00  0.00     0.029 A 
ATOM     56  C   UNL A   1      43.146  31.789  29.535  1.00  0.00     0.049 A 
ATOM     57  H   UNL A   1      42.530  29.866  28.922  1.00  0.00     0.167 HD
ATOM     58  C   UNL A   1      45.117  30.881  28.337  1.00  0.00     0.074 A 
ATOM     59  C   UNL A   1      46.465  30.978  27.819  1.00  0.00     0.031 C 
ATOM     60  C   UNL A   1      44.487  31.875  29.012  1.00  0.00     0.034 A 
BRANCH  47  61
ATOM     61  C   UNL A   1      38.731  30.497  30.783  1.00  0.00     0.023 A 
ATOM     62  C   UNL A   1      37.703  31.179  30.115  1.00  0.00     0.031 A 
ATOM     63  C   UNL A   1      38.543  30.169  32.137  1.00  0.00     0.131 A 
ATOM     64  C   UNL A   1      36.532  31.526  30.807  1.00  0.00     0.055 A 
ATOM     65  C   UNL A   1      37.353  30.466  32.805  1.00  0.00     0.041 A 
ATOM     66  F   UNL A   1      39.503  29.533  32.826  1.00  0.00    -0.206 F 
ATOM     67  C   UNL A   1      36.341  31.150  32.140  1.00  0.00     0.022 A 
BRANCH  64  68
ATOM     68  S   UNL A   1      35.278  32.519  29.954  1.00  0.00     0.124 S 
ATOM     69  O   UNL A   1      36.071  33.652  29.482  1.00  0.00    -0.237 OA
ATOM     70  O   UNL A   1      34.797  31.605  28.925  1.00  0.00    -0.237 OA
ATOM     71  O   UNL A   1      34.316  32.834  31.007  1.00  0.00    -0.744 OA
ENDBRANCH  64  68
ENDBRANCH  47  61
BRANCH  48  72
ATOM     72  C   UNL A   1      46.912  27.152  26.078  1.00  0.00     0.023 A 
ATOM     73  C   UNL A   1      47.937  26.506  26.785  1.00  0.00     0.031 A 
ATOM     74  C   UNL A   1      47.090  27.358  24.698  1.00  0.00     0.131 A 
ATOM     75  C   UNL A   1      49.108  26.115  26.116  1.00  0.00     0.055 A 
ATOM     76  C   UNL A   1      48.234  26.922  24.028  1.00  0.00     0.041 A 
ATOM     77  F   UNL A   1      46.140  27.973  23.975  1.00  0.00    -0.206 F 
ATOM     78  C   UNL A   1      49.257  26.304  24.741  1.00  0.00     0.022 A 
BRANCH  75  79
ATOM     79  S   UNL A   1      50.464  25.402  27.086  1.00  0.00     0.124 S 
ATOM     80  O   UNL A   1      50.858  26.533  27.919  1.00  0.00    -0.237 OA
ATOM     81  O   UNL A   1      49.801  24.299  27.772  1.00  0.00    -0.237 OA
ATOM     82  O   UNL A   1      51.436  25.005  26.070  1.00  0.00    -0.744 OA
ENDBRANCH  75  79
ENDBRANCH  48  72
BRANCH  60  83
ATOM     83  C   UNL A   1      45.250  33.150  29.262  1.00  0.00     0.023 A 
ATOM     84  C   UNL A   1      45.204  34.221  28.355  1.00  0.00     0.031 A 
ATOM     85  C   UNL A   1      45.977  33.320  30.454  1.00  0.00     0.131 A 
ATOM     86  C   UNL A   1      45.896  35.407  28.642  1.00  0.00     0.055 A 
ATOM     87  C   UNL A   1      46.618  34.520  30.759  1.00  0.00     0.041 A 
ATOM     88  F   UNL A   1      46.048  32.329  31.359  1.00  0.00    -0.206 F 
ATOM     89  C   UNL A   1      46.585  35.570  29.847  1.00  0.00     0.022 A 
BRANCH  86  90
ATOM     90  S   UNL A   1      45.915  36.725  27.397  1.00  0.00     0.124 S 
ATOM     91  O   UNL A   1      44.497  37.050  27.278  1.00  0.00    -0.237 OA
ATOM     92  O   UNL A   1      46.752  37.742  28.028  1.00  0.00    -0.237 OA
ATOM     93  O   UNL A   1      46.505  36.081  26.225  1.00  0.00    -0.744 OA
ENDBRANCH  86  90
ENDBRANCH  60  83
ENDBRANCH  34  35
ENDBRANCH  27  29
ENDBRANCH  26  27
ENDBRANCH  25  26
ENDBRANCH   1  25
TORSDOF 19
ENDMDL
MODEL 2
REMARK VINA RESULT:     -11.1      0.520      7.673
REMARK SMILES C#Cc1cc(Cl)c2c(c1)C=C(C(=O)OCCOCCOC(=O)c1ccc(-c3c4nc(c(-c5cc(S(=O)(=O)[O-])ccc5F)c5ccc([nH]5)c(-c5cc(S(=O)(=O)[O-])ccc5F)c5nc(c(-c6cc(S(=O)(=O)[O-])ccc6F)c6ccc3[nH]6)C=C5)C=C4)cc1)[C@@H](C(F)(F)F)O2
REMARK SMILES IDX 18 1 17 2 16 3 15 4 14 5 12 6 13 7 11 8 3 9 4 10 9 11 5 12
REMARK SMILES IDX 8 13 6 14 7 15 10 16 91 17 86 18 2 19 1 20 87 21 88 22 89 23
REMARK SMILES IDX 90 24 19 25 20 26 21 27 22 28 23 29 24 30 85 31 25 32 84 33
REMARK SMILES IDX 26 34 27 35 28 36 78 37 29 38 83 39 77 40 79 41 30 42 82 43
REMARK SMILES IDX 76 44 75 45 31 47 63 48 43 49 62 50 44 51 47 52 61 53 80 54
REMARK SMILES IDX 45 55 46 56 60 58 81 59 48 60 32 61 33 62 41 63 34 64 40 65
REMARK SMILES IDX 42 66 39 67 35 68 36 69 37 70 38 71 64 72 65 73 73 74 66 75
REMARK SMILES IDX 72 76 74 77 71 78 67 79 68 80 69 81 70 82 49 83 50 84 58 85
REMARK SMILES IDX 51 86 57 87 59 88 56 89 52 90 53 91 54 92 55 93
REMARK H PARENT 79 46 47 57
REMARK Flexibility Score: inf
ROOT
ATOM      1  C   UNL A   1      35.573  20.224  25.241  1.00  0.00     0.202 C 
ENDROOT
BRANCH   1   2
ATOM      2  O   UNL A   1      34.491  20.385  24.327  1.00  0.00    -0.374 OA
BRANCH   2   3
ATOM      3  C   UNL A   1      33.833  21.646  24.248  1.00  0.00     0.202 C 
BRANCH   3   4
ATOM      4  C   UNL A   1      32.301  21.687  24.279  1.00  0.00     0.261 C 
BRANCH   4   5
ATOM      5  O   UNL A   1      31.785  23.016  24.137  1.00  0.00    -0.460 OA
BRANCH   5   6
ATOM      6  C   UNL A   1      31.049  23.438  25.191  1.00  0.00     0.338 C 
ATOM      7  O   UNL A   1      30.550  22.747  26.065  1.00  0.00    -0.246 OA
BRANCH   6   8
ATOM      8  C   UNL A   1      31.046  24.913  25.233  1.00  0.00     0.087 C 
ATOM      9  C   UNL A   1      29.527  28.963  23.153  1.00  0.00     0.027 A 
ATOM     10  C   UNL A   1      30.478  29.691  23.866  1.00  0.00     0.041 A 
ATOM     11  C   UNL A   1      29.382  27.595  23.387  1.00  0.00     0.029 A 
ATOM     12  C   UNL A   1      31.268  29.054  24.828  1.00  0.00     0.084 A 
ATOM     13  C   UNL A   1      30.204  26.950  24.318  1.00  0.00     0.020 A 
ATOM     14  Cl  UNL A   1      32.438  29.998  25.677  1.00  0.00    -0.080 Cl
ATOM     15  C   UNL A   1      31.135  27.679  25.062  1.00  0.00     0.146 A 
ATOM     16  C   UNL A   1      30.143  25.507  24.444  1.00  0.00     0.027 C 
ATOM     17  O   UNL A   1      31.922  27.104  26.023  1.00  0.00    -0.474 OA
ATOM     18  C   UNL A   1      32.031  25.654  26.093  1.00  0.00     0.316 C 
BRANCH   9  19
ATOM     19  C   UNL A   1      28.727  29.599  22.155  1.00  0.00    -0.070 C 
ATOM     20  C   UNL A   1      28.038  30.115  21.314  1.00  0.00     0.010 C 
ENDBRANCH   9  19
BRANCH  18  21
ATOM     21  C   UNL A   1      33.483  25.256  25.794  1.00  0.00     0.430 C 
ATOM     22  F   UNL A   1      33.674  25.046  24.471  1.00  0.00    -0.167 F 
ATOM     23  F   UNL A   1      34.357  26.218  26.168  1.00  0.00    -0.167 F 
ATOM     24  F   UNL A   1      33.832  24.120  26.441  1.00  0.00    -0.167 F 
ENDBRANCH  18  21
ENDBRANCH   6   8
ENDBRANCH   5   6
ENDBRANCH   4   5
ENDBRANCH   3   4
ENDBRANCH   2   3
ENDBRANCH   1   2
BRANCH   1  25
ATOM     25  C   UNL A   1      37.023  20.407  24.773  1.00  0.00     0.261 C 
BRANCH  25  26
ATOM     26  O   UNL A   1      37.672  21.573  25.302  1.00  0.00    -0.460 OA
BRANCH  26  27
ATOM     27  C   UNL A   1      38.855  21.315  25.918  1.00  0.00     0.338 C 
ATOM     28  O   UNL A   1      39.520  20.296  25.835  1.00  0.00    -0.246 OA
BRANCH  27  29
ATOM     29  C   UNL A   1      39.348  22.537  26.576  1.00  0.00     0.060 A 
ATOM     30  C   UNL A   1      38.724  23.752  26.267  1.00  0.00     0.016 A 
ATOM     31  C   UNL A   1      40.468  22.500  27.407  1.00  0.00     0.016 A 
ATOM     32  C   UNL A   1      39.237  24.945  26.767  1.00  0.00     0.010 A 
ATOM     33  C   UNL A   1      40.990  23.700  27.896  1.00  0.00     0.010 A 
ATOM     34  C   UNL A   1      40.397  24.930  27.553  1.00  0.00    -0.014 A 
BRANCH  34  35
ATOM     35  C   UNL A   1      41.069  26.208  27.887  1.00  0.00     0.031 A 
ATOM     36  C   UNL A   1      42.508  26.398  27.488  1.00  0.00     0.074 A 
ATOM     37  C   UNL A   1      40.393  27.200  28.494  1.00  0.00     0.049 A 
ATOM     38  N   UNL A   1      43.303  27.408  27.726  1.00  0.00    -0.248 NA
ATOM     39  C   UNL A   1      43.132  25.309  26.717  1.00  0.00     0.031 C 
ATOM     40  C   UNL A   1      38.979  27.152  28.867  1.00  0.00     0.029 A 
ATOM     41  N   UNL A   1      40.804  28.445  28.900  1.00  0.00    -0.354 N 
ATOM     42  C   UNL A   1      44.518  27.079  27.136  1.00  0.00     0.074 A 
ATOM     43  C   UNL A   1      44.370  25.759  26.563  1.00  0.00     0.031 C 
ATOM     44  C   UNL A   1      38.640  28.318  29.441  1.00  0.00     0.029 A 
ATOM     45  C   UNL A   1      39.820  29.178  29.521  1.00  0.00     0.049 A 
ATOM     46  H   UNL A   1      41.719  28.782  28.759  1.00  0.00     0.167 HD
ATOM     47  C   UNL A   1      45.649  27.819  27.066  1.00  0.00     0.034 A 
ATOM     48  C   UNL A   1      39.871  30.391  30.107  1.00  0.00     0.034 A 
ATOM     49  C   UNL A   1      45.783  29.136  27.632  1.00  0.00     0.049 A 
ATOM     50  C   UNL A   1      41.177  31.148  30.112  1.00  0.00     0.074 A 
ATOM     51  C   UNL A   1      46.887  29.968  27.610  1.00  0.00     0.029 A 
ATOM     52  N   UNL A   1      44.786  29.813  28.319  1.00  0.00    -0.354 N 
ATOM     53  N   UNL A   1      42.325  30.813  29.571  1.00  0.00    -0.248 NA
ATOM     54  C   UNL A   1      41.196  32.443  30.807  1.00  0.00     0.031 C 
ATOM     55  C   UNL A   1      46.585  31.115  28.348  1.00  0.00     0.029 A 
ATOM     56  C   UNL A   1      45.264  31.037  28.758  1.00  0.00     0.049 A 
ATOM     57  H   UNL A   1      43.874  29.475  28.472  1.00  0.00     0.167 HD
ATOM     58  C   UNL A   1      43.193  31.870  29.836  1.00  0.00     0.074 A 
ATOM     59  C   UNL A   1      42.434  32.856  30.576  1.00  0.00     0.031 C 
ATOM     60  C   UNL A   1      44.498  32.011  29.496  1.00  0.00     0.034 A 
BRANCH  47  61
ATOM     61  C   UNL A   1      46.846  27.227  26.371  1.00  0.00     0.023 A 
ATOM     62  C   UNL A   1      47.868  26.587  27.088  1.00  0.00     0.031 A 
ATOM     63  C   UNL A   1      46.923  27.239  24.967  1.00  0.00     0.131 A 
ATOM     64  C   UNL A   1      48.937  25.994  26.398  1.00  0.00     0.055 A 
ATOM     65  C   UNL A   1      47.959  26.598  24.285  1.00  0.00     0.041 A 
ATOM     66  F   UNL A   1      45.981  27.854  24.237  1.00  0.00    -0.206 F 
ATOM     67  C   UNL A   1      48.973  25.972  25.001  1.00  0.00     0.022 A 
BRANCH  64  68
ATOM     68  S   UNL A   1      50.305  25.288  27.355  1.00  0.00     0.124 S 
ATOM     69  O   UNL A   1      49.716  24.040  27.835  1.00  0.00    -0.237 OA
ATOM     70  O   UNL A   1      51.356  25.154  26.354  1.00  0.00    -0.237 OA
ATOM     71  O   UNL A   1      50.553  26.291  28.389  1.00  0.00    -0.744 OA
ENDBRANCH  64  68
ENDBRANCH  47  61
BRANCH  48  72
ATOM     72  C   UNL A   1      38.660  30.960  30.767  1.00  0.00     0.023 A 
ATOM     73  C   UNL A   1      37.641  31.556  30.010  1.00  0.00     0.031 A 
ATOM     74  C   UNL A   1      38.521  30.944  32.166  1.00  0.00     0.131 A 
ATOM     75  C   UNL A   1      36.540  32.140  30.658  1.00  0.00     0.055 A 
ATOM     76  C   UNL A   1      37.401  31.480  32.803  1.00  0.00     0.041 A 
ATOM     77  F   UNL A   1      39.469  30.387  32.937  1.00  0.00    -0.206 F 
ATOM     78  C   UNL A   1      36.406  32.092  32.047  1.00  0.00     0.022 A 
BRANCH  75  79
ATOM     79  S   UNL A   1      35.308  33.017  29.657  1.00  0.00     0.124 S 
ATOM     80  O   UNL A   1      35.104  32.082  28.556  1.00  0.00    -0.237 OA
ATOM     81  O   UNL A   1      34.199  33.158  30.594  1.00  0.00    -0.237 OA
ATOM     82  O   UNL A   1      35.982  34.263  29.302  1.00  0.00    -0.744 OA
ENDBRANCH  75  79
ENDBRANCH  48  72
BRANCH  60  83
ATOM     83  C   UNL A   1      45.194  33.289  29.889  1.00  0.00     0.023 A 
ATOM     84  C   UNL A   1      45.153  34.427  29.069  1.00  0.00     0.031 A 
ATOM     85  C   UNL A   1      45.847  33.388  31.132  1.00  0.00     0.131 A 
ATOM     86  C   UNL A   1      45.778  35.611  29.488  1.00  0.00     0.055 A 
ATOM     87  C   UNL A   1      46.419  34.582  31.567  1.00  0.00     0.041 A 
ATOM     88  F   UNL A   1      45.908  32.330  31.957  1.00  0.00    -0.206 F 
ATOM     89  C   UNL A   1      46.393  35.701  30.740  1.00  0.00     0.022 A 
BRANCH  86  90
ATOM     90  S   UNL A   1      45.812  37.025  28.354  1.00  0.00     0.124 S 
ATOM     91  O   UNL A   1      44.466  36.992  27.789  1.00  0.00    -0.237 OA
ATOM     92  O   UNL A   1      46.099  38.141  29.251  1.00  0.00    -0.237 OA
ATOM     93  O   UNL A   1      46.885  36.691  27.420  1.00  0.00    -0.744 OA
ENDBRANCH  86  90
ENDBRANCH  60  83
ENDBRANCH  34  35
ENDBRANCH  27  29
ENDBRANCH  26  27
ENDBRANCH  25  26
ENDBRANCH   1  25
TORSDOF 19
ENDMDL
MODEL 3
REMARK VINA RESULT:     -11.0      2.083      7.417
REMARK SMILES C#Cc1cc(Cl)c2c(c1)C=C(C(=O)OCCOCCOC(=O)c1ccc(-c3c4nc(c(-c5cc(S(=O)(=O)[O-])ccc5F)c5ccc([nH]5)c(-c5cc(S(=O)(=O)[O-])ccc5F)c5nc(c(-c6cc(S(=O)(=O)[O-])ccc6F)c6ccc3[nH]6)C=C5)C=C4)cc1)[C@@H](C(F)(F)F)O2
REMARK SMILES IDX 18 1 17 2 16 3 15 4 14 5 12 6 13 7 11 8 3 9 4 10 9 11 5 12
REMARK SMILES IDX 8 13 6 14 7 15 10 16 91 17 86 18 2 19 1 20 87 21 88 22 89 23
REMARK SMILES IDX 90 24 19 25 20 26 21 27 22 28 23 29 24 30 85 31 25 32 84 33
REMARK SMILES IDX 26 34 27 35 28 36 78 37 29 38 83 39 77 40 79 41 30 42 82 43
REMARK SMILES IDX 76 44 75 45 31 47 63 48 43 49 62 50 44 51 47 52 61 53 80 54
REMARK SMILES IDX 45 55 46 56 60 58 81 59 48 60 32 61 33 62 41 63 34 64 40 65
REMARK SMILES IDX 42 66 39 67 35 68 36 69 37 70 38 71 64 72 65 73 73 74 66 75
REMARK SMILES IDX 72 76 74 77 71 78 67 79 68 80 69 81 70 82 49 83 50 84 58 85
REMARK SMILES IDX 51 86 57 87 59 88 56 89 52 90 53 91 54 92 55 93
REMARK H PARENT 79 46 47 57
REMARK Flexibility Score: inf
ROOT
ATOM      1  C   UNL A   1      35.961  20.205  25.367  1.00  0.00     0.202 C 
ENDROOT
BRANCH   1   2
ATOM      2  O   UNL A   1      34.772  20.270  24.585  1.00  0.00    -0.374 OA
BRANCH   2   3
ATOM      3  C   UNL A   1      34.155  21.535  24.365  1.00  0.00     0.202 C 
BRANCH   3   4
ATOM      4  C   UNL A   1      32.717  21.755  24.847  1.00  0.00     0.261 C 
BRANCH   4   5
ATOM      5  O   UNL A   1      32.208  23.044  24.487  1.00  0.00    -0.460 OA
BRANCH   5   6
ATOM      6  C   UNL A   1      31.174  23.464  25.250  1.00  0.00     0.338 C 
ATOM      7  O   UNL A   1      30.428  22.772  25.926  1.00  0.00    -0.246 OA
BRANCH   6   8
ATOM      8  C   UNL A   1      31.148  24.939  25.282  1.00  0.00     0.087 C 
ATOM      9  C   UNL A   1      29.545  28.948  23.186  1.00  0.00     0.027 A 
ATOM     10  C   UNL A   1      30.491  29.697  23.884  1.00  0.00     0.041 A 
ATOM     11  C   UNL A   1      29.425  27.580  23.430  1.00  0.00     0.029 A 
ATOM     12  C   UNL A   1      31.300  29.079  24.843  1.00  0.00     0.084 A 
ATOM     13  C   UNL A   1      30.265  26.955  24.359  1.00  0.00     0.020 A 
ATOM     14  Cl  UNL A   1      32.462  30.049  25.675  1.00  0.00    -0.080 Cl
ATOM     15  C   UNL A   1      31.191  27.704  25.089  1.00  0.00     0.146 A 
ATOM     16  C   UNL A   1      30.229  25.512  24.496  1.00  0.00     0.027 C 
ATOM     17  O   UNL A   1      31.996  27.149  26.047  1.00  0.00    -0.474 OA
ATOM     18  C   UNL A   1      32.128  25.702  26.127  1.00  0.00     0.316 C 
BRANCH   9  19
ATOM     19  C   UNL A   1      28.726  29.564  22.190  1.00  0.00    -0.070 C 
ATOM     20  C   UNL A   1      28.028  30.098  21.369  1.00  0.00     0.010 C 
ENDBRANCH   9  19
BRANCH  18  21
ATOM     21  C   UNL A   1      33.584  25.325  25.818  1.00  0.00     0.430 C 
ATOM     22  F   UNL A   1      34.432  26.329  26.142  1.00  0.00    -0.167 F 
ATOM     23  F   UNL A   1      33.982  24.235  26.512  1.00  0.00    -0.167 F 
ATOM     24  F   UNL A   1      33.759  25.053  24.503  1.00  0.00    -0.167 F 
ENDBRANCH  18  21
ENDBRANCH   6   8
ENDBRANCH   5   6
ENDBRANCH   4   5
ENDBRANCH   3   4
ENDBRANCH   2   3
ENDBRANCH   1   2
BRANCH   1  25
ATOM     25  C   UNL A   1      37.307  20.651  24.778  1.00  0.00     0.261 C 
BRANCH  25  26
ATOM     26  O   UNL A   1      37.874  21.806  25.413  1.00  0.00    -0.460 OA
BRANCH  26  27
ATOM     27  C   UNL A   1      39.000  21.547  26.128  1.00  0.00     0.338 C 
ATOM     28  O   UNL A   1      39.598  20.486  26.196  1.00  0.00    -0.246 OA
BRANCH  27  29
ATOM     29  C   UNL A   1      39.536  22.801  26.683  1.00  0.00     0.060 A 
ATOM     30  C   UNL A   1      38.938  24.006  26.292  1.00  0.00     0.016 A 
ATOM     31  C   UNL A   1      40.668  22.797  27.497  1.00  0.00     0.016 A 
ATOM     32  C   UNL A   1      39.490  25.219  26.691  1.00  0.00     0.010 A 
ATOM     33  C   UNL A   1      41.229  24.017  27.885  1.00  0.00     0.010 A 
ATOM     34  C   UNL A   1      40.662  25.232  27.459  1.00  0.00    -0.014 A 
BRANCH  34  35
ATOM     35  C   UNL A   1      41.373  26.513  27.684  1.00  0.00     0.031 A 
ATOM     36  C   UNL A   1      42.745  26.697  27.094  1.00  0.00     0.074 A 
ATOM     37  C   UNL A   1      40.784  27.514  28.364  1.00  0.00     0.049 A 
ATOM     38  N   UNL A   1      43.565  27.708  27.210  1.00  0.00    -0.248 NA
ATOM     39  C   UNL A   1      43.261  25.597  26.260  1.00  0.00     0.031 C 
ATOM     40  C   UNL A   1      39.432  27.472  28.922  1.00  0.00     0.029 A 
ATOM     41  N   UNL A   1      41.245  28.763  28.695  1.00  0.00    -0.354 N 
ATOM     42  C   UNL A   1      44.690  27.370  26.467  1.00  0.00     0.074 A 
ATOM     43  C   UNL A   1      44.467  26.043  25.936  1.00  0.00     0.031 C 
ATOM     44  C   UNL A   1      39.172  28.646  29.522  1.00  0.00     0.029 A 
ATOM     45  C   UNL A   1      40.353  29.505  29.433  1.00  0.00     0.049 A 
ATOM     46  H   UNL A   1      42.133  29.097  28.429  1.00  0.00     0.167 HD
ATOM     47  C   UNL A   1      45.802  28.108  26.239  1.00  0.00     0.034 A 
ATOM     48  C   UNL A   1      40.481  30.725  29.992  1.00  0.00     0.034 A 
ATOM     49  C   UNL A   1      46.009  29.432  26.765  1.00  0.00     0.049 A 
ATOM     50  C   UNL A   1      41.776  31.480  29.813  1.00  0.00     0.074 A 
ATOM     51  C   UNL A   1      47.101  30.262  26.585  1.00  0.00     0.029 A 
ATOM     52  N   UNL A   1      45.113  30.119  27.571  1.00  0.00    -0.354 N 
ATOM     53  N   UNL A   1      42.842  31.137  29.128  1.00  0.00    -0.248 NA
ATOM     54  C   UNL A   1      41.887  32.784  30.483  1.00  0.00     0.031 C 
ATOM     55  C   UNL A   1      46.899  31.418  27.342  1.00  0.00     0.029 A 
ATOM     56  C   UNL A   1      45.645  31.347  27.926  1.00  0.00     0.049 A 
ATOM     57  H   UNL A   1      44.230  29.783  27.848  1.00  0.00     0.167 HD
ATOM     58  C   UNL A   1      43.737  32.196  29.261  1.00  0.00     0.074 A 
ATOM     59  C   UNL A   1      43.083  33.192  30.083  1.00  0.00     0.031 C 
ATOM     60  C   UNL A   1      44.985  32.331  28.748  1.00  0.00     0.034 A 
BRANCH  47  61
ATOM     61  C   UNL A   1      46.895  27.506  25.397  1.00  0.00     0.023 A 
ATOM     62  C   UNL A   1      47.104  27.908  24.069  1.00  0.00     0.031 A 
ATOM     63  C   UNL A   1      47.784  26.572  25.958  1.00  0.00     0.131 A 
ATOM     64  C   UNL A   1      48.172  27.367  23.337  1.00  0.00     0.055 A 
ATOM     65  C   UNL A   1      48.878  26.081  25.244  1.00  0.00     0.041 A 
ATOM     66  F   UNL A   1      47.617  26.142  27.218  1.00  0.00    -0.206 F 
ATOM     67  C   UNL A   1      49.076  26.477  23.926  1.00  0.00     0.022 A 
BRANCH  64  68
ATOM     68  S   UNL A   1      48.340  27.808  21.587  1.00  0.00     0.124 S 
ATOM     69  O   UNL A   1      48.817  26.553  21.012  1.00  0.00    -0.237 OA
ATOM     70  O   UNL A   1      46.983  28.199  21.228  1.00  0.00    -0.237 OA
ATOM     71  O   UNL A   1      49.319  28.893  21.600  1.00  0.00    -0.744 OA
ENDBRANCH  64  68
ENDBRANCH  47  61
BRANCH  48  72
ATOM     72  C   UNL A   1      39.370  31.304  30.800  1.00  0.00     0.023 A 
ATOM     73  C   UNL A   1      39.397  31.256  32.202  1.00  0.00     0.031 A 
ATOM     74  C   UNL A   1      38.249  31.886  30.181  1.00  0.00     0.131 A 
ATOM     75  C   UNL A   1      38.309  31.751  32.939  1.00  0.00     0.055 A 
ATOM     76  C   UNL A   1      37.193  32.423  30.919  1.00  0.00     0.041 A 
ATOM     77  F   UNL A   1      38.172  31.955  28.843  1.00  0.00    -0.206 F 
ATOM     78  C   UNL A   1      37.216  32.348  32.308  1.00  0.00     0.022 A 
BRANCH  75  79
ATOM     79  S   UNL A   1      38.320  31.553  34.742  1.00  0.00     0.124 S 
ATOM     80  O   UNL A   1      38.473  30.109  34.879  1.00  0.00    -0.237 OA
ATOM     81  O   UNL A   1      39.470  32.360  35.130  1.00  0.00    -0.237 OA
ATOM     82  O   UNL A   1      37.022  32.085  35.150  1.00  0.00    -0.744 OA
ENDBRANCH  75  79
ENDBRANCH  48  72
BRANCH  60  83
ATOM     83  C   UNL A   1      45.726  33.613  29.029  1.00  0.00     0.023 A 
ATOM     84  C   UNL A   1      45.497  34.772  28.271  1.00  0.00     0.031 A 
ATOM     85  C   UNL A   1      46.622  33.692  30.111  1.00  0.00     0.131 A 
ATOM     86  C   UNL A   1      46.177  35.958  28.589  1.00  0.00     0.055 A 
ATOM     87  C   UNL A   1      47.253  34.886  30.456  1.00  0.00     0.041 A 
ATOM     88  F   UNL A   1      46.871  32.613  30.872  1.00  0.00    -0.206 F 
ATOM     89  C   UNL A   1      47.038  36.027  29.688  1.00  0.00     0.022 A 
BRANCH  86  90
ATOM     90  S   UNL A   1      45.952  37.403  27.519  1.00  0.00     0.124 S 
ATOM     91  O   UNL A   1      47.115  37.314  26.641  1.00  0.00    -0.237 OA
ATOM     92  O   UNL A   1      44.660  37.133  26.893  1.00  0.00    -0.237 OA
ATOM     93  O   UNL A   1      45.963  38.527  28.453  1.00  0.00    -0.744 OA
ENDBRANCH  86  90
ENDBRANCH  60  83
ENDBRANCH  34  35
ENDBRANCH  27  29
ENDBRANCH  26  27
ENDBRANCH  25  26
ENDBRANCH   1  25
TORSDOF 19
ENDMDL
