MODEL 1
REMARK VINA RESULT:     -11.6      0.000      0.000
REMARK SMILES Cc1ccc(NC(=O)C[C@@H](C(=O)OCCOCCOC(=O)c2ccc(-c3c4nc(c(-c5cc(S(=O)(=O)[O-])ccc5F)c5ccc([nH]5)c(-c5cc(S(=O)(=O)[O-])ccc5F)c5nc(c(-c6cc(S(=O)(=O)[O-])ccc6F)c6ccc3[nH]6)C=C5)C=C4)cc2)[NH+](C)C)cc1Cl
REMARK SMILES IDX 16 1 15 2 14 3 13 4 11 5 12 6 10 7 9 8 7 9 6 10 8 12 5 13
REMARK SMILES IDX 1 14 2 15 3 16 89 17 4 18 88 19 90 20 85 21 86 22 87 23
REMARK SMILES IDX 17 25 18 26 19 27 20 28 21 29 22 30 23 31 84 32 24 33 83 34
REMARK SMILES IDX 25 35 26 36 27 37 77 38 28 39 82 40 76 41 78 42 29 43 81 44
REMARK SMILES IDX 75 45 74 46 30 48 62 49 42 50 61 51 43 52 46 53 60 54 79 55
REMARK SMILES IDX 44 56 45 57 59 59 80 60 47 61 31 62 32 63 40 64 33 65 39 66
REMARK SMILES IDX 41 67 38 68 34 69 35 70 36 71 37 72 63 73 64 74 72 75 65 76
REMARK SMILES IDX 71 77 73 78 70 79 66 80 67 81 68 82 69 83 48 84 49 85 57 86
REMARK SMILES IDX 50 87 56 88 58 89 55 90 51 91 52 92 53 93 54 94
REMARK H PARENT 6 11 85 24 78 47 46 58
REMARK Flexibility Score: inf
ROOT
ATOM      1  O   UNL A   1      36.103  19.161  24.828  1.00  0.00    -0.374 OA
ENDROOT
BRANCH   1   2
ATOM      2  C   UNL A   1      34.149  18.850  24.575  1.00  0.00     0.202 C 
BRANCH   2   3
ATOM      3  C   UNL A   1      32.959  19.868  23.961  1.00  0.00     0.261 C 
BRANCH   3   4
ATOM      4  O   UNL A   1      32.452  20.925  24.811  1.00  0.00    -0.459 OA
BRANCH   4   5
ATOM      5  C   UNL A   1      32.759  22.200  24.477  1.00  0.00     0.365 C 
ATOM      6  O   UNL A   1      32.093  22.824  23.661  1.00  0.00    -0.245 OA
BRANCH   5   7
ATOM      7  C   UNL A   1      34.014  22.718  25.277  1.00  0.00     0.304 C 
BRANCH   7   8
ATOM      8  C   UNL A   1      33.742  23.480  26.609  1.00  0.00     0.177 C 
BRANCH   8   9
ATOM      9  C   UNL A   1      32.366  23.465  27.232  1.00  0.00     0.231 C 
ATOM     10  N   UNL A   1      31.471  24.472  27.008  1.00  0.00    -0.326 N 
ATOM     11  H   UNL A   1      30.708  24.482  27.630  1.00  0.00     0.169 HD
ATOM     12  O   UNL A   1      32.051  22.556  28.004  1.00  0.00    -0.274 OA
BRANCH  10  13
ATOM     13  C   UNL A   1      31.449  25.497  26.043  1.00  0.00     0.042 A 
ATOM     14  C   UNL A   1      30.956  29.065  22.417  1.00  0.00     0.046 C 
ATOM     15  C   UNL A   1      31.114  27.950  23.397  1.00  0.00    -0.032 A 
ATOM     16  C   UNL A   1      29.673  27.013  23.949  1.00  0.00     0.007 A 
ATOM     17  C   UNL A   1      32.723  27.666  24.142  1.00  0.00     0.046 A 
ATOM     18  C   UNL A   1      29.850  25.761  25.234  1.00  0.00     0.026 A 
ATOM     19  C   UNL A   1      32.896  26.430  25.464  1.00  0.00     0.047 A 
ATOM     20  Cl  UNL A   1      34.113  28.539  23.625  1.00  0.00    -0.084 Cl
ENDBRANCH  10  13
ENDBRANCH   8   9
ENDBRANCH   7   8
BRANCH   7  21
ATOM     21  N   UNL A   1      35.059  23.444  24.439  1.00  0.00    -0.328 N 
ATOM     22  C   UNL A   1      36.197  23.984  25.186  1.00  0.00     0.333 C 
ATOM     23  C   UNL A   1      35.558  22.817  23.216  1.00  0.00     0.333 C 
ATOM     24  H   UNL A   1      34.450  24.200  24.125  1.00  0.00     0.348 HD
ENDBRANCH   7  21
ENDBRANCH   5   7
ENDBRANCH   4   5
ENDBRANCH   3   4
ENDBRANCH   2   3
ENDBRANCH   1   2
BRANCH   1  25
ATOM     25  C   UNL A   1      37.307  20.114  24.991  1.00  0.00     0.202 C 
BRANCH  25  26
ATOM     26  C   UNL A   1      38.672  19.417  25.189  1.00  0.00     0.261 C 
BRANCH  26  27
ATOM     27  O   UNL A   1      39.351  19.754  26.394  1.00  0.00    -0.460 OA
BRANCH  27  28
ATOM     28  C   UNL A   1      40.678  19.982  26.294  1.00  0.00     0.338 C 
ATOM     29  O   UNL A   1      41.513  19.263  25.776  1.00  0.00    -0.246 OA
BRANCH  28  30
ATOM     30  C   UNL A   1      40.901  21.365  26.766  1.00  0.00     0.060 A 
ATOM     31  C   UNL A   1      40.230  22.404  26.112  1.00  0.00     0.016 A 
ATOM     32  C   UNL A   1      41.673  21.620  27.910  1.00  0.00     0.016 A 
ATOM     33  C   UNL A   1      40.333  23.705  26.598  1.00  0.00     0.010 A 
ATOM     34  C   UNL A   1      41.794  22.923  28.383  1.00  0.00     0.010 A 
ATOM     35  C   UNL A   1      41.149  23.971  27.708  1.00  0.00    -0.014 A 
BRANCH  35  36
ATOM     36  C   UNL A   1      41.585  25.360  27.957  1.00  0.00     0.031 A 
ATOM     37  C   UNL A   1      42.967  25.720  27.488  1.00  0.00     0.074 A 
ATOM     38  C   UNL A   1      40.791  26.261  28.558  1.00  0.00     0.049 A 
ATOM     39  N   UNL A   1      43.601  26.859  27.560  1.00  0.00    -0.248 NA
ATOM     40  C   UNL A   1      43.737  24.639  26.848  1.00  0.00     0.031 C 
ATOM     41  C   UNL A   1      39.426  26.015  29.021  1.00  0.00     0.029 A 
ATOM     42  N   UNL A   1      41.028  27.571  28.886  1.00  0.00    -0.354 N 
ATOM     43  C   UNL A   1      44.833  26.635  26.956  1.00  0.00     0.074 A 
ATOM     44  C   UNL A   1      44.877  25.245  26.569  1.00  0.00     0.031 C 
ATOM     45  C   UNL A   1      38.948  27.144  29.579  1.00  0.00     0.029 A 
ATOM     46  C   UNL A   1      39.981  28.178  29.540  1.00  0.00     0.049 A 
ATOM     47  H   UNL A   1      41.870  28.035  28.673  1.00  0.00     0.167 HD
ATOM     48  C   UNL A   1      45.836  27.518  26.736  1.00  0.00     0.034 A 
ATOM     49  C   UNL A   1      39.888  29.421  30.055  1.00  0.00     0.034 A 
ATOM     50  C   UNL A   1      45.794  28.882  27.187  1.00  0.00     0.049 A 
ATOM     51  C   UNL A   1      41.069  30.356  29.903  1.00  0.00     0.074 A 
ATOM     52  C   UNL A   1      46.754  29.866  27.047  1.00  0.00     0.029 A 
ATOM     53  N   UNL A   1      44.741  29.448  27.895  1.00  0.00    -0.354 N 
ATOM     54  N   UNL A   1      42.220  30.146  29.300  1.00  0.00    -0.248 NA
ATOM     55  C   UNL A   1      40.937  31.693  30.493  1.00  0.00     0.031 C 
ATOM     56  C   UNL A   1      46.318  31.000  27.740  1.00  0.00     0.029 A 
ATOM     57  C   UNL A   1      45.044  30.755  28.233  1.00  0.00     0.049 A 
ATOM     58  H   UNL A   1      43.902  28.986  28.124  1.00  0.00     0.167 HD
ATOM     59  C   UNL A   1      42.929  31.342  29.407  1.00  0.00     0.074 A 
ATOM     60  C   UNL A   1      42.072  32.266  30.120  1.00  0.00     0.031 C 
ATOM     61  C   UNL A   1      44.170  31.655  28.952  1.00  0.00     0.034 A 
BRANCH  48  62
ATOM     62  C   UNL A   1      47.068  26.990  26.045  1.00  0.00     0.023 A 
ATOM     63  C   UNL A   1      48.066  26.291  26.749  1.00  0.00     0.031 A 
ATOM     64  C   UNL A   1      47.283  27.254  24.682  1.00  0.00     0.131 A 
ATOM     65  C   UNL A   1      49.265  25.951  26.107  1.00  0.00     0.055 A 
ATOM     66  C   UNL A   1      48.443  26.836  24.028  1.00  0.00     0.041 A 
ATOM     67  F   UNL A   1      46.382  27.948  23.969  1.00  0.00    -0.206 F 
ATOM     68  C   UNL A   1      49.450  26.194  24.744  1.00  0.00     0.022 A 
BRANCH  65  69
ATOM     69  S   UNL A   1      50.642  25.331  27.114  1.00  0.00     0.124 S 
ATOM     70  O   UNL A   1      51.027  26.530  27.855  1.00  0.00    -0.237 OA
ATOM     71  O   UNL A   1      50.012  24.273  27.894  1.00  0.00    -0.237 OA
ATOM     72  O   UNL A   1      51.616  24.881  26.122  1.00  0.00    -0.744 OA
ENDBRANCH  65  69
ENDBRANCH  48  62
BRANCH  49  73
ATOM     73  C   UNL A   1      38.664  29.858  30.791  1.00  0.00     0.023 A 
ATOM     74  C   UNL A   1      37.665  30.617  30.159  1.00  0.00     0.031 A 
ATOM     75  C   UNL A   1      38.512  29.588  32.164  1.00  0.00     0.131 A 
ATOM     76  C   UNL A   1      36.589  31.123  30.908  1.00  0.00     0.055 A 
ATOM     77  C   UNL A   1      37.410  30.045  32.890  1.00  0.00     0.041 A 
ATOM     78  F   UNL A   1      39.437  28.872  32.822  1.00  0.00    -0.206 F 
ATOM     79  C   UNL A   1      36.448  30.831  32.266  1.00  0.00     0.022 A 
BRANCH  76  80
ATOM     80  S   UNL A   1      35.422  32.255  30.099  1.00  0.00     0.124 S 
ATOM     81  O   UNL A   1      35.004  31.471  28.943  1.00  0.00    -0.237 OA
ATOM     82  O   UNL A   1      34.419  32.449  31.142  1.00  0.00    -0.237 OA
ATOM     83  O   UNL A   1      36.240  33.428  29.797  1.00  0.00    -0.744 OA
ENDBRANCH  76  80
ENDBRANCH  49  73
BRANCH  61  84
ATOM     84  C   UNL A   1      44.649  33.070  29.166  1.00  0.00     0.023 A 
ATOM     85  C   UNL A   1      44.384  34.094  28.239  1.00  0.00     0.031 A 
ATOM     86  C   UNL A   1      45.372  33.400  30.327  1.00  0.00     0.131 A 
ATOM     87  C   UNL A   1      44.885  35.385  28.464  1.00  0.00     0.055 A 
ATOM     88  C   UNL A   1      45.808  34.700  30.578  1.00  0.00     0.041 A 
ATOM     89  F   UNL A   1      45.654  32.462  31.246  1.00  0.00    -0.206 F 
ATOM     90  C   UNL A   1      45.578  35.700  29.637  1.00  0.00     0.022 A 
BRANCH  87  91
ATOM     91  S   UNL A   1      44.703  36.629  27.158  1.00  0.00     0.124 S 
ATOM     92  O   UNL A   1      44.745  37.874  27.919  1.00  0.00    -0.237 OA
ATOM     93  O   UNL A   1      45.860  36.362  26.309  1.00  0.00    -0.237 OA
ATOM     94  O   UNL A   1      43.409  36.312  26.559  1.00  0.00    -0.744 OA
ENDBRANCH  87  91
ENDBRANCH  61  84
ENDBRANCH  35  36
ENDBRANCH  28  30
ENDBRANCH  27  28
ENDBRANCH  26  27
ENDBRANCH  25  26
ENDBRANCH   1  25
TORSDOF 21
ENDMDL
MODEL 2
REMARK VINA RESULT:     -11.3      2.450      3.357
REMARK SMILES Cc1ccc(NC(=O)C[C@@H](C(=O)OCCOCCOC(=O)c2ccc(-c3c4nc(c(-c5cc(S(=O)(=O)[O-])ccc5F)c5ccc([nH]5)c(-c5cc(S(=O)(=O)[O-])ccc5F)c5nc(c(-c6cc(S(=O)(=O)[O-])ccc6F)c6ccc3[nH]6)C=C5)C=C4)cc2)[NH+](C)C)cc1Cl
REMARK SMILES IDX 16 1 15 2 14 3 13 4 11 5 12 6 10 7 9 8 7 9 6 10 8 12 5 13
REMARK SMILES IDX 1 14 2 15 3 16 89 17 4 18 88 19 90 20 85 21 86 22 87 23
REMARK SMILES IDX 17 25 18 26 19 27 20 28 21 29 22 30 23 31 84 32 24 33 83 34
REMARK SMILES IDX 25 35 26 36 27 37 77 38 28 39 82 40 76 41 78 42 29 43 81 44
REMARK SMILES IDX 75 45 74 46 30 48 62 49 42 50 61 51 43 52 46 53 60 54 79 55
REMARK SMILES IDX 44 56 45 57 59 59 80 60 47 61 31 62 32 63 40 64 33 65 39 66
REMARK SMILES IDX 41 67 38 68 34 69 35 70 36 71 37 72 63 73 64 74 72 75 65 76
REMARK SMILES IDX 71 77 73 78 70 79 66 80 67 81 68 82 69 83 48 84 49 85 57 86
REMARK SMILES IDX 50 87 56 88 58 89 55 90 51 91 52 92 53 93 54 94
REMARK H PARENT 6 11 85 24 78 47 46 58
REMARK Flexibility Score: inf
ROOT
ATOM      1  O   UNL A   1      35.945  20.166  25.003  1.00  0.00    -0.374 OA
ENDROOT
BRANCH   1   2
ATOM      2  C   UNL A   1      34.196  19.287  24.625  1.00  0.00     0.202 C 
BRANCH   2   3
ATOM      3  C   UNL A   1      32.750  19.941  24.068  1.00  0.00     0.261 C 
BRANCH   3   4
ATOM      4  O   UNL A   1      31.916  20.666  25.003  1.00  0.00    -0.459 OA
BRANCH   4   5
ATOM      5  C   UNL A   1      32.186  21.979  25.197  1.00  0.00     0.365 C 
ATOM      6  O   UNL A   1      33.229  22.345  25.723  1.00  0.00    -0.245 OA
BRANCH   5   7
ATOM      7  C   UNL A   1      31.023  22.891  24.650  1.00  0.00     0.304 C 
BRANCH   7   8
ATOM      8  C   UNL A   1      31.340  23.776  23.407  1.00  0.00     0.177 C 
BRANCH   8   9
ATOM      9  C   UNL A   1      32.768  23.993  22.966  1.00  0.00     0.231 C 
ATOM     10  N   UNL A   1      33.354  25.224  23.026  1.00  0.00    -0.326 N 
ATOM     11  H   UNL A   1      34.189  25.302  22.512  1.00  0.00     0.169 HD
ATOM     12  O   UNL A   1      33.414  23.055  22.490  1.00  0.00    -0.274 OA
BRANCH  10  13
ATOM     13  C   UNL A   1      32.972  26.403  23.697  1.00  0.00     0.042 A 
ATOM     14  C   UNL A   1      31.821  30.525  26.489  1.00  0.00     0.046 C 
ATOM     15  C   UNL A   1      32.089  29.265  25.737  1.00  0.00    -0.032 A 
ATOM     16  C   UNL A   1      33.422  28.164  26.253  1.00  0.00     0.007 A 
ATOM     17  C   UNL A   1      31.183  28.945  24.220  1.00  0.00     0.046 A 
ATOM     18  C   UNL A   1      33.831  26.714  25.261  1.00  0.00     0.026 A 
ATOM     19  C   UNL A   1      31.617  27.505  23.198  1.00  0.00     0.047 A 
ATOM     20  Cl  UNL A   1      29.899  29.975  23.712  1.00  0.00    -0.084 Cl
ENDBRANCH  10  13
ENDBRANCH   8   9
ENDBRANCH   7   8
BRANCH   7  21
ATOM     21  N   UNL A   1      30.278  23.692  25.711  1.00  0.00    -0.328 N 
ATOM     22  C   UNL A   1      29.888  22.940  26.905  1.00  0.00     0.333 C 
ATOM     23  C   UNL A   1      30.802  24.991  26.127  1.00  0.00     0.333 C 
ATOM     24  H   UNL A   1      29.458  23.903  25.142  1.00  0.00     0.348 HD
ENDBRANCH   7  21
ENDBRANCH   5   7
ENDBRANCH   4   5
ENDBRANCH   3   4
ENDBRANCH   2   3
ENDBRANCH   1   2
BRANCH   1  25
ATOM     25  C   UNL A   1      36.927  21.345  24.829  1.00  0.00     0.202 C 
BRANCH  25  26
ATOM     26  C   UNL A   1      38.384  21.052  25.257  1.00  0.00     0.261 C 
BRANCH  26  27
ATOM     27  O   UNL A   1      38.811  21.727  26.435  1.00  0.00    -0.460 OA
BRANCH  27  28
ATOM     28  C   UNL A   1      40.140  21.934  26.562  1.00  0.00     0.338 C 
ATOM     29  O   UNL A   1      41.040  21.202  26.188  1.00  0.00    -0.246 OA
BRANCH  28  30
ATOM     30  C   UNL A   1      40.302  23.311  27.072  1.00  0.00     0.060 A 
ATOM     31  C   UNL A   1      39.509  24.320  26.517  1.00  0.00     0.016 A 
ATOM     32  C   UNL A   1      41.143  23.581  28.162  1.00  0.00     0.016 A 
ATOM     33  C   UNL A   1      39.558  25.607  27.047  1.00  0.00     0.010 A 
ATOM     34  C   UNL A   1      41.210  24.871  28.679  1.00  0.00     0.010 A 
ATOM     35  C   UNL A   1      40.440  25.892  28.101  1.00  0.00    -0.014 A 
BRANCH  35  36
ATOM     36  C   UNL A   1      40.795  27.300  28.373  1.00  0.00     0.031 A 
ATOM     37  C   UNL A   1      42.221  27.693  28.104  1.00  0.00     0.074 A 
ATOM     38  C   UNL A   1      39.896  28.189  28.825  1.00  0.00     0.049 A 
ATOM     39  N   UNL A   1      42.805  28.852  28.238  1.00  0.00    -0.248 NA
ATOM     40  C   UNL A   1      43.108  26.622  27.616  1.00  0.00     0.031 C 
ATOM     41  C   UNL A   1      38.484  27.911  29.087  1.00  0.00     0.029 A 
ATOM     42  N   UNL A   1      40.044  29.513  29.148  1.00  0.00    -0.354 N 
ATOM     43  C   UNL A   1      44.119  28.654  27.829  1.00  0.00     0.074 A 
ATOM     44  C   UNL A   1      44.259  27.257  27.492  1.00  0.00     0.031 C 
ATOM     45  C   UNL A   1      37.897  29.036  29.536  1.00  0.00     0.029 A 
ATOM     46  C   UNL A   1      38.895  30.102  29.622  1.00  0.00     0.049 A 
ATOM     47  H   UNL A   1      40.895  29.998  29.049  1.00  0.00     0.167 HD
ATOM     48  C   UNL A   1      45.118  29.562  27.736  1.00  0.00     0.034 A 
ATOM     49  C   UNL A   1      38.692  31.352  30.083  1.00  0.00     0.034 A 
ATOM     50  C   UNL A   1      44.972  30.935  28.138  1.00  0.00     0.049 A 
ATOM     51  C   UNL A   1      39.856  32.321  30.082  1.00  0.00     0.074 A 
ATOM     52  C   UNL A   1      45.914  31.945  28.115  1.00  0.00     0.029 A 
ATOM     53  N   UNL A   1      43.810  31.483  28.667  1.00  0.00    -0.354 N 
ATOM     54  N   UNL A   1      41.089  32.134  29.662  1.00  0.00    -0.248 NA
ATOM     55  C   UNL A   1      39.600  33.666  30.608  1.00  0.00     0.031 C 
ATOM     56  C   UNL A   1      45.348  33.080  28.704  1.00  0.00     0.029 A 
ATOM     57  C   UNL A   1      44.023  32.807  29.009  1.00  0.00     0.049 A 
ATOM     58  H   UNL A   1      42.959  31.000  28.781  1.00  0.00     0.167 HD
ATOM     59  C   UNL A   1      41.741  33.354  29.840  1.00  0.00     0.074 A 
ATOM     60  C   UNL A   1      40.762  34.266  30.392  1.00  0.00     0.031 C 
ATOM     61  C   UNL A   1      43.026  33.695  29.565  1.00  0.00     0.034 A 
BRANCH  48  62
ATOM     62  C   UNL A   1      46.454  29.058  27.251  1.00  0.00     0.023 A 
ATOM     63  C   UNL A   1      46.679  28.753  25.896  1.00  0.00     0.031 A 
ATOM     64  C   UNL A   1      47.491  28.807  28.165  1.00  0.00     0.131 A 
ATOM     65  C   UNL A   1      47.880  28.143  25.507  1.00  0.00     0.055 A 
ATOM     66  C   UNL A   1      48.717  28.278  27.757  1.00  0.00     0.041 A 
ATOM     67  F   UNL A   1      47.320  29.044  29.475  1.00  0.00    -0.206 F 
ATOM     68  C   UNL A   1      48.912  27.928  26.424  1.00  0.00     0.022 A 
BRANCH  65  69
ATOM     69  S   UNL A   1      48.014  27.487  23.820  1.00  0.00     0.124 S 
ATOM     70  O   UNL A   1      46.965  28.235  23.130  1.00  0.00    -0.237 OA
ATOM     71  O   UNL A   1      49.384  27.828  23.457  1.00  0.00    -0.237 OA
ATOM     72  O   UNL A   1      47.746  26.061  23.985  1.00  0.00    -0.744 OA
ENDBRANCH  65  69
ENDBRANCH  48  62
BRANCH  49  73
ATOM     73  C   UNL A   1      37.361  31.768  30.617  1.00  0.00     0.023 A 
ATOM     74  C   UNL A   1      36.435  32.456  29.815  1.00  0.00     0.031 A 
ATOM     75  C   UNL A   1      37.023  31.549  31.966  1.00  0.00     0.131 A 
ATOM     76  C   UNL A   1      35.246  32.947  30.379  1.00  0.00     0.055 A 
ATOM     77  C   UNL A   1      35.813  31.989  32.507  1.00  0.00     0.041 A 
ATOM     78  F   UNL A   1      37.870  30.902  32.781  1.00  0.00    -0.206 F 
ATOM     79  C   UNL A   1      34.923  32.707  31.716  1.00  0.00     0.022 A 
BRANCH  76  80
ATOM     80  S   UNL A   1      34.166  33.993  29.361  1.00  0.00     0.124 S 
ATOM     81  O   UNL A   1      33.565  33.013  28.465  1.00  0.00    -0.237 OA
ATOM     82  O   UNL A   1      33.279  34.577  30.362  1.00  0.00    -0.237 OA
ATOM     83  O   UNL A   1      35.095  34.930  28.731  1.00  0.00    -0.744 OA
ENDBRANCH  76  80
ENDBRANCH  49  73
BRANCH  61  84
ATOM     84  C   UNL A   1      43.429  35.130  29.808  1.00  0.00     0.023 A 
ATOM     85  C   UNL A   1      43.936  35.560  31.047  1.00  0.00     0.031 A 
ATOM     86  C   UNL A   1      43.315  36.077  28.774  1.00  0.00     0.131 A 
ATOM     87  C   UNL A   1      44.258  36.913  31.236  1.00  0.00     0.055 A 
ATOM     88  C   UNL A   1      43.702  37.405  28.947  1.00  0.00     0.041 A 
ATOM     89  F   UNL A   1      42.837  35.720  27.571  1.00  0.00    -0.206 F 
ATOM     90  C   UNL A   1      44.164  37.834  30.188  1.00  0.00     0.022 A 
BRANCH  87  91
ATOM     91  S   UNL A   1      44.713  37.476  32.898  1.00  0.00     0.124 S 
ATOM     92  O   UNL A   1      46.054  36.920  33.049  1.00  0.00    -0.237 OA
ATOM     93  O   UNL A   1      44.637  38.928  32.767  1.00  0.00    -0.237 OA
ATOM     94  O   UNL A   1      43.692  36.877  33.755  1.00  0.00    -0.744 OA
ENDBRANCH  87  91
ENDBRANCH  61  84
ENDBRANCH  35  36
ENDBRANCH  28  30
ENDBRANCH  27  28
ENDBRANCH  26  27
ENDBRANCH  25  26
ENDBRANCH   1  25
TORSDOF 21
ENDMDL
MODEL 3
REMARK VINA RESULT:     -11.1      4.776      8.276
REMARK SMILES Cc1ccc(NC(=O)C[C@@H](C(=O)OCCOCCOC(=O)c2ccc(-c3c4nc(c(-c5cc(S(=O)(=O)[O-])ccc5F)c5ccc([nH]5)c(-c5cc(S(=O)(=O)[O-])ccc5F)c5nc(c(-c6cc(S(=O)(=O)[O-])ccc6F)c6ccc3[nH]6)C=C5)C=C4)cc2)[NH+](C)C)cc1Cl
REMARK SMILES IDX 16 1 15 2 14 3 13 4 11 5 12 6 10 7 9 8 7 9 6 10 8 12 5 13
REMARK SMILES IDX 1 14 2 15 3 16 89 17 4 18 88 19 90 20 85 21 86 22 87 23
REMARK SMILES IDX 17 25 18 26 19 27 20 28 21 29 22 30 23 31 84 32 24 33 83 34
REMARK SMILES IDX 25 35 26 36 27 37 77 38 28 39 82 40 76 41 78 42 29 43 81 44
REMARK SMILES IDX 75 45 74 46 30 48 62 49 42 50 61 51 43 52 46 53 60 54 79 55
REMARK SMILES IDX 44 56 45 57 59 59 80 60 47 61 31 62 32 63 40 64 33 65 39 66
REMARK SMILES IDX 41 67 38 68 34 69 35 70 36 71 37 72 63 73 64 74 72 75 65 76
REMARK SMILES IDX 71 77 73 78 70 79 66 80 67 81 68 82 69 83 48 84 49 85 57 86
REMARK SMILES IDX 50 87 56 88 58 89 55 90 51 91 52 92 53 93 54 94
REMARK H PARENT 6 11 85 24 78 47 46 58
REMARK Flexibility Score: inf
ROOT
ATOM      1  O   UNL A   1      31.842  30.079  25.085  1.00  0.00    -0.374 OA
ENDROOT
BRANCH   1   2
ATOM      2  C   UNL A   1      33.439  28.885  25.140  1.00  0.00     0.202 C 
BRANCH   2   3
ATOM      3  C   UNL A   1      34.020  27.798  23.996  1.00  0.00     0.261 C 
BRANCH   3   4
ATOM      4  O   UNL A   1      33.875  26.381  24.256  1.00  0.00    -0.459 OA
BRANCH   4   5
ATOM      5  C   UNL A   1      32.892  25.720  23.600  1.00  0.00     0.365 C 
ATOM      6  O   UNL A   1      33.106  25.144  22.542  1.00  0.00    -0.245 OA
BRANCH   5   7
ATOM      7  C   UNL A   1      31.527  25.792  24.387  1.00  0.00     0.304 C 
BRANCH   7   8
ATOM      8  C   UNL A   1      30.844  24.438  24.747  1.00  0.00     0.177 C 
BRANCH   8   9
ATOM      9  C   UNL A   1      30.741  23.992  26.186  1.00  0.00     0.231 C 
ATOM     10  N   UNL A   1      31.647  23.129  26.731  1.00  0.00    -0.326 N 
ATOM     11  H   UNL A   1      31.365  22.731  27.586  1.00  0.00     0.169 HD
ATOM     12  O   UNL A   1      29.792  24.368  26.879  1.00  0.00    -0.274 OA
BRANCH  10  13
ATOM     13  C   UNL A   1      32.915  22.710  26.285  1.00  0.00     0.042 A 
ATOM     14  C   UNL A   1      37.345  20.767  24.636  1.00  0.00     0.046 C 
ATOM     15  C   UNL A   1      36.069  21.283  25.212  1.00  0.00    -0.032 A 
ATOM     16  C   UNL A   1      34.543  20.336  25.036  1.00  0.00     0.007 A 
ATOM     17  C   UNL A   1      36.040  22.929  25.930  1.00  0.00     0.046 A 
ATOM     18  C   UNL A   1      32.980  21.029  25.612  1.00  0.00     0.026 A 
ATOM     19  C   UNL A   1      34.461  23.644  26.477  1.00  0.00     0.047 A 
ATOM     20  Cl  UNL A   1      37.485  23.847  26.118  1.00  0.00    -0.084 Cl
ENDBRANCH  10  13
ENDBRANCH   8   9
ENDBRANCH   7   8
BRANCH   7  21
ATOM     21  N   UNL A   1      30.513  26.782  23.829  1.00  0.00    -0.328 N 
ATOM     22  C   UNL A   1      30.811  27.300  22.493  1.00  0.00     0.333 C 
ATOM     23  C   UNL A   1      29.087  26.461  23.898  1.00  0.00     0.333 C 
ATOM     24  H   UNL A   1      30.659  27.506  24.532  1.00  0.00     0.348 HD
ENDBRANCH   7  21
ENDBRANCH   5   7
ENDBRANCH   4   5
ENDBRANCH   3   4
ENDBRANCH   2   3
ENDBRANCH   1   2
BRANCH   1  25
ATOM     25  C   UNL A   1      30.996  31.227  25.676  1.00  0.00     0.202 C 
BRANCH  25  26
ATOM     26  C   UNL A   1      31.591  31.899  26.934  1.00  0.00     0.261 C 
BRANCH  26  27
ATOM     27  O   UNL A   1      33.003  31.777  27.070  1.00  0.00    -0.460 OA
BRANCH  27  28
ATOM     28  C   UNL A   1      33.647  32.827  27.623  1.00  0.00     0.338 C 
ATOM     29  O   UNL A   1      33.227  33.963  27.759  1.00  0.00    -0.246 OA
BRANCH  28  30
ATOM     30  C   UNL A   1      34.895  32.292  28.206  1.00  0.00     0.060 A 
ATOM     31  C   UNL A   1      34.919  30.950  28.601  1.00  0.00     0.016 A 
ATOM     32  C   UNL A   1      36.060  33.073  28.256  1.00  0.00     0.016 A 
ATOM     33  C   UNL A   1      36.108  30.386  29.053  1.00  0.00     0.010 A 
ATOM     34  C   UNL A   1      37.244  32.516  28.729  1.00  0.00     0.010 A 
ATOM     35  C   UNL A   1      37.261  31.179  29.157  1.00  0.00    -0.014 A 
BRANCH  35  36
ATOM     36  C   UNL A   1      38.374  30.713  30.009  1.00  0.00     0.031 A 
ATOM     37  C   UNL A   1      39.305  29.703  29.397  1.00  0.00     0.074 A 
ATOM     38  C   UNL A   1      38.558  31.170  31.258  1.00  0.00     0.049 A 
ATOM     39  N   UNL A   1      40.366  29.135  29.902  1.00  0.00    -0.248 NA
ATOM     40  C   UNL A   1      38.990  29.281  28.021  1.00  0.00     0.031 C 
ATOM     41  C   UNL A   1      37.727  32.170  31.928  1.00  0.00     0.029 A 
ATOM     42  N   UNL A   1      39.509  30.844  32.189  1.00  0.00    -0.354 N 
ATOM     43  C   UNL A   1      40.855  28.306  28.899  1.00  0.00     0.074 A 
ATOM     44  C   UNL A   1      39.950  28.408  27.778  1.00  0.00     0.031 C 
ATOM     45  C   UNL A   1      38.207  32.372  33.169  1.00  0.00     0.029 A 
ATOM     46  C   UNL A   1      39.356  31.495  33.392  1.00  0.00     0.049 A 
ATOM     47  H   UNL A   1      40.235  30.202  32.015  1.00  0.00     0.167 HD
ATOM     48  C   UNL A   1      41.967  27.535  28.911  1.00  0.00     0.034 A 
ATOM     49  C   UNL A   1      40.061  31.375  34.535  1.00  0.00     0.034 A 
ATOM     50  C   UNL A   1      42.818  27.402  30.062  1.00  0.00     0.049 A 
ATOM     51  C   UNL A   1      41.232  30.416  34.564  1.00  0.00     0.074 A 
ATOM     52  C   UNL A   1      43.958  26.635  30.207  1.00  0.00     0.029 A 
ATOM     53  N   UNL A   1      42.602  28.033  31.281  1.00  0.00    -0.354 N 
ATOM     54  N   UNL A   1      41.708  29.659  33.599  1.00  0.00    -0.248 NA
ATOM     55  C   UNL A   1      41.963  30.300  35.832  1.00  0.00     0.031 C 
ATOM     56  C   UNL A   1      44.384  26.738  31.535  1.00  0.00     0.029 A 
ATOM     57  C   UNL A   1      43.565  27.642  32.195  1.00  0.00     0.049 A 
ATOM     58  H   UNL A   1      41.870  28.665  31.467  1.00  0.00     0.167 HD
ATOM     59  C   UNL A   1      42.819  29.009  34.137  1.00  0.00     0.074 A 
ATOM     60  C   UNL A   1      42.944  29.472  35.503  1.00  0.00     0.031 C 
ATOM     61  C   UNL A   1      43.663  28.118  33.556  1.00  0.00     0.034 A 
BRANCH  48  62
ATOM     62  C   UNL A   1      42.256  26.737  27.664  1.00  0.00     0.023 A 
ATOM     63  C   UNL A   1      42.045  25.347  27.612  1.00  0.00     0.031 A 
ATOM     64  C   UNL A   1      42.821  27.362  26.539  1.00  0.00     0.131 A 
ATOM     65  C   UNL A   1      42.468  24.618  26.492  1.00  0.00     0.055 A 
ATOM     66  C   UNL A   1      43.161  26.641  25.393  1.00  0.00     0.041 A 
ATOM     67  F   UNL A   1      43.078  28.679  26.545  1.00  0.00    -0.206 F 
ATOM     68  C   UNL A   1      43.000  25.259  25.371  1.00  0.00     0.022 A 
BRANCH  65  69
ATOM     69  S   UNL A   1      42.462  22.805  26.584  1.00  0.00     0.124 S 
ATOM     70  O   UNL A   1      43.852  22.525  26.940  1.00  0.00    -0.237 OA
ATOM     71  O   UNL A   1      41.473  22.546  27.624  1.00  0.00    -0.237 OA
ATOM     72  O   UNL A   1      42.076  22.395  25.237  1.00  0.00    -0.744 OA
ENDBRANCH  65  69
ENDBRANCH  48  62
BRANCH  49  73
ATOM     73  C   UNL A   1      39.679  32.143  35.757  1.00  0.00     0.023 A 
ATOM     74  C   UNL A   1      38.827  31.592  36.728  1.00  0.00     0.031 A 
ATOM     75  C   UNL A   1      40.100  33.474  35.936  1.00  0.00     0.131 A 
ATOM     76  C   UNL A   1      38.381  32.382  37.802  1.00  0.00     0.055 A 
ATOM     77  C   UNL A   1      39.700  34.236  37.036  1.00  0.00     0.041 A 
ATOM     78  F   UNL A   1      40.911  34.056  35.038  1.00  0.00    -0.206 F 
ATOM     79  C   UNL A   1      38.823  33.695  37.969  1.00  0.00     0.022 A 
BRANCH  76  80
ATOM     80  S   UNL A   1      37.134  31.696  38.930  1.00  0.00     0.124 S 
ATOM     81  O   UNL A   1      37.841  31.726  40.204  1.00  0.00    -0.237 OA
ATOM     82  O   UNL A   1      36.037  32.646  38.780  1.00  0.00    -0.237 OA
ATOM     83  O   UNL A   1      36.881  30.363  38.386  1.00  0.00    -0.744 OA
ENDBRANCH  76  80
ENDBRANCH  49  73
BRANCH  61  84
ATOM     84  C   UNL A   1      44.829  27.630  34.383  1.00  0.00     0.023 A 
ATOM     85  C   UNL A   1      44.774  26.427  35.108  1.00  0.00     0.031 A 
ATOM     86  C   UNL A   1      46.019  28.379  34.431  1.00  0.00     0.131 A 
ATOM     87  C   UNL A   1      45.869  26.036  35.894  1.00  0.00     0.055 A 
ATOM     88  C   UNL A   1      47.129  27.950  35.159  1.00  0.00     0.041 A 
ATOM     89  F   UNL A   1      46.127  29.536  33.758  1.00  0.00    -0.206 F 
ATOM     90  C   UNL A   1      47.053  26.779  35.907  1.00  0.00     0.022 A 
BRANCH  87  91
ATOM     91  S   UNL A   1      45.694  24.592  36.975  1.00  0.00     0.124 S 
ATOM     92  O   UNL A   1      47.021  23.989  36.892  1.00  0.00    -0.237 OA
ATOM     93  O   UNL A   1      45.351  25.201  38.256  1.00  0.00    -0.237 OA
ATOM     94  O   UNL A   1      44.622  23.822  36.349  1.00  0.00    -0.744 OA
ENDBRANCH  87  91
ENDBRANCH  61  84
ENDBRANCH  35  36
ENDBRANCH  28  30
ENDBRANCH  27  28
ENDBRANCH  26  27
ENDBRANCH  25  26
ENDBRANCH   1  25
TORSDOF 21
ENDMDL
