MODEL 1
REMARK VINA RESULT:     -11.0      0.000      0.000
REMARK SMILES O=C(OCCOCCOC(=O)[C@H]1SC=C[C@@H]1S(=O)(=O)NCCC1=c2ccccc2=NC1)c1ccc(-c2c3nc(c(-c4cc(S(=O)(=O)[O-])ccc4F)c4ccc([nH]4)c(-c4cc(S(=O)(=O)[O-])ccc4F)c4nc(c(-c5cc(S(=O)(=O)[O-])ccc5F)c5ccc2[nH]5)C=C4)C=C3)cc1
REMARK SMILES IDX 7 1 6 2 5 3 4 4 3 5 2 6 1 7 32 8 33 9 94 10 34 11 93 12
REMARK SMILES IDX 35 13 36 14 37 15 87 16 38 17 92 18 86 19 88 20 39 21 91 22
REMARK SMILES IDX 85 23 84 24 40 26 72 27 52 28 71 29 53 30 56 31 70 32 89 33
REMARK SMILES IDX 54 34 55 35 69 37 90 38 57 39 41 40 42 41 50 42 43 43 49 44
REMARK SMILES IDX 51 45 48 46 44 47 45 48 46 49 47 50 73 51 74 52 82 53 75 54
REMARK SMILES IDX 81 55 83 56 80 57 76 58 77 59 78 60 79 61 58 62 59 63 67 64
REMARK SMILES IDX 60 65 66 66 68 67 65 68 61 69 62 70 63 71 64 72 8 73 9 74
REMARK SMILES IDX 10 75 11 76 12 77 13 78 16 79 14 80 15 81 17 82 18 83 19 84
REMARK SMILES IDX 20 85 21 87 22 88 23 89 24 90 31 91 25 92 29 93 30 94 26 95
REMARK SMILES IDX 28 96 27 97
REMARK H PARENT 88 25 56 36 20 86
REMARK Flexibility Score: inf
ROOT
ATOM      1  C   UNL A   1      37.169  22.052  24.407  1.00  0.00     0.202 C 
ENDROOT
BRANCH   1   2
ATOM      2  O   UNL A   1      38.078  21.308  25.240  1.00  0.00    -0.374 OA
BRANCH   2   3
ATOM      3  C   UNL A   1      38.094  19.897  24.989  1.00  0.00     0.202 C 
BRANCH   3   4
ATOM      4  C   UNL A   1      39.351  19.184  25.494  1.00  0.00     0.261 C 
BRANCH   4   5
ATOM      5  O   UNL A   1      39.778  19.702  26.762  1.00  0.00    -0.460 OA
BRANCH   5   6
ATOM      6  C   UNL A   1      40.948  20.284  27.098  1.00  0.00     0.338 C 
ATOM      7  O   UNL A   1      41.908  19.540  27.303  1.00  0.00    -0.246 OA
BRANCH   6   8
ATOM      8  C   UNL A   1      41.175  21.763  27.244  1.00  0.00     0.060 A 
ATOM      9  C   UNL A   1      41.870  22.160  28.401  1.00  0.00     0.016 A 
ATOM     10  C   UNL A   1      40.704  22.774  26.399  1.00  0.00     0.016 A 
ATOM     11  C   UNL A   1      42.078  23.509  28.698  1.00  0.00     0.010 A 
ATOM     12  C   UNL A   1      40.919  24.123  26.677  1.00  0.00     0.010 A 
ATOM     13  C   UNL A   1      41.610  24.496  27.825  1.00  0.00    -0.014 A 
BRANCH  13  14
ATOM     14  C   UNL A   1      42.004  25.905  27.996  1.00  0.00     0.031 A 
ATOM     15  C   UNL A   1      41.094  26.902  28.636  1.00  0.00     0.074 A 
ATOM     16  C   UNL A   1      43.185  26.264  27.462  1.00  0.00     0.049 A 
ATOM     17  N   UNL A   1      41.335  28.151  28.930  1.00  0.00    -0.248 NA
ATOM     18  C   UNL A   1      39.732  26.455  28.970  1.00  0.00     0.031 C 
ATOM     19  C   UNL A   1      44.063  25.357  26.718  1.00  0.00     0.029 A 
ATOM     20  N   UNL A   1      43.847  27.460  27.444  1.00  0.00    -0.354 N 
ATOM     21  C   UNL A   1      40.169  28.639  29.507  1.00  0.00     0.074 A 
ATOM     22  C   UNL A   1      39.197  27.567  29.461  1.00  0.00     0.031 C 
ATOM     23  C   UNL A   1      45.161  26.021  26.342  1.00  0.00     0.029 A 
ATOM     24  C   UNL A   1      45.059  27.403  26.801  1.00  0.00     0.049 A 
ATOM     25  H   UNL A   1      43.490  28.282  27.853  1.00  0.00     0.167 HD
ATOM     26  C   UNL A   1      39.960  29.865  30.043  1.00  0.00     0.034 A 
ATOM     27  C   UNL A   1      45.996  28.353  26.620  1.00  0.00     0.034 A 
ATOM     28  C   UNL A   1      40.967  30.899  30.039  1.00  0.00     0.049 A 
ATOM     29  C   UNL A   1      45.763  29.690  27.267  1.00  0.00     0.074 A 
ATOM     30  C   UNL A   1      40.910  32.153  30.618  1.00  0.00     0.029 A 
ATOM     31  N   UNL A   1      42.208  30.805  29.419  1.00  0.00    -0.354 N 
ATOM     32  N   UNL A   1      44.718  30.097  27.951  1.00  0.00    -0.248 NA
ATOM     33  C   UNL A   1      46.833  30.686  27.153  1.00  0.00     0.031 C 
ATOM     34  C   UNL A   1      42.076  32.842  30.280  1.00  0.00     0.029 A 
ATOM     35  C   UNL A   1      42.909  31.990  29.568  1.00  0.00     0.049 A 
ATOM     36  H   UNL A   1      42.541  30.010  28.941  1.00  0.00     0.167 HD
ATOM     37  C   UNL A   1      45.007  31.393  28.363  1.00  0.00     0.074 A 
ATOM     38  C   UNL A   1      46.344  31.685  27.879  1.00  0.00     0.031 C 
ATOM     39  C   UNL A   1      44.239  32.260  29.068  1.00  0.00     0.034 A 
BRANCH  26  40
ATOM     40  C   UNL A   1      38.636  30.165  30.711  1.00  0.00     0.023 A 
ATOM     41  C   UNL A   1      37.641  30.891  30.027  1.00  0.00     0.031 A 
ATOM     42  C   UNL A   1      38.422  29.877  32.072  1.00  0.00     0.131 A 
ATOM     43  C   UNL A   1      36.505  31.340  30.714  1.00  0.00     0.055 A 
ATOM     44  C   UNL A   1      37.265  30.285  32.740  1.00  0.00     0.041 A 
ATOM     45  F   UNL A   1      39.339  29.197  32.779  1.00  0.00    -0.206 F 
ATOM     46  C   UNL A   1      36.308  31.034  32.064  1.00  0.00     0.022 A 
BRANCH  43  47
ATOM     47  S   UNL A   1      35.275  32.405  29.910  1.00  0.00     0.124 S 
ATOM     48  O   UNL A   1      34.802  31.549  28.824  1.00  0.00    -0.237 OA
ATOM     49  O   UNL A   1      34.317  32.631  30.987  1.00  0.00    -0.237 OA
ATOM     50  O   UNL A   1      36.043  33.572  29.490  1.00  0.00    -0.744 OA
ENDBRANCH  43  47
ENDBRANCH  26  40
BRANCH  27  51
ATOM     51  C   UNL A   1      47.253  27.985  25.909  1.00  0.00     0.023 A 
ATOM     52  C   UNL A   1      47.391  28.219  24.527  1.00  0.00     0.031 A 
ATOM     53  C   UNL A   1      48.241  27.221  26.551  1.00  0.00     0.131 A 
ATOM     54  C   UNL A   1      48.438  27.613  23.819  1.00  0.00     0.055 A 
ATOM     55  C   UNL A   1      49.326  26.686  25.854  1.00  0.00     0.041 A 
ATOM     56  F   UNL A   1      48.139  26.947  27.861  1.00  0.00    -0.206 F 
ATOM     57  C   UNL A   1      49.415  26.861  24.477  1.00  0.00     0.022 A 
BRANCH  54  58
ATOM     58  S   UNL A   1      48.458  27.624  22.003  1.00  0.00     0.124 S 
ATOM     59  O   UNL A   1      48.674  26.215  21.693  1.00  0.00    -0.237 OA
ATOM     60  O   UNL A   1      47.128  28.143  21.692  1.00  0.00    -0.237 OA
ATOM     61  O   UNL A   1      49.562  28.522  21.677  1.00  0.00    -0.744 OA
ENDBRANCH  54  58
ENDBRANCH  27  51
BRANCH  39  62
ATOM     62  C   UNL A   1      44.799  33.633  29.351  1.00  0.00     0.023 A 
ATOM     63  C   UNL A   1      45.420  33.897  30.586  1.00  0.00     0.031 A 
ATOM     64  C   UNL A   1      44.576  34.707  28.474  1.00  0.00     0.131 A 
ATOM     65  C   UNL A   1      45.750  35.213  30.931  1.00  0.00     0.055 A 
ATOM     66  C   UNL A   1      44.961  36.008  28.797  1.00  0.00     0.041 A 
ATOM     67  F   UNL A   1      43.976  34.507  27.289  1.00  0.00    -0.206 F 
ATOM     68  C   UNL A   1      45.535  36.267  30.039  1.00  0.00     0.022 A 
BRANCH  65  69
ATOM     69  S   UNL A   1      46.371  35.617  32.587  1.00  0.00     0.124 S 
ATOM     70  O   UNL A   1      46.783  34.306  33.082  1.00  0.00    -0.237 OA
ATOM     71  O   UNL A   1      47.460  36.542  32.288  1.00  0.00    -0.237 OA
ATOM     72  O   UNL A   1      45.217  36.202  33.263  1.00  0.00    -0.744 OA
ENDBRANCH  65  69
ENDBRANCH  39  62
ENDBRANCH  13  14
ENDBRANCH   6   8
ENDBRANCH   5   6
ENDBRANCH   4   5
ENDBRANCH   3   4
ENDBRANCH   2   3
ENDBRANCH   1   2
BRANCH   1  73
ATOM     73  C   UNL A   1      35.716  21.659  24.674  1.00  0.00     0.261 C 
BRANCH  73  74
ATOM     74  O   UNL A   1      34.862  22.727  24.252  1.00  0.00    -0.462 OA
BRANCH  74  75
ATOM     75  C   UNL A   1      34.409  23.520  25.270  1.00  0.00     0.321 C 
ATOM     76  O   UNL A   1      34.910  23.577  26.387  1.00  0.00    -0.251 OA
BRANCH  75  77
ATOM     77  C   UNL A   1      33.332  24.456  24.778  1.00  0.00     0.184 C 
ATOM     78  S   UNL A   1      32.875  25.685  26.071  1.00  0.00    -0.117 SA
ATOM     79  C   UNL A   1      33.784  25.226  23.533  1.00  0.00     0.172 C 
ATOM     80  C   UNL A   1      33.301  27.027  25.085  1.00  0.00     0.039 C 
ATOM     81  C   UNL A   1      33.732  26.699  23.866  1.00  0.00     0.003 C 
BRANCH  79  82
ATOM     82  S   UNL A   1      32.670  24.890  22.125  1.00  0.00     0.219 S 
ATOM     83  O   UNL A   1      31.312  25.258  22.457  1.00  0.00    -0.212 OA
ATOM     84  O   UNL A   1      33.280  25.400  20.911  1.00  0.00    -0.212 OA
BRANCH  82  85
ATOM     85  N   UNL A   1      32.722  23.235  21.937  1.00  0.00    -0.214 NA
ATOM     86  H   UNL A   1      33.660  22.951  22.223  1.00  0.00     0.141 HD
BRANCH  85  87
ATOM     87  C   UNL A   1      31.800  22.311  22.614  1.00  0.00     0.103 C 
BRANCH  87  88
ATOM     88  C   UNL A   1      32.134  20.829  22.387  1.00  0.00     0.050 C 
BRANCH  88  89
ATOM     89  C   UNL A   1      32.380  20.026  23.624  1.00  0.00    -0.038 C 
ATOM     90  C   UNL A   1      32.795  18.763  23.706  1.00  0.00     0.001 A 
ATOM     91  C   UNL A   1      32.133  20.587  24.993  1.00  0.00     0.174 C 
ATOM     92  C   UNL A   1      33.144  17.748  22.769  1.00  0.00     0.010 A 
ATOM     93  C   UNL A   1      32.890  18.543  25.157  1.00  0.00     0.065 A 
ATOM     94  N   UNL A   1      32.550  19.520  25.938  1.00  0.00    -0.280 NA
ATOM     95  C   UNL A   1      33.601  16.572  23.227  1.00  0.00     0.001 A 
ATOM     96  C   UNL A   1      33.397  17.221  25.587  1.00  0.00     0.028 A 
ATOM     97  C   UNL A   1      33.733  16.316  24.652  1.00  0.00     0.002 A 
ENDBRANCH  88  89
ENDBRANCH  87  88
ENDBRANCH  85  87
ENDBRANCH  82  85
ENDBRANCH  79  82
ENDBRANCH  75  77
ENDBRANCH  74  75
ENDBRANCH  73  74
ENDBRANCH   1  73
TORSDOF 22
ENDMDL
MODEL 2
REMARK VINA RESULT:     -10.6      1.498      3.554
REMARK SMILES O=C(OCCOCCOC(=O)[C@H]1SC=C[C@@H]1S(=O)(=O)NCCC1=c2ccccc2=NC1)c1ccc(-c2c3nc(c(-c4cc(S(=O)(=O)[O-])ccc4F)c4ccc([nH]4)c(-c4cc(S(=O)(=O)[O-])ccc4F)c4nc(c(-c5cc(S(=O)(=O)[O-])ccc5F)c5ccc2[nH]5)C=C4)C=C3)cc1
REMARK SMILES IDX 7 1 6 2 5 3 4 4 3 5 2 6 1 7 32 8 33 9 94 10 34 11 93 12
REMARK SMILES IDX 35 13 36 14 37 15 87 16 38 17 92 18 86 19 88 20 39 21 91 22
REMARK SMILES IDX 85 23 84 24 40 26 72 27 52 28 71 29 53 30 56 31 70 32 89 33
REMARK SMILES IDX 54 34 55 35 69 37 90 38 57 39 41 40 42 41 50 42 43 43 49 44
REMARK SMILES IDX 51 45 48 46 44 47 45 48 46 49 47 50 73 51 74 52 82 53 75 54
REMARK SMILES IDX 81 55 83 56 80 57 76 58 77 59 78 60 79 61 58 62 59 63 67 64
REMARK SMILES IDX 60 65 66 66 68 67 65 68 61 69 62 70 63 71 64 72 8 73 9 74
REMARK SMILES IDX 10 75 11 76 12 77 13 78 16 79 14 80 15 81 17 82 18 83 19 84
REMARK SMILES IDX 20 85 21 87 22 88 23 89 24 90 31 91 25 92 29 93 30 94 26 95
REMARK SMILES IDX 28 96 27 97
REMARK H PARENT 88 25 56 36 20 86
REMARK Flexibility Score: inf
ROOT
ATOM      1  C   UNL A   1      37.289  22.224  25.368  1.00  0.00     0.202 C 
ENDROOT
BRANCH   1   2
ATOM      2  O   UNL A   1      38.489  21.449  25.548  1.00  0.00    -0.374 OA
BRANCH   2   3
ATOM      3  C   UNL A   1      38.324  20.041  25.339  1.00  0.00     0.202 C 
BRANCH   3   4
ATOM      4  C   UNL A   1      39.552  19.204  25.709  1.00  0.00     0.261 C 
BRANCH   4   5
ATOM      5  O   UNL A   1      40.105  19.610  26.968  1.00  0.00    -0.460 OA
BRANCH   5   6
ATOM      6  C   UNL A   1      41.280  20.222  27.229  1.00  0.00     0.338 C 
ATOM      7  O   UNL A   1      42.261  19.500  27.418  1.00  0.00    -0.246 OA
BRANCH   6   8
ATOM      8  C   UNL A   1      41.488  21.708  27.309  1.00  0.00     0.060 A 
ATOM      9  C   UNL A   1      42.032  22.181  28.518  1.00  0.00     0.016 A 
ATOM     10  C   UNL A   1      41.131  22.661  26.349  1.00  0.00     0.016 A 
ATOM     11  C   UNL A   1      42.202  23.548  28.752  1.00  0.00     0.010 A 
ATOM     12  C   UNL A   1      41.310  24.026  26.566  1.00  0.00     0.010 A 
ATOM     13  C   UNL A   1      41.851  24.475  27.767  1.00  0.00    -0.014 A 
BRANCH  13  14
ATOM     14  C   UNL A   1      42.222  25.894  27.897  1.00  0.00     0.031 A 
ATOM     15  C   UNL A   1      41.310  26.888  28.541  1.00  0.00     0.074 A 
ATOM     16  C   UNL A   1      43.380  26.264  27.323  1.00  0.00     0.049 A 
ATOM     17  N   UNL A   1      41.535  28.147  28.802  1.00  0.00    -0.248 NA
ATOM     18  C   UNL A   1      39.967  26.423  28.922  1.00  0.00     0.031 C 
ATOM     19  C   UNL A   1      44.255  25.358  26.574  1.00  0.00     0.029 A 
ATOM     20  N   UNL A   1      44.017  27.472  27.262  1.00  0.00    -0.354 N 
ATOM     21  C   UNL A   1      40.375  28.625  29.401  1.00  0.00     0.074 A 
ATOM     22  C   UNL A   1      39.424  27.534  29.404  1.00  0.00     0.031 C 
ATOM     23  C   UNL A   1      45.329  26.035  26.154  1.00  0.00     0.029 A 
ATOM     24  C   UNL A   1      45.213  27.423  26.586  1.00  0.00     0.049 A 
ATOM     25  H   UNL A   1      43.656  28.295  27.663  1.00  0.00     0.167 HD
ATOM     26  C   UNL A   1      40.158  29.858  29.917  1.00  0.00     0.034 A 
ATOM     27  C   UNL A   1      46.126  28.388  26.359  1.00  0.00     0.034 A 
ATOM     28  C   UNL A   1      41.144  30.911  29.863  1.00  0.00     0.049 A 
ATOM     29  C   UNL A   1      45.885  29.734  26.984  1.00  0.00     0.074 A 
ATOM     30  C   UNL A   1      41.078  32.176  30.417  1.00  0.00     0.029 A 
ATOM     31  N   UNL A   1      42.369  30.827  29.210  1.00  0.00    -0.354 N 
ATOM     32  N   UNL A   1      44.851  30.136  27.689  1.00  0.00    -0.248 NA
ATOM     33  C   UNL A   1      46.931  30.747  26.820  1.00  0.00     0.031 C 
ATOM     34  C   UNL A   1      42.221  32.879  30.033  1.00  0.00     0.029 A 
ATOM     35  C   UNL A   1      43.050  32.028  29.316  1.00  0.00     0.049 A 
ATOM     36  H   UNL A   1      42.704  30.028  28.741  1.00  0.00     0.167 HD
ATOM     37  C   UNL A   1      45.126  31.445  28.065  1.00  0.00     0.074 A 
ATOM     38  C   UNL A   1      46.443  31.751  27.537  1.00  0.00     0.031 C 
ATOM     39  C   UNL A   1      44.361  32.313  28.773  1.00  0.00     0.034 A 
BRANCH  26  40
ATOM     40  C   UNL A   1      38.847  30.148  30.615  1.00  0.00     0.023 A 
ATOM     41  C   UNL A   1      37.926  31.055  30.055  1.00  0.00     0.031 A 
ATOM     42  C   UNL A   1      38.582  29.654  31.907  1.00  0.00     0.131 A 
ATOM     43  C   UNL A   1      36.814  31.473  30.799  1.00  0.00     0.055 A 
ATOM     44  C   UNL A   1      37.447  30.037  32.624  1.00  0.00     0.041 A 
ATOM     45  F   UNL A   1      39.428  28.795  32.496  1.00  0.00    -0.206 F 
ATOM     46  C   UNL A   1      36.565  30.962  32.076  1.00  0.00     0.022 A 
BRANCH  43  47
ATOM     47  S   UNL A   1      35.688  32.752  30.174  1.00  0.00     0.124 S 
ATOM     48  O   UNL A   1      34.410  32.332  30.745  1.00  0.00    -0.237 OA
ATOM     49  O   UNL A   1      36.258  33.966  30.748  1.00  0.00    -0.237 OA
ATOM     50  O   UNL A   1      35.788  32.629  28.724  1.00  0.00    -0.744 OA
ENDBRANCH  43  47
ENDBRANCH  26  40
BRANCH  27  51
ATOM     51  C   UNL A   1      47.370  28.028  25.622  1.00  0.00     0.023 A 
ATOM     52  C   UNL A   1      47.475  28.260  24.236  1.00  0.00     0.031 A 
ATOM     53  C   UNL A   1      48.377  27.274  26.243  1.00  0.00     0.131 A 
ATOM     54  C   UNL A   1      48.510  27.661  23.507  1.00  0.00     0.055 A 
ATOM     55  C   UNL A   1      49.451  26.746  25.523  1.00  0.00     0.041 A 
ATOM     56  F   UNL A   1      48.307  27.001  27.555  1.00  0.00    -0.206 F 
ATOM     57  C   UNL A   1      49.508  26.918  24.144  1.00  0.00     0.022 A 
BRANCH  54  58
ATOM     58  S   UNL A   1      48.490  27.667  21.690  1.00  0.00     0.124 S 
ATOM     59  O   UNL A   1      47.161  28.197  21.402  1.00  0.00    -0.237 OA
ATOM     60  O   UNL A   1      49.606  28.560  21.383  1.00  0.00    -0.237 OA
ATOM     61  O   UNL A   1      48.706  26.268  21.339  1.00  0.00    -0.744 OA
ENDBRANCH  54  58
ENDBRANCH  27  51
BRANCH  39  62
ATOM     62  C   UNL A   1      44.901  33.701  29.011  1.00  0.00     0.023 A 
ATOM     63  C   UNL A   1      45.590  33.991  30.204  1.00  0.00     0.031 A 
ATOM     64  C   UNL A   1      44.598  34.762  28.142  1.00  0.00     0.131 A 
ATOM     65  C   UNL A   1      45.906  35.318  30.519  1.00  0.00     0.055 A 
ATOM     66  C   UNL A   1      44.968  36.074  28.432  1.00  0.00     0.041 A 
ATOM     67  F   UNL A   1      43.931  34.536  26.998  1.00  0.00    -0.206 F 
ATOM     68  C   UNL A   1      45.610  36.359  29.634  1.00  0.00     0.022 A 
BRANCH  65  69
ATOM     69  S   UNL A   1      46.617  35.752  32.130  1.00  0.00     0.124 S 
ATOM     70  O   UNL A   1      45.451  35.668  33.006  1.00  0.00    -0.237 OA
ATOM     71  O   UNL A   1      47.615  34.704  32.317  1.00  0.00    -0.237 OA
ATOM     72  O   UNL A   1      47.148  37.097  31.931  1.00  0.00    -0.744 OA
ENDBRANCH  65  69
ENDBRANCH  39  62
ENDBRANCH  13  14
ENDBRANCH   6   8
ENDBRANCH   5   6
ENDBRANCH   4   5
ENDBRANCH   3   4
ENDBRANCH   2   3
ENDBRANCH   1   2
BRANCH   1  73
ATOM     73  C   UNL A   1      36.036  21.379  25.602  1.00  0.00     0.261 C 
BRANCH  73  74
ATOM     74  O   UNL A   1      35.201  21.455  24.442  1.00  0.00    -0.462 OA
BRANCH  74  75
ATOM     75  C   UNL A   1      33.864  21.331  24.704  1.00  0.00     0.321 C 
ATOM     76  O   UNL A   1      33.322  20.307  25.101  1.00  0.00    -0.251 OA
BRANCH  75  77
ATOM     77  C   UNL A   1      33.179  22.674  24.624  1.00  0.00     0.184 C 
ATOM     78  S   UNL A   1      32.943  23.402  26.298  1.00  0.00    -0.117 SA
ATOM     79  C   UNL A   1      33.988  23.668  23.785  1.00  0.00     0.172 C 
ATOM     80  C   UNL A   1      33.863  24.806  25.926  1.00  0.00     0.039 C 
ATOM     81  C   UNL A   1      34.328  24.842  24.675  1.00  0.00     0.003 C 
BRANCH  79  82
ATOM     82  S   UNL A   1      33.011  24.260  22.361  1.00  0.00     0.219 S 
ATOM     83  O   UNL A   1      33.128  25.695  22.230  1.00  0.00    -0.212 OA
ATOM     84  O   UNL A   1      33.279  23.406  21.219  1.00  0.00    -0.212 OA
BRANCH  82  85
ATOM     85  N   UNL A   1      31.432  23.909  22.764  1.00  0.00    -0.214 NA
ATOM     86  H   UNL A   1      31.477  23.385  23.639  1.00  0.00     0.141 HD
BRANCH  85  87
ATOM     87  C   UNL A   1      30.397  24.934  22.964  1.00  0.00     0.103 C 
BRANCH  87  88
ATOM     88  C   UNL A   1      30.402  25.552  24.370  1.00  0.00     0.050 C 
BRANCH  88  89
ATOM     89  C   UNL A   1      30.718  27.011  24.432  1.00  0.00    -0.038 C 
ATOM     90  C   UNL A   1      31.152  27.707  25.482  1.00  0.00     0.001 A 
ATOM     91  C   UNL A   1      30.532  27.912  23.247  1.00  0.00     0.174 C 
ATOM     92  C   UNL A   1      31.467  27.403  26.839  1.00  0.00     0.010 A 
ATOM     93  C   UNL A   1      31.321  29.060  24.932  1.00  0.00     0.065 A 
ATOM     94  N   UNL A   1      31.009  29.248  23.688  1.00  0.00    -0.280 NA
ATOM     95  C   UNL A   1      31.960  28.375  27.623  1.00  0.00     0.001 A 
ATOM     96  C   UNL A   1      31.864  30.080  25.857  1.00  0.00     0.028 A 
ATOM     97  C   UNL A   1      32.165  29.723  27.117  1.00  0.00     0.002 A 
ENDBRANCH  88  89
ENDBRANCH  87  88
ENDBRANCH  85  87
ENDBRANCH  82  85
ENDBRANCH  79  82
ENDBRANCH  75  77
ENDBRANCH  74  75
ENDBRANCH  73  74
ENDBRANCH   1  73
TORSDOF 22
ENDMDL
MODEL 3
REMARK VINA RESULT:     -10.5      2.604      4.481
REMARK SMILES O=C(OCCOCCOC(=O)[C@H]1SC=C[C@@H]1S(=O)(=O)NCCC1=c2ccccc2=NC1)c1ccc(-c2c3nc(c(-c4cc(S(=O)(=O)[O-])ccc4F)c4ccc([nH]4)c(-c4cc(S(=O)(=O)[O-])ccc4F)c4nc(c(-c5cc(S(=O)(=O)[O-])ccc5F)c5ccc2[nH]5)C=C4)C=C3)cc1
REMARK SMILES IDX 7 1 6 2 5 3 4 4 3 5 2 6 1 7 32 8 33 9 94 10 34 11 93 12
REMARK SMILES IDX 35 13 36 14 37 15 87 16 38 17 92 18 86 19 88 20 39 21 91 22
REMARK SMILES IDX 85 23 84 24 40 26 72 27 52 28 71 29 53 30 56 31 70 32 89 33
REMARK SMILES IDX 54 34 55 35 69 37 90 38 57 39 41 40 42 41 50 42 43 43 49 44
REMARK SMILES IDX 51 45 48 46 44 47 45 48 46 49 47 50 73 51 74 52 82 53 75 54
REMARK SMILES IDX 81 55 83 56 80 57 76 58 77 59 78 60 79 61 58 62 59 63 67 64
REMARK SMILES IDX 60 65 66 66 68 67 65 68 61 69 62 70 63 71 64 72 8 73 9 74
REMARK SMILES IDX 10 75 11 76 12 77 13 78 16 79 14 80 15 81 17 82 18 83 19 84
REMARK SMILES IDX 20 85 21 87 22 88 23 89 24 90 31 91 25 92 29 93 30 94 26 95
REMARK SMILES IDX 28 96 27 97
REMARK H PARENT 88 25 56 36 20 86
REMARK Flexibility Score: inf
ROOT
ATOM      1  C   UNL A   1      38.192  22.612  25.761  1.00  0.00     0.202 C 
ENDROOT
BRANCH   1   2
ATOM      2  O   UNL A   1      39.203  21.643  26.093  1.00  0.00    -0.374 OA
BRANCH   2   3
ATOM      3  C   UNL A   1      39.131  20.426  25.339  1.00  0.00     0.202 C 
BRANCH   3   4
ATOM      4  C   UNL A   1      39.720  19.208  26.056  1.00  0.00     0.261 C 
BRANCH   4   5
ATOM      5  O   UNL A   1      41.081  18.976  25.669  1.00  0.00    -0.460 OA
BRANCH   5   6
ATOM      6  C   UNL A   1      42.210  19.571  26.111  1.00  0.00     0.338 C 
ATOM      7  O   UNL A   1      43.160  18.837  26.388  1.00  0.00    -0.246 OA
BRANCH   6   8
ATOM      8  C   UNL A   1      42.400  21.050  26.293  1.00  0.00     0.060 A 
ATOM      9  C   UNL A   1      42.353  21.510  27.621  1.00  0.00     0.016 A 
ATOM     10  C   UNL A   1      42.541  22.011  25.285  1.00  0.00     0.016 A 
ATOM     11  C   UNL A   1      42.437  22.871  27.923  1.00  0.00     0.010 A 
ATOM     12  C   UNL A   1      42.640  23.370  25.575  1.00  0.00     0.010 A 
ATOM     13  C   UNL A   1      42.593  23.806  26.895  1.00  0.00    -0.014 A 
BRANCH  13  14
ATOM     14  C   UNL A   1      42.905  25.214  27.195  1.00  0.00     0.031 A 
ATOM     15  C   UNL A   1      41.888  26.133  27.791  1.00  0.00     0.074 A 
ATOM     16  C   UNL A   1      44.119  25.651  26.817  1.00  0.00     0.049 A 
ATOM     17  N   UNL A   1      42.042  27.367  28.186  1.00  0.00    -0.248 NA
ATOM     18  C   UNL A   1      40.519  25.615  27.945  1.00  0.00     0.031 C 
ATOM     19  C   UNL A   1      45.111  24.828  26.119  1.00  0.00     0.029 A 
ATOM     20  N   UNL A   1      44.726  26.869  26.946  1.00  0.00    -0.354 N 
ATOM     21  C   UNL A   1      40.800  27.773  28.661  1.00  0.00     0.074 A 
ATOM     22  C   UNL A   1      39.887  26.672  28.442  1.00  0.00     0.031 C 
ATOM     23  C   UNL A   1      46.213  25.555  25.909  1.00  0.00     0.029 A 
ATOM     24  C   UNL A   1      46.002  26.899  26.438  1.00  0.00     0.049 A 
ATOM     25  H   UNL A   1      44.292  27.648  27.363  1.00  0.00     0.167 HD
ATOM     26  C   UNL A   1      40.482  28.953  29.244  1.00  0.00     0.034 A 
ATOM     27  C   UNL A   1      46.911  27.893  26.420  1.00  0.00     0.034 A 
ATOM     28  C   UNL A   1      41.437  30.022  29.415  1.00  0.00     0.049 A 
ATOM     29  C   UNL A   1      46.551  29.175  27.118  1.00  0.00     0.074 A 
ATOM     30  C   UNL A   1      41.263  31.232  30.060  1.00  0.00     0.029 A 
ATOM     31  N   UNL A   1      42.741  30.014  28.930  1.00  0.00    -0.354 N 
ATOM     32  N   UNL A   1      45.422  29.497  27.707  1.00  0.00    -0.248 NA
ATOM     33  C   UNL A   1      47.582  30.215  27.184  1.00  0.00     0.031 C 
ATOM     34  C   UNL A   1      42.428  31.983  29.896  1.00  0.00     0.029 A 
ATOM     35  C   UNL A   1      43.368  31.212  29.229  1.00  0.00     0.049 A 
ATOM     36  H   UNL A   1      43.157  29.265  28.444  1.00  0.00     0.167 HD
ATOM     37  C   UNL A   1      45.608  30.772  28.227  1.00  0.00     0.074 A 
ATOM     38  C   UNL A   1      46.975  31.145  27.912  1.00  0.00     0.031 C 
ATOM     39  C   UNL A   1      44.732  31.563  28.896  1.00  0.00     0.034 A 
BRANCH  26  40
ATOM     40  C   UNL A   1      39.082  29.160  29.781  1.00  0.00     0.023 A 
ATOM     41  C   UNL A   1      38.167  29.977  29.088  1.00  0.00     0.031 A 
ATOM     42  C   UNL A   1      38.707  28.683  31.051  1.00  0.00     0.131 A 
ATOM     43  C   UNL A   1      36.949  30.328  29.686  1.00  0.00     0.055 A 
ATOM     44  C   UNL A   1      37.472  28.997  31.622  1.00  0.00     0.041 A 
ATOM     45  F   UNL A   1      39.541  27.908  31.763  1.00  0.00    -0.206 F 
ATOM     46  C   UNL A   1      36.593  29.835  30.945  1.00  0.00     0.022 A 
BRANCH  43  47
ATOM     47  S   UNL A   1      35.811  31.498  28.893  1.00  0.00     0.124 S 
ATOM     48  O   UNL A   1      36.731  32.502  28.364  1.00  0.00    -0.237 OA
ATOM     49  O   UNL A   1      35.161  30.659  27.891  1.00  0.00    -0.237 OA
ATOM     50  O   UNL A   1      34.959  31.954  29.987  1.00  0.00    -0.744 OA
ENDBRANCH  43  47
ENDBRANCH  26  40
BRANCH  27  51
ATOM     51  C   UNL A   1      48.252  27.619  25.830  1.00  0.00     0.023 A 
ATOM     52  C   UNL A   1      48.488  27.828  24.457  1.00  0.00     0.031 A 
ATOM     53  C   UNL A   1      49.241  26.962  26.578  1.00  0.00     0.131 A 
ATOM     54  C   UNL A   1      49.640  27.299  23.861  1.00  0.00     0.055 A 
ATOM     55  C   UNL A   1      50.425  26.506  25.993  1.00  0.00     0.041 A 
ATOM     56  F   UNL A   1      49.050  26.713  27.883  1.00  0.00    -0.206 F 
ATOM     57  C   UNL A   1      50.618  26.653  24.623  1.00  0.00     0.022 A 
BRANCH  54  58
ATOM     58  S   UNL A   1      49.818  27.265  22.053  1.00  0.00     0.124 S 
ATOM     59  O   UNL A   1      49.537  28.651  21.694  1.00  0.00    -0.237 OA
ATOM     60  O   UNL A   1      51.207  26.840  21.898  1.00  0.00    -0.237 OA
ATOM     61  O   UNL A   1      48.823  26.285  21.628  1.00  0.00    -0.744 OA
ENDBRANCH  54  58
ENDBRANCH  27  51
BRANCH  39  62
ATOM     62  C   UNL A   1      45.198  32.934  29.323  1.00  0.00     0.023 A 
ATOM     63  C   UNL A   1      45.202  33.993  28.396  1.00  0.00     0.031 A 
ATOM     64  C   UNL A   1      45.781  33.147  30.583  1.00  0.00     0.131 A 
ATOM     65  C   UNL A   1      45.825  35.202  28.727  1.00  0.00     0.055 A 
ATOM     66  C   UNL A   1      46.348  34.373  30.928  1.00  0.00     0.041 A 
ATOM     67  F   UNL A   1      45.813  32.162  31.495  1.00  0.00    -0.206 F 
ATOM     68  C   UNL A   1      46.387  35.401  29.992  1.00  0.00     0.022 A 
BRANCH  65  69
ATOM     69  S   UNL A   1      46.022  36.519  27.495  1.00  0.00     0.124 S 
ATOM     70  O   UNL A   1      47.393  36.958  27.740  1.00  0.00    -0.237 OA
ATOM     71  O   UNL A   1      45.810  35.801  26.242  1.00  0.00    -0.237 OA
ATOM     72  O   UNL A   1      44.988  37.488  27.846  1.00  0.00    -0.744 OA
ENDBRANCH  65  69
ENDBRANCH  39  62
ENDBRANCH  13  14
ENDBRANCH   6   8
ENDBRANCH   5   6
ENDBRANCH   4   5
ENDBRANCH   3   4
ENDBRANCH   2   3
ENDBRANCH   1   2
BRANCH   1  73
ATOM     73  C   UNL A   1      36.805  21.973  25.693  1.00  0.00     0.261 C 
BRANCH  73  74
ATOM     74  O   UNL A   1      35.825  22.950  26.060  1.00  0.00    -0.462 OA
BRANCH  74  75
ATOM     75  C   UNL A   1      34.615  22.424  26.419  1.00  0.00     0.321 C 
ATOM     76  O   UNL A   1      34.432  21.683  27.378  1.00  0.00    -0.251 OA
BRANCH  75  77
ATOM     77  C   UNL A   1      33.505  23.030  25.595  1.00  0.00     0.184 C 
ATOM     78  S   UNL A   1      34.049  23.332  23.863  1.00  0.00    -0.117 SA
ATOM     79  C   UNL A   1      32.275  22.119  25.553  1.00  0.00     0.172 C 
ATOM     80  C   UNL A   1      32.831  22.317  23.199  1.00  0.00     0.039 C 
ATOM     81  C   UNL A   1      32.016  21.773  24.104  1.00  0.00     0.003 C 
BRANCH  79  82
ATOM     82  S   UNL A   1      30.812  22.972  26.236  1.00  0.00     0.219 S 
ATOM     83  O   UNL A   1      29.756  22.023  26.508  1.00  0.00    -0.212 OA
ATOM     84  O   UNL A   1      31.245  23.889  27.273  1.00  0.00    -0.212 OA
BRANCH  82  85
ATOM     85  N   UNL A   1      30.299  23.971  25.004  1.00  0.00    -0.214 NA
ATOM     86  H   UNL A   1      29.310  23.762  24.869  1.00  0.00     0.141 HD
BRANCH  85  87
ATOM     87  C   UNL A   1      30.396  25.437  25.053  1.00  0.00     0.103 C 
BRANCH  87  88
ATOM     88  C   UNL A   1      29.326  26.155  24.218  1.00  0.00     0.050 C 
BRANCH  88  89
ATOM     89  C   UNL A   1      29.795  27.355  23.461  1.00  0.00    -0.038 C 
ATOM     90  C   UNL A   1      29.069  28.390  23.042  1.00  0.00     0.001 A 
ATOM     91  C   UNL A   1      31.225  27.511  23.035  1.00  0.00     0.174 C 
ATOM     92  C   UNL A   1      27.695  28.762  23.121  1.00  0.00     0.010 A 
ATOM     93  C   UNL A   1      30.071  29.259  22.406  1.00  0.00     0.065 A 
ATOM     94  N   UNL A   1      31.298  28.841  22.377  1.00  0.00    -0.280 NA
ATOM     95  C   UNL A   1      27.317  29.953  22.629  1.00  0.00     0.001 A 
ATOM     96  C   UNL A   1      29.579  30.552  21.882  1.00  0.00     0.028 A 
ATOM     97  C   UNL A   1      28.276  30.854  22.011  1.00  0.00     0.002 A 
ENDBRANCH  88  89
ENDBRANCH  87  88
ENDBRANCH  85  87
ENDBRANCH  82  85
ENDBRANCH  79  82
ENDBRANCH  75  77
ENDBRANCH  74  75
ENDBRANCH  73  74
ENDBRANCH   1  73
TORSDOF 22
ENDMDL
