MODEL 1
REMARK VINA RESULT:     -10.4      0.000      0.000
REMARK SMILES O=C(OCCOCCOC(=O)[C@@H]1CC[C@H](CNC(=O)c2cccn2C2CC2)O1)c1ccc(-c2c3nc(c(-c4cc(S(=O)(=O)[O-])ccc4F)c4ccc([nH]4)c(-c4cc(S(=O)(=O)[O-])ccc4F)c4nc(c(-c5cc(S(=O)(=O)[O-])ccc5F)c5ccc2[nH]5)C=C4)C=C3)cc1
REMARK SMILES IDX 7 1 6 2 5 3 4 4 3 5 2 6 1 7 29 8 30 9 91 10 31 11 90 12
REMARK SMILES IDX 32 13 33 14 34 15 84 16 35 17 89 18 83 19 85 20 36 21 88 22
REMARK SMILES IDX 82 23 81 24 37 26 69 27 49 28 68 29 50 30 53 31 67 32 86 33
REMARK SMILES IDX 51 34 52 35 66 37 87 38 54 39 38 40 39 41 47 42 40 43 46 44
REMARK SMILES IDX 48 45 45 46 41 47 42 48 43 49 44 50 70 51 71 52 79 53 72 54
REMARK SMILES IDX 78 55 80 56 77 57 73 58 74 59 75 60 76 61 55 62 56 63 64 64
REMARK SMILES IDX 57 65 63 66 65 67 62 68 58 69 59 70 60 71 61 72 8 73 9 74
REMARK SMILES IDX 10 75 11 76 12 77 13 78 28 79 14 80 15 81 16 82 17 83 18 84
REMARK SMILES IDX 19 86 20 87 21 88 24 89 22 90 23 91 25 92 26 93 27 94
REMARK H PARENT 85 25 53 36 17 85
REMARK Flexibility Score: inf
ROOT
ATOM      1  C   UNL A   1      36.050  22.282  25.266  1.00  0.00     0.202 C 
ENDROOT
BRANCH   1   2
ATOM      2  O   UNL A   1      37.061  21.719  24.420  1.00  0.00    -0.374 OA
BRANCH   2   3
ATOM      3  C   UNL A   1      37.787  20.594  24.908  1.00  0.00     0.202 C 
BRANCH   3   4
ATOM      4  C   UNL A   1      38.992  20.885  25.814  1.00  0.00     0.261 C 
BRANCH   4   5
ATOM      5  O   UNL A   1      40.039  19.909  25.725  1.00  0.00    -0.460 OA
BRANCH   5   6
ATOM      6  C   UNL A   1      41.373  20.124  25.884  1.00  0.00     0.338 C 
ATOM      7  O   UNL A   1      42.181  19.331  25.426  1.00  0.00    -0.246 OA
BRANCH   6   8
ATOM      8  C   UNL A   1      41.857  21.370  26.524  1.00  0.00     0.060 A 
ATOM      9  C   UNL A   1      41.952  21.526  27.905  1.00  0.00     0.016 A 
ATOM     10  C   UNL A   1      42.242  22.422  25.682  1.00  0.00     0.016 A 
ATOM     11  C   UNL A   1      42.201  22.779  28.443  1.00  0.00     0.010 A 
ATOM     12  C   UNL A   1      42.607  23.655  26.223  1.00  0.00     0.010 A 
ATOM     13  C   UNL A   1      42.522  23.854  27.605  1.00  0.00    -0.014 A 
BRANCH  13  14
ATOM     14  C   UNL A   1      42.891  25.132  28.266  1.00  0.00     0.031 A 
ATOM     15  C   UNL A   1      44.361  25.165  28.690  1.00  0.00     0.074 A 
ATOM     16  C   UNL A   1      41.907  26.043  28.512  1.00  0.00     0.049 A 
ATOM     17  N   UNL A   1      44.911  25.607  29.781  1.00  0.00    -0.248 NA
ATOM     18  C   UNL A   1      45.331  24.427  27.839  1.00  0.00     0.031 C 
ATOM     19  C   UNL A   1      40.498  25.894  28.100  1.00  0.00     0.029 A 
ATOM     20  N   UNL A   1      41.885  27.262  29.154  1.00  0.00    -0.354 N 
ATOM     21  C   UNL A   1      46.300  25.377  29.660  1.00  0.00     0.074 A 
ATOM     22  C   UNL A   1      46.455  24.475  28.555  1.00  0.00     0.031 C 
ATOM     23  C   UNL A   1      39.764  26.949  28.510  1.00  0.00     0.029 A 
ATOM     24  C   UNL A   1      40.611  27.875  29.236  1.00  0.00     0.049 A 
ATOM     25  H   UNL A   1      42.696  27.677  29.530  1.00  0.00     0.167 HD
ATOM     26  C   UNL A   1      47.259  26.060  30.355  1.00  0.00     0.034 A 
ATOM     27  C   UNL A   1      40.242  29.029  29.870  1.00  0.00     0.034 A 
ATOM     28  C   UNL A   1      46.672  27.056  31.196  1.00  0.00     0.049 A 
ATOM     29  C   UNL A   1      41.470  29.578  30.474  1.00  0.00     0.074 A 
ATOM     30  C   UNL A   1      46.021  27.061  32.400  1.00  0.00     0.029 A 
ATOM     31  N   UNL A   1      46.602  28.329  30.675  1.00  0.00    -0.354 N 
ATOM     32  N   UNL A   1      42.440  30.133  29.817  1.00  0.00    -0.248 NA
ATOM     33  C   UNL A   1      41.668  29.444  31.923  1.00  0.00     0.031 C 
ATOM     34  C   UNL A   1      45.262  28.259  32.400  1.00  0.00     0.029 A 
ATOM     35  C   UNL A   1      45.468  28.917  31.181  1.00  0.00     0.049 A 
ATOM     36  H   UNL A   1      47.245  28.742  30.053  1.00  0.00     0.167 HD
ATOM     37  C   UNL A   1      43.475  30.148  30.720  1.00  0.00     0.074 A 
ATOM     38  C   UNL A   1      42.882  29.979  32.027  1.00  0.00     0.031 C 
ATOM     39  C   UNL A   1      44.729  29.821  30.315  1.00  0.00     0.034 A 
BRANCH  26  40
ATOM     40  C   UNL A   1      48.768  26.109  30.199  1.00  0.00     0.023 A 
ATOM     41  C   UNL A   1      49.526  25.277  31.065  1.00  0.00     0.031 A 
ATOM     42  C   UNL A   1      49.504  27.047  29.461  1.00  0.00     0.131 A 
ATOM     43  C   UNL A   1      50.912  25.433  31.220  1.00  0.00     0.055 A 
ATOM     44  C   UNL A   1      50.900  27.160  29.570  1.00  0.00     0.041 A 
ATOM     45  F   UNL A   1      48.915  27.950  28.668  1.00  0.00    -0.206 F 
ATOM     46  C   UNL A   1      51.608  26.371  30.469  1.00  0.00     0.022 A 
BRANCH  43  47
ATOM     47  S   UNL A   1      51.755  24.495  32.529  1.00  0.00     0.124 S 
ATOM     48  O   UNL A   1      53.163  24.685  32.197  1.00  0.00    -0.237 OA
ATOM     49  O   UNL A   1      51.286  25.169  33.734  1.00  0.00    -0.237 OA
ATOM     50  O   UNL A   1      51.256  23.134  32.344  1.00  0.00    -0.744 OA
ENDBRANCH  43  47
ENDBRANCH  26  40
BRANCH  27  51
ATOM     51  C   UNL A   1      38.958  29.786  30.133  1.00  0.00     0.023 A 
ATOM     52  C   UNL A   1      38.706  31.116  29.761  1.00  0.00     0.031 A 
ATOM     53  C   UNL A   1      37.870  29.134  30.790  1.00  0.00     0.131 A 
ATOM     54  C   UNL A   1      37.439  31.708  29.991  1.00  0.00     0.055 A 
ATOM     55  C   UNL A   1      36.609  29.705  30.975  1.00  0.00     0.041 A 
ATOM     56  F   UNL A   1      37.976  27.890  31.278  1.00  0.00    -0.206 F 
ATOM     57  C   UNL A   1      36.383  31.000  30.565  1.00  0.00     0.022 A 
BRANCH  54  58
ATOM     58  S   UNL A   1      37.106  33.428  29.512  1.00  0.00     0.124 S 
ATOM     59  O   UNL A   1      38.374  33.825  28.908  1.00  0.00    -0.237 OA
ATOM     60  O   UNL A   1      35.975  33.309  28.597  1.00  0.00    -0.237 OA
ATOM     61  O   UNL A   1      36.797  34.062  30.793  1.00  0.00    -0.744 OA
ENDBRANCH  54  58
ENDBRANCH  27  51
BRANCH  39  62
ATOM     62  C   UNL A   1      44.947  30.013  28.811  1.00  0.00     0.023 A 
ATOM     63  C   UNL A   1      45.144  28.912  27.956  1.00  0.00     0.031 A 
ATOM     64  C   UNL A   1      45.113  31.280  28.223  1.00  0.00     0.131 A 
ATOM     65  C   UNL A   1      45.514  29.106  26.608  1.00  0.00     0.055 A 
ATOM     66  C   UNL A   1      45.458  31.477  26.884  1.00  0.00     0.041 A 
ATOM     67  F   UNL A   1      44.957  32.387  28.939  1.00  0.00    -0.206 F 
ATOM     68  C   UNL A   1      45.669  30.384  26.067  1.00  0.00     0.022 A 
BRANCH  65  69
ATOM     69  S   UNL A   1      45.780  27.669  25.533  1.00  0.00     0.124 S 
ATOM     70  O   UNL A   1      46.895  26.988  26.181  1.00  0.00    -0.237 OA
ATOM     71  O   UNL A   1      44.492  26.986  25.589  1.00  0.00    -0.237 OA
ATOM     72  O   UNL A   1      46.094  28.269  24.235  1.00  0.00    -0.744 OA
ENDBRANCH  65  69
ENDBRANCH  39  62
ENDBRANCH  13  14
ENDBRANCH   6   8
ENDBRANCH   5   6
ENDBRANCH   4   5
ENDBRANCH   3   4
ENDBRANCH   2   3
ENDBRANCH   1   2
BRANCH   1  73
ATOM     73  C   UNL A   1      35.000  21.311  25.812  1.00  0.00     0.261 C 
BRANCH  73  74
ATOM     74  O   UNL A   1      34.131  20.841  24.762  1.00  0.00    -0.461 OA
BRANCH  74  75
ATOM     75  C   UNL A   1      32.805  20.835  25.066  1.00  0.00     0.335 C 
ATOM     76  O   UNL A   1      32.089  19.839  25.029  1.00  0.00    -0.249 OA
BRANCH  75  77
ATOM     77  C   UNL A   1      32.292  22.204  25.536  1.00  0.00     0.228 C 
ATOM     78  C   UNL A   1      30.823  22.290  25.901  1.00  0.00     0.047 C 
ATOM     79  O   UNL A   1      32.489  23.264  24.585  1.00  0.00    -0.361 OA
ATOM     80  C   UNL A   1      30.632  23.791  25.974  1.00  0.00     0.037 C 
ATOM     81  C   UNL A   1      31.522  24.311  24.849  1.00  0.00     0.138 C 
BRANCH  81  82
ATOM     82  C   UNL A   1      30.759  24.613  23.554  1.00  0.00     0.148 C 
BRANCH  82  83
ATOM     83  N   UNL A   1      31.588  24.925  22.410  1.00  0.00    -0.348 N 
ATOM     84  C   UNL A   1      32.110  26.137  22.024  1.00  0.00     0.268 C 
ATOM     85  H   UNL A   1      31.809  24.164  21.827  1.00  0.00     0.163 HD
ATOM     86  O   UNL A   1      32.993  26.112  21.176  1.00  0.00    -0.268 OA
BRANCH  84  87
ATOM     87  C   UNL A   1      31.619  27.349  22.632  1.00  0.00     0.107 A 
ATOM     88  C   UNL A   1      30.468  28.058  22.297  1.00  0.00     0.033 A 
ATOM     89  N   UNL A   1      32.116  27.950  23.772  1.00  0.00    -0.340 N 
ATOM     90  C   UNL A   1      30.289  29.105  23.229  1.00  0.00     0.020 A 
ATOM     91  C   UNL A   1      31.312  29.001  24.141  1.00  0.00     0.086 A 
BRANCH  89  92
ATOM     92  C   UNL A   1      33.341  27.688  24.509  1.00  0.00     0.087 C 
ATOM     93  C   UNL A   1      33.947  28.504  25.626  1.00  0.00     0.027 C 
ATOM     94  C   UNL A   1      33.287  27.207  25.947  1.00  0.00     0.027 C 
ENDBRANCH  89  92
ENDBRANCH  84  87
ENDBRANCH  82  83
ENDBRANCH  81  82
ENDBRANCH  75  77
ENDBRANCH  74  75
ENDBRANCH  73  74
ENDBRANCH   1  73
TORSDOF 21
ENDMDL
MODEL 2
REMARK VINA RESULT:      -9.7      9.053     14.762
REMARK SMILES O=C(OCCOCCOC(=O)[C@@H]1CC[C@H](CNC(=O)c2cccn2C2CC2)O1)c1ccc(-c2c3nc(c(-c4cc(S(=O)(=O)[O-])ccc4F)c4ccc([nH]4)c(-c4cc(S(=O)(=O)[O-])ccc4F)c4nc(c(-c5cc(S(=O)(=O)[O-])ccc5F)c5ccc2[nH]5)C=C4)C=C3)cc1
REMARK SMILES IDX 7 1 6 2 5 3 4 4 3 5 2 6 1 7 29 8 30 9 91 10 31 11 90 12
REMARK SMILES IDX 32 13 33 14 34 15 84 16 35 17 89 18 83 19 85 20 36 21 88 22
REMARK SMILES IDX 82 23 81 24 37 26 69 27 49 28 68 29 50 30 53 31 67 32 86 33
REMARK SMILES IDX 51 34 52 35 66 37 87 38 54 39 38 40 39 41 47 42 40 43 46 44
REMARK SMILES IDX 48 45 45 46 41 47 42 48 43 49 44 50 70 51 71 52 79 53 72 54
REMARK SMILES IDX 78 55 80 56 77 57 73 58 74 59 75 60 76 61 55 62 56 63 64 64
REMARK SMILES IDX 57 65 63 66 65 67 62 68 58 69 59 70 60 71 61 72 8 73 9 74
REMARK SMILES IDX 10 75 11 76 12 77 13 78 28 79 14 80 15 81 16 82 17 83 18 84
REMARK SMILES IDX 19 86 20 87 21 88 24 89 22 90 23 91 25 92 26 93 27 94
REMARK H PARENT 85 25 53 36 17 85
REMARK Flexibility Score: inf
ROOT
ATOM      1  C   UNL A   1      43.867  40.825  25.928  1.00  0.00     0.202 C 
ENDROOT
BRANCH   1   2
ATOM      2  O   UNL A   1      45.078  40.293  25.378  1.00  0.00    -0.374 OA
BRANCH   2   3
ATOM      3  C   UNL A   1      45.869  39.444  26.207  1.00  0.00     0.202 C 
BRANCH   3   4
ATOM      4  C   UNL A   1      45.115  38.522  27.176  1.00  0.00     0.261 C 
BRANCH   4   5
ATOM      5  O   UNL A   1      45.314  37.124  26.925  1.00  0.00    -0.460 OA
BRANCH   5   6
ATOM      6  C   UNL A   1      45.759  36.189  27.809  1.00  0.00     0.338 C 
ATOM      7  O   UNL A   1      46.942  36.140  28.105  1.00  0.00    -0.246 OA
BRANCH   6   8
ATOM      8  C   UNL A   1      44.797  35.293  28.493  1.00  0.00     0.060 A 
ATOM      9  C   UNL A   1      44.346  34.098  27.937  1.00  0.00     0.016 A 
ATOM     10  C   UNL A   1      44.343  35.678  29.762  1.00  0.00     0.016 A 
ATOM     11  C   UNL A   1      43.290  33.419  28.523  1.00  0.00     0.010 A 
ATOM     12  C   UNL A   1      43.360  34.932  30.411  1.00  0.00     0.010 A 
ATOM     13  C   UNL A   1      42.784  33.835  29.761  1.00  0.00    -0.014 A 
BRANCH  13  14
ATOM     14  C   UNL A   1      41.734  32.984  30.377  1.00  0.00     0.031 A 
ATOM     15  C   UNL A   1      42.284  31.642  30.862  1.00  0.00     0.074 A 
ATOM     16  C   UNL A   1      40.443  33.421  30.343  1.00  0.00     0.049 A 
ATOM     17  N   UNL A   1      41.782  30.447  30.773  1.00  0.00    -0.248 NA
ATOM     18  C   UNL A   1      43.685  31.619  31.358  1.00  0.00     0.031 C 
ATOM     19  C   UNL A   1      40.008  34.724  29.804  1.00  0.00     0.029 A 
ATOM     20  N   UNL A   1      39.246  32.867  30.742  1.00  0.00    -0.354 N 
ATOM     21  C   UNL A   1      42.713  29.567  31.370  1.00  0.00     0.074 A 
ATOM     22  C   UNL A   1      43.927  30.317  31.514  1.00  0.00     0.031 C 
ATOM     23  C   UNL A   1      38.667  34.854  29.889  1.00  0.00     0.029 A 
ATOM     24  C   UNL A   1      38.100  33.653  30.471  1.00  0.00     0.049 A 
ATOM     25  H   UNL A   1      39.191  31.987  31.183  1.00  0.00     0.167 HD
ATOM     26  C   UNL A   1      42.399  28.333  31.869  1.00  0.00     0.034 A 
ATOM     27  C   UNL A   1      36.779  33.358  30.665  1.00  0.00     0.034 A 
ATOM     28  C   UNL A   1      41.002  28.065  31.733  1.00  0.00     0.049 A 
ATOM     29  C   UNL A   1      36.741  32.010  31.260  1.00  0.00     0.074 A 
ATOM     30  C   UNL A   1      40.172  27.688  30.711  1.00  0.00     0.029 A 
ATOM     31  N   UNL A   1      40.216  28.350  32.828  1.00  0.00    -0.354 N 
ATOM     32  N   UNL A   1      37.085  31.723  32.477  1.00  0.00    -0.248 NA
ATOM     33  C   UNL A   1      36.348  30.874  30.417  1.00  0.00     0.031 C 
ATOM     34  C   UNL A   1      38.879  28.107  31.117  1.00  0.00     0.029 A 
ATOM     35  C   UNL A   1      38.987  28.744  32.359  1.00  0.00     0.049 A 
ATOM     36  H   UNL A   1      40.487  28.285  33.773  1.00  0.00     0.167 HD
ATOM     37  C   UNL A   1      37.230  30.357  32.458  1.00  0.00     0.074 A 
ATOM     38  C   UNL A   1      36.519  29.885  31.291  1.00  0.00     0.031 C 
ATOM     39  C   UNL A   1      38.282  29.782  33.094  1.00  0.00     0.034 A 
BRANCH  26  40
ATOM     40  C   UNL A   1      43.194  27.365  32.725  1.00  0.00     0.023 A 
ATOM     41  C   UNL A   1      43.154  27.573  34.129  1.00  0.00     0.031 A 
ATOM     42  C   UNL A   1      44.142  26.433  32.277  1.00  0.00     0.131 A 
ATOM     43  C   UNL A   1      44.053  26.940  35.001  1.00  0.00     0.055 A 
ATOM     44  C   UNL A   1      45.000  25.753  33.157  1.00  0.00     0.041 A 
ATOM     45  F   UNL A   1      44.348  26.197  30.976  1.00  0.00    -0.206 F 
ATOM     46  C   UNL A   1      44.977  26.022  34.521  1.00  0.00     0.022 A 
BRANCH  43  47
ATOM     47  S   UNL A   1      44.091  27.456  36.743  1.00  0.00     0.124 S 
ATOM     48  O   UNL A   1      44.451  28.867  36.648  1.00  0.00    -0.237 OA
ATOM     49  O   UNL A   1      42.725  27.172  37.172  1.00  0.00    -0.237 OA
ATOM     50  O   UNL A   1      45.117  26.595  37.327  1.00  0.00    -0.744 OA
ENDBRANCH  43  47
ENDBRANCH  26  40
BRANCH  27  51
ATOM     51  C   UNL A   1      35.445  34.011  30.375  1.00  0.00     0.023 A 
ATOM     52  C   UNL A   1      34.758  34.878  31.240  1.00  0.00     0.031 A 
ATOM     53  C   UNL A   1      34.797  33.781  29.124  1.00  0.00     0.131 A 
ATOM     54  C   UNL A   1      33.546  35.495  30.840  1.00  0.00     0.055 A 
ATOM     55  C   UNL A   1      33.626  34.424  28.715  1.00  0.00     0.041 A 
ATOM     56  F   UNL A   1      35.282  32.919  28.219  1.00  0.00    -0.206 F 
ATOM     57  C   UNL A   1      32.996  35.298  29.574  1.00  0.00     0.022 A 
BRANCH  54  58
ATOM     58  S   UNL A   1      32.653  36.618  31.953  1.00  0.00     0.124 S 
ATOM     59  O   UNL A   1      32.845  37.909  31.302  1.00  0.00    -0.237 OA
ATOM     60  O   UNL A   1      31.290  36.093  31.937  1.00  0.00    -0.237 OA
ATOM     61  O   UNL A   1      33.364  36.444  33.220  1.00  0.00    -0.744 OA
ENDBRANCH  54  58
ENDBRANCH  27  51
BRANCH  39  62
ATOM     62  C   UNL A   1      38.865  30.655  34.209  1.00  0.00     0.023 A 
ATOM     63  C   UNL A   1      38.191  30.819  35.434  1.00  0.00     0.031 A 
ATOM     64  C   UNL A   1      40.010  31.452  34.031  1.00  0.00     0.131 A 
ATOM     65  C   UNL A   1      38.647  31.757  36.385  1.00  0.00     0.055 A 
ATOM     66  C   UNL A   1      40.477  32.366  34.977  1.00  0.00     0.041 A 
ATOM     67  F   UNL A   1      40.719  31.382  32.910  1.00  0.00    -0.206 F 
ATOM     68  C   UNL A   1      39.789  32.529  36.164  1.00  0.00     0.022 A 
BRANCH  65  69
ATOM     69  S   UNL A   1      37.748  31.963  37.947  1.00  0.00     0.124 S 
ATOM     70  O   UNL A   1      37.161  30.644  38.154  1.00  0.00    -0.237 OA
ATOM     71  O   UNL A   1      38.806  32.346  38.876  1.00  0.00    -0.237 OA
ATOM     72  O   UNL A   1      36.787  33.026  37.648  1.00  0.00    -0.744 OA
ENDBRANCH  65  69
ENDBRANCH  39  62
ENDBRANCH  13  14
ENDBRANCH   6   8
ENDBRANCH   5   6
ENDBRANCH   4   5
ENDBRANCH   3   4
ENDBRANCH   2   3
ENDBRANCH   1   2
BRANCH   1  73
ATOM     73  C   UNL A   1      43.024  41.700  24.997  1.00  0.00     0.261 C 
BRANCH  73  74
ATOM     74  O   UNL A   1      43.547  43.042  24.930  1.00  0.00    -0.461 OA
BRANCH  74  75
ATOM     75  C   UNL A   1      43.335  43.689  23.752  1.00  0.00     0.335 C 
ATOM     76  O   UNL A   1      42.268  44.200  23.424  1.00  0.00    -0.249 OA
BRANCH  75  77
ATOM     77  C   UNL A   1      44.597  43.782  22.884  1.00  0.00     0.228 C 
ATOM     78  C   UNL A   1      45.227  45.154  22.746  1.00  0.00     0.047 C 
ATOM     79  O   UNL A   1      44.415  43.333  21.531  1.00  0.00    -0.361 OA
ATOM     80  C   UNL A   1      46.188  44.917  21.600  1.00  0.00     0.037 C 
ATOM     81  C   UNL A   1      45.420  43.960  20.693  1.00  0.00     0.138 C 
BRANCH  81  82
ATOM     82  C   UNL A   1      44.718  44.655  19.522  1.00  0.00     0.148 C 
BRANCH  82  83
ATOM     83  N   UNL A   1      45.563  44.945  18.384  1.00  0.00    -0.348 N 
ATOM     84  C   UNL A   1      45.445  45.950  17.452  1.00  0.00     0.268 C 
ATOM     85  H   UNL A   1      46.328  44.339  18.258  1.00  0.00     0.163 HD
ATOM     86  O   UNL A   1      46.419  46.157  16.739  1.00  0.00    -0.268 OA
BRANCH  84  87
ATOM     87  C   UNL A   1      44.220  46.706  17.372  1.00  0.00     0.107 A 
ATOM     88  C   UNL A   1      43.038  46.337  16.734  1.00  0.00     0.033 A 
ATOM     89  N   UNL A   1      43.935  47.874  18.051  1.00  0.00    -0.340 N 
ATOM     90  C   UNL A   1      42.046  47.304  17.015  1.00  0.00     0.020 A 
ATOM     91  C   UNL A   1      42.624  48.231  17.847  1.00  0.00     0.086 A 
BRANCH  89  92
ATOM     92  C   UNL A   1      44.810  48.751  18.810  1.00  0.00     0.087 C 
ATOM     93  C   UNL A   1      44.489  49.525  20.067  1.00  0.00     0.027 C 
ATOM     94  C   UNL A   1      45.355  48.316  20.159  1.00  0.00     0.027 C 
ENDBRANCH  89  92
ENDBRANCH  84  87
ENDBRANCH  82  83
ENDBRANCH  81  82
ENDBRANCH  75  77
ENDBRANCH  74  75
ENDBRANCH  73  74
ENDBRANCH   1  73
TORSDOF 21
ENDMDL
MODEL 3
REMARK VINA RESULT:      -9.7      1.748      2.237
REMARK SMILES O=C(OCCOCCOC(=O)[C@@H]1CC[C@H](CNC(=O)c2cccn2C2CC2)O1)c1ccc(-c2c3nc(c(-c4cc(S(=O)(=O)[O-])ccc4F)c4ccc([nH]4)c(-c4cc(S(=O)(=O)[O-])ccc4F)c4nc(c(-c5cc(S(=O)(=O)[O-])ccc5F)c5ccc2[nH]5)C=C4)C=C3)cc1
REMARK SMILES IDX 7 1 6 2 5 3 4 4 3 5 2 6 1 7 29 8 30 9 91 10 31 11 90 12
REMARK SMILES IDX 32 13 33 14 34 15 84 16 35 17 89 18 83 19 85 20 36 21 88 22
REMARK SMILES IDX 82 23 81 24 37 26 69 27 49 28 68 29 50 30 53 31 67 32 86 33
REMARK SMILES IDX 51 34 52 35 66 37 87 38 54 39 38 40 39 41 47 42 40 43 46 44
REMARK SMILES IDX 48 45 45 46 41 47 42 48 43 49 44 50 70 51 71 52 79 53 72 54
REMARK SMILES IDX 78 55 80 56 77 57 73 58 74 59 75 60 76 61 55 62 56 63 64 64
REMARK SMILES IDX 57 65 63 66 65 67 62 68 58 69 59 70 60 71 61 72 8 73 9 74
REMARK SMILES IDX 10 75 11 76 12 77 13 78 28 79 14 80 15 81 16 82 17 83 18 84
REMARK SMILES IDX 19 86 20 87 21 88 24 89 22 90 23 91 25 92 26 93 27 94
REMARK H PARENT 85 25 53 36 17 85
REMARK Flexibility Score: inf
ROOT
ATOM      1  C   UNL A   1      36.246  21.817  24.763  1.00  0.00     0.202 C 
ENDROOT
BRANCH   1   2
ATOM      2  O   UNL A   1      37.423  21.190  24.241  1.00  0.00    -0.374 OA
BRANCH   2   3
ATOM      3  C   UNL A   1      37.967  20.088  24.963  1.00  0.00     0.202 C 
BRANCH   3   4
ATOM      4  C   UNL A   1      39.027  20.410  26.026  1.00  0.00     0.261 C 
BRANCH   4   5
ATOM      5  O   UNL A   1      40.286  19.755  25.813  1.00  0.00    -0.460 OA
BRANCH   5   6
ATOM      6  C   UNL A   1      41.526  20.288  25.987  1.00  0.00     0.338 C 
ATOM      7  O   UNL A   1      42.510  19.701  25.566  1.00  0.00    -0.246 OA
BRANCH   6   8
ATOM      8  C   UNL A   1      41.681  21.631  26.594  1.00  0.00     0.060 A 
ATOM      9  C   UNL A   1      41.919  22.780  25.844  1.00  0.00     0.016 A 
ATOM     10  C   UNL A   1      41.568  21.728  27.988  1.00  0.00     0.016 A 
ATOM     11  C   UNL A   1      42.270  23.960  26.480  1.00  0.00     0.010 A 
ATOM     12  C   UNL A   1      41.806  22.944  28.628  1.00  0.00     0.010 A 
ATOM     13  C   UNL A   1      42.224  24.048  27.877  1.00  0.00    -0.014 A 
BRANCH  13  14
ATOM     14  C   UNL A   1      42.499  25.380  28.474  1.00  0.00     0.031 A 
ATOM     15  C   UNL A   1      43.899  25.466  29.084  1.00  0.00     0.074 A 
ATOM     16  C   UNL A   1      41.489  26.295  28.512  1.00  0.00     0.049 A 
ATOM     17  N   UNL A   1      44.299  26.003  30.198  1.00  0.00    -0.248 NA
ATOM     18  C   UNL A   1      44.975  24.675  28.432  1.00  0.00     0.031 C 
ATOM     19  C   UNL A   1      40.147  26.094  27.932  1.00  0.00     0.029 A 
ATOM     20  N   UNL A   1      41.379  27.562  29.044  1.00  0.00    -0.354 N 
ATOM     21  C   UNL A   1      45.692  25.781  30.281  1.00  0.00     0.074 A 
ATOM     22  C   UNL A   1      45.994  24.796  29.283  1.00  0.00     0.031 C 
ATOM     23  C   UNL A   1      39.363  27.170  28.153  1.00  0.00     0.029 A 
ATOM     24  C   UNL A   1      40.105  28.163  28.906  1.00  0.00     0.049 A 
ATOM     25  H   UNL A   1      42.132  28.016  29.488  1.00  0.00     0.167 HD
ATOM     26  C   UNL A   1      46.549  26.532  31.038  1.00  0.00     0.034 A 
ATOM     27  C   UNL A   1      39.652  29.359  29.389  1.00  0.00     0.034 A 
ATOM     28  C   UNL A   1      45.854  27.584  31.709  1.00  0.00     0.049 A 
ATOM     29  C   UNL A   1      40.788  29.971  30.103  1.00  0.00     0.074 A 
ATOM     30  C   UNL A   1      45.049  27.678  32.812  1.00  0.00     0.029 A 
ATOM     31  N   UNL A   1      45.850  28.810  31.081  1.00  0.00    -0.354 N 
ATOM     32  N   UNL A   1      41.835  30.483  29.536  1.00  0.00    -0.248 NA
ATOM     33  C   UNL A   1      40.792  29.958  31.571  1.00  0.00     0.031 C 
ATOM     34  C   UNL A   1      44.294  28.863  32.613  1.00  0.00     0.029 A 
ATOM     35  C   UNL A   1      44.658  29.422  31.383  1.00  0.00     0.049 A 
ATOM     36  H   UNL A   1      46.569  29.179  30.517  1.00  0.00     0.167 HD
ATOM     37  C   UNL A   1      42.741  30.585  30.564  1.00  0.00     0.074 A 
ATOM     38  C   UNL A   1      41.981  30.515  31.790  1.00  0.00     0.031 C 
ATOM     39  C   UNL A   1      44.038  30.243  30.355  1.00  0.00     0.034 A 
BRANCH  26  40
ATOM     40  C   UNL A   1      48.065  26.587  31.079  1.00  0.00     0.023 A 
ATOM     41  C   UNL A   1      48.728  26.840  29.848  1.00  0.00     0.031 A 
ATOM     42  C   UNL A   1      48.890  26.193  32.143  1.00  0.00     0.131 A 
ATOM     43  C   UNL A   1      50.108  26.638  29.693  1.00  0.00     0.055 A 
ATOM     44  C   UNL A   1      50.280  26.053  32.002  1.00  0.00     0.041 A 
ATOM     45  F   UNL A   1      48.395  25.844  33.336  1.00  0.00    -0.206 F 
ATOM     46  C   UNL A   1      50.893  26.250  30.770  1.00  0.00     0.022 A 
BRANCH  43  47
ATOM     47  S   UNL A   1      50.824  26.745  28.026  1.00  0.00     0.124 S 
ATOM     48  O   UNL A   1      52.139  26.141  28.207  1.00  0.00    -0.237 OA
ATOM     49  O   UNL A   1      49.869  25.972  27.237  1.00  0.00    -0.237 OA
ATOM     50  O   UNL A   1      50.835  28.180  27.754  1.00  0.00    -0.744 OA
ENDBRANCH  43  47
ENDBRANCH  26  40
BRANCH  27  51
ATOM     51  C   UNL A   1      38.342  30.118  29.418  1.00  0.00     0.023 A 
ATOM     52  C   UNL A   1      37.773  30.714  30.554  1.00  0.00     0.031 A 
ATOM     53  C   UNL A   1      37.595  30.292  28.214  1.00  0.00     0.131 A 
ATOM     54  C   UNL A   1      36.575  31.466  30.456  1.00  0.00     0.055 A 
ATOM     55  C   UNL A   1      36.439  31.070  28.113  1.00  0.00     0.041 A 
ATOM     56  F   UNL A   1      37.962  29.719  27.059  1.00  0.00    -0.206 F 
ATOM     57  C   UNL A   1      35.926  31.674  29.240  1.00  0.00     0.022 A 
BRANCH  54  58
ATOM     58  S   UNL A   1      35.832  32.241  31.921  1.00  0.00     0.124 S 
ATOM     59  O   UNL A   1      34.417  32.264  31.568  1.00  0.00    -0.237 OA
ATOM     60  O   UNL A   1      36.203  31.336  33.005  1.00  0.00    -0.237 OA
ATOM     61  O   UNL A   1      36.488  33.548  31.959  1.00  0.00    -0.744 OA
ENDBRANCH  54  58
ENDBRANCH  27  51
BRANCH  39  62
ATOM     62  C   UNL A   1      44.454  30.315  28.883  1.00  0.00     0.023 A 
ATOM     63  C   UNL A   1      44.724  29.149  28.143  1.00  0.00     0.031 A 
ATOM     64  C   UNL A   1      44.733  31.530  28.231  1.00  0.00     0.131 A 
ATOM     65  C   UNL A   1      45.269  29.231  26.844  1.00  0.00     0.055 A 
ATOM     66  C   UNL A   1      45.253  31.618  26.938  1.00  0.00     0.041 A 
ATOM     67  F   UNL A   1      44.521  32.692  28.838  1.00  0.00    -0.206 F 
ATOM     68  C   UNL A   1      45.533  30.461  26.237  1.00  0.00     0.022 A 
BRANCH  65  69
ATOM     69  S   UNL A   1      45.627  27.712  25.920  1.00  0.00     0.124 S 
ATOM     70  O   UNL A   1      44.340  27.024  25.927  1.00  0.00    -0.237 OA
ATOM     71  O   UNL A   1      46.073  28.222  24.628  1.00  0.00    -0.237 OA
ATOM     72  O   UNL A   1      46.674  27.069  26.715  1.00  0.00    -0.744 OA
ENDBRANCH  65  69
ENDBRANCH  39  62
ENDBRANCH  13  14
ENDBRANCH   6   8
ENDBRANCH   5   6
ENDBRANCH   4   5
ENDBRANCH   3   4
ENDBRANCH   2   3
ENDBRANCH   1   2
BRANCH   1  73
ATOM     73  C   UNL A   1      35.246  20.903  25.476  1.00  0.00     0.261 C 
BRANCH  73  74
ATOM     74  O   UNL A   1      34.344  20.286  24.536  1.00  0.00    -0.461 OA
BRANCH  74  75
ATOM     75  C   UNL A   1      33.121  19.959  25.035  1.00  0.00     0.335 C 
ATOM     76  O   UNL A   1      32.907  19.001  25.772  1.00  0.00    -0.249 OA
BRANCH  75  77
ATOM     77  C   UNL A   1      32.026  20.958  24.639  1.00  0.00     0.228 C 
ATOM     78  C   UNL A   1      32.369  21.939  23.535  1.00  0.00     0.047 C 
ATOM     79  O   UNL A   1      31.563  21.783  25.721  1.00  0.00    -0.361 OA
ATOM     80  C   UNL A   1      31.230  22.928  23.663  1.00  0.00     0.037 C 
ATOM     81  C   UNL A   1      30.998  23.000  25.170  1.00  0.00     0.138 C 
BRANCH  81  82
ATOM     82  C   UNL A   1      31.674  24.202  25.837  1.00  0.00     0.148 C 
BRANCH  82  83
ATOM     83  N   UNL A   1      32.945  24.589  25.265  1.00  0.00    -0.348 N 
ATOM     84  C   UNL A   1      33.301  25.778  24.673  1.00  0.00     0.268 C 
ATOM     85  H   UNL A   1      33.653  23.907  25.304  1.00  0.00     0.163 HD
ATOM     86  O   UNL A   1      34.498  25.972  24.502  1.00  0.00    -0.268 OA
BRANCH  84  87
ATOM     87  C   UNL A   1      32.278  26.726  24.307  1.00  0.00     0.107 A 
ATOM     88  C   UNL A   1      31.426  26.669  23.207  1.00  0.00     0.033 A 
ATOM     89  N   UNL A   1      31.840  27.790  25.070  1.00  0.00    -0.340 N 
ATOM     90  C   UNL A   1      30.488  27.721  23.301  1.00  0.00     0.020 A 
ATOM     91  C   UNL A   1      30.756  28.386  24.473  1.00  0.00     0.086 A 
BRANCH  89  92
ATOM     92  C   UNL A   1      32.405  28.370  26.277  1.00  0.00     0.087 C 
ATOM     93  C   UNL A   1      31.964  29.619  27.004  1.00  0.00     0.027 C 
ATOM     94  C   UNL A   1      31.657  28.286  27.595  1.00  0.00     0.027 C 
ENDBRANCH  89  92
ENDBRANCH  84  87
ENDBRANCH  82  83
ENDBRANCH  81  82
ENDBRANCH  75  77
ENDBRANCH  74  75
ENDBRANCH  73  74
ENDBRANCH   1  73
TORSDOF 21
ENDMDL
