MODEL 1
REMARK VINA RESULT:     -11.2      0.000      0.000
REMARK SMILES CC[NH2+][C@]1(C(=O)OCCOCCOC(=O)c2ccc(-c3c4nc(c(-c5cc(S(=O)(=O)[O-])ccc5F)c5ccc([nH]5)c(-c5cc(S(=O)(=O)[O-])ccc5F)c5nc(c(-c6cc(S(=O)(=O)[O-])ccc6F)c6ccc3[nH]6)C=C5)C=C4)cc2)CCC[C@@H]1CCSc1ccc(C)cc1
REMARK SMILES IDX 9 1 8 2 7 3 5 4 6 5 4 6 79 7 82 8 80 9 81 10 3 11 2 14 1 15
REMARK SMILES IDX 83 16 84 17 85 18 86 19 87 20 92 21 88 22 91 23 89 24 90 25
REMARK SMILES IDX 10 26 11 27 12 28 13 29 14 30 15 31 16 32 17 33 78 34 18 35
REMARK SMILES IDX 77 36 19 37 20 38 21 39 71 40 22 41 76 42 70 43 72 44 23 45
REMARK SMILES IDX 75 46 69 47 68 48 24 50 56 51 36 52 55 53 37 54 40 55 54 56
REMARK SMILES IDX 73 57 38 58 39 59 53 61 74 62 41 63 25 64 26 65 34 66 27 67
REMARK SMILES IDX 33 68 35 69 32 70 28 71 29 72 30 73 31 74 57 75 58 76 66 77
REMARK SMILES IDX 59 78 65 79 67 80 64 81 60 82 61 83 62 84 63 85 42 86 43 87
REMARK SMILES IDX 51 88 44 89 50 90 52 91 49 92 45 93 46 94 47 95 48 96
REMARK H PARENT 3 12 3 13 72 49 40 60
REMARK Flexibility Score: inf
ROOT
ATOM      1  C   UNL A   1      32.771  29.355  27.184  1.00  0.00     0.202 C 
ENDROOT
BRANCH   1   2
ATOM      2  C   UNL A   1      32.015  28.174  26.597  1.00  0.00     0.261 C 
BRANCH   2   3
ATOM      3  O   UNL A   1      32.700  27.157  25.823  1.00  0.00    -0.459 OA
BRANCH   3   4
ATOM      4  C   UNL A   1      32.493  26.910  24.488  1.00  0.00     0.368 C 
ATOM      5  O   UNL A   1      32.478  27.790  23.643  1.00  0.00    -0.245 OA
BRANCH   4   6
ATOM      6  C   UNL A   1      32.595  25.395  24.090  1.00  0.00     0.197 C 
ATOM      7  C   UNL A   1      31.927  25.299  22.716  1.00  0.00     0.081 C 
ATOM      8  C   UNL A   1      34.038  25.114  23.832  1.00  0.00     0.063 C 
ATOM      9  C   UNL A   1      32.574  24.077  22.104  1.00  0.00     0.008 C 
ATOM     10  C   UNL A   1      33.985  23.999  22.750  1.00  0.00     0.011 C 
BRANCH   6  11
ATOM     11  N   UNL A   1      31.976  24.341  24.975  1.00  0.00    -0.332 N 
ATOM     12  H   UNL A   1      31.966  23.490  24.413  1.00  0.00     0.347 HD
ATOM     13  H   UNL A   1      32.563  24.436  25.804  1.00  0.00     0.347 HD
BRANCH  11  14
ATOM     14  C   UNL A   1      30.641  24.420  25.589  1.00  0.00     0.257 C 
ATOM     15  C   UNL A   1      30.390  23.395  26.703  1.00  0.00     0.071 C 
ENDBRANCH  11  14
ENDBRANCH   6  11
BRANCH   8  16
ATOM     16  C   UNL A   1      34.771  25.019  25.207  1.00  0.00     0.022 C 
BRANCH  16  17
ATOM     17  C   UNL A   1      35.267  23.610  25.922  1.00  0.00     0.075 C 
BRANCH  17  18
ATOM     18  S   UNL A   1      35.738  21.613  25.684  1.00  0.00    -0.126 SA
BRANCH  18  19
ATOM     19  C   UNL A   1      34.502  20.456  25.004  1.00  0.00     0.007 A 
ATOM     20  C   UNL A   1      34.737  19.072  24.931  1.00  0.00     0.015 A 
ATOM     21  C   UNL A   1      33.211  20.846  24.633  1.00  0.00     0.015 A 
ATOM     22  C   UNL A   1      33.975  18.233  24.091  1.00  0.00     0.004 A 
ATOM     23  C   UNL A   1      32.381  19.986  23.866  1.00  0.00     0.004 A 
ATOM     24  C   UNL A   1      32.847  18.734  23.452  1.00  0.00    -0.051 A 
ATOM     25  C   UNL A   1      32.277  18.038  22.244  1.00  0.00     0.044 C 
ENDBRANCH  18  19
ENDBRANCH  17  18
ENDBRANCH  16  17
ENDBRANCH   8  16
ENDBRANCH   4   6
ENDBRANCH   3   4
ENDBRANCH   2   3
ENDBRANCH   1   2
BRANCH   1  26
ATOM     26  O   UNL A   1      32.770  30.467  26.323  1.00  0.00    -0.374 OA
BRANCH  26  27
ATOM     27  C   UNL A   1      31.595  31.278  26.332  1.00  0.00     0.202 C 
BRANCH  27  28
ATOM     28  C   UNL A   1      31.630  32.684  26.981  1.00  0.00     0.261 C 
BRANCH  28  29
ATOM     29  O   UNL A   1      32.905  33.344  26.982  1.00  0.00    -0.460 OA
BRANCH  29  30
ATOM     30  C   UNL A   1      33.410  33.599  28.206  1.00  0.00     0.338 C 
ATOM     31  O   UNL A   1      32.845  34.177  29.124  1.00  0.00    -0.246 OA
BRANCH  30  32
ATOM     32  C   UNL A   1      34.672  32.859  28.347  1.00  0.00     0.060 A 
ATOM     33  C   UNL A   1      34.609  31.564  28.875  1.00  0.00     0.016 A 
ATOM     34  C   UNL A   1      35.897  33.442  28.011  1.00  0.00     0.016 A 
ATOM     35  C   UNL A   1      35.781  30.877  29.149  1.00  0.00     0.010 A 
ATOM     36  C   UNL A   1      37.078  32.757  28.303  1.00  0.00     0.010 A 
ATOM     37  C   UNL A   1      37.016  31.501  28.930  1.00  0.00    -0.014 A 
BRANCH  37  38
ATOM     38  C   UNL A   1      38.194  30.935  29.621  1.00  0.00     0.031 A 
ATOM     39  C   UNL A   1      38.411  31.325  31.058  1.00  0.00     0.074 A 
ATOM     40  C   UNL A   1      38.956  30.005  29.022  1.00  0.00     0.049 A 
ATOM     41  N   UNL A   1      39.312  30.910  31.907  1.00  0.00    -0.248 NA
ATOM     42  C   UNL A   1      37.473  32.314  31.615  1.00  0.00     0.031 C 
ATOM     43  C   UNL A   1      38.765  29.517  27.656  1.00  0.00     0.029 A 
ATOM     44  N   UNL A   1      40.020  29.286  29.492  1.00  0.00    -0.354 N 
ATOM     45  C   UNL A   1      39.047  31.582  33.097  1.00  0.00     0.074 A 
ATOM     46  C   UNL A   1      37.931  32.465  32.846  1.00  0.00     0.031 C 
ATOM     47  C   UNL A   1      39.679  28.566  27.403  1.00  0.00     0.029 A 
ATOM     48  C   UNL A   1      40.541  28.407  28.574  1.00  0.00     0.049 A 
ATOM     49  H   UNL A   1      40.380  29.388  30.404  1.00  0.00     0.167 HD
ATOM     50  C   UNL A   1      39.673  31.459  34.291  1.00  0.00     0.034 A 
ATOM     51  C   UNL A   1      41.602  27.583  28.671  1.00  0.00     0.034 A 
ATOM     52  C   UNL A   1      40.795  30.578  34.501  1.00  0.00     0.049 A 
ATOM     53  C   UNL A   1      42.345  27.534  29.985  1.00  0.00     0.074 A 
ATOM     54  C   UNL A   1      41.530  30.373  35.653  1.00  0.00     0.029 A 
ATOM     55  N   UNL A   1      41.350  29.760  33.523  1.00  0.00    -0.354 N 
ATOM     56  N   UNL A   1      42.093  28.180  31.102  1.00  0.00    -0.248 NA
ATOM     57  C   UNL A   1      43.500  26.635  30.055  1.00  0.00     0.031 C 
ATOM     58  C   UNL A   1      42.578  29.497  35.350  1.00  0.00     0.029 A 
ATOM     59  C   UNL A   1      42.442  29.079  34.035  1.00  0.00     0.049 A 
ATOM     60  H   UNL A   1      41.016  29.677  32.600  1.00  0.00     0.167 HD
ATOM     61  C   UNL A   1      43.048  27.745  32.017  1.00  0.00     0.074 A 
ATOM     62  C   UNL A   1      43.857  26.760  31.325  1.00  0.00     0.031 C 
ATOM     63  C   UNL A   1      43.243  28.117  33.310  1.00  0.00     0.034 A 
BRANCH  50  64
ATOM     64  C   UNL A   1      39.202  32.348  35.419  1.00  0.00     0.023 A 
ATOM     65  C   UNL A   1      39.647  33.676  35.561  1.00  0.00     0.031 A 
ATOM     66  C   UNL A   1      38.330  31.842  36.399  1.00  0.00     0.131 A 
ATOM     67  C   UNL A   1      39.280  34.421  36.693  1.00  0.00     0.055 A 
ATOM     68  C   UNL A   1      37.900  32.617  37.479  1.00  0.00     0.041 A 
ATOM     69  F   UNL A   1      37.896  30.573  36.338  1.00  0.00    -0.206 F 
ATOM     70  C   UNL A   1      38.388  33.911  37.639  1.00  0.00     0.022 A 
BRANCH  67  71
ATOM     71  S   UNL A   1      40.105  36.010  36.997  1.00  0.00     0.124 S 
ATOM     72  O   UNL A   1      41.458  35.578  37.337  1.00  0.00    -0.237 OA
ATOM     73  O   UNL A   1      39.953  36.693  35.717  1.00  0.00    -0.237 OA
ATOM     74  O   UNL A   1      39.346  36.585  38.106  1.00  0.00    -0.744 OA
ENDBRANCH  67  71
ENDBRANCH  50  64
BRANCH  51  75
ATOM     75  C   UNL A   1      42.047  26.776  27.497  1.00  0.00     0.023 A 
ATOM     76  C   UNL A   1      41.765  25.404  27.399  1.00  0.00     0.031 A 
ATOM     77  C   UNL A   1      42.813  27.363  26.472  1.00  0.00     0.131 A 
ATOM     78  C   UNL A   1      42.282  24.658  26.327  1.00  0.00     0.055 A 
ATOM     79  C   UNL A   1      43.273  26.629  25.377  1.00  0.00     0.041 A 
ATOM     80  F   UNL A   1      43.118  28.669  26.515  1.00  0.00    -0.206 F 
ATOM     81  C   UNL A   1      43.020  25.263  25.308  1.00  0.00     0.022 A 
BRANCH  78  82
ATOM     82  S   UNL A   1      42.059  22.857  26.334  1.00  0.00     0.124 S 
ATOM     83  O   UNL A   1      42.653  22.478  25.058  1.00  0.00    -0.237 OA
ATOM     84  O   UNL A   1      42.798  22.466  27.529  1.00  0.00    -0.237 OA
ATOM     85  O   UNL A   1      40.608  22.696  26.421  1.00  0.00    -0.744 OA
ENDBRANCH  78  82
ENDBRANCH  51  75
BRANCH  63  86
ATOM     86  C   UNL A   1      44.360  27.423  34.054  1.00  0.00     0.023 A 
ATOM     87  C   UNL A   1      44.171  26.172  34.665  1.00  0.00     0.031 A 
ATOM     88  C   UNL A   1      45.618  28.038  34.181  1.00  0.00     0.131 A 
ATOM     89  C   UNL A   1      45.194  25.616  35.445  1.00  0.00     0.055 A 
ATOM     90  C   UNL A   1      46.659  27.440  34.890  1.00  0.00     0.041 A 
ATOM     91  F   UNL A   1      45.856  29.235  33.619  1.00  0.00    -0.206 F 
ATOM     92  C   UNL A   1      46.444  26.230  35.544  1.00  0.00     0.022 A 
BRANCH  89  93
ATOM     93  S   UNL A   1      44.819  24.148  36.442  1.00  0.00     0.124 S 
ATOM     94  O   UNL A   1      46.116  23.482  36.496  1.00  0.00    -0.237 OA
ATOM     95  O   UNL A   1      44.351  24.733  37.695  1.00  0.00    -0.237 OA
ATOM     96  O   UNL A   1      43.797  23.455  35.660  1.00  0.00    -0.744 OA
ENDBRANCH  89  93
ENDBRANCH  63  86
ENDBRANCH  37  38
ENDBRANCH  30  32
ENDBRANCH  29  30
ENDBRANCH  28  29
ENDBRANCH  27  28
ENDBRANCH  26  27
ENDBRANCH   1  26
TORSDOF 23
ENDMDL
MODEL 2
REMARK VINA RESULT:     -11.1      1.583      2.025
REMARK SMILES CC[NH2+][C@]1(C(=O)OCCOCCOC(=O)c2ccc(-c3c4nc(c(-c5cc(S(=O)(=O)[O-])ccc5F)c5ccc([nH]5)c(-c5cc(S(=O)(=O)[O-])ccc5F)c5nc(c(-c6cc(S(=O)(=O)[O-])ccc6F)c6ccc3[nH]6)C=C5)C=C4)cc2)CCC[C@@H]1CCSc1ccc(C)cc1
REMARK SMILES IDX 9 1 8 2 7 3 5 4 6 5 4 6 79 7 82 8 80 9 81 10 3 11 2 14 1 15
REMARK SMILES IDX 83 16 84 17 85 18 86 19 87 20 92 21 88 22 91 23 89 24 90 25
REMARK SMILES IDX 10 26 11 27 12 28 13 29 14 30 15 31 16 32 17 33 78 34 18 35
REMARK SMILES IDX 77 36 19 37 20 38 21 39 71 40 22 41 76 42 70 43 72 44 23 45
REMARK SMILES IDX 75 46 69 47 68 48 24 50 56 51 36 52 55 53 37 54 40 55 54 56
REMARK SMILES IDX 73 57 38 58 39 59 53 61 74 62 41 63 25 64 26 65 34 66 27 67
REMARK SMILES IDX 33 68 35 69 32 70 28 71 29 72 30 73 31 74 57 75 58 76 66 77
REMARK SMILES IDX 59 78 65 79 67 80 64 81 60 82 61 83 62 84 63 85 42 86 43 87
REMARK SMILES IDX 51 88 44 89 50 90 52 91 49 92 45 93 46 94 47 95 48 96
REMARK H PARENT 3 12 3 13 72 49 40 60
REMARK Flexibility Score: inf
ROOT
ATOM      1  C   UNL A   1      32.293  29.121  27.059  1.00  0.00     0.202 C 
ENDROOT
BRANCH   1   2
ATOM      2  C   UNL A   1      33.525  28.232  27.094  1.00  0.00     0.261 C 
BRANCH   2   3
ATOM      3  O   UNL A   1      33.644  27.082  26.219  1.00  0.00    -0.459 OA
BRANCH   3   4
ATOM      4  C   UNL A   1      32.603  26.269  25.842  1.00  0.00     0.368 C 
ATOM      5  O   UNL A   1      31.799  25.806  26.633  1.00  0.00    -0.245 OA
BRANCH   4   6
ATOM      6  C   UNL A   1      32.338  26.241  24.295  1.00  0.00     0.197 C 
ATOM      7  C   UNL A   1      32.811  27.604  23.784  1.00  0.00     0.081 C 
ATOM      8  C   UNL A   1      33.302  25.261  23.711  1.00  0.00     0.063 C 
ATOM      9  C   UNL A   1      33.146  27.332  22.335  1.00  0.00     0.008 C 
ATOM     10  C   UNL A   1      33.560  25.835  22.289  1.00  0.00     0.011 C 
BRANCH   6  11
ATOM     11  N   UNL A   1      30.940  26.017  23.774  1.00  0.00    -0.332 N 
ATOM     12  H   UNL A   1      31.025  26.032  22.757  1.00  0.00     0.347 HD
ATOM     13  H   UNL A   1      30.692  25.169  24.285  1.00  0.00     0.347 HD
BRANCH  11  14
ATOM     14  C   UNL A   1      29.772  26.857  24.081  1.00  0.00     0.257 C 
ATOM     15  C   UNL A   1      29.500  27.971  23.061  1.00  0.00     0.071 C 
ENDBRANCH  11  14
ENDBRANCH   6  11
BRANCH   8  16
ATOM     16  C   UNL A   1      32.794  23.822  24.037  1.00  0.00     0.022 C 
BRANCH  16  17
ATOM     17  C   UNL A   1      33.738  22.462  24.048  1.00  0.00     0.075 C 
BRANCH  17  18
ATOM     18  S   UNL A   1      34.525  20.903  25.151  1.00  0.00    -0.126 SA
BRANCH  18  19
ATOM     19  C   UNL A   1      33.968  19.192  24.845  1.00  0.00     0.007 A 
ATOM     20  C   UNL A   1      32.631  18.800  25.030  1.00  0.00     0.015 A 
ATOM     21  C   UNL A   1      34.793  18.205  24.296  1.00  0.00     0.015 A 
ATOM     22  C   UNL A   1      32.267  17.443  25.159  1.00  0.00     0.004 A 
ATOM     23  C   UNL A   1      34.412  16.837  24.325  1.00  0.00     0.004 A 
ATOM     24  C   UNL A   1      33.207  16.448  24.922  1.00  0.00    -0.051 A 
ATOM     25  C   UNL A   1      33.004  15.056  25.458  1.00  0.00     0.044 C 
ENDBRANCH  18  19
ENDBRANCH  17  18
ENDBRANCH  16  17
ENDBRANCH   8  16
ENDBRANCH   4   6
ENDBRANCH   3   4
ENDBRANCH   2   3
ENDBRANCH   1   2
BRANCH   1  26
ATOM     26  O   UNL A   1      32.489  30.267  26.267  1.00  0.00    -0.374 OA
BRANCH  26  27
ATOM     27  C   UNL A   1      31.431  31.226  26.263  1.00  0.00     0.202 C 
BRANCH  27  28
ATOM     28  C   UNL A   1      31.595  32.562  27.029  1.00  0.00     0.261 C 
BRANCH  28  29
ATOM     29  O   UNL A   1      32.895  33.168  26.965  1.00  0.00    -0.460 OA
BRANCH  29  30
ATOM     30  C   UNL A   1      33.419  33.509  28.160  1.00  0.00     0.338 C 
ATOM     31  O   UNL A   1      32.852  34.110  29.063  1.00  0.00    -0.246 OA
BRANCH  30  32
ATOM     32  C   UNL A   1      34.716  32.833  28.304  1.00  0.00     0.060 A 
ATOM     33  C   UNL A   1      34.705  31.475  28.641  1.00  0.00     0.016 A 
ATOM     34  C   UNL A   1      35.919  33.530  28.155  1.00  0.00     0.016 A 
ATOM     35  C   UNL A   1      35.900  30.826  28.916  1.00  0.00     0.010 A 
ATOM     36  C   UNL A   1      37.120  32.882  28.450  1.00  0.00     0.010 A 
ATOM     37  C   UNL A   1      37.100  31.547  28.890  1.00  0.00    -0.014 A 
BRANCH  37  38
ATOM     38  C   UNL A   1      38.260  30.960  29.594  1.00  0.00     0.031 A 
ATOM     39  C   UNL A   1      38.465  31.340  31.035  1.00  0.00     0.074 A 
ATOM     40  C   UNL A   1      39.014  30.020  29.001  1.00  0.00     0.049 A 
ATOM     41  N   UNL A   1      39.348  30.907  31.894  1.00  0.00    -0.248 NA
ATOM     42  C   UNL A   1      37.535  32.342  31.585  1.00  0.00     0.031 C 
ATOM     43  C   UNL A   1      38.833  29.541  27.630  1.00  0.00     0.029 A 
ATOM     44  N   UNL A   1      40.060  29.282  29.481  1.00  0.00    -0.354 N 
ATOM     45  C   UNL A   1      39.078  31.578  33.083  1.00  0.00     0.074 A 
ATOM     46  C   UNL A   1      37.980  32.480  32.822  1.00  0.00     0.031 C 
ATOM     47  C   UNL A   1      39.735  28.576  27.385  1.00  0.00     0.029 A 
ATOM     48  C   UNL A   1      40.579  28.398  28.565  1.00  0.00     0.049 A 
ATOM     49  H   UNL A   1      40.410  29.375  30.397  1.00  0.00     0.167 HD
ATOM     50  C   UNL A   1      39.686  31.440  34.285  1.00  0.00     0.034 A 
ATOM     51  C   UNL A   1      41.626  27.557  28.672  1.00  0.00     0.034 A 
ATOM     52  C   UNL A   1      40.791  30.540  34.505  1.00  0.00     0.049 A 
ATOM     53  C   UNL A   1      42.350  27.491  29.996  1.00  0.00     0.074 A 
ATOM     54  C   UNL A   1      41.508  30.319  35.666  1.00  0.00     0.029 A 
ATOM     55  N   UNL A   1      41.346  29.718  33.530  1.00  0.00    -0.354 N 
ATOM     56  N   UNL A   1      42.095  28.136  31.112  1.00  0.00    -0.248 NA
ATOM     57  C   UNL A   1      43.490  26.573  30.077  1.00  0.00     0.031 C 
ATOM     58  C   UNL A   1      42.546  29.427  35.372  1.00  0.00     0.029 A 
ATOM     59  C   UNL A   1      42.420  29.016  34.053  1.00  0.00     0.049 A 
ATOM     60  H   UNL A   1      41.023  29.644  32.603  1.00  0.00     0.167 HD
ATOM     61  C   UNL A   1      43.030  27.682  32.038  1.00  0.00     0.074 A 
ATOM     62  C   UNL A   1      43.833  26.687  31.351  1.00  0.00     0.031 C 
ATOM     63  C   UNL A   1      43.215  28.045  33.334  1.00  0.00     0.034 A 
BRANCH  50  64
ATOM     64  C   UNL A   1      39.215  32.332  35.410  1.00  0.00     0.023 A 
ATOM     65  C   UNL A   1      39.644  33.666  35.538  1.00  0.00     0.031 A 
ATOM     66  C   UNL A   1      38.360  31.822  36.403  1.00  0.00     0.131 A 
ATOM     67  C   UNL A   1      39.278  34.416  36.668  1.00  0.00     0.055 A 
ATOM     68  C   UNL A   1      37.931  32.600  37.481  1.00  0.00     0.041 A 
ATOM     69  F   UNL A   1      37.942  30.547  36.357  1.00  0.00    -0.206 F 
ATOM     70  C   UNL A   1      38.403  33.901  37.626  1.00  0.00     0.022 A 
BRANCH  67  71
ATOM     71  S   UNL A   1      40.086  36.017  36.950  1.00  0.00     0.124 S 
ATOM     72  O   UNL A   1      39.919  36.664  35.652  1.00  0.00    -0.237 OA
ATOM     73  O   UNL A   1      39.305  36.574  38.049  1.00  0.00    -0.237 OA
ATOM     74  O   UNL A   1      41.462  35.654  37.284  1.00  0.00    -0.744 OA
ENDBRANCH  67  71
ENDBRANCH  50  64
BRANCH  51  75
ATOM     75  C   UNL A   1      42.073  26.748  27.501  1.00  0.00     0.023 A 
ATOM     76  C   UNL A   1      41.774  25.380  27.396  1.00  0.00     0.031 A 
ATOM     77  C   UNL A   1      42.856  27.329  26.485  1.00  0.00     0.131 A 
ATOM     78  C   UNL A   1      42.294  24.631  26.327  1.00  0.00     0.055 A 
ATOM     79  C   UNL A   1      43.319  26.592  25.393  1.00  0.00     0.041 A 
ATOM     80  F   UNL A   1      43.177  28.631  26.535  1.00  0.00    -0.206 F 
ATOM     81  C   UNL A   1      43.049  25.230  25.317  1.00  0.00     0.022 A 
BRANCH  78  82
ATOM     82  S   UNL A   1      42.048  22.833  26.326  1.00  0.00     0.124 S 
ATOM     83  O   UNL A   1      42.775  22.433  25.128  1.00  0.00    -0.237 OA
ATOM     84  O   UNL A   1      42.645  22.446  27.600  1.00  0.00    -0.237 OA
ATOM     85  O   UNL A   1      40.595  22.689  26.253  1.00  0.00    -0.744 OA
ENDBRANCH  78  82
ENDBRANCH  51  75
BRANCH  63  86
ATOM     86  C   UNL A   1      44.310  27.330  34.089  1.00  0.00     0.023 A 
ATOM     87  C   UNL A   1      45.611  27.855  34.173  1.00  0.00     0.031 A 
ATOM     88  C   UNL A   1      44.057  26.091  34.705  1.00  0.00     0.131 A 
ATOM     89  C   UNL A   1      46.627  27.107  34.781  1.00  0.00     0.055 A 
ATOM     90  C   UNL A   1      45.055  25.389  35.380  1.00  0.00     0.041 A 
ATOM     91  F   UNL A   1      42.833  25.539  34.655  1.00  0.00    -0.206 F 
ATOM     92  C   UNL A   1      46.354  25.887  35.405  1.00  0.00     0.022 A 
BRANCH  89  93
ATOM     93  S   UNL A   1      48.339  27.685  34.622  1.00  0.00     0.124 S 
ATOM     94  O   UNL A   1      48.216  28.709  33.590  1.00  0.00    -0.237 OA
ATOM     95  O   UNL A   1      48.631  28.168  35.967  1.00  0.00    -0.237 OA
ATOM     96  O   UNL A   1      49.070  26.484  34.221  1.00  0.00    -0.744 OA
ENDBRANCH  89  93
ENDBRANCH  63  86
ENDBRANCH  37  38
ENDBRANCH  30  32
ENDBRANCH  29  30
ENDBRANCH  28  29
ENDBRANCH  27  28
ENDBRANCH  26  27
ENDBRANCH   1  26
TORSDOF 23
ENDMDL
MODEL 3
REMARK VINA RESULT:     -10.8      4.429      9.960
REMARK SMILES CC[NH2+][C@]1(C(=O)OCCOCCOC(=O)c2ccc(-c3c4nc(c(-c5cc(S(=O)(=O)[O-])ccc5F)c5ccc([nH]5)c(-c5cc(S(=O)(=O)[O-])ccc5F)c5nc(c(-c6cc(S(=O)(=O)[O-])ccc6F)c6ccc3[nH]6)C=C5)C=C4)cc2)CCC[C@@H]1CCSc1ccc(C)cc1
REMARK SMILES IDX 9 1 8 2 7 3 5 4 6 5 4 6 79 7 82 8 80 9 81 10 3 11 2 14 1 15
REMARK SMILES IDX 83 16 84 17 85 18 86 19 87 20 92 21 88 22 91 23 89 24 90 25
REMARK SMILES IDX 10 26 11 27 12 28 13 29 14 30 15 31 16 32 17 33 78 34 18 35
REMARK SMILES IDX 77 36 19 37 20 38 21 39 71 40 22 41 76 42 70 43 72 44 23 45
REMARK SMILES IDX 75 46 69 47 68 48 24 50 56 51 36 52 55 53 37 54 40 55 54 56
REMARK SMILES IDX 73 57 38 58 39 59 53 61 74 62 41 63 25 64 26 65 34 66 27 67
REMARK SMILES IDX 33 68 35 69 32 70 28 71 29 72 30 73 31 74 57 75 58 76 66 77
REMARK SMILES IDX 59 78 65 79 67 80 64 81 60 82 61 83 62 84 63 85 42 86 43 87
REMARK SMILES IDX 51 88 44 89 50 90 52 91 49 92 45 93 46 94 47 95 48 96
REMARK H PARENT 3 12 3 13 72 49 40 60
REMARK Flexibility Score: inf
ROOT
ATOM      1  C   UNL A   1      36.033  23.211  24.775  1.00  0.00     0.202 C 
ENDROOT
BRANCH   1   2
ATOM      2  C   UNL A   1      34.665  23.604  24.242  1.00  0.00     0.261 C 
BRANCH   2   3
ATOM      3  O   UNL A   1      34.297  24.997  24.078  1.00  0.00    -0.459 OA
BRANCH   3   4
ATOM      4  C   UNL A   1      33.659  25.759  25.025  1.00  0.00     0.368 C 
ATOM      5  O   UNL A   1      34.072  25.888  26.166  1.00  0.00    -0.245 OA
BRANCH   4   6
ATOM      6  C   UNL A   1      32.543  26.701  24.448  1.00  0.00     0.197 C 
ATOM      7  C   UNL A   1      33.299  27.856  23.787  1.00  0.00     0.081 C 
ATOM      8  C   UNL A   1      31.905  25.967  23.315  1.00  0.00     0.063 C 
ATOM      9  C   UNL A   1      32.324  28.356  22.746  1.00  0.00     0.008 C 
ATOM     10  C   UNL A   1      31.472  27.115  22.359  1.00  0.00     0.011 C 
BRANCH   6  11
ATOM     11  N   UNL A   1      31.510  27.298  25.370  1.00  0.00    -0.332 N 
ATOM     12  H   UNL A   1      31.055  28.032  24.827  1.00  0.00     0.347 HD
ATOM     13  H   UNL A   1      31.017  26.453  25.659  1.00  0.00     0.347 HD
BRANCH  11  14
ATOM     14  C   UNL A   1      31.787  27.900  26.684  1.00  0.00     0.257 C 
ATOM     15  C   UNL A   1      31.732  29.433  26.709  1.00  0.00     0.071 C 
ENDBRANCH  11  14
ENDBRANCH   6  11
BRANCH   8  16
ATOM     16  C   UNL A   1      30.967  24.871  23.909  1.00  0.00     0.022 C 
BRANCH  16  17
ATOM     17  C   UNL A   1      31.119  23.244  23.640  1.00  0.00     0.075 C 
BRANCH  17  18
ATOM     18  S   UNL A   1      31.972  21.743  22.505  1.00  0.00    -0.126 SA
BRANCH  18  19
ATOM     19  C   UNL A   1      32.385  20.139  23.270  1.00  0.00     0.007 A 
ATOM     20  C   UNL A   1      32.701  20.024  24.635  1.00  0.00     0.015 A 
ATOM     21  C   UNL A   1      32.292  18.921  22.589  1.00  0.00     0.015 A 
ATOM     22  C   UNL A   1      33.369  18.892  25.148  1.00  0.00     0.004 A 
ATOM     23  C   UNL A   1      32.873  17.740  23.125  1.00  0.00     0.004 A 
ATOM     24  C   UNL A   1      33.565  17.778  24.340  1.00  0.00    -0.051 A 
ATOM     25  C   UNL A   1      34.621  16.759  24.681  1.00  0.00     0.044 C 
ENDBRANCH  18  19
ENDBRANCH  17  18
ENDBRANCH  16  17
ENDBRANCH   8  16
ENDBRANCH   4   6
ENDBRANCH   3   4
ENDBRANCH   2   3
ENDBRANCH   1   2
BRANCH   1  26
ATOM     26  O   UNL A   1      36.574  22.110  24.087  1.00  0.00    -0.374 OA
BRANCH  26  27
ATOM     27  C   UNL A   1      36.561  20.859  24.777  1.00  0.00     0.202 C 
BRANCH  27  28
ATOM     28  C   UNL A   1      37.893  20.204  25.217  1.00  0.00     0.261 C 
BRANCH  28  29
ATOM     29  O   UNL A   1      39.042  21.064  25.231  1.00  0.00    -0.460 OA
BRANCH  29  30
ATOM     30  C   UNL A   1      39.935  20.800  26.207  1.00  0.00     0.338 C 
ATOM     31  O   UNL A   1      40.591  19.776  26.340  1.00  0.00    -0.246 OA
BRANCH  30  32
ATOM     32  C   UNL A   1      40.175  22.039  26.960  1.00  0.00     0.060 A 
ATOM     33  C   UNL A   1      39.486  23.188  26.554  1.00  0.00     0.016 A 
ATOM     34  C   UNL A   1      41.093  22.083  28.012  1.00  0.00     0.016 A 
ATOM     35  C   UNL A   1      39.776  24.407  27.146  1.00  0.00     0.010 A 
ATOM     36  C   UNL A   1      41.398  23.314  28.597  1.00  0.00     0.010 A 
ATOM     37  C   UNL A   1      40.782  24.483  28.117  1.00  0.00    -0.014 A 
BRANCH  37  38
ATOM     38  C   UNL A   1      41.355  25.816  28.399  1.00  0.00     0.031 A 
ATOM     39  C   UNL A   1      42.724  26.116  27.851  1.00  0.00     0.074 A 
ATOM     40  C   UNL A   1      40.616  26.762  29.003  1.00  0.00     0.049 A 
ATOM     41  N   UNL A   1      43.410  27.226  27.886  1.00  0.00    -0.248 NA
ATOM     42  C   UNL A   1      43.407  25.009  27.160  1.00  0.00     0.031 C 
ATOM     43  C   UNL A   1      39.252  26.574  29.497  1.00  0.00     0.029 A 
ATOM     44  N   UNL A   1      40.898  28.072  29.279  1.00  0.00    -0.354 N 
ATOM     45  C   UNL A   1      44.601  26.953  27.219  1.00  0.00     0.074 A 
ATOM     46  C   UNL A   1      44.563  25.562  26.832  1.00  0.00     0.031 C 
ATOM     47  C   UNL A   1      38.810  27.735  30.006  1.00  0.00     0.029 A 
ATOM     48  C   UNL A   1      39.872  28.735  29.909  1.00  0.00     0.049 A 
ATOM     49  H   UNL A   1      41.754  28.500  29.049  1.00  0.00     0.167 HD
ATOM     50  C   UNL A   1      45.625  27.796  26.946  1.00  0.00     0.034 A 
ATOM     51  C   UNL A   1      39.813  30.002  30.365  1.00  0.00     0.034 A 
ATOM     52  C   UNL A   1      45.637  29.176  27.362  1.00  0.00     0.049 A 
ATOM     53  C   UNL A   1      41.007  30.896  30.132  1.00  0.00     0.074 A 
ATOM     54  C   UNL A   1      46.618  30.130  27.167  1.00  0.00     0.029 A 
ATOM     55  N   UNL A   1      44.614  29.795  28.072  1.00  0.00    -0.354 N 
ATOM     56  N   UNL A   1      42.134  30.627  29.509  1.00  0.00    -0.248 NA
ATOM     57  C   UNL A   1      40.916  32.264  30.649  1.00  0.00     0.031 C 
ATOM     58  C   UNL A   1      46.226  31.299  27.829  1.00  0.00     0.029 A 
ATOM     59  C   UNL A   1      44.957  31.107  28.357  1.00  0.00     0.049 A 
ATOM     60  H   UNL A   1      43.768  29.364  28.335  1.00  0.00     0.167 HD
ATOM     61  C   UNL A   1      42.876  31.805  29.538  1.00  0.00     0.074 A 
ATOM     62  C   UNL A   1      42.052  32.789  30.215  1.00  0.00     0.031 C 
ATOM     63  C   UNL A   1      44.120  32.059  29.053  1.00  0.00     0.034 A 
BRANCH  50  64
ATOM     64  C   UNL A   1      46.829  27.221  26.235  1.00  0.00     0.023 A 
ATOM     65  C   UNL A   1      47.904  26.640  26.933  1.00  0.00     0.031 A 
ATOM     66  C   UNL A   1      46.926  27.302  24.834  1.00  0.00     0.131 A 
ATOM     67  C   UNL A   1      49.054  26.233  26.237  1.00  0.00     0.055 A 
ATOM     68  C   UNL A   1      48.037  26.819  24.140  1.00  0.00     0.041 A 
ATOM     69  F   UNL A   1      45.948  27.875  24.113  1.00  0.00    -0.206 F 
ATOM     70  C   UNL A   1      49.117  26.294  24.843  1.00  0.00     0.022 A 
BRANCH  67  71
ATOM     71  S   UNL A   1      50.530  25.771  27.188  1.00  0.00     0.124 S 
ATOM     72  O   UNL A   1      50.446  26.684  28.324  1.00  0.00    -0.237 OA
ATOM     73  O   UNL A   1      50.288  24.362  27.478  1.00  0.00    -0.237 OA
ATOM     74  O   UNL A   1      51.631  26.038  26.264  1.00  0.00    -0.744 OA
ENDBRANCH  67  71
ENDBRANCH  50  64
BRANCH  51  75
ATOM     75  C   UNL A   1      38.615  30.485  31.111  1.00  0.00     0.023 A 
ATOM     76  C   UNL A   1      37.551  31.126  30.456  1.00  0.00     0.031 A 
ATOM     77  C   UNL A   1      38.540  30.355  32.511  1.00  0.00     0.131 A 
ATOM     78  C   UNL A   1      36.484  31.653  31.204  1.00  0.00     0.055 A 
ATOM     79  C   UNL A   1      37.449  30.826  33.242  1.00  0.00     0.041 A 
ATOM     80  F   UNL A   1      39.530  29.755  33.191  1.00  0.00    -0.206 F 
ATOM     81  C   UNL A   1      36.418  31.493  32.589  1.00  0.00     0.022 A 
BRANCH  78  82
ATOM     82  S   UNL A   1      35.226  32.640  30.346  1.00  0.00     0.124 S 
ATOM     83  O   UNL A   1      34.197  32.766  31.371  1.00  0.00    -0.237 OA
ATOM     84  O   UNL A   1      35.965  33.856  30.024  1.00  0.00    -0.237 OA
ATOM     85  O   UNL A   1      34.868  31.809  29.198  1.00  0.00    -0.744 OA
ENDBRANCH  78  82
ENDBRANCH  51  75
BRANCH  63  86
ATOM     86  C   UNL A   1      44.637  33.468  29.216  1.00  0.00     0.023 A 
ATOM     87  C   UNL A   1      44.165  34.522  28.416  1.00  0.00     0.031 A 
ATOM     88  C   UNL A   1      45.638  33.753  30.161  1.00  0.00     0.131 A 
ATOM     89  C   UNL A   1      44.753  35.791  28.516  1.00  0.00     0.055 A 
ATOM     90  C   UNL A   1      46.161  35.037  30.313  1.00  0.00     0.041 A 
ATOM     91  F   UNL A   1      46.129  32.784  30.952  1.00  0.00    -0.206 F 
ATOM     92  C   UNL A   1      45.732  36.061  29.474  1.00  0.00     0.022 A 
BRANCH  89  93
ATOM     93  S   UNL A   1      44.317  37.045  27.281  1.00  0.00     0.124 S 
ATOM     94  O   UNL A   1      45.597  37.272  26.618  1.00  0.00    -0.237 OA
ATOM     95  O   UNL A   1      43.301  36.362  26.487  1.00  0.00    -0.237 OA
ATOM     96  O   UNL A   1      43.828  38.163  28.086  1.00  0.00    -0.744 OA
ENDBRANCH  89  93
ENDBRANCH  63  86
ENDBRANCH  37  38
ENDBRANCH  30  32
ENDBRANCH  29  30
ENDBRANCH  28  29
ENDBRANCH  27  28
ENDBRANCH  26  27
ENDBRANCH   1  26
TORSDOF 23
ENDMDL
