MODEL 1
REMARK VINA RESULT:     -10.5      0.000      0.000
REMARK SMILES CCCc1c(C(=O)OCCOCCOC(=O)c2ccc(-c3c4nc(c(-c5cc(S(=O)(=O)[O-])ccc5F)c5ccc([nH]5)c(-c5cc(S(=O)(=O)[O-])ccc5F)c5nc(c(-c6cc(S(=O)(=O)[O-])ccc6F)c6ccc3[nH]6)C=C5)C=C4)cc2)nnn1[C@@H](C)[C@H](C)O
REMARK SMILES IDX 11 1 10 2 9 3 8 4 6 5 7 6 5 7 4 8 82 9 80 10 81 11 3 12 2 13
REMARK SMILES IDX 1 14 83 15 84 16 85 17 86 18 87 19 12 21 13 22 14 23 15 24
REMARK SMILES IDX 16 25 17 26 18 27 79 28 19 29 78 30 20 31 21 32 22 33 72 34
REMARK SMILES IDX 23 35 77 36 71 37 73 38 24 39 76 40 70 41 69 42 25 44 57 45
REMARK SMILES IDX 37 46 56 47 38 48 41 49 55 50 74 51 39 52 40 53 54 55 75 56
REMARK SMILES IDX 42 57 26 58 27 59 35 60 28 61 34 62 36 63 33 64 29 65 30 66
REMARK SMILES IDX 31 67 32 68 58 69 59 70 67 71 60 72 66 73 68 74 65 75 61 76
REMARK SMILES IDX 62 77 63 78 64 79 43 80 44 81 52 82 45 83 51 84 53 85 50 86
REMARK SMILES IDX 46 87 47 88 48 89 49 90
REMARK H PARENT 87 20 73 43 41 54
REMARK Flexibility Score: inf
ROOT
ATOM      1  O   UNL A   1      31.934  31.024  26.135  1.00  0.00    -0.374 OA
ENDROOT
BRANCH   1   2
ATOM      2  C   UNL A   1      31.080  30.171  25.375  1.00  0.00     0.202 C 
BRANCH   2   3
ATOM      3  C   UNL A   1      31.662  28.840  24.888  1.00  0.00     0.261 C 
BRANCH   3   4
ATOM      4  O   UNL A   1      31.387  27.746  25.782  1.00  0.00    -0.458 OA
BRANCH   4   5
ATOM      5  C   UNL A   1      30.814  26.652  25.189  1.00  0.00     0.360 C 
ATOM      6  O   UNL A   1      29.995  26.715  24.281  1.00  0.00    -0.244 OA
BRANCH   5   7
ATOM      7  C   UNL A   1      31.366  25.380  25.645  1.00  0.00     0.193 A 
ATOM      8  C   UNL A   1      32.178  24.433  25.024  1.00  0.00     0.074 A 
ATOM      9  N   UNL A   1      32.369  23.492  26.020  1.00  0.00    -0.243 N 
ATOM     10  N   UNL A   1      31.072  24.952  26.920  1.00  0.00    -0.123 NA
ATOM     11  N   UNL A   1      31.647  23.784  27.117  1.00  0.00    -0.066 NA
BRANCH   8  12
ATOM     12  C   UNL A   1      32.730  24.336  23.634  1.00  0.00     0.058 C 
BRANCH  12  13
ATOM     13  C   UNL A   1      33.824  25.350  23.264  1.00  0.00     0.003 C 
ATOM     14  C   UNL A   1      33.364  26.546  22.434  1.00  0.00     0.004 C 
ENDBRANCH  12  13
ENDBRANCH   8  12
BRANCH   9  15
ATOM     15  C   UNL A   1      33.437  22.502  26.158  1.00  0.00     0.135 C 
ATOM     16  C   UNL A   1      34.170  22.764  27.481  1.00  0.00     0.036 C 
BRANCH  15  17
ATOM     17  C   UNL A   1      32.954  21.052  25.963  1.00  0.00     0.135 C 
ATOM     18  C   UNL A   1      33.609  20.355  24.770  1.00  0.00     0.040 C 
BRANCH  17  19
ATOM     19  O   UNL A   1      31.537  21.065  25.734  1.00  0.00    -0.391 OA
ATOM     20  H   UNL A   1      31.319  21.758  25.091  1.00  0.00     0.211 HD
ENDBRANCH  17  19
ENDBRANCH  15  17
ENDBRANCH   9  15
ENDBRANCH   5   7
ENDBRANCH   4   5
ENDBRANCH   3   4
ENDBRANCH   2   3
ENDBRANCH   1   2
BRANCH   1  21
ATOM     21  C   UNL A   1      32.987  30.446  26.898  1.00  0.00     0.202 C 
BRANCH  21  22
ATOM     22  C   UNL A   1      33.892  31.370  27.702  1.00  0.00     0.261 C 
BRANCH  22  23
ATOM     23  O   UNL A   1      35.279  31.091  27.548  1.00  0.00    -0.460 OA
BRANCH  23  24
ATOM     24  C   UNL A   1      36.044  31.610  28.542  1.00  0.00     0.338 C 
ATOM     25  O   UNL A   1      35.785  32.579  29.230  1.00  0.00    -0.246 OA
BRANCH  24  26
ATOM     26  C   UNL A   1      37.334  30.908  28.565  1.00  0.00     0.060 A 
ATOM     27  C   UNL A   1      37.391  29.652  27.958  1.00  0.00     0.016 A 
ATOM     28  C   UNL A   1      38.377  31.382  29.374  1.00  0.00     0.016 A 
ATOM     29  C   UNL A   1      38.431  28.806  28.290  1.00  0.00     0.010 A 
ATOM     30  C   UNL A   1      39.403  30.530  29.719  1.00  0.00     0.010 A 
ATOM     31  C   UNL A   1      39.388  29.227  29.227  1.00  0.00    -0.014 A 
BRANCH  31  32
ATOM     32  C   UNL A   1      40.520  28.357  29.499  1.00  0.00     0.031 A 
ATOM     33  C   UNL A   1      40.830  28.340  30.947  1.00  0.00     0.074 A 
ATOM     34  C   UNL A   1      41.128  27.581  28.576  1.00  0.00     0.049 A 
ATOM     35  N   UNL A   1      41.830  28.910  31.530  1.00  0.00    -0.248 NA
ATOM     36  C   UNL A   1      39.793  27.864  31.882  1.00  0.00     0.031 C 
ATOM     37  C   UNL A   1      40.746  27.387  27.177  1.00  0.00     0.029 A 
ATOM     38  N   UNL A   1      42.186  26.729  28.715  1.00  0.00    -0.354 N 
ATOM     39  C   UNL A   1      41.703  28.577  32.869  1.00  0.00     0.074 A 
ATOM     40  C   UNL A   1      40.333  28.194  33.057  1.00  0.00     0.031 C 
ATOM     41  C   UNL A   1      41.416  26.325  26.667  1.00  0.00     0.029 A 
ATOM     42  C   UNL A   1      42.361  25.830  27.658  1.00  0.00     0.049 A 
ATOM     43  H   UNL A   1      42.782  26.748  29.500  1.00  0.00     0.167 HD
ATOM     44  C   UNL A   1      42.815  28.300  33.604  1.00  0.00     0.034 A 
ATOM     45  C   UNL A   1      43.191  24.744  27.611  1.00  0.00     0.034 A 
ATOM     46  C   UNL A   1      43.994  28.871  32.985  1.00  0.00     0.049 A 
ATOM     47  C   UNL A   1      44.251  24.973  28.623  1.00  0.00     0.074 A 
ATOM     48  C   UNL A   1      44.343  30.144  32.569  1.00  0.00     0.029 A 
ATOM     49  N   UNL A   1      44.855  28.021  32.328  1.00  0.00    -0.354 N 
ATOM     50  N   UNL A   1      45.143  25.917  28.514  1.00  0.00    -0.248 NA
ATOM     51  C   UNL A   1      44.011  24.507  29.980  1.00  0.00     0.031 C 
ATOM     52  C   UNL A   1      45.035  29.953  31.335  1.00  0.00     0.029 A 
ATOM     53  C   UNL A   1      45.173  28.582  31.115  1.00  0.00     0.049 A 
ATOM     54  H   UNL A   1      45.186  27.159  32.670  1.00  0.00     0.167 HD
ATOM     55  C   UNL A   1      45.213  26.485  29.776  1.00  0.00     0.074 A 
ATOM     56  C   UNL A   1      44.572  25.511  30.660  1.00  0.00     0.031 C 
ATOM     57  C   UNL A   1      45.514  27.810  29.932  1.00  0.00     0.034 A 
BRANCH  44  58
ATOM     58  C   UNL A   1      42.882  27.158  34.597  1.00  0.00     0.023 A 
ATOM     59  C   UNL A   1      43.621  26.024  34.219  1.00  0.00     0.031 A 
ATOM     60  C   UNL A   1      42.045  26.993  35.730  1.00  0.00     0.131 A 
ATOM     61  C   UNL A   1      43.442  24.796  34.878  1.00  0.00     0.055 A 
ATOM     62  C   UNL A   1      41.923  25.787  36.422  1.00  0.00     0.041 A 
ATOM     63  F   UNL A   1      41.225  27.947  36.182  1.00  0.00    -0.206 F 
ATOM     64  C   UNL A   1      42.600  24.669  35.978  1.00  0.00     0.022 A 
BRANCH  61  65
ATOM     65  S   UNL A   1      44.198  23.319  34.157  1.00  0.00     0.124 S 
ATOM     66  O   UNL A   1      44.239  22.425  35.309  1.00  0.00    -0.237 OA
ATOM     67  O   UNL A   1      43.244  22.979  33.107  1.00  0.00    -0.237 OA
ATOM     68  O   UNL A   1      45.496  23.799  33.689  1.00  0.00    -0.744 OA
ENDBRANCH  61  65
ENDBRANCH  44  58
BRANCH  45  69
ATOM     69  C   UNL A   1      42.947  23.398  26.999  1.00  0.00     0.023 A 
ATOM     70  C   UNL A   1      43.847  22.766  26.102  1.00  0.00     0.031 A 
ATOM     71  C   UNL A   1      41.918  22.584  27.523  1.00  0.00     0.131 A 
ATOM     72  C   UNL A   1      43.698  21.391  25.780  1.00  0.00     0.055 A 
ATOM     73  C   UNL A   1      41.781  21.231  27.206  1.00  0.00     0.041 A 
ATOM     74  F   UNL A   1      41.060  23.054  28.442  1.00  0.00    -0.206 F 
ATOM     75  C   UNL A   1      42.677  20.624  26.343  1.00  0.00     0.022 A 
BRANCH  72  76
ATOM     76  S   UNL A   1      44.887  20.531  24.685  1.00  0.00     0.124 S 
ATOM     77  O   UNL A   1      46.158  20.752  25.364  1.00  0.00    -0.237 OA
ATOM     78  O   UNL A   1      44.381  19.164  24.676  1.00  0.00    -0.237 OA
ATOM     79  O   UNL A   1      44.748  21.237  23.408  1.00  0.00    -0.744 OA
ENDBRANCH  72  76
ENDBRANCH  45  69
BRANCH  57  80
ATOM     80  C   UNL A   1      46.089  28.557  28.737  1.00  0.00     0.023 A 
ATOM     81  C   UNL A   1      47.454  28.586  28.360  1.00  0.00     0.031 A 
ATOM     82  C   UNL A   1      45.180  29.239  27.907  1.00  0.00     0.131 A 
ATOM     83  C   UNL A   1      47.861  29.308  27.218  1.00  0.00     0.055 A 
ATOM     84  C   UNL A   1      45.582  29.926  26.763  1.00  0.00     0.041 A 
ATOM     85  F   UNL A   1      43.867  29.237  28.190  1.00  0.00    -0.206 F 
ATOM     86  C   UNL A   1      46.927  29.974  26.421  1.00  0.00     0.022 A 
BRANCH  83  87
ATOM     87  S   UNL A   1      49.626  29.448  26.775  1.00  0.00     0.124 S 
ATOM     88  O   UNL A   1      49.766  28.551  25.635  1.00  0.00    -0.237 OA
ATOM     89  O   UNL A   1      49.766  30.873  26.488  1.00  0.00    -0.237 OA
ATOM     90  O   UNL A   1      50.316  29.003  27.989  1.00  0.00    -0.744 OA
ENDBRANCH  83  87
ENDBRANCH  57  80
ENDBRANCH  31  32
ENDBRANCH  24  26
ENDBRANCH  23  24
ENDBRANCH  22  23
ENDBRANCH  21  22
ENDBRANCH   1  21
TORSDOF 22
ENDMDL
MODEL 2
REMARK VINA RESULT:     -10.1      3.890      6.060
REMARK SMILES CCCc1c(C(=O)OCCOCCOC(=O)c2ccc(-c3c4nc(c(-c5cc(S(=O)(=O)[O-])ccc5F)c5ccc([nH]5)c(-c5cc(S(=O)(=O)[O-])ccc5F)c5nc(c(-c6cc(S(=O)(=O)[O-])ccc6F)c6ccc3[nH]6)C=C5)C=C4)cc2)nnn1[C@@H](C)[C@H](C)O
REMARK SMILES IDX 11 1 10 2 9 3 8 4 6 5 7 6 5 7 4 8 82 9 80 10 81 11 3 12 2 13
REMARK SMILES IDX 1 14 83 15 84 16 85 17 86 18 87 19 12 21 13 22 14 23 15 24
REMARK SMILES IDX 16 25 17 26 18 27 79 28 19 29 78 30 20 31 21 32 22 33 72 34
REMARK SMILES IDX 23 35 77 36 71 37 73 38 24 39 76 40 70 41 69 42 25 44 57 45
REMARK SMILES IDX 37 46 56 47 38 48 41 49 55 50 74 51 39 52 40 53 54 55 75 56
REMARK SMILES IDX 42 57 26 58 27 59 35 60 28 61 34 62 36 63 33 64 29 65 30 66
REMARK SMILES IDX 31 67 32 68 58 69 59 70 67 71 60 72 66 73 68 74 65 75 61 76
REMARK SMILES IDX 62 77 63 78 64 79 43 80 44 81 52 82 45 83 51 84 53 85 50 86
REMARK SMILES IDX 46 87 47 88 48 89 49 90
REMARK H PARENT 87 20 73 43 41 54
REMARK Flexibility Score: inf
ROOT
ATOM      1  O   UNL A   1      33.828  34.501  28.796  1.00  0.00    -0.374 OA
ENDROOT
BRANCH   1   2
ATOM      2  C   UNL A   1      33.748  34.049  30.146  1.00  0.00     0.202 C 
BRANCH   2   3
ATOM      3  C   UNL A   1      33.681  35.115  31.245  1.00  0.00     0.261 C 
BRANCH   3   4
ATOM      4  O   UNL A   1      34.659  34.915  32.283  1.00  0.00    -0.458 OA
BRANCH   4   5
ATOM      5  C   UNL A   1      34.305  33.991  33.232  1.00  0.00     0.360 C 
ATOM      6  O   UNL A   1      33.220  33.426  33.266  1.00  0.00    -0.244 OA
BRANCH   5   7
ATOM      7  C   UNL A   1      35.392  33.634  34.137  1.00  0.00     0.193 A 
ATOM      8  C   UNL A   1      36.574  32.919  33.947  1.00  0.00     0.074 A 
ATOM      9  N   UNL A   1      37.175  32.985  35.192  1.00  0.00    -0.243 N 
ATOM     10  N   UNL A   1      35.315  34.034  35.452  1.00  0.00    -0.123 NA
ATOM     11  N   UNL A   1      36.379  33.592  36.091  1.00  0.00    -0.066 NA
BRANCH   8  12
ATOM     12  C   UNL A   1      37.134  32.194  32.762  1.00  0.00     0.058 C 
BRANCH  12  13
ATOM     13  C   UNL A   1      38.236  32.922  31.976  1.00  0.00     0.003 C 
ATOM     14  C   UNL A   1      38.143  34.446  31.963  1.00  0.00     0.004 C 
ENDBRANCH  12  13
ENDBRANCH   8  12
BRANCH   9  15
ATOM     15  C   UNL A   1      38.585  32.817  35.543  1.00  0.00     0.135 C 
ATOM     16  C   UNL A   1      39.032  34.046  36.347  1.00  0.00     0.036 C 
BRANCH  15  17
ATOM     17  C   UNL A   1      38.891  31.462  36.210  1.00  0.00     0.135 C 
ATOM     18  C   UNL A   1      39.429  30.418  35.231  1.00  0.00     0.040 C 
BRANCH  17  19
ATOM     19  O   UNL A   1      37.679  30.942  36.776  1.00  0.00    -0.391 OA
ATOM     20  H   UNL A   1      37.111  30.599  36.068  1.00  0.00     0.211 HD
ENDBRANCH  17  19
ENDBRANCH  15  17
ENDBRANCH   9  15
ENDBRANCH   5   7
ENDBRANCH   4   5
ENDBRANCH   3   4
ENDBRANCH   2   3
ENDBRANCH   1   2
BRANCH   1  21
ATOM     21  C   UNL A   1      35.108  34.638  28.187  1.00  0.00     0.202 C 
BRANCH  21  22
ATOM     22  C   UNL A   1      36.242  33.745  28.672  1.00  0.00     0.261 C 
BRANCH  22  23
ATOM     23  O   UNL A   1      36.522  32.651  27.805  1.00  0.00    -0.460 OA
BRANCH  23  24
ATOM     24  C   UNL A   1      36.239  31.444  28.358  1.00  0.00     0.338 C 
ATOM     25  O   UNL A   1      35.200  31.116  28.899  1.00  0.00    -0.246 OA
BRANCH  24  26
ATOM     26  C   UNL A   1      37.454  30.620  28.348  1.00  0.00     0.060 A 
ATOM     27  C   UNL A   1      37.310  29.269  28.025  1.00  0.00     0.016 A 
ATOM     28  C   UNL A   1      38.650  31.125  28.877  1.00  0.00     0.016 A 
ATOM     29  C   UNL A   1      38.318  28.394  28.381  1.00  0.00     0.010 A 
ATOM     30  C   UNL A   1      39.647  30.249  29.248  1.00  0.00     0.010 A 
ATOM     31  C   UNL A   1      39.446  28.884  29.057  1.00  0.00    -0.014 A 
BRANCH  31  32
ATOM     32  C   UNL A   1      40.534  27.965  29.346  1.00  0.00     0.031 A 
ATOM     33  C   UNL A   1      40.870  27.989  30.788  1.00  0.00     0.074 A 
ATOM     34  C   UNL A   1      41.080  27.118  28.447  1.00  0.00     0.049 A 
ATOM     35  N   UNL A   1      41.911  28.526  31.329  1.00  0.00    -0.248 NA
ATOM     36  C   UNL A   1      39.826  27.610  31.760  1.00  0.00     0.031 C 
ATOM     37  C   UNL A   1      40.661  26.889  27.063  1.00  0.00     0.029 A 
ATOM     38  N   UNL A   1      42.092  26.214  28.603  1.00  0.00    -0.354 N 
ATOM     39  C   UNL A   1      41.792  28.256  32.684  1.00  0.00     0.074 A 
ATOM     40  C   UNL A   1      40.406  27.957  32.911  1.00  0.00     0.031 C 
ATOM     41  C   UNL A   1      41.262  25.771  26.588  1.00  0.00     0.029 A 
ATOM     42  C   UNL A   1      42.196  25.265  27.582  1.00  0.00     0.049 A 
ATOM     43  H   UNL A   1      42.702  26.232  29.376  1.00  0.00     0.167 HD
ATOM     44  C   UNL A   1      42.900  27.947  33.411  1.00  0.00     0.034 A 
ATOM     45  C   UNL A   1      42.964  24.133  27.567  1.00  0.00     0.034 A 
ATOM     46  C   UNL A   1      44.097  28.426  32.748  1.00  0.00     0.049 A 
ATOM     47  C   UNL A   1      44.054  24.344  28.550  1.00  0.00     0.074 A 
ATOM     48  C   UNL A   1      44.508  29.659  32.273  1.00  0.00     0.029 A 
ATOM     49  N   UNL A   1      44.897  27.502  32.113  1.00  0.00    -0.354 N 
ATOM     50  N   UNL A   1      44.995  25.231  28.386  1.00  0.00    -0.248 NA
ATOM     51  C   UNL A   1      43.816  23.947  29.929  1.00  0.00     0.031 C 
ATOM     52  C   UNL A   1      45.164  29.379  31.037  1.00  0.00     0.029 A 
ATOM     53  C   UNL A   1      45.222  27.994  30.872  1.00  0.00     0.049 A 
ATOM     54  H   UNL A   1      45.186  26.638  32.485  1.00  0.00     0.167 HD
ATOM     55  C   UNL A   1      45.121  25.845  29.622  1.00  0.00     0.074 A 
ATOM     56  C   UNL A   1      44.444  24.945  30.557  1.00  0.00     0.031 C 
ATOM     57  C   UNL A   1      45.497  27.156  29.717  1.00  0.00     0.034 A 
BRANCH  44  58
ATOM     58  C   UNL A   1      42.924  26.844  34.449  1.00  0.00     0.023 A 
ATOM     59  C   UNL A   1      43.678  25.698  34.149  1.00  0.00     0.031 A 
ATOM     60  C   UNL A   1      42.038  26.723  35.550  1.00  0.00     0.131 A 
ATOM     61  C   UNL A   1      43.469  24.496  34.846  1.00  0.00     0.055 A 
ATOM     62  C   UNL A   1      41.885  25.545  36.283  1.00  0.00     0.041 A 
ATOM     63  F   UNL A   1      41.199  27.693  35.928  1.00  0.00    -0.206 F 
ATOM     64  C   UNL A   1      42.580  24.411  35.913  1.00  0.00     0.022 A 
BRANCH  61  65
ATOM     65  S   UNL A   1      44.255  22.993  34.217  1.00  0.00     0.124 S 
ATOM     66  O   UNL A   1      44.283  22.160  35.415  1.00  0.00    -0.237 OA
ATOM     67  O   UNL A   1      43.325  22.587  33.169  1.00  0.00    -0.237 OA
ATOM     68  O   UNL A   1      45.556  23.464  33.749  1.00  0.00    -0.744 OA
ENDBRANCH  61  65
ENDBRANCH  44  58
BRANCH  45  69
ATOM     69  C   UNL A   1      42.634  22.779  27.016  1.00  0.00     0.023 A 
ATOM     70  C   UNL A   1      43.552  21.982  26.283  1.00  0.00     0.031 A 
ATOM     71  C   UNL A   1      41.460  22.128  27.456  1.00  0.00     0.131 A 
ATOM     72  C   UNL A   1      43.279  20.611  26.033  1.00  0.00     0.055 A 
ATOM     73  C   UNL A   1      41.200  20.778  27.211  1.00  0.00     0.041 A 
ATOM     74  F   UNL A   1      40.561  22.761  28.225  1.00  0.00    -0.206 F 
ATOM     75  C   UNL A   1      42.113  20.010  26.509  1.00  0.00     0.022 A 
BRANCH  72  76
ATOM     76  S   UNL A   1      44.477  19.541  25.156  1.00  0.00     0.124 S 
ATOM     77  O   UNL A   1      45.757  20.134  25.523  1.00  0.00    -0.237 OA
ATOM     78  O   UNL A   1      44.188  18.221  25.706  1.00  0.00    -0.237 OA
ATOM     79  O   UNL A   1      44.112  19.703  23.746  1.00  0.00    -0.744 OA
ENDBRANCH  72  76
ENDBRANCH  45  69
BRANCH  57  80
ATOM     80  C   UNL A   1      46.089  27.821  28.482  1.00  0.00     0.023 A 
ATOM     81  C   UNL A   1      47.440  27.733  28.065  1.00  0.00     0.031 A 
ATOM     82  C   UNL A   1      45.209  28.545  27.657  1.00  0.00     0.131 A 
ATOM     83  C   UNL A   1      47.865  28.387  26.889  1.00  0.00     0.055 A 
ATOM     84  C   UNL A   1      45.626  29.164  26.480  1.00  0.00     0.041 A 
ATOM     85  F   UNL A   1      43.909  28.653  27.978  1.00  0.00    -0.206 F 
ATOM     86  C   UNL A   1      46.959  29.098  26.098  1.00  0.00     0.022 A 
BRANCH  83  87
ATOM     87  S   UNL A   1      49.621  28.377  26.391  1.00  0.00     0.124 S 
ATOM     88  O   UNL A   1      50.060  27.024  26.708  1.00  0.00    -0.237 OA
ATOM     89  O   UNL A   1      49.546  28.707  24.970  1.00  0.00    -0.237 OA
ATOM     90  O   UNL A   1      50.215  29.423  27.226  1.00  0.00    -0.744 OA
ENDBRANCH  83  87
ENDBRANCH  57  80
ENDBRANCH  31  32
ENDBRANCH  24  26
ENDBRANCH  23  24
ENDBRANCH  22  23
ENDBRANCH  21  22
ENDBRANCH   1  21
TORSDOF 22
ENDMDL
MODEL 3
REMARK VINA RESULT:     -10.0      2.827      7.378
REMARK SMILES CCCc1c(C(=O)OCCOCCOC(=O)c2ccc(-c3c4nc(c(-c5cc(S(=O)(=O)[O-])ccc5F)c5ccc([nH]5)c(-c5cc(S(=O)(=O)[O-])ccc5F)c5nc(c(-c6cc(S(=O)(=O)[O-])ccc6F)c6ccc3[nH]6)C=C5)C=C4)cc2)nnn1[C@@H](C)[C@H](C)O
REMARK SMILES IDX 11 1 10 2 9 3 8 4 6 5 7 6 5 7 4 8 82 9 80 10 81 11 3 12 2 13
REMARK SMILES IDX 1 14 83 15 84 16 85 17 86 18 87 19 12 21 13 22 14 23 15 24
REMARK SMILES IDX 16 25 17 26 18 27 79 28 19 29 78 30 20 31 21 32 22 33 72 34
REMARK SMILES IDX 23 35 77 36 71 37 73 38 24 39 76 40 70 41 69 42 25 44 57 45
REMARK SMILES IDX 37 46 56 47 38 48 41 49 55 50 74 51 39 52 40 53 54 55 75 56
REMARK SMILES IDX 42 57 26 58 27 59 35 60 28 61 34 62 36 63 33 64 29 65 30 66
REMARK SMILES IDX 31 67 32 68 58 69 59 70 67 71 60 72 66 73 68 74 65 75 61 76
REMARK SMILES IDX 62 77 63 78 64 79 43 80 44 81 52 82 45 83 51 84 53 85 50 86
REMARK SMILES IDX 46 87 47 88 48 89 49 90
REMARK H PARENT 87 20 73 43 41 54
REMARK Flexibility Score: inf
ROOT
ATOM      1  O   UNL A   1      33.754  31.669  28.209  1.00  0.00    -0.374 OA
ENDROOT
BRANCH   1   2
ATOM      2  C   UNL A   1      33.353  30.921  27.063  1.00  0.00     0.202 C 
BRANCH   2   3
ATOM      3  C   UNL A   1      31.886  31.023  26.631  1.00  0.00     0.261 C 
BRANCH   3   4
ATOM      4  O   UNL A   1      31.486  29.960  25.745  1.00  0.00    -0.458 OA
BRANCH   4   5
ATOM      5  C   UNL A   1      31.650  28.699  26.254  1.00  0.00     0.360 C 
ATOM      6  O   UNL A   1      31.378  28.384  27.405  1.00  0.00    -0.244 OA
BRANCH   5   7
ATOM      7  C   UNL A   1      32.059  27.713  25.259  1.00  0.00     0.193 A 
ATOM      8  C   UNL A   1      31.432  26.575  24.753  1.00  0.00     0.074 A 
ATOM      9  N   UNL A   1      32.337  26.120  23.810  1.00  0.00    -0.243 N 
ATOM     10  N   UNL A   1      33.290  27.852  24.658  1.00  0.00    -0.123 NA
ATOM     11  N   UNL A   1      33.465  26.854  23.817  1.00  0.00    -0.066 NA
BRANCH   8  12
ATOM     12  C   UNL A   1      30.136  25.904  25.092  1.00  0.00     0.058 C 
BRANCH  12  13
ATOM     13  C   UNL A   1      30.159  24.950  26.297  1.00  0.00     0.003 C 
ATOM     14  C   UNL A   1      31.491  24.253  26.565  1.00  0.00     0.004 C 
ENDBRANCH  12  13
ENDBRANCH   8  12
BRANCH   9  15
ATOM     15  C   UNL A   1      32.106  25.249  22.658  1.00  0.00     0.135 C 
ATOM     16  C   UNL A   1      32.931  25.779  21.478  1.00  0.00     0.036 C 
BRANCH  15  17
ATOM     17  C   UNL A   1      32.314  23.754  22.973  1.00  0.00     0.135 C 
ATOM     18  C   UNL A   1      33.432  23.117  22.148  1.00  0.00     0.040 C 
BRANCH  17  19
ATOM     19  O   UNL A   1      31.100  23.048  22.678  1.00  0.00    -0.391 OA
ATOM     20  H   UNL A   1      30.439  23.669  22.332  1.00  0.00     0.211 HD
ENDBRANCH  17  19
ENDBRANCH  15  17
ENDBRANCH   9  15
ENDBRANCH   5   7
ENDBRANCH   4   5
ENDBRANCH   3   4
ENDBRANCH   2   3
ENDBRANCH   1   2
BRANCH   1  21
ATOM     21  C   UNL A   1      34.928  32.472  28.135  1.00  0.00     0.202 C 
BRANCH  21  22
ATOM     22  C   UNL A   1      36.214  31.934  28.748  1.00  0.00     0.261 C 
BRANCH  22  23
ATOM     23  O   UNL A   1      36.714  30.768  28.102  1.00  0.00    -0.460 OA
BRANCH  23  24
ATOM     24  C   UNL A   1      36.886  29.720  28.947  1.00  0.00     0.338 C 
ATOM     25  O   UNL A   1      36.208  29.450  29.920  1.00  0.00    -0.246 OA
BRANCH  24  26
ATOM     26  C   UNL A   1      38.135  29.030  28.600  1.00  0.00     0.060 A 
ATOM     27  C   UNL A   1      38.659  28.142  29.542  1.00  0.00     0.016 A 
ATOM     28  C   UNL A   1      38.877  29.438  27.482  1.00  0.00     0.016 A 
ATOM     29  C   UNL A   1      39.989  27.785  29.443  1.00  0.00     0.010 A 
ATOM     30  C   UNL A   1      40.208  29.096  27.395  1.00  0.00     0.010 A 
ATOM     31  C   UNL A   1      40.771  28.326  28.410  1.00  0.00    -0.014 A 
BRANCH  31  32
ATOM     32  C   UNL A   1      42.145  27.873  28.271  1.00  0.00     0.031 A 
ATOM     33  C   UNL A   1      42.194  26.545  27.618  1.00  0.00     0.074 A 
ATOM     34  C   UNL A   1      43.230  28.613  28.584  1.00  0.00     0.049 A 
ATOM     35  N   UNL A   1      42.458  25.415  28.184  1.00  0.00    -0.248 NA
ATOM     36  C   UNL A   1      41.643  26.410  26.255  1.00  0.00     0.031 C 
ATOM     37  C   UNL A   1      43.266  30.005  29.034  1.00  0.00     0.029 A 
ATOM     38  N   UNL A   1      44.556  28.297  28.492  1.00  0.00    -0.354 N 
ATOM     39  C   UNL A   1      42.417  24.482  27.159  1.00  0.00     0.074 A 
ATOM     40  C   UNL A   1      41.659  25.085  26.100  1.00  0.00     0.031 C 
ATOM     41  C   UNL A   1      44.537  30.471  28.964  1.00  0.00     0.029 A 
ATOM     42  C   UNL A   1      45.428  29.388  28.576  1.00  0.00     0.049 A 
ATOM     43  H   UNL A   1      44.873  27.372  28.376  1.00  0.00     0.167 HD
ATOM     44  C   UNL A   1      43.315  23.459  27.142  1.00  0.00     0.034 A 
ATOM     45  C   UNL A   1      46.771  29.407  28.317  1.00  0.00     0.034 A 
ATOM     46  C   UNL A   1      43.863  23.236  28.465  1.00  0.00     0.049 A 
ATOM     47  C   UNL A   1      47.252  28.012  28.451  1.00  0.00     0.074 A 
ATOM     48  C   UNL A   1      43.309  22.994  29.710  1.00  0.00     0.029 A 
ATOM     49  N   UNL A   1      45.148  23.666  28.713  1.00  0.00    -0.354 N 
ATOM     50  N   UNL A   1      47.274  27.376  29.589  1.00  0.00    -0.248 NA
ATOM     51  C   UNL A   1      47.219  27.161  27.273  1.00  0.00     0.031 C 
ATOM     52  C   UNL A   1      44.099  23.755  30.622  1.00  0.00     0.029 A 
ATOM     53  C   UNL A   1      45.156  24.331  29.915  1.00  0.00     0.049 A 
ATOM     54  H   UNL A   1      45.927  23.521  28.128  1.00  0.00     0.167 HD
ATOM     55  C   UNL A   1      46.777  26.115  29.300  1.00  0.00     0.074 A 
ATOM     56  C   UNL A   1      46.858  26.007  27.843  1.00  0.00     0.031 C 
ATOM     57  C   UNL A   1      46.079  25.406  30.238  1.00  0.00     0.034 A 
BRANCH  44  58
ATOM     58  C   UNL A   1      44.009  22.993  25.878  1.00  0.00     0.023 A 
ATOM     59  C   UNL A   1      43.968  21.617  25.597  1.00  0.00     0.031 A 
ATOM     60  C   UNL A   1      44.935  23.747  25.115  1.00  0.00     0.131 A 
ATOM     61  C   UNL A   1      44.871  21.042  24.686  1.00  0.00     0.055 A 
ATOM     62  C   UNL A   1      45.782  23.180  24.161  1.00  0.00     0.041 A 
ATOM     63  F   UNL A   1      45.150  25.054  25.301  1.00  0.00    -0.206 F 
ATOM     64  C   UNL A   1      45.776  21.813  23.964  1.00  0.00     0.022 A 
BRANCH  61  65
ATOM     65  S   UNL A   1      44.960  19.238  24.592  1.00  0.00     0.124 S 
ATOM     66  O   UNL A   1      46.377  19.006  24.852  1.00  0.00    -0.237 OA
ATOM     67  O   UNL A   1      44.035  18.839  25.648  1.00  0.00    -0.237 OA
ATOM     68  O   UNL A   1      44.515  18.949  23.232  1.00  0.00    -0.744 OA
ENDBRANCH  61  65
ENDBRANCH  44  58
BRANCH  45  69
ATOM     69  C   UNL A   1      47.584  30.473  27.646  1.00  0.00     0.023 A 
ATOM     70  C   UNL A   1      47.024  31.642  27.065  1.00  0.00     0.031 A 
ATOM     71  C   UNL A   1      48.985  30.476  27.818  1.00  0.00     0.131 A 
ATOM     72  C   UNL A   1      47.854  32.734  26.699  1.00  0.00     0.055 A 
ATOM     73  C   UNL A   1      49.795  31.556  27.460  1.00  0.00     0.041 A 
ATOM     74  F   UNL A   1      49.612  29.460  28.430  1.00  0.00    -0.206 F 
ATOM     75  C   UNL A   1      49.233  32.695  26.911  1.00  0.00     0.022 A 
BRANCH  72  76
ATOM     76  S   UNL A   1      47.153  34.281  26.017  1.00  0.00     0.124 S 
ATOM     77  O   UNL A   1      45.815  33.869  25.612  1.00  0.00    -0.237 OA
ATOM     78  O   UNL A   1      47.239  35.197  27.149  1.00  0.00    -0.237 OA
ATOM     79  O   UNL A   1      48.053  34.605  24.907  1.00  0.00    -0.744 OA
ENDBRANCH  72  76
ENDBRANCH  45  69
BRANCH  57  80
ATOM     80  C   UNL A   1      46.145  25.877  31.684  1.00  0.00     0.023 A 
ATOM     81  C   UNL A   1      47.178  25.573  32.605  1.00  0.00     0.031 A 
ATOM     82  C   UNL A   1      45.116  26.725  32.132  1.00  0.00     0.131 A 
ATOM     83  C   UNL A   1      47.130  26.081  33.920  1.00  0.00     0.055 A 
ATOM     84  C   UNL A   1      45.088  27.251  33.422  1.00  0.00     0.041 A 
ATOM     85  F   UNL A   1      44.114  27.074  31.307  1.00  0.00    -0.206 F 
ATOM     86  C   UNL A   1      46.089  26.921  34.326  1.00  0.00     0.022 A 
BRANCH  83  87
ATOM     87  S   UNL A   1      48.392  25.617  35.153  1.00  0.00     0.124 S 
ATOM     88  O   UNL A   1      47.613  25.043  36.243  1.00  0.00    -0.237 OA
ATOM     89  O   UNL A   1      49.231  24.683  34.407  1.00  0.00    -0.237 OA
ATOM     90  O   UNL A   1      49.039  26.892  35.472  1.00  0.00    -0.744 OA
ENDBRANCH  83  87
ENDBRANCH  57  80
ENDBRANCH  31  32
ENDBRANCH  24  26
ENDBRANCH  23  24
ENDBRANCH  22  23
ENDBRANCH  21  22
ENDBRANCH   1  21
TORSDOF 22
ENDMDL
