MODEL 1
REMARK VINA RESULT:     -11.8      0.000      0.000
REMARK SMILES O=C(OCCOCCOC(=O)[C@H](c1cnn(Cc2ccccc2)c1)[NH+]1CCOCC1)c1ccc(-c2c3nc(c(-c4cc(S(=O)(=O)[O-])ccc4F)c4ccc([nH]4)c(-c4cc(S(=O)(=O)[O-])ccc4F)c4nc(c(-c5cc(S(=O)(=O)[O-])ccc5F)c5ccc2[nH]5)C=C4)C=C3)cc1
REMARK SMILES IDX 6 1 5 2 4 3 3 4 2 5 1 6 31 7 32 8 93 9 33 10 92 11 34 12
REMARK SMILES IDX 35 13 36 14 86 15 37 16 91 17 85 18 87 19 38 20 90 21 84 22
REMARK SMILES IDX 83 23 39 25 71 26 51 27 70 28 52 29 55 30 69 31 88 32 53 33
REMARK SMILES IDX 54 34 68 36 89 37 56 38 40 39 41 40 49 41 42 42 48 43 50 44
REMARK SMILES IDX 47 45 43 46 44 47 45 48 46 49 72 50 73 51 81 52 74 53 80 54
REMARK SMILES IDX 82 55 79 56 75 57 76 58 77 59 78 60 57 61 58 62 66 63 59 64
REMARK SMILES IDX 65 65 67 66 64 67 60 68 61 69 62 70 63 71 7 72 8 73 9 74
REMARK SMILES IDX 10 75 11 76 12 77 25 78 26 79 30 80 27 82 29 83 28 84 13 85
REMARK SMILES IDX 14 86 24 87 15 88 16 89 17 90 18 91 19 92 23 93 20 94 22 95
REMARK SMILES IDX 21 96
REMARK H PARENT 87 24 55 35 25 81
REMARK Flexibility Score: inf
ROOT
ATOM      1  O   UNL A   1      43.762  40.362  25.796  1.00  0.00    -0.374 OA
ENDROOT
BRANCH   1   2
ATOM      2  C   UNL A   1      43.120  39.632  26.835  1.00  0.00     0.202 C 
BRANCH   2   3
ATOM      3  C   UNL A   1      43.050  38.103  26.784  1.00  0.00     0.261 C 
BRANCH   3   4
ATOM      4  O   UNL A   1      44.349  37.491  26.796  1.00  0.00    -0.460 OA
BRANCH   4   5
ATOM      5  C   UNL A   1      44.746  36.379  27.448  1.00  0.00     0.338 C 
ATOM      6  O   UNL A   1      45.870  35.938  27.210  1.00  0.00    -0.246 OA
BRANCH   5   7
ATOM      7  C   UNL A   1      43.901  35.675  28.463  1.00  0.00     0.060 A 
ATOM      8  C   UNL A   1      43.584  34.318  28.470  1.00  0.00     0.016 A 
ATOM      9  C   UNL A   1      43.405  36.475  29.511  1.00  0.00     0.016 A 
ATOM     10  C   UNL A   1      42.621  33.824  29.329  1.00  0.00     0.010 A 
ATOM     11  C   UNL A   1      42.494  35.967  30.427  1.00  0.00     0.010 A 
ATOM     12  C   UNL A   1      42.035  34.666  30.269  1.00  0.00    -0.014 A 
BRANCH  12  13
ATOM     13  C   UNL A   1      40.957  34.098  31.064  1.00  0.00     0.031 A 
ATOM     14  C   UNL A   1      41.278  33.844  32.494  1.00  0.00     0.074 A 
ATOM     15  C   UNL A   1      39.752  33.807  30.540  1.00  0.00     0.049 A 
ATOM     16  N   UNL A   1      41.348  32.706  33.103  1.00  0.00    -0.248 NA
ATOM     17  C   UNL A   1      41.709  34.986  33.312  1.00  0.00     0.031 C 
ATOM     18  C   UNL A   1      39.214  34.183  29.231  1.00  0.00     0.029 A 
ATOM     19  N   UNL A   1      38.706  33.175  31.135  1.00  0.00    -0.354 N 
ATOM     20  C   UNL A   1      41.645  32.993  34.434  1.00  0.00     0.074 A 
ATOM     21  C   UNL A   1      41.994  34.390  34.469  1.00  0.00     0.031 C 
ATOM     22  C   UNL A   1      37.876  33.988  29.230  1.00  0.00     0.029 A 
ATOM     23  C   UNL A   1      37.499  33.337  30.473  1.00  0.00     0.049 A 
ATOM     24  H   UNL A   1      38.799  32.648  31.962  1.00  0.00     0.167 HD
ATOM     25  C   UNL A   1      41.410  32.095  35.430  1.00  0.00     0.034 A 
ATOM     26  C   UNL A   1      36.265  33.033  30.951  1.00  0.00     0.034 A 
ATOM     27  C   UNL A   1      41.287  30.756  34.910  1.00  0.00     0.049 A 
ATOM     28  C   UNL A   1      36.453  31.998  32.000  1.00  0.00     0.074 A 
ATOM     29  C   UNL A   1      42.133  29.903  34.227  1.00  0.00     0.029 A 
ATOM     30  N   UNL A   1      40.027  30.222  34.758  1.00  0.00    -0.354 N 
ATOM     31  N   UNL A   1      36.905  30.798  31.748  1.00  0.00    -0.248 NA
ATOM     32  C   UNL A   1      36.598  32.433  33.382  1.00  0.00     0.031 C 
ATOM     33  C   UNL A   1      41.295  29.227  33.294  1.00  0.00     0.029 A 
ATOM     34  C   UNL A   1      39.983  29.657  33.508  1.00  0.00     0.049 A 
ATOM     35  H   UNL A   1      39.298  30.242  35.419  1.00  0.00     0.167 HD
ATOM     36  C   UNL A   1      37.754  30.503  32.803  1.00  0.00     0.074 A 
ATOM     37  C   UNL A   1      37.452  31.504  33.823  1.00  0.00     0.031 C 
ATOM     38  C   UNL A   1      38.810  29.647  32.655  1.00  0.00     0.034 A 
BRANCH  25  39
ATOM     39  C   UNL A   1      40.967  32.454  36.831  1.00  0.00     0.023 A 
ATOM     40  C   UNL A   1      39.641  32.141  37.195  1.00  0.00     0.031 A 
ATOM     41  C   UNL A   1      41.649  33.334  37.701  1.00  0.00     0.131 A 
ATOM     42  C   UNL A   1      39.022  32.772  38.288  1.00  0.00     0.055 A 
ATOM     43  C   UNL A   1      41.050  33.906  38.827  1.00  0.00     0.041 A 
ATOM     44  F   UNL A   1      42.892  33.766  37.464  1.00  0.00    -0.206 F 
ATOM     45  C   UNL A   1      39.718  33.656  39.107  1.00  0.00     0.022 A 
BRANCH  42  46
ATOM     46  S   UNL A   1      37.234  32.568  38.501  1.00  0.00     0.124 S 
ATOM     47  O   UNL A   1      37.021  33.175  39.811  1.00  0.00    -0.237 OA
ATOM     48  O   UNL A   1      36.708  33.304  37.356  1.00  0.00    -0.237 OA
ATOM     49  O   UNL A   1      37.051  31.119  38.448  1.00  0.00    -0.744 OA
ENDBRANCH  42  46
ENDBRANCH  25  39
BRANCH  26  50
ATOM     50  C   UNL A   1      35.058  33.892  30.812  1.00  0.00     0.023 A 
ATOM     51  C   UNL A   1      34.672  34.833  31.786  1.00  0.00     0.031 A 
ATOM     52  C   UNL A   1      34.368  33.938  29.576  1.00  0.00     0.131 A 
ATOM     53  C   UNL A   1      33.632  35.754  31.509  1.00  0.00     0.055 A 
ATOM     54  C   UNL A   1      33.337  34.842  29.313  1.00  0.00     0.041 A 
ATOM     55  F   UNL A   1      34.726  33.154  28.547  1.00  0.00    -0.206 F 
ATOM     56  C   UNL A   1      32.969  35.760  30.279  1.00  0.00     0.022 A 
BRANCH  53  57
ATOM     57  S   UNL A   1      33.183  37.025  32.733  1.00  0.00     0.124 S 
ATOM     58  O   UNL A   1      34.154  36.788  33.795  1.00  0.00    -0.237 OA
ATOM     59  O   UNL A   1      33.339  38.259  31.974  1.00  0.00    -0.237 OA
ATOM     60  O   UNL A   1      31.800  36.691  33.079  1.00  0.00    -0.744 OA
ENDBRANCH  53  57
ENDBRANCH  26  50
BRANCH  38  61
ATOM     61  C   UNL A   1      38.893  28.790  31.412  1.00  0.00     0.023 A 
ATOM     62  C   UNL A   1      39.430  29.213  30.175  1.00  0.00     0.031 A 
ATOM     63  C   UNL A   1      38.566  27.428  31.553  1.00  0.00     0.131 A 
ATOM     64  C   UNL A   1      39.622  28.279  29.137  1.00  0.00     0.055 A 
ATOM     65  C   UNL A   1      38.774  26.505  30.531  1.00  0.00     0.041 A 
ATOM     66  F   UNL A   1      38.085  26.962  32.717  1.00  0.00    -0.206 F 
ATOM     67  C   UNL A   1      39.302  26.928  29.316  1.00  0.00     0.022 A 
BRANCH  64  68
ATOM     68  S   UNL A   1      40.312  28.799  27.533  1.00  0.00     0.124 S 
ATOM     69  O   UNL A   1      41.525  29.519  27.903  1.00  0.00    -0.237 OA
ATOM     70  O   UNL A   1      40.505  27.528  26.840  1.00  0.00    -0.237 OA
ATOM     71  O   UNL A   1      39.256  29.642  26.965  1.00  0.00    -0.744 OA
ENDBRANCH  64  68
ENDBRANCH  38  61
ENDBRANCH  12  13
ENDBRANCH   5   7
ENDBRANCH   4   5
ENDBRANCH   3   4
ENDBRANCH   2   3
ENDBRANCH   1   2
BRANCH   1  72
ATOM     72  C   UNL A   1      43.370  41.694  25.463  1.00  0.00     0.202 C 
BRANCH  72  73
ATOM     73  C   UNL A   1      42.333  41.965  24.372  1.00  0.00     0.261 C 
BRANCH  73  74
ATOM     74  O   UNL A   1      42.909  42.066  23.064  1.00  0.00    -0.459 OA
BRANCH  74  75
ATOM     75  C   UNL A   1      43.096  43.347  22.661  1.00  0.00     0.370 C 
ATOM     76  O   UNL A   1      42.437  44.274  23.132  1.00  0.00    -0.245 OA
BRANCH  75  77
ATOM     77  C   UNL A   1      44.296  43.521  21.692  1.00  0.00     0.329 C 
BRANCH  77  78
ATOM     78  N   UNL A   1      45.393  42.529  21.773  1.00  0.00    -0.315 N 
ATOM     79  C   UNL A   1      46.142  42.448  23.029  1.00  0.00     0.292 C 
ATOM     80  C   UNL A   1      46.318  42.489  20.621  1.00  0.00     0.292 C 
ATOM     81  H   UNL A   1      44.821  41.685  21.739  1.00  0.00     0.349 HD
ATOM     82  C   UNL A   1      47.345  43.395  23.098  1.00  0.00     0.221 C 
ATOM     83  C   UNL A   1      47.643  43.274  20.753  1.00  0.00     0.221 C 
ATOM     84  O   UNL A   1      48.262  43.115  22.037  1.00  0.00    -0.370 OA
ENDBRANCH  77  78
BRANCH  77  85
ATOM     85  C   UNL A   1      43.753  43.591  20.277  1.00  0.00     0.059 A 
ATOM     86  C   UNL A   1      42.664  42.832  19.773  1.00  0.00     0.145 A 
ATOM     87  C   UNL A   1      44.067  44.439  19.228  1.00  0.00     0.119 A 
ATOM     88  N   UNL A   1      42.247  43.248  18.586  1.00  0.00    -0.181 NA
ATOM     89  N   UNL A   1      43.190  44.134  18.220  1.00  0.00    -0.268 N 
BRANCH  89  90
ATOM     90  C   UNL A   1      43.204  44.582  16.833  1.00  0.00     0.179 C 
BRANCH  90  91
ATOM     91  C   UNL A   1      43.215  46.096  16.752  1.00  0.00    -0.027 A 
ATOM     92  C   UNL A   1      42.019  46.799  16.569  1.00  0.00     0.005 A 
ATOM     93  C   UNL A   1      44.413  46.833  16.845  1.00  0.00     0.005 A 
ATOM     94  C   UNL A   1      42.021  48.197  16.543  1.00  0.00     0.000 A 
ATOM     95  C   UNL A   1      44.411  48.225  16.846  1.00  0.00     0.000 A 
ATOM     96  C   UNL A   1      43.210  48.908  16.699  1.00  0.00     0.000 A 
ENDBRANCH  90  91
ENDBRANCH  89  90
ENDBRANCH  77  85
ENDBRANCH  75  77
ENDBRANCH  74  75
ENDBRANCH  73  74
ENDBRANCH  72  73
ENDBRANCH   1  72
TORSDOF 21
ENDMDL
MODEL 2
REMARK VINA RESULT:     -11.3      9.094     14.230
REMARK SMILES O=C(OCCOCCOC(=O)[C@H](c1cnn(Cc2ccccc2)c1)[NH+]1CCOCC1)c1ccc(-c2c3nc(c(-c4cc(S(=O)(=O)[O-])ccc4F)c4ccc([nH]4)c(-c4cc(S(=O)(=O)[O-])ccc4F)c4nc(c(-c5cc(S(=O)(=O)[O-])ccc5F)c5ccc2[nH]5)C=C4)C=C3)cc1
REMARK SMILES IDX 6 1 5 2 4 3 3 4 2 5 1 6 31 7 32 8 93 9 33 10 92 11 34 12
REMARK SMILES IDX 35 13 36 14 86 15 37 16 91 17 85 18 87 19 38 20 90 21 84 22
REMARK SMILES IDX 83 23 39 25 71 26 51 27 70 28 52 29 55 30 69 31 88 32 53 33
REMARK SMILES IDX 54 34 68 36 89 37 56 38 40 39 41 40 49 41 42 42 48 43 50 44
REMARK SMILES IDX 47 45 43 46 44 47 45 48 46 49 72 50 73 51 81 52 74 53 80 54
REMARK SMILES IDX 82 55 79 56 75 57 76 58 77 59 78 60 57 61 58 62 66 63 59 64
REMARK SMILES IDX 65 65 67 66 64 67 60 68 61 69 62 70 63 71 7 72 8 73 9 74
REMARK SMILES IDX 10 75 11 76 12 77 25 78 26 79 30 80 27 82 29 83 28 84 13 85
REMARK SMILES IDX 14 86 24 87 15 88 16 89 17 90 18 91 19 92 23 93 20 94 22 95
REMARK SMILES IDX 21 96
REMARK H PARENT 87 24 55 35 25 81
REMARK Flexibility Score: inf
ROOT
ATOM      1  O   UNL A   1      33.016  30.343  26.385  1.00  0.00    -0.374 OA
ENDROOT
BRANCH   1   2
ATOM      2  C   UNL A   1      34.251  29.638  26.345  1.00  0.00     0.202 C 
BRANCH   2   3
ATOM      3  C   UNL A   1      34.754  28.878  27.576  1.00  0.00     0.261 C 
BRANCH   3   4
ATOM      4  O   UNL A   1      35.501  29.714  28.473  1.00  0.00    -0.460 OA
BRANCH   4   5
ATOM      5  C   UNL A   1      36.723  30.256  28.292  1.00  0.00     0.338 C 
ATOM      6  O   UNL A   1      36.802  31.479  28.179  1.00  0.00    -0.246 OA
BRANCH   5   7
ATOM      7  C   UNL A   1      37.983  29.450  28.253  1.00  0.00     0.060 A 
ATOM      8  C   UNL A   1      38.417  28.555  29.230  1.00  0.00     0.016 A 
ATOM      9  C   UNL A   1      38.780  29.612  27.104  1.00  0.00     0.016 A 
ATOM     10  C   UNL A   1      39.697  28.035  29.190  1.00  0.00     0.010 A 
ATOM     11  C   UNL A   1      40.039  29.030  27.020  1.00  0.00     0.010 A 
ATOM     12  C   UNL A   1      40.526  28.322  28.110  1.00  0.00    -0.014 A 
BRANCH  12  13
ATOM     13  C   UNL A   1      41.891  27.825  28.193  1.00  0.00     0.031 A 
ATOM     14  C   UNL A   1      42.168  26.579  27.430  1.00  0.00     0.074 A 
ATOM     15  C   UNL A   1      42.839  28.442  28.922  1.00  0.00     0.049 A 
ATOM     16  N   UNL A   1      42.489  25.416  27.895  1.00  0.00    -0.248 NA
ATOM     17  C   UNL A   1      41.922  26.595  25.981  1.00  0.00     0.031 C 
ATOM     18  C   UNL A   1      42.790  29.765  29.548  1.00  0.00     0.029 A 
ATOM     19  N   UNL A   1      44.108  28.026  29.176  1.00  0.00    -0.354 N 
ATOM     20  C   UNL A   1      42.677  24.591  26.788  1.00  0.00     0.074 A 
ATOM     21  C   UNL A   1      42.178  25.328  25.655  1.00  0.00     0.031 C 
ATOM     22  C   UNL A   1      44.042  30.139  29.892  1.00  0.00     0.029 A 
ATOM     23  C   UNL A   1      44.944  29.025  29.650  1.00  0.00     0.049 A 
ATOM     24  H   UNL A   1      44.406  27.098  29.037  1.00  0.00     0.167 HD
ATOM     25  C   UNL A   1      43.390  23.434  26.869  1.00  0.00     0.034 A 
ATOM     26  C   UNL A   1      46.297  28.969  29.757  1.00  0.00     0.034 A 
ATOM     27  C   UNL A   1      43.493  22.977  28.233  1.00  0.00     0.049 A 
ATOM     28  C   UNL A   1      46.661  27.531  29.847  1.00  0.00     0.074 A 
ATOM     29  C   UNL A   1      42.578  22.579  29.191  1.00  0.00     0.029 A 
ATOM     30  N   UNL A   1      44.664  23.208  28.918  1.00  0.00    -0.354 N 
ATOM     31  N   UNL A   1      46.318  26.768  30.851  1.00  0.00    -0.248 NA
ATOM     32  C   UNL A   1      46.986  26.822  28.617  1.00  0.00     0.031 C 
ATOM     33  C   UNL A   1      43.090  23.090  30.418  1.00  0.00     0.029 A 
ATOM     34  C   UNL A   1      44.314  23.707  30.148  1.00  0.00     0.049 A 
ATOM     35  H   UNL A   1      45.577  23.046  28.589  1.00  0.00     0.167 HD
ATOM     36  C   UNL A   1      45.976  25.552  30.280  1.00  0.00     0.074 A 
ATOM     37  C   UNL A   1      46.497  25.615  28.917  1.00  0.00     0.031 C 
ATOM     38  C   UNL A   1      45.070  24.713  30.868  1.00  0.00     0.034 A 
BRANCH  25  39
ATOM     39  C   UNL A   1      44.272  22.883  25.771  1.00  0.00     0.023 A 
ATOM     40  C   UNL A   1      44.058  21.546  25.374  1.00  0.00     0.031 A 
ATOM     41  C   UNL A   1      45.474  23.471  25.318  1.00  0.00     0.131 A 
ATOM     42  C   UNL A   1      45.047  20.831  24.676  1.00  0.00     0.055 A 
ATOM     43  C   UNL A   1      46.425  22.775  24.566  1.00  0.00     0.041 A 
ATOM     44  F   UNL A   1      45.844  24.711  25.655  1.00  0.00    -0.206 F 
ATOM     45  C   UNL A   1      46.232  21.437  24.271  1.00  0.00     0.022 A 
BRANCH  42  46
ATOM     46  S   UNL A   1      44.841  19.041  24.483  1.00  0.00     0.124 S 
ATOM     47  O   UNL A   1      44.551  18.929  23.058  1.00  0.00    -0.237 OA
ATOM     48  O   UNL A   1      46.139  18.539  24.919  1.00  0.00    -0.237 OA
ATOM     49  O   UNL A   1      43.722  18.733  25.372  1.00  0.00    -0.744 OA
ENDBRANCH  42  46
ENDBRANCH  25  39
BRANCH  26  50
ATOM     50  C   UNL A   1      47.232  30.059  29.371  1.00  0.00     0.023 A 
ATOM     51  C   UNL A   1      48.183  30.601  30.257  1.00  0.00     0.031 A 
ATOM     52  C   UNL A   1      47.339  30.444  28.012  1.00  0.00     0.131 A 
ATOM     53  C   UNL A   1      49.172  31.493  29.777  1.00  0.00     0.055 A 
ATOM     54  C   UNL A   1      48.311  31.332  27.547  1.00  0.00     0.041 A 
ATOM     55  F   UNL A   1      46.548  29.907  27.071  1.00  0.00    -0.206 F 
ATOM     56  C   UNL A   1      49.237  31.856  28.430  1.00  0.00     0.022 A 
BRANCH  53  57
ATOM     57  S   UNL A   1      50.453  32.135  30.902  1.00  0.00     0.124 S 
ATOM     58  O   UNL A   1      51.509  32.528  29.976  1.00  0.00    -0.237 OA
ATOM     59  O   UNL A   1      49.755  33.215  31.587  1.00  0.00    -0.237 OA
ATOM     60  O   UNL A   1      50.774  30.982  31.746  1.00  0.00    -0.744 OA
ENDBRANCH  53  57
ENDBRANCH  26  50
BRANCH  38  61
ATOM     61  C   UNL A   1      44.646  24.975  32.297  1.00  0.00     0.023 A 
ATOM     62  C   UNL A   1      43.931  26.114  32.729  1.00  0.00     0.031 A 
ATOM     63  C   UNL A   1      44.834  23.929  33.219  1.00  0.00     0.131 A 
ATOM     64  C   UNL A   1      43.432  26.170  34.046  1.00  0.00     0.055 A 
ATOM     65  C   UNL A   1      44.324  23.981  34.514  1.00  0.00     0.041 A 
ATOM     66  F   UNL A   1      45.476  22.807  32.854  1.00  0.00    -0.206 F 
ATOM     67  C   UNL A   1      43.621  25.105  34.934  1.00  0.00     0.022 A 
BRANCH  64  68
ATOM     68  S   UNL A   1      42.507  27.628  34.629  1.00  0.00     0.124 S 
ATOM     69  O   UNL A   1      42.459  28.491  33.455  1.00  0.00    -0.237 OA
ATOM     70  O   UNL A   1      41.235  27.050  35.054  1.00  0.00    -0.237 OA
ATOM     71  O   UNL A   1      43.333  28.141  35.725  1.00  0.00    -0.744 OA
ENDBRANCH  64  68
ENDBRANCH  38  61
ENDBRANCH  12  13
ENDBRANCH   5   7
ENDBRANCH   4   5
ENDBRANCH   3   4
ENDBRANCH   2   3
ENDBRANCH   1   2
BRANCH   1  72
ATOM     72  C   UNL A   1      32.744  31.324  27.386  1.00  0.00     0.202 C 
BRANCH  72  73
ATOM     73  C   UNL A   1      33.674  32.520  27.595  1.00  0.00     0.261 C 
BRANCH  73  74
ATOM     74  O   UNL A   1      33.612  33.053  28.923  1.00  0.00    -0.459 OA
BRANCH  74  75
ATOM     75  C   UNL A   1      34.327  34.195  29.074  1.00  0.00     0.370 C 
ATOM     76  O   UNL A   1      34.521  34.963  28.132  1.00  0.00    -0.245 OA
BRANCH  75  77
ATOM     77  C   UNL A   1      34.722  34.488  30.546  1.00  0.00     0.329 C 
BRANCH  77  78
ATOM     78  N   UNL A   1      33.630  34.788  31.502  1.00  0.00    -0.315 N 
ATOM     79  C   UNL A   1      32.693  35.857  31.147  1.00  0.00     0.292 C 
ATOM     80  C   UNL A   1      34.024  34.903  32.921  1.00  0.00     0.292 C 
ATOM     81  H   UNL A   1      33.108  33.918  31.396  1.00  0.00     0.349 HD
ATOM     82  C   UNL A   1      33.132  37.248  31.614  1.00  0.00     0.221 C 
ATOM     83  C   UNL A   1      34.270  36.326  33.472  1.00  0.00     0.221 C 
ATOM     84  O   UNL A   1      33.286  37.273  33.036  1.00  0.00    -0.370 OA
ENDBRANCH  77  78
BRANCH  77  85
ATOM     85  C   UNL A   1      35.557  33.326  31.050  1.00  0.00     0.059 A 
ATOM     86  C   UNL A   1      35.050  32.084  31.512  1.00  0.00     0.145 A 
ATOM     87  C   UNL A   1      36.930  33.139  31.067  1.00  0.00     0.119 A 
ATOM     88  N   UNL A   1      35.993  31.166  31.674  1.00  0.00    -0.181 NA
ATOM     89  N   UNL A   1      37.132  31.863  31.523  1.00  0.00    -0.268 N 
BRANCH  89  90
ATOM     90  C   UNL A   1      38.380  31.224  31.920  1.00  0.00     0.179 C 
BRANCH  90  91
ATOM     91  C   UNL A   1      39.568  32.112  31.605  1.00  0.00    -0.027 A 
ATOM     92  C   UNL A   1      40.131  32.107  30.324  1.00  0.00     0.005 A 
ATOM     93  C   UNL A   1      40.143  32.951  32.581  1.00  0.00     0.005 A 
ATOM     94  C   UNL A   1      41.195  32.960  30.018  1.00  0.00     0.000 A 
ATOM     95  C   UNL A   1      41.185  33.820  32.269  1.00  0.00     0.000 A 
ATOM     96  C   UNL A   1      41.708  33.827  30.982  1.00  0.00     0.000 A 
ENDBRANCH  90  91
ENDBRANCH  89  90
ENDBRANCH  77  85
ENDBRANCH  75  77
ENDBRANCH  74  75
ENDBRANCH  73  74
ENDBRANCH  72  73
ENDBRANCH   1  72
TORSDOF 21
ENDMDL
MODEL 3
REMARK VINA RESULT:     -11.2      8.581     14.574
REMARK SMILES O=C(OCCOCCOC(=O)[C@H](c1cnn(Cc2ccccc2)c1)[NH+]1CCOCC1)c1ccc(-c2c3nc(c(-c4cc(S(=O)(=O)[O-])ccc4F)c4ccc([nH]4)c(-c4cc(S(=O)(=O)[O-])ccc4F)c4nc(c(-c5cc(S(=O)(=O)[O-])ccc5F)c5ccc2[nH]5)C=C4)C=C3)cc1
REMARK SMILES IDX 6 1 5 2 4 3 3 4 2 5 1 6 31 7 32 8 93 9 33 10 92 11 34 12
REMARK SMILES IDX 35 13 36 14 86 15 37 16 91 17 85 18 87 19 38 20 90 21 84 22
REMARK SMILES IDX 83 23 39 25 71 26 51 27 70 28 52 29 55 30 69 31 88 32 53 33
REMARK SMILES IDX 54 34 68 36 89 37 56 38 40 39 41 40 49 41 42 42 48 43 50 44
REMARK SMILES IDX 47 45 43 46 44 47 45 48 46 49 72 50 73 51 81 52 74 53 80 54
REMARK SMILES IDX 82 55 79 56 75 57 76 58 77 59 78 60 57 61 58 62 66 63 59 64
REMARK SMILES IDX 65 65 67 66 64 67 60 68 61 69 62 70 63 71 7 72 8 73 9 74
REMARK SMILES IDX 10 75 11 76 12 77 25 78 26 79 30 80 27 82 29 83 28 84 13 85
REMARK SMILES IDX 14 86 24 87 15 88 16 89 17 90 18 91 19 92 23 93 20 94 22 95
REMARK SMILES IDX 21 96
REMARK H PARENT 87 24 55 35 25 81
REMARK Flexibility Score: inf
ROOT
ATOM      1  O   UNL A   1      33.248  30.342  26.327  1.00  0.00    -0.374 OA
ENDROOT
BRANCH   1   2
ATOM      2  C   UNL A   1      34.333  29.424  26.253  1.00  0.00     0.202 C 
BRANCH   2   3
ATOM      3  C   UNL A   1      34.727  28.586  27.472  1.00  0.00     0.261 C 
BRANCH   3   4
ATOM      4  O   UNL A   1      35.488  29.334  28.433  1.00  0.00    -0.460 OA
BRANCH   4   5
ATOM      5  C   UNL A   1      36.675  29.952  28.266  1.00  0.00     0.338 C 
ATOM      6  O   UNL A   1      36.689  31.182  28.244  1.00  0.00    -0.246 OA
BRANCH   5   7
ATOM      7  C   UNL A   1      37.973  29.218  28.135  1.00  0.00     0.060 A 
ATOM      8  C   UNL A   1      38.499  28.310  29.053  1.00  0.00     0.016 A 
ATOM      9  C   UNL A   1      38.705  29.470  26.960  1.00  0.00     0.016 A 
ATOM     10  C   UNL A   1      39.801  27.863  28.934  1.00  0.00     0.010 A 
ATOM     11  C   UNL A   1      39.988  28.963  26.795  1.00  0.00     0.010 A 
ATOM     12  C   UNL A   1      40.563  28.239  27.831  1.00  0.00    -0.014 A 
BRANCH  12  13
ATOM     13  C   UNL A   1      41.954  27.815  27.831  1.00  0.00     0.031 A 
ATOM     14  C   UNL A   1      42.230  26.514  27.162  1.00  0.00     0.074 A 
ATOM     15  C   UNL A   1      42.928  28.540  28.410  1.00  0.00     0.049 A 
ATOM     16  N   UNL A   1      42.653  25.418  27.700  1.00  0.00    -0.248 NA
ATOM     17  C   UNL A   1      41.857  26.381  25.748  1.00  0.00     0.031 C 
ATOM     18  C   UNL A   1      42.864  29.914  28.914  1.00  0.00     0.029 A 
ATOM     19  N   UNL A   1      44.236  28.209  28.581  1.00  0.00    -0.354 N 
ATOM     20  C   UNL A   1      42.786  24.500  26.660  1.00  0.00     0.074 A 
ATOM     21  C   UNL A   1      42.150  25.101  25.517  1.00  0.00     0.031 C 
ATOM     22  C   UNL A   1      44.119  30.375  29.104  1.00  0.00     0.029 A 
ATOM     23  C   UNL A   1      45.055  29.286  28.883  1.00  0.00     0.049 A 
ATOM     24  H   UNL A   1      44.570  27.287  28.500  1.00  0.00     0.167 HD
ATOM     25  C   UNL A   1      43.566  23.389  26.780  1.00  0.00     0.034 A 
ATOM     26  C   UNL A   1      46.413  29.302  28.867  1.00  0.00     0.034 A 
ATOM     27  C   UNL A   1      43.813  23.070  28.164  1.00  0.00     0.049 A 
ATOM     28  C   UNL A   1      46.861  27.897  29.054  1.00  0.00     0.074 A 
ATOM     29  C   UNL A   1      43.009  22.725  29.235  1.00  0.00     0.029 A 
ATOM     30  N   UNL A   1      45.026  23.419  28.713  1.00  0.00    -0.354 N 
ATOM     31  N   UNL A   1      46.650  27.219  30.151  1.00  0.00    -0.248 NA
ATOM     32  C   UNL A   1      47.114  27.089  27.869  1.00  0.00     0.031 C 
ATOM     33  C   UNL A   1      43.599  23.374  30.358  1.00  0.00     0.029 A 
ATOM     34  C   UNL A   1      44.760  24.017  29.920  1.00  0.00     0.049 A 
ATOM     35  H   UNL A   1      45.914  23.268  28.317  1.00  0.00     0.167 HD
ATOM     36  C   UNL A   1      46.325  25.940  29.728  1.00  0.00     0.074 A 
ATOM     37  C   UNL A   1      46.719  25.895  28.322  1.00  0.00     0.031 C 
ATOM     38  C   UNL A   1      45.521  25.121  30.472  1.00  0.00     0.034 A 
BRANCH  25  39
ATOM     39  C   UNL A   1      44.375  22.776  25.659  1.00  0.00     0.023 A 
ATOM     40  C   UNL A   1      44.222  21.394  25.427  1.00  0.00     0.031 A 
ATOM     41  C   UNL A   1      45.482  23.384  25.026  1.00  0.00     0.131 A 
ATOM     42  C   UNL A   1      45.189  20.668  24.708  1.00  0.00     0.055 A 
ATOM     43  C   UNL A   1      46.405  22.670  24.256  1.00  0.00     0.041 A 
ATOM     44  F   UNL A   1      45.792  24.674  25.193  1.00  0.00    -0.206 F 
ATOM     45  C   UNL A   1      46.282  21.298  24.122  1.00  0.00     0.022 A 
BRANCH  42  46
ATOM     46  S   UNL A   1      45.096  18.859  24.724  1.00  0.00     0.124 S 
ATOM     47  O   UNL A   1      45.087  18.551  23.298  1.00  0.00    -0.237 OA
ATOM     48  O   UNL A   1      46.307  18.501  25.454  1.00  0.00    -0.237 OA
ATOM     49  O   UNL A   1      43.842  18.592  25.426  1.00  0.00    -0.744 OA
ENDBRANCH  42  46
ENDBRANCH  25  39
BRANCH  26  50
ATOM     50  C   UNL A   1      47.250  30.391  28.298  1.00  0.00     0.023 A 
ATOM     51  C   UNL A   1      46.722  31.428  27.505  1.00  0.00     0.031 A 
ATOM     52  C   UNL A   1      48.594  30.538  28.720  1.00  0.00     0.131 A 
ATOM     53  C   UNL A   1      47.529  32.538  27.158  1.00  0.00     0.055 A 
ATOM     54  C   UNL A   1      49.388  31.630  28.367  1.00  0.00     0.041 A 
ATOM     55  F   UNL A   1      49.161  29.658  29.561  1.00  0.00    -0.206 F 
ATOM     56  C   UNL A   1      48.855  32.640  27.588  1.00  0.00     0.022 A 
BRANCH  53  57
ATOM     57  S   UNL A   1      46.829  33.920  26.201  1.00  0.00     0.124 S 
ATOM     58  O   UNL A   1      47.951  34.309  25.354  1.00  0.00    -0.237 OA
ATOM     59  O   UNL A   1      45.696  33.293  25.531  1.00  0.00    -0.237 OA
ATOM     60  O   UNL A   1      46.467  34.898  27.229  1.00  0.00    -0.744 OA
ENDBRANCH  53  57
ENDBRANCH  26  50
BRANCH  38  61
ATOM     61  C   UNL A   1      45.212  25.498  31.904  1.00  0.00     0.023 A 
ATOM     62  C   UNL A   1      46.017  25.167  33.016  1.00  0.00     0.031 A 
ATOM     63  C   UNL A   1      44.137  26.382  32.112  1.00  0.00     0.131 A 
ATOM     64  C   UNL A   1      45.729  25.722  34.280  1.00  0.00     0.055 A 
ATOM     65  C   UNL A   1      43.867  26.942  33.359  1.00  0.00     0.041 A 
ATOM     66  F   UNL A   1      43.358  26.761  31.085  1.00  0.00    -0.206 F 
ATOM     67  C   UNL A   1      44.663  26.611  34.450  1.00  0.00     0.022 A 
BRANCH  64  68
ATOM     68  S   UNL A   1      46.752  25.310  35.731  1.00  0.00     0.124 S 
ATOM     69  O   UNL A   1      46.325  23.958  36.075  1.00  0.00    -0.237 OA
ATOM     70  O   UNL A   1      48.111  25.442  35.212  1.00  0.00    -0.237 OA
ATOM     71  O   UNL A   1      46.379  26.331  36.713  1.00  0.00    -0.744 OA
ENDBRANCH  64  68
ENDBRANCH  38  61
ENDBRANCH  12  13
ENDBRANCH   5   7
ENDBRANCH   4   5
ENDBRANCH   3   4
ENDBRANCH   2   3
ENDBRANCH   1   2
BRANCH   1  72
ATOM     72  C   UNL A   1      33.054  31.185  27.463  1.00  0.00     0.202 C 
BRANCH  72  73
ATOM     73  C   UNL A   1      33.483  32.652  27.442  1.00  0.00     0.261 C 
BRANCH  73  74
ATOM     74  O   UNL A   1      34.066  33.083  28.678  1.00  0.00    -0.459 OA
BRANCH  74  75
ATOM     75  C   UNL A   1      33.590  34.279  29.104  1.00  0.00     0.370 C 
ATOM     76  O   UNL A   1      32.667  34.850  28.524  1.00  0.00    -0.245 OA
BRANCH  75  77
ATOM     77  C   UNL A   1      34.212  34.749  30.446  1.00  0.00     0.329 C 
BRANCH  77  78
ATOM     78  N   UNL A   1      33.284  35.151  31.529  1.00  0.00    -0.315 N 
ATOM     79  C   UNL A   1      32.692  36.489  31.452  1.00  0.00     0.292 C 
ATOM     80  C   UNL A   1      33.734  34.869  32.908  1.00  0.00     0.292 C 
ATOM     81  H   UNL A   1      32.527  34.503  31.312  1.00  0.00     0.349 HD
ATOM     82  C   UNL A   1      33.532  37.581  32.123  1.00  0.00     0.221 C 
ATOM     83  C   UNL A   1      34.402  36.028  33.683  1.00  0.00     0.221 C 
ATOM     84  O   UNL A   1      33.726  37.280  33.508  1.00  0.00    -0.370 OA
ENDBRANCH  77  78
BRANCH  77  85
ATOM     85  C   UNL A   1      35.152  33.664  30.936  1.00  0.00     0.059 A 
ATOM     86  C   UNL A   1      34.777  32.337  31.273  1.00  0.00     0.145 A 
ATOM     87  C   UNL A   1      36.533  33.646  31.050  1.00  0.00     0.119 A 
ATOM     88  N   UNL A   1      35.815  31.532  31.446  1.00  0.00    -0.181 NA
ATOM     89  N   UNL A   1      36.864  32.373  31.433  1.00  0.00    -0.268 N 
BRANCH  89  90
ATOM     90  C   UNL A   1      38.153  31.864  31.884  1.00  0.00     0.179 C 
BRANCH  90  91
ATOM     91  C   UNL A   1      38.402  32.228  33.335  1.00  0.00    -0.027 A 
ATOM     92  C   UNL A   1      39.082  33.407  33.657  1.00  0.00     0.005 A 
ATOM     93  C   UNL A   1      37.975  31.397  34.390  1.00  0.00     0.005 A 
ATOM     94  C   UNL A   1      39.270  33.769  34.995  1.00  0.00     0.000 A 
ATOM     95  C   UNL A   1      38.138  31.770  35.720  1.00  0.00     0.000 A 
ATOM     96  C   UNL A   1      38.784  32.962  36.022  1.00  0.00     0.000 A 
ENDBRANCH  90  91
ENDBRANCH  89  90
ENDBRANCH  77  85
ENDBRANCH  75  77
ENDBRANCH  74  75
ENDBRANCH  73  74
ENDBRANCH  72  73
ENDBRANCH   1  72
TORSDOF 21
ENDMDL
