MODEL 1
REMARK VINA RESULT:     -11.3      0.000      0.000
REMARK SMILES O=C(Cc1cncnc1N1CCC2(CC1)OCCC[C@@H]2O)OCCOCCOC(=O)c1ccc(-c2c3nc(c(-c4cc(S(=O)(=O)[O-])ccc4F)c4ccc([nH]4)c(-c4cc(S(=O)(=O)[O-])ccc4F)c4nc(c(-c5cc(S(=O)(=O)[O-])ccc5F)c5ccc2[nH]5)C=C4)C=C3)cc1
REMARK SMILES IDX 25 1 24 2 23 3 22 4 2 5 1 6 3 7 4 8 5 9 9 10 6 11 8 12 7 13
REMARK SMILES IDX 10 14 11 15 15 16 12 17 14 18 13 19 16 20 20 21 17 22 19 23
REMARK SMILES IDX 18 24 21 25 26 27 27 28 28 29 29 30 30 31 31 32 32 33 93 34
REMARK SMILES IDX 33 35 92 36 34 37 35 38 36 39 86 40 37 41 91 42 85 43 87 44
REMARK SMILES IDX 38 45 90 46 84 47 83 48 39 50 71 51 51 52 70 53 52 54 55 55
REMARK SMILES IDX 69 56 88 57 53 58 54 59 68 61 89 62 56 63 40 64 41 65 49 66
REMARK SMILES IDX 42 67 48 68 50 69 47 70 43 71 44 72 45 73 46 74 72 75 73 76
REMARK SMILES IDX 81 77 74 78 80 79 82 80 79 81 75 82 76 83 77 84 78 85 57 86
REMARK SMILES IDX 58 87 66 88 59 89 65 90 67 91 64 92 60 93 61 94 62 95 63 96
REMARK H PARENT 21 26 87 49 55 60
REMARK Flexibility Score: inf
ROOT
ATOM      1  O   UNL A   1      31.766  30.447  27.182  1.00  0.00    -0.374 OA
ENDROOT
BRANCH   1   2
ATOM      2  C   UNL A   1      32.176  29.243  26.541  1.00  0.00     0.202 C 
BRANCH   2   3
ATOM      3  C   UNL A   1      33.287  29.385  25.500  1.00  0.00     0.261 C 
BRANCH   3   4
ATOM      4  O   UNL A   1      32.785  29.289  24.155  1.00  0.00    -0.463 OA
BRANCH   4   5
ATOM      5  C   UNL A   1      33.405  28.594  23.167  1.00  0.00     0.310 C 
ATOM      6  O   UNL A   1      34.545  28.909  22.815  1.00  0.00    -0.252 OA
BRANCH   5   7
ATOM      7  C   UNL A   1      32.662  27.487  22.465  1.00  0.00     0.163 C 
BRANCH   7   8
ATOM      8  C   UNL A   1      31.379  27.035  23.105  1.00  0.00     0.024 A 
ATOM      9  C   UNL A   1      30.196  27.691  22.817  1.00  0.00     0.121 A 
ATOM     10  C   UNL A   1      31.277  25.946  23.965  1.00  0.00     0.135 A 
ATOM     11  N   UNL A   1      29.010  27.360  23.346  1.00  0.00    -0.244 NA
ATOM     12  N   UNL A   1      30.109  25.587  24.518  1.00  0.00    -0.219 NA
ATOM     13  C   UNL A   1      29.033  26.318  24.188  1.00  0.00     0.224 A 
BRANCH  10  14
ATOM     14  N   UNL A   1      32.407  25.190  24.233  1.00  0.00    -0.356 N 
ATOM     15  C   UNL A   1      32.437  23.875  23.609  1.00  0.00     0.121 C 
ATOM     16  C   UNL A   1      32.891  25.171  25.612  1.00  0.00     0.121 C 
ATOM     17  C   UNL A   1      33.900  23.493  23.430  1.00  0.00     0.060 C 
ATOM     18  C   UNL A   1      34.385  24.840  25.574  1.00  0.00     0.060 C 
ATOM     19  C   UNL A   1      34.725  23.573  24.745  1.00  0.00     0.097 C 
ATOM     20  O   UNL A   1      34.397  22.468  25.613  1.00  0.00    -0.372 OA
ATOM     21  C   UNL A   1      36.249  23.579  24.384  1.00  0.00     0.146 C 
ATOM     22  C   UNL A   1      34.845  21.179  25.203  1.00  0.00     0.161 C 
ATOM     23  C   UNL A   1      36.710  22.211  23.885  1.00  0.00     0.037 C 
ATOM     24  C   UNL A   1      36.334  21.136  24.895  1.00  0.00     0.031 C 
BRANCH  21  25
ATOM     25  O   UNL A   1      37.081  23.907  25.503  1.00  0.00    -0.390 OA
ATOM     26  H   UNL A   1      36.619  23.688  26.326  1.00  0.00     0.211 HD
ENDBRANCH  21  25
ENDBRANCH  10  14
ENDBRANCH   7   8
ENDBRANCH   5   7
ENDBRANCH   4   5
ENDBRANCH   3   4
ENDBRANCH   2   3
ENDBRANCH   1   2
BRANCH   1  27
ATOM     27  C   UNL A   1      31.424  31.567  26.363  1.00  0.00     0.202 C 
BRANCH  27  28
ATOM     28  C   UNL A   1      31.859  32.974  26.799  1.00  0.00     0.261 C 
BRANCH  28  29
ATOM     29  O   UNL A   1      32.331  33.072  28.158  1.00  0.00    -0.460 OA
BRANCH  29  30
ATOM     30  C   UNL A   1      33.465  33.805  28.291  1.00  0.00     0.338 C 
ATOM     31  O   UNL A   1      33.532  34.995  28.556  1.00  0.00    -0.246 OA
BRANCH  30  32
ATOM     32  C   UNL A   1      34.683  32.982  28.195  1.00  0.00     0.060 A 
ATOM     33  C   UNL A   1      34.587  31.640  28.587  1.00  0.00     0.016 A 
ATOM     34  C   UNL A   1      35.931  33.582  28.015  1.00  0.00     0.016 A 
ATOM     35  C   UNL A   1      35.740  30.923  28.901  1.00  0.00     0.010 A 
ATOM     36  C   UNL A   1      37.089  32.860  28.335  1.00  0.00     0.010 A 
ATOM     37  C   UNL A   1      36.991  31.553  28.848  1.00  0.00    -0.014 A 
BRANCH  37  38
ATOM     38  C   UNL A   1      38.133  30.932  29.571  1.00  0.00     0.031 A 
ATOM     39  C   UNL A   1      38.363  31.308  31.015  1.00  0.00     0.074 A 
ATOM     40  C   UNL A   1      38.911  30.007  28.985  1.00  0.00     0.049 A 
ATOM     41  N   UNL A   1      39.262  30.870  31.859  1.00  0.00    -0.248 NA
ATOM     42  C   UNL A   1      37.452  32.318  31.579  1.00  0.00     0.031 C 
ATOM     43  C   UNL A   1      38.772  29.533  27.610  1.00  0.00     0.029 A 
ATOM     44  N   UNL A   1      39.974  29.293  29.482  1.00  0.00    -0.354 N 
ATOM     45  C   UNL A   1      39.028  31.550  33.051  1.00  0.00     0.074 A 
ATOM     46  C   UNL A   1      37.927  32.457  32.807  1.00  0.00     0.031 C 
ATOM     47  C   UNL A   1      39.717  28.609  27.370  1.00  0.00     0.029 A 
ATOM     48  C   UNL A   1      40.539  28.436  28.568  1.00  0.00     0.049 A 
ATOM     49  H   UNL A   1      40.300  29.387  30.405  1.00  0.00     0.167 HD
ATOM     50  C   UNL A   1      39.664  31.425  34.244  1.00  0.00     0.034 A 
ATOM     51  C   UNL A   1      41.601  27.614  28.684  1.00  0.00     0.034 A 
ATOM     52  C   UNL A   1      40.766  30.526  34.478  1.00  0.00     0.049 A 
ATOM     53  C   UNL A   1      42.322  27.522  30.006  1.00  0.00     0.074 A 
ATOM     54  C   UNL A   1      41.478  30.316  35.647  1.00  0.00     0.029 A 
ATOM     55  N   UNL A   1      41.325  29.690  33.520  1.00  0.00    -0.354 N 
ATOM     56  N   UNL A   1      42.080  28.159  31.129  1.00  0.00    -0.248 NA
ATOM     57  C   UNL A   1      43.451  26.583  30.080  1.00  0.00     0.031 C 
ATOM     58  C   UNL A   1      42.499  29.395  35.381  1.00  0.00     0.029 A 
ATOM     59  C   UNL A   1      42.384  28.981  34.063  1.00  0.00     0.049 A 
ATOM     60  H   UNL A   1      41.013  29.613  32.589  1.00  0.00     0.167 HD
ATOM     61  C   UNL A   1      43.005  27.671  32.049  1.00  0.00     0.074 A 
ATOM     62  C   UNL A   1      43.802  26.683  31.353  1.00  0.00     0.031 C 
ATOM     63  C   UNL A   1      43.174  28.003  33.355  1.00  0.00     0.034 A 
BRANCH  50  64
ATOM     64  C   UNL A   1      39.205  32.328  35.363  1.00  0.00     0.023 A 
ATOM     65  C   UNL A   1      39.656  33.655  35.477  1.00  0.00     0.031 A 
ATOM     66  C   UNL A   1      38.340  31.840  36.359  1.00  0.00     0.131 A 
ATOM     67  C   UNL A   1      39.299  34.424  36.597  1.00  0.00     0.055 A 
ATOM     68  C   UNL A   1      37.931  32.632  37.432  1.00  0.00     0.041 A 
ATOM     69  F   UNL A   1      37.895  30.574  36.314  1.00  0.00    -0.206 F 
ATOM     70  C   UNL A   1      38.422  33.927  37.564  1.00  0.00     0.022 A 
BRANCH  67  71
ATOM     71  S   UNL A   1      40.105  36.030  36.843  1.00  0.00     0.124 S 
ATOM     72  O   UNL A   1      39.391  36.543  38.010  1.00  0.00    -0.237 OA
ATOM     73  O   UNL A   1      41.497  35.655  37.059  1.00  0.00    -0.237 OA
ATOM     74  O   UNL A   1      39.837  36.743  35.595  1.00  0.00    -0.744 OA
ENDBRANCH  67  71
ENDBRANCH  50  64
BRANCH  51  75
ATOM     75  C   UNL A   1      42.066  26.818  27.515  1.00  0.00     0.023 A 
ATOM     76  C   UNL A   1      41.784  25.446  27.409  1.00  0.00     0.031 A 
ATOM     77  C   UNL A   1      42.848  27.414  26.510  1.00  0.00     0.131 A 
ATOM     78  C   UNL A   1      42.315  24.706  26.341  1.00  0.00     0.055 A 
ATOM     79  C   UNL A   1      43.337  26.681  25.427  1.00  0.00     0.041 A 
ATOM     80  F   UNL A   1      43.142  28.722  26.566  1.00  0.00    -0.206 F 
ATOM     81  C   UNL A   1      43.082  25.316  25.345  1.00  0.00     0.022 A 
BRANCH  78  82
ATOM     82  S   UNL A   1      42.045  22.913  26.309  1.00  0.00     0.124 S 
ATOM     83  O   UNL A   1      40.589  22.830  26.325  1.00  0.00    -0.237 OA
ATOM     84  O   UNL A   1      42.697  22.531  25.061  1.00  0.00    -0.237 OA
ATOM     85  O   UNL A   1      42.711  22.446  27.524  1.00  0.00    -0.744 OA
ENDBRANCH  78  82
ENDBRANCH  51  75
BRANCH  63  86
ATOM     86  C   UNL A   1      44.229  27.243  34.122  1.00  0.00     0.023 A 
ATOM     87  C   UNL A   1      45.555  27.700  34.213  1.00  0.00     0.031 A 
ATOM     88  C   UNL A   1      43.901  26.027  34.750  1.00  0.00     0.131 A 
ATOM     89  C   UNL A   1      46.519  26.918  34.867  1.00  0.00     0.055 A 
ATOM     90  C   UNL A   1      44.853  25.280  35.445  1.00  0.00     0.041 A 
ATOM     91  F   UNL A   1      42.649  25.546  34.695  1.00  0.00    -0.206 F 
ATOM     92  C   UNL A   1      46.174  25.718  35.493  1.00  0.00     0.022 A 
BRANCH  89  93
ATOM     93  S   UNL A   1      48.255  27.443  34.808  1.00  0.00     0.124 S 
ATOM     94  O   UNL A   1      48.442  28.031  36.131  1.00  0.00    -0.237 OA
ATOM     95  O   UNL A   1      48.952  26.185  34.566  1.00  0.00    -0.237 OA
ATOM     96  O   UNL A   1      48.289  28.394  33.698  1.00  0.00    -0.744 OA
ENDBRANCH  89  93
ENDBRANCH  63  86
ENDBRANCH  37  38
ENDBRANCH  30  32
ENDBRANCH  29  30
ENDBRANCH  28  29
ENDBRANCH  27  28
ENDBRANCH   1  27
TORSDOF 20
ENDMDL
MODEL 2
REMARK VINA RESULT:     -11.2      1.569      7.842
REMARK SMILES O=C(Cc1cncnc1N1CCC2(CC1)OCCC[C@@H]2O)OCCOCCOC(=O)c1ccc(-c2c3nc(c(-c4cc(S(=O)(=O)[O-])ccc4F)c4ccc([nH]4)c(-c4cc(S(=O)(=O)[O-])ccc4F)c4nc(c(-c5cc(S(=O)(=O)[O-])ccc5F)c5ccc2[nH]5)C=C4)C=C3)cc1
REMARK SMILES IDX 25 1 24 2 23 3 22 4 2 5 1 6 3 7 4 8 5 9 9 10 6 11 8 12 7 13
REMARK SMILES IDX 10 14 11 15 15 16 12 17 14 18 13 19 16 20 20 21 17 22 19 23
REMARK SMILES IDX 18 24 21 25 26 27 27 28 28 29 29 30 30 31 31 32 32 33 93 34
REMARK SMILES IDX 33 35 92 36 34 37 35 38 36 39 86 40 37 41 91 42 85 43 87 44
REMARK SMILES IDX 38 45 90 46 84 47 83 48 39 50 71 51 51 52 70 53 52 54 55 55
REMARK SMILES IDX 69 56 88 57 53 58 54 59 68 61 89 62 56 63 40 64 41 65 49 66
REMARK SMILES IDX 42 67 48 68 50 69 47 70 43 71 44 72 45 73 46 74 72 75 73 76
REMARK SMILES IDX 81 77 74 78 80 79 82 80 79 81 75 82 76 83 77 84 78 85 57 86
REMARK SMILES IDX 58 87 66 88 59 89 65 90 67 91 64 92 60 93 61 94 62 95 63 96
REMARK H PARENT 21 26 87 49 55 60
REMARK Flexibility Score: inf
ROOT
ATOM      1  O   UNL A   1      32.158  30.385  26.905  1.00  0.00    -0.374 OA
ENDROOT
BRANCH   1   2
ATOM      2  C   UNL A   1      31.851  29.172  26.226  1.00  0.00     0.202 C 
BRANCH   2   3
ATOM      3  C   UNL A   1      31.492  27.981  27.116  1.00  0.00     0.261 C 
BRANCH   3   4
ATOM      4  O   UNL A   1      32.048  26.749  26.623  1.00  0.00    -0.463 OA
BRANCH   4   5
ATOM      5  C   UNL A   1      31.347  25.590  26.527  1.00  0.00     0.310 C 
ATOM      6  O   UNL A   1      31.619  24.644  27.271  1.00  0.00    -0.252 OA
BRANCH   5   7
ATOM      7  C   UNL A   1      30.289  25.453  25.463  1.00  0.00     0.163 C 
BRANCH   7   8
ATOM      8  C   UNL A   1      30.479  26.281  24.223  1.00  0.00     0.024 A 
ATOM      9  C   UNL A   1      29.642  27.353  23.975  1.00  0.00     0.121 A 
ATOM     10  C   UNL A   1      31.490  26.069  23.291  1.00  0.00     0.135 A 
ATOM     11  N   UNL A   1      29.736  28.140  22.894  1.00  0.00    -0.244 NA
ATOM     12  N   UNL A   1      31.613  26.831  22.194  1.00  0.00    -0.219 NA
ATOM     13  C   UNL A   1      30.723  27.824  22.045  1.00  0.00     0.224 A 
BRANCH  10  14
ATOM     14  N   UNL A   1      32.417  25.064  23.517  1.00  0.00    -0.356 N 
ATOM     15  C   UNL A   1      33.765  25.519  23.823  1.00  0.00     0.121 C 
ATOM     16  C   UNL A   1      32.400  23.919  22.609  1.00  0.00     0.121 C 
ATOM     17  C   UNL A   1      34.428  24.435  24.662  1.00  0.00     0.060 C 
ATOM     18  C   UNL A   1      33.007  22.728  23.354  1.00  0.00     0.060 C 
ATOM     19  C   UNL A   1      34.385  23.029  24.001  1.00  0.00     0.097 C 
ATOM     20  O   UNL A   1      35.326  22.957  22.909  1.00  0.00    -0.372 OA
ATOM     21  C   UNL A   1      34.697  21.949  25.092  1.00  0.00     0.146 C 
ATOM     22  C   UNL A   1      36.707  22.945  23.257  1.00  0.00     0.161 C 
ATOM     23  C   UNL A   1      36.167  21.984  25.506  1.00  0.00     0.037 C 
ATOM     24  C   UNL A   1      37.056  21.872  24.276  1.00  0.00     0.031 C 
BRANCH  21  25
ATOM     25  O   UNL A   1      34.431  20.616  24.643  1.00  0.00    -0.390 OA
ATOM     26  H   UNL A   1      34.340  20.028  25.408  1.00  0.00     0.211 HD
ENDBRANCH  21  25
ENDBRANCH  10  14
ENDBRANCH   7   8
ENDBRANCH   5   7
ENDBRANCH   4   5
ENDBRANCH   3   4
ENDBRANCH   2   3
ENDBRANCH   1   2
BRANCH   1  27
ATOM     27  C   UNL A   1      31.359  31.536  26.628  1.00  0.00     0.202 C 
BRANCH  27  28
ATOM     28  C   UNL A   1      32.012  32.926  26.654  1.00  0.00     0.261 C 
BRANCH  28  29
ATOM     29  O   UNL A   1      32.141  33.514  27.964  1.00  0.00    -0.460 OA
BRANCH  29  30
ATOM     30  C   UNL A   1      33.317  34.164  28.159  1.00  0.00     0.338 C 
ATOM     31  O   UNL A   1      33.461  35.361  28.348  1.00  0.00    -0.246 OA
BRANCH  30  32
ATOM     32  C   UNL A   1      34.463  33.241  28.238  1.00  0.00     0.060 A 
ATOM     33  C   UNL A   1      34.250  31.999  28.850  1.00  0.00     0.016 A 
ATOM     34  C   UNL A   1      35.759  33.700  27.992  1.00  0.00     0.016 A 
ATOM     35  C   UNL A   1      35.335  31.256  29.313  1.00  0.00     0.010 A 
ATOM     36  C   UNL A   1      36.848  32.954  28.462  1.00  0.00     0.010 A 
ATOM     37  C   UNL A   1      36.635  31.766  29.188  1.00  0.00    -0.014 A 
BRANCH  37  38
ATOM     38  C   UNL A   1      37.712  31.190  30.037  1.00  0.00     0.031 A 
ATOM     39  C   UNL A   1      38.617  30.141  29.439  1.00  0.00     0.074 A 
ATOM     40  C   UNL A   1      37.927  31.631  31.288  1.00  0.00     0.049 A 
ATOM     41  N   UNL A   1      39.646  29.526  29.966  1.00  0.00    -0.248 NA
ATOM     42  C   UNL A   1      38.316  29.730  28.058  1.00  0.00     0.031 C 
ATOM     43  C   UNL A   1      37.146  32.662  31.967  1.00  0.00     0.029 A 
ATOM     44  N   UNL A   1      38.879  31.267  32.208  1.00  0.00    -0.354 N 
ATOM     45  C   UNL A   1      40.113  28.656  28.985  1.00  0.00     0.074 A 
ATOM     46  C   UNL A   1      39.231  28.797  27.846  1.00  0.00     0.031 C 
ATOM     47  C   UNL A   1      37.648  32.846  33.200  1.00  0.00     0.029 A 
ATOM     48  C   UNL A   1      38.774  31.936  33.404  1.00  0.00     0.049 A 
ATOM     49  H   UNL A   1      39.570  30.590  32.028  1.00  0.00     0.167 HD
ATOM     50  C   UNL A   1      41.185  27.824  29.022  1.00  0.00     0.034 A 
ATOM     51  C   UNL A   1      39.500  31.820  34.534  1.00  0.00     0.034 A 
ATOM     52  C   UNL A   1      42.054  27.683  30.163  1.00  0.00     0.049 A 
ATOM     53  C   UNL A   1      40.661  30.857  34.571  1.00  0.00     0.074 A 
ATOM     54  C   UNL A   1      43.169  26.874  30.306  1.00  0.00     0.029 A 
ATOM     55  N   UNL A   1      41.901  28.361  31.365  1.00  0.00    -0.354 N 
ATOM     56  N   UNL A   1      41.101  30.052  33.631  1.00  0.00    -0.248 NA
ATOM     57  C   UNL A   1      41.434  30.801  35.820  1.00  0.00     0.031 C 
ATOM     58  C   UNL A   1      43.657  27.024  31.611  1.00  0.00     0.029 A 
ATOM     59  C   UNL A   1      42.886  27.975  32.261  1.00  0.00     0.049 A 
ATOM     60  H   UNL A   1      41.196  29.021  31.553  1.00  0.00     0.167 HD
ATOM     61  C   UNL A   1      42.222  29.422  34.165  1.00  0.00     0.074 A 
ATOM     62  C   UNL A   1      42.394  29.944  35.504  1.00  0.00     0.031 C 
ATOM     63  C   UNL A   1      43.042  28.500  33.596  1.00  0.00     0.034 A 
BRANCH  50  64
ATOM     64  C   UNL A   1      41.431  26.968  27.803  1.00  0.00     0.023 A 
ATOM     65  C   UNL A   1      41.040  25.618  27.755  1.00  0.00     0.031 A 
ATOM     66  C   UNL A   1      42.109  27.497  26.691  1.00  0.00     0.131 A 
ATOM     67  C   UNL A   1      41.393  24.825  26.650  1.00  0.00     0.055 A 
ATOM     68  C   UNL A   1      42.394  26.723  25.565  1.00  0.00     0.041 A 
ATOM     69  F   UNL A   1      42.525  28.773  26.690  1.00  0.00    -0.206 F 
ATOM     70  C   UNL A   1      42.048  25.375  25.547  1.00  0.00     0.022 A 
BRANCH  67  71
ATOM     71  S   UNL A   1      41.105  23.036  26.736  1.00  0.00     0.124 S 
ATOM     72  O   UNL A   1      39.690  22.947  26.385  1.00  0.00    -0.237 OA
ATOM     73  O   UNL A   1      42.044  22.518  25.748  1.00  0.00    -0.237 OA
ATOM     74  O   UNL A   1      41.417  22.705  28.126  1.00  0.00    -0.744 OA
ENDBRANCH  67  71
ENDBRANCH  50  64
BRANCH  51  75
ATOM     75  C   UNL A   1      39.150  32.623  35.738  1.00  0.00     0.023 A 
ATOM     76  C   UNL A   1      39.625  33.934  35.904  1.00  0.00     0.031 A 
ATOM     77  C   UNL A   1      38.371  32.066  36.768  1.00  0.00     0.131 A 
ATOM     78  C   UNL A   1      39.352  34.630  37.091  1.00  0.00     0.055 A 
ATOM     79  C   UNL A   1      38.067  32.779  37.928  1.00  0.00     0.041 A 
ATOM     80  F   UNL A   1      37.892  30.817  36.655  1.00  0.00    -0.206 F 
ATOM     81  C   UNL A   1      38.568  34.065  38.100  1.00  0.00     0.022 A 
BRANCH  78  82
ATOM     82  S   UNL A   1      40.095  36.267  37.328  1.00  0.00     0.124 S 
ATOM     83  O   UNL A   1      41.460  35.923  37.710  1.00  0.00    -0.237 OA
ATOM     84  O   UNL A   1      39.929  36.869  36.009  1.00  0.00    -0.237 OA
ATOM     85  O   UNL A   1      39.280  36.861  38.387  1.00  0.00    -0.744 OA
ENDBRANCH  78  82
ENDBRANCH  51  75
BRANCH  63  86
ATOM     86  C   UNL A   1      44.230  28.048  34.409  1.00  0.00     0.023 A 
ATOM     87  C   UNL A   1      44.172  26.919  35.245  1.00  0.00     0.031 A 
ATOM     88  C   UNL A   1      45.431  28.778  34.363  1.00  0.00     0.131 A 
ATOM     89  C   UNL A   1      45.275  26.585  36.044  1.00  0.00     0.055 A 
ATOM     90  C   UNL A   1      46.544  28.410  35.121  1.00  0.00     0.041 A 
ATOM     91  F   UNL A   1      45.541  29.864  33.582  1.00  0.00    -0.206 F 
ATOM     92  C   UNL A   1      46.464  27.316  35.979  1.00  0.00     0.022 A 
BRANCH  89  93
ATOM     93  S   UNL A   1      45.106  25.236  37.245  1.00  0.00     0.124 S 
ATOM     94  O   UNL A   1      44.415  25.894  38.350  1.00  0.00    -0.237 OA
ATOM     95  O   UNL A   1      44.327  24.252  36.501  1.00  0.00    -0.237 OA
ATOM     96  O   UNL A   1      46.488  24.848  37.523  1.00  0.00    -0.744 OA
ENDBRANCH  89  93
ENDBRANCH  63  86
ENDBRANCH  37  38
ENDBRANCH  30  32
ENDBRANCH  29  30
ENDBRANCH  28  29
ENDBRANCH  27  28
ENDBRANCH   1  27
TORSDOF 20
ENDMDL
MODEL 3
REMARK VINA RESULT:     -11.2      2.650      9.122
REMARK SMILES O=C(Cc1cncnc1N1CCC2(CC1)OCCC[C@@H]2O)OCCOCCOC(=O)c1ccc(-c2c3nc(c(-c4cc(S(=O)(=O)[O-])ccc4F)c4ccc([nH]4)c(-c4cc(S(=O)(=O)[O-])ccc4F)c4nc(c(-c5cc(S(=O)(=O)[O-])ccc5F)c5ccc2[nH]5)C=C4)C=C3)cc1
REMARK SMILES IDX 25 1 24 2 23 3 22 4 2 5 1 6 3 7 4 8 5 9 9 10 6 11 8 12 7 13
REMARK SMILES IDX 10 14 11 15 15 16 12 17 14 18 13 19 16 20 20 21 17 22 19 23
REMARK SMILES IDX 18 24 21 25 26 27 27 28 28 29 29 30 30 31 31 32 32 33 93 34
REMARK SMILES IDX 33 35 92 36 34 37 35 38 36 39 86 40 37 41 91 42 85 43 87 44
REMARK SMILES IDX 38 45 90 46 84 47 83 48 39 50 71 51 51 52 70 53 52 54 55 55
REMARK SMILES IDX 69 56 88 57 53 58 54 59 68 61 89 62 56 63 40 64 41 65 49 66
REMARK SMILES IDX 42 67 48 68 50 69 47 70 43 71 44 72 45 73 46 74 72 75 73 76
REMARK SMILES IDX 81 77 74 78 80 79 82 80 79 81 75 82 76 83 77 84 78 85 57 86
REMARK SMILES IDX 58 87 66 88 59 89 65 90 67 91 64 92 60 93 61 94 62 95 63 96
REMARK H PARENT 21 26 87 49 55 60
REMARK Flexibility Score: inf
ROOT
ATOM      1  O   UNL A   1      41.132  21.704  25.650  1.00  0.00    -0.374 OA
ENDROOT
BRANCH   1   2
ATOM      2  C   UNL A   1      39.961  22.029  26.391  1.00  0.00     0.202 C 
BRANCH   2   3
ATOM      3  C   UNL A   1      38.636  21.563  25.787  1.00  0.00     0.261 C 
BRANCH   3   4
ATOM      4  O   UNL A   1      37.983  22.607  25.041  1.00  0.00    -0.463 OA
BRANCH   4   5
ATOM      5  C   UNL A   1      36.721  23.039  25.295  1.00  0.00     0.310 C 
ATOM      6  O   UNL A   1      36.429  23.457  26.418  1.00  0.00    -0.252 OA
BRANCH   5   7
ATOM      7  C   UNL A   1      35.674  22.936  24.216  1.00  0.00     0.163 C 
BRANCH   7   8
ATOM      8  C   UNL A   1      34.492  22.059  24.516  1.00  0.00     0.024 A 
ATOM      9  C   UNL A   1      34.679  20.715  24.783  1.00  0.00     0.121 A 
ATOM     10  C   UNL A   1      33.179  22.516  24.586  1.00  0.00     0.135 A 
ATOM     11  N   UNL A   1      33.683  19.861  25.054  1.00  0.00    -0.244 NA
ATOM     12  N   UNL A   1      32.155  21.690  24.848  1.00  0.00    -0.219 NA
ATOM     13  C   UNL A   1      32.457  20.400  25.060  1.00  0.00     0.224 A 
BRANCH  10  14
ATOM     14  N   UNL A   1      32.924  23.867  24.412  1.00  0.00    -0.356 N 
ATOM     15  C   UNL A   1      33.289  24.717  25.535  1.00  0.00     0.121 C 
ATOM     16  C   UNL A   1      31.642  24.237  23.816  1.00  0.00     0.121 C 
ATOM     17  C   UNL A   1      33.583  26.103  24.976  1.00  0.00     0.060 C 
ATOM     18  C   UNL A   1      31.813  25.613  23.168  1.00  0.00     0.060 C 
ATOM     19  C   UNL A   1      32.427  26.679  24.113  1.00  0.00     0.097 C 
ATOM     20  O   UNL A   1      31.331  27.098  24.954  1.00  0.00    -0.372 OA
ATOM     21  C   UNL A   1      32.978  27.874  23.263  1.00  0.00     0.146 C 
ATOM     22  C   UNL A   1      31.547  28.256  25.754  1.00  0.00     0.161 C 
ATOM     23  C   UNL A   1      33.268  29.093  24.136  1.00  0.00     0.037 C 
ATOM     24  C   UNL A   1      32.034  29.453  24.952  1.00  0.00     0.031 C 
BRANCH  21  25
ATOM     25  O   UNL A   1      32.060  28.305  22.252  1.00  0.00    -0.390 OA
ATOM     26  H   UNL A   1      32.248  29.225  22.014  1.00  0.00     0.211 HD
ENDBRANCH  21  25
ENDBRANCH  10  14
ENDBRANCH   7   8
ENDBRANCH   5   7
ENDBRANCH   4   5
ENDBRANCH   3   4
ENDBRANCH   2   3
ENDBRANCH   1   2
BRANCH   1  27
ATOM     27  C   UNL A   1      42.395  21.781  26.311  1.00  0.00     0.202 C 
BRANCH  27  28
ATOM     28  C   UNL A   1      43.590  22.405  25.575  1.00  0.00     0.261 C 
BRANCH  28  29
ATOM     29  O   UNL A   1      43.254  23.464  24.655  1.00  0.00    -0.460 OA
BRANCH  29  30
ATOM     30  C   UNL A   1      43.888  24.635  24.915  1.00  0.00     0.338 C 
ATOM     31  O   UNL A   1      45.045  24.909  24.640  1.00  0.00    -0.246 OA
BRANCH  30  32
ATOM     32  C   UNL A   1      42.985  25.649  25.488  1.00  0.00     0.060 A 
ATOM     33  C   UNL A   1      43.562  26.843  25.940  1.00  0.00     0.016 A 
ATOM     34  C   UNL A   1      41.676  25.314  25.838  1.00  0.00     0.016 A 
ATOM     35  C   UNL A   1      42.865  27.658  26.832  1.00  0.00     0.010 A 
ATOM     36  C   UNL A   1      40.979  26.133  26.737  1.00  0.00     0.010 A 
ATOM     37  C   UNL A   1      41.600  27.268  27.292  1.00  0.00    -0.014 A 
BRANCH  37  38
ATOM     38  C   UNL A   1      41.064  27.901  28.527  1.00  0.00     0.031 A 
ATOM     39  C   UNL A   1      41.847  27.756  29.810  1.00  0.00     0.074 A 
ATOM     40  C   UNL A   1      39.945  28.644  28.502  1.00  0.00     0.049 A 
ATOM     41  N   UNL A   1      41.603  28.251  30.997  1.00  0.00    -0.248 NA
ATOM     42  C   UNL A   1      43.068  26.938  29.740  1.00  0.00     0.031 C 
ATOM     43  C   UNL A   1      39.119  28.889  27.321  1.00  0.00     0.029 A 
ATOM     44  N   UNL A   1      39.314  29.337  29.505  1.00  0.00    -0.354 N 
ATOM     45  C   UNL A   1      42.638  27.805  31.815  1.00  0.00     0.074 A 
ATOM     46  C   UNL A   1      43.488  26.968  30.995  1.00  0.00     0.031 C 
ATOM     47  C   UNL A   1      38.086  29.675  27.669  1.00  0.00     0.029 A 
ATOM     48  C   UNL A   1      38.167  29.976  29.098  1.00  0.00     0.049 A 
ATOM     49  H   UNL A   1      39.652  29.373  30.428  1.00  0.00     0.167 HD
ATOM     50  C   UNL A   1      42.867  28.075  33.125  1.00  0.00     0.034 A 
ATOM     51  C   UNL A   1      37.283  30.712  29.800  1.00  0.00     0.034 A 
ATOM     52  C   UNL A   1      42.011  28.902  33.937  1.00  0.00     0.049 A 
ATOM     53  C   UNL A   1      37.532  30.963  31.267  1.00  0.00     0.074 A 
ATOM     54  C   UNL A   1      42.152  29.244  35.272  1.00  0.00     0.029 A 
ATOM     55  N   UNL A   1      40.845  29.513  33.494  1.00  0.00    -0.354 N 
ATOM     56  N   UNL A   1      38.522  30.548  32.024  1.00  0.00    -0.248 NA
ATOM     57  C   UNL A   1      36.549  31.801  31.970  1.00  0.00     0.031 C 
ATOM     58  C   UNL A   1      41.045  30.016  35.647  1.00  0.00     0.029 A 
ATOM     59  C   UNL A   1      40.247  30.210  34.531  1.00  0.00     0.049 A 
ATOM     60  H   UNL A   1      40.496  29.458  32.575  1.00  0.00     0.167 HD
ATOM     61  C   UNL A   1      38.298  31.103  33.281  1.00  0.00     0.074 A 
ATOM     62  C   UNL A   1      37.085  31.887  33.179  1.00  0.00     0.031 C 
ATOM     63  C   UNL A   1      39.033  30.983  34.416  1.00  0.00     0.034 A 
BRANCH  50  64
ATOM     64  C   UNL A   1      44.068  27.416  33.761  1.00  0.00     0.023 A 
ATOM     65  C   UNL A   1      43.996  26.129  34.322  1.00  0.00     0.031 A 
ATOM     66  C   UNL A   1      45.290  28.105  33.848  1.00  0.00     0.131 A 
ATOM     67  C   UNL A   1      45.102  25.601  35.008  1.00  0.00     0.055 A 
ATOM     68  C   UNL A   1      46.408  27.546  34.468  1.00  0.00     0.041 A 
ATOM     69  F   UNL A   1      45.411  29.346  33.349  1.00  0.00    -0.206 F 
ATOM     70  C   UNL A   1      46.314  26.293  35.066  1.00  0.00     0.022 A 
BRANCH  67  71
ATOM     71  S   UNL A   1      44.892  24.060  35.942  1.00  0.00     0.124 S 
ATOM     72  O   UNL A   1      45.901  23.201  35.326  1.00  0.00    -0.237 OA
ATOM     73  O   UNL A   1      45.161  24.481  37.312  1.00  0.00    -0.237 OA
ATOM     74  O   UNL A   1      43.508  23.678  35.666  1.00  0.00    -0.744 OA
ENDBRANCH  67  71
ENDBRANCH  50  64
BRANCH  51  75
ATOM     75  C   UNL A   1      36.065  31.256  29.139  1.00  0.00     0.023 A 
ATOM     76  C   UNL A   1      35.708  32.608  29.268  1.00  0.00     0.031 A 
ATOM     77  C   UNL A   1      35.211  30.412  28.407  1.00  0.00     0.131 A 
ATOM     78  C   UNL A   1      34.506  33.069  28.709  1.00  0.00     0.055 A 
ATOM     79  C   UNL A   1      34.038  30.885  27.816  1.00  0.00     0.041 A 
ATOM     80  F   UNL A   1      35.510  29.113  28.253  1.00  0.00    -0.206 F 
ATOM     81  C   UNL A   1      33.674  32.219  27.976  1.00  0.00     0.022 A 
BRANCH  78  82
ATOM     82  S   UNL A   1      34.010  34.786  29.011  1.00  0.00     0.124 S 
ATOM     83  O   UNL A   1      34.821  35.507  28.037  1.00  0.00    -0.237 OA
ATOM     84  O   UNL A   1      32.576  34.739  28.745  1.00  0.00    -0.237 OA
ATOM     85  O   UNL A   1      34.373  35.004  30.411  1.00  0.00    -0.744 OA
ENDBRANCH  78  82
ENDBRANCH  51  75
BRANCH  63  86
ATOM     86  C   UNL A   1      38.568  31.768  35.618  1.00  0.00     0.023 A 
ATOM     87  C   UNL A   1      37.986  31.143  36.734  1.00  0.00     0.031 A 
ATOM     88  C   UNL A   1      38.688  33.170  35.631  1.00  0.00     0.131 A 
ATOM     89  C   UNL A   1      37.494  31.921  37.792  1.00  0.00     0.055 A 
ATOM     90  C   UNL A   1      38.244  33.935  36.710  1.00  0.00     0.041 A 
ATOM     91  F   UNL A   1      39.237  33.817  34.591  1.00  0.00    -0.206 F 
ATOM     92  C   UNL A   1      37.630  33.312  37.793  1.00  0.00     0.022 A 
BRANCH  89  93
ATOM     93  S   UNL A   1      36.585  31.099  39.131  1.00  0.00     0.124 S 
ATOM     94  O   UNL A   1      37.555  31.125  40.221  1.00  0.00    -0.237 OA
ATOM     95  O   UNL A   1      35.421  31.965  39.293  1.00  0.00    -0.237 OA
ATOM     96  O   UNL A   1      36.299  29.772  38.588  1.00  0.00    -0.744 OA
ENDBRANCH  89  93
ENDBRANCH  63  86
ENDBRANCH  37  38
ENDBRANCH  30  32
ENDBRANCH  29  30
ENDBRANCH  28  29
ENDBRANCH  27  28
ENDBRANCH   1  27
TORSDOF 20
ENDMDL
