MODEL 1
REMARK VINA RESULT:     -11.3      0.000      0.000
REMARK SMILES Cc1cccc(Cl)c1Nc1ccccc1CC(=O)OCCOCCOC(=O)c1ccc(-c2c3nc(c(-c4cc(S(=O)(=O)[O-])ccc4F)c4ccc([nH]4)c(-c4cc(S(=O)(=O)[O-])ccc4F)c4nc(c(-c5cc(S(=O)(=O)[O-])ccc5F)c5ccc2[nH]5)C=C4)C=C3)cc1
REMARK SMILES IDX 22 1 21 2 20 3 19 4 17 5 18 6 16 7 15 8 10 9 11 10 12 11
REMARK SMILES IDX 14 12 13 13 9 14 8 16 1 17 2 18 3 19 4 20 6 21 5 22 7 23
REMARK SMILES IDX 23 24 24 25 25 26 26 27 27 28 28 29 29 30 90 31 30 32 89 33
REMARK SMILES IDX 31 34 32 35 33 36 83 37 34 38 88 39 82 40 84 41 35 42 87 43
REMARK SMILES IDX 81 44 80 45 36 47 68 48 48 49 67 50 49 51 52 52 66 53 85 54
REMARK SMILES IDX 50 55 51 56 65 58 86 59 53 60 37 61 38 62 46 63 39 64 45 65
REMARK SMILES IDX 47 66 44 67 40 68 41 69 42 70 43 71 69 72 70 73 78 74 71 75
REMARK SMILES IDX 77 76 79 77 76 78 72 79 73 80 74 81 75 82 54 83 55 84 63 85
REMARK SMILES IDX 56 86 62 87 64 88 61 89 57 90 58 91 59 92 60 93
REMARK H PARENT 9 15 84 46 52 57
REMARK Flexibility Score: inf
ROOT
ATOM      1  O   UNL A   1      35.906  22.683  25.833  1.00  0.00    -0.374 OA
ENDROOT
BRANCH   1   2
ATOM      2  C   UNL A   1      35.687  23.644  24.800  1.00  0.00     0.202 C 
BRANCH   2   3
ATOM      3  C   UNL A   1      34.428  23.481  23.941  1.00  0.00     0.261 C 
BRANCH   3   4
ATOM      4  O   UNL A   1      34.496  24.187  22.686  1.00  0.00    -0.463 OA
BRANCH   4   5
ATOM      5  C   UNL A   1      33.668  25.257  22.581  1.00  0.00     0.310 C 
ATOM      6  O   UNL A   1      33.608  25.990  21.596  1.00  0.00    -0.252 OA
BRANCH   5   7
ATOM      7  C   UNL A   1      32.814  25.536  23.793  1.00  0.00     0.160 C 
BRANCH   7   8
ATOM      8  C   UNL A   1      32.778  26.926  24.400  1.00  0.00    -0.013 A 
ATOM      9  C   UNL A   1      32.013  27.991  23.875  1.00  0.00     0.042 A 
ATOM     10  C   UNL A   1      32.112  29.262  24.476  1.00  0.00     0.026 A 
ATOM     11  C   UNL A   1      32.884  29.474  25.617  1.00  0.00     0.002 A 
ATOM     12  C   UNL A   1      33.507  27.151  25.587  1.00  0.00     0.006 A 
ATOM     13  C   UNL A   1      33.563  28.409  26.188  1.00  0.00     0.000 A 
BRANCH   9  14
ATOM     14  N   UNL A   1      31.027  27.843  22.878  1.00  0.00    -0.354 N 
ATOM     15  H   UNL A   1      31.370  27.540  22.006  1.00  0.00     0.167 HD
BRANCH  14  16
ATOM     16  C   UNL A   1      29.627  28.055  22.915  1.00  0.00     0.060 A 
ATOM     17  C   UNL A   1      29.383  25.734  23.949  1.00  0.00     0.046 C 
ATOM     18  C   UNL A   1      28.820  27.070  23.536  1.00  0.00    -0.026 A 
ATOM     19  C   UNL A   1      27.475  27.350  23.834  1.00  0.00     0.005 A 
ATOM     20  C   UNL A   1      26.908  28.577  23.501  1.00  0.00     0.002 A 
ATOM     21  C   UNL A   1      29.003  29.261  22.508  1.00  0.00     0.064 A 
ATOM     22  C   UNL A   1      27.663  29.522  22.819  1.00  0.00     0.023 A 
ATOM     23  Cl  UNL A   1      29.803  30.469  21.555  1.00  0.00    -0.082 Cl
ENDBRANCH  14  16
ENDBRANCH   9  14
ENDBRANCH   7   8
ENDBRANCH   5   7
ENDBRANCH   4   5
ENDBRANCH   3   4
ENDBRANCH   2   3
ENDBRANCH   1   2
BRANCH   1  24
ATOM     24  C   UNL A   1      35.723  21.312  25.487  1.00  0.00     0.202 C 
BRANCH  24  25
ATOM     25  C   UNL A   1      36.983  20.469  25.252  1.00  0.00     0.261 C 
BRANCH  25  26
ATOM     26  O   UNL A   1      38.151  21.280  25.035  1.00  0.00    -0.460 OA
BRANCH  26  27
ATOM     27  C   UNL A   1      39.174  21.024  25.886  1.00  0.00     0.338 C 
ATOM     28  O   UNL A   1      39.764  19.959  26.019  1.00  0.00    -0.246 OA
BRANCH  27  29
ATOM     29  C   UNL A   1      39.648  22.267  26.522  1.00  0.00     0.060 A 
ATOM     30  C   UNL A   1      39.087  23.467  26.066  1.00  0.00     0.016 A 
ATOM     31  C   UNL A   1      40.671  22.281  27.473  1.00  0.00     0.016 A 
ATOM     32  C   UNL A   1      39.592  24.687  26.505  1.00  0.00     0.010 A 
ATOM     33  C   UNL A   1      41.184  23.511  27.908  1.00  0.00     0.010 A 
ATOM     34  C   UNL A   1      40.675  24.717  27.392  1.00  0.00    -0.014 A 
BRANCH  34  35
ATOM     35  C   UNL A   1      41.371  26.008  27.626  1.00  0.00     0.031 A 
ATOM     36  C   UNL A   1      40.652  27.092  28.386  1.00  0.00     0.074 A 
ATOM     37  C   UNL A   1      42.645  26.186  27.233  1.00  0.00     0.049 A 
ATOM     38  N   UNL A   1      41.064  28.286  28.721  1.00  0.00    -0.248 NA
ATOM     39  C   UNL A   1      39.283  26.780  28.826  1.00  0.00     0.031 C 
ATOM     40  C   UNL A   1      43.458  25.189  26.538  1.00  0.00     0.029 A 
ATOM     41  N   UNL A   1      43.481  27.266  27.368  1.00  0.00    -0.354 N 
ATOM     42  C   UNL A   1      40.007  28.871  29.414  1.00  0.00     0.074 A 
ATOM     43  C   UNL A   1      38.922  27.913  29.410  1.00  0.00     0.031 C 
ATOM     44  C   UNL A   1      44.677  25.707  26.305  1.00  0.00     0.029 A 
ATOM     45  C   UNL A   1      44.720  27.080  26.802  1.00  0.00     0.049 A 
ATOM     46  H   UNL A   1      43.217  28.096  27.827  1.00  0.00     0.167 HD
ATOM     47  C   UNL A   1      39.952  30.090  30.006  1.00  0.00     0.034 A 
ATOM     48  C   UNL A   1      45.761  27.930  26.681  1.00  0.00     0.034 A 
ATOM     49  C   UNL A   1      41.039  31.039  29.989  1.00  0.00     0.049 A 
ATOM     50  C   UNL A   1      45.645  29.315  27.271  1.00  0.00     0.074 A 
ATOM     51  C   UNL A   1      41.095  32.298  30.560  1.00  0.00     0.029 A 
ATOM     52  N   UNL A   1      42.259  30.838  29.355  1.00  0.00    -0.354 N 
ATOM     53  N   UNL A   1      44.643  29.853  27.927  1.00  0.00    -0.248 NA
ATOM     54  C   UNL A   1      46.805  30.202  27.114  1.00  0.00     0.031 C 
ATOM     55  C   UNL A   1      42.316  32.885  30.213  1.00  0.00     0.029 A 
ATOM     56  C   UNL A   1      43.059  31.962  29.492  1.00  0.00     0.049 A 
ATOM     57  H   UNL A   1      42.518  30.016  28.879  1.00  0.00     0.167 HD
ATOM     58  C   UNL A   1      45.065  31.130  28.287  1.00  0.00     0.074 A 
ATOM     59  C   UNL A   1      46.416  31.276  27.786  1.00  0.00     0.031 C 
ATOM     60  C   UNL A   1      44.402  32.096  28.975  1.00  0.00     0.034 A 
BRANCH  47  61
ATOM     61  C   UNL A   1      38.652  30.480  30.670  1.00  0.00     0.023 A 
ATOM     62  C   UNL A   1      37.609  31.100  29.958  1.00  0.00     0.031 A 
ATOM     63  C   UNL A   1      38.466  30.258  32.046  1.00  0.00     0.131 A 
ATOM     64  C   UNL A   1      36.462  31.539  30.636  1.00  0.00     0.055 A 
ATOM     65  C   UNL A   1      37.289  30.626  32.700  1.00  0.00     0.041 A 
ATOM     66  F   UNL A   1      39.434  29.692  32.784  1.00  0.00    -0.206 F 
ATOM     67  C   UNL A   1      36.284  31.284  31.998  1.00  0.00     0.022 A 
BRANCH  64  68
ATOM     68  S   UNL A   1      35.268  32.574  29.744  1.00  0.00     0.124 S 
ATOM     69  O   UNL A   1      36.139  33.590  29.158  1.00  0.00    -0.237 OA
ATOM     70  O   UNL A   1      34.667  31.629  28.811  1.00  0.00    -0.237 OA
ATOM     71  O   UNL A   1      34.380  33.059  30.799  1.00  0.00    -0.744 OA
ENDBRANCH  64  68
ENDBRANCH  47  61
BRANCH  48  72
ATOM     72  C   UNL A   1      46.989  27.518  25.940  1.00  0.00     0.023 A 
ATOM     73  C   UNL A   1      47.180  27.859  24.593  1.00  0.00     0.031 A 
ATOM     74  C   UNL A   1      47.970  26.727  26.566  1.00  0.00     0.131 A 
ATOM     75  C   UNL A   1      48.301  27.374  23.901  1.00  0.00     0.055 A 
ATOM     76  C   UNL A   1      49.111  26.291  25.888  1.00  0.00     0.041 A 
ATOM     77  F   UNL A   1      47.838  26.369  27.853  1.00  0.00    -0.206 F 
ATOM     78  C   UNL A   1      49.274  26.605  24.542  1.00  0.00     0.022 A 
BRANCH  75  79
ATOM     79  S   UNL A   1      48.431  27.695  22.120  1.00  0.00     0.124 S 
ATOM     80  O   UNL A   1      49.595  28.572  22.060  1.00  0.00    -0.237 OA
ATOM     81  O   UNL A   1      48.611  26.350  21.583  1.00  0.00    -0.237 OA
ATOM     82  O   UNL A   1      47.154  28.328  21.794  1.00  0.00    -0.744 OA
ENDBRANCH  75  79
ENDBRANCH  48  72
BRANCH  60  83
ATOM     83  C   UNL A   1      45.150  33.374  29.263  1.00  0.00     0.023 A 
ATOM     84  C   UNL A   1      45.156  34.451  28.359  1.00  0.00     0.031 A 
ATOM     85  C   UNL A   1      45.877  33.512  30.459  1.00  0.00     0.131 A 
ATOM     86  C   UNL A   1      45.918  35.596  28.640  1.00  0.00     0.055 A 
ATOM     87  C   UNL A   1      46.584  34.677  30.761  1.00  0.00     0.041 A 
ATOM     88  F   UNL A   1      45.908  32.515  31.359  1.00  0.00    -0.206 F 
ATOM     89  C   UNL A   1      46.617  35.722  29.843  1.00  0.00     0.022 A 
BRANCH  86  90
ATOM     90  S   UNL A   1      46.055  36.885  27.371  1.00  0.00     0.124 S 
ATOM     91  O   UNL A   1      47.299  37.550  27.748  1.00  0.00    -0.237 OA
ATOM     92  O   UNL A   1      46.096  36.107  26.138  1.00  0.00    -0.237 OA
ATOM     93  O   UNL A   1      44.844  37.682  27.560  1.00  0.00    -0.744 OA
ENDBRANCH  86  90
ENDBRANCH  60  83
ENDBRANCH  34  35
ENDBRANCH  27  29
ENDBRANCH  26  27
ENDBRANCH  25  26
ENDBRANCH  24  25
ENDBRANCH   1  24
TORSDOF 20
ENDMDL
MODEL 2
REMARK VINA RESULT:     -11.3      0.658      7.482
REMARK SMILES Cc1cccc(Cl)c1Nc1ccccc1CC(=O)OCCOCCOC(=O)c1ccc(-c2c3nc(c(-c4cc(S(=O)(=O)[O-])ccc4F)c4ccc([nH]4)c(-c4cc(S(=O)(=O)[O-])ccc4F)c4nc(c(-c5cc(S(=O)(=O)[O-])ccc5F)c5ccc2[nH]5)C=C4)C=C3)cc1
REMARK SMILES IDX 22 1 21 2 20 3 19 4 17 5 18 6 16 7 15 8 10 9 11 10 12 11
REMARK SMILES IDX 14 12 13 13 9 14 8 16 1 17 2 18 3 19 4 20 6 21 5 22 7 23
REMARK SMILES IDX 23 24 24 25 25 26 26 27 27 28 28 29 29 30 90 31 30 32 89 33
REMARK SMILES IDX 31 34 32 35 33 36 83 37 34 38 88 39 82 40 84 41 35 42 87 43
REMARK SMILES IDX 81 44 80 45 36 47 68 48 48 49 67 50 49 51 52 52 66 53 85 54
REMARK SMILES IDX 50 55 51 56 65 58 86 59 53 60 37 61 38 62 46 63 39 64 45 65
REMARK SMILES IDX 47 66 44 67 40 68 41 69 42 70 43 71 69 72 70 73 78 74 71 75
REMARK SMILES IDX 77 76 79 77 76 78 72 79 73 80 74 81 75 82 54 83 55 84 63 85
REMARK SMILES IDX 56 86 62 87 64 88 61 89 57 90 58 91 59 92 60 93
REMARK H PARENT 9 15 84 46 52 57
REMARK Flexibility Score: inf
ROOT
ATOM      1  O   UNL A   1      36.046  21.691  25.420  1.00  0.00    -0.374 OA
ENDROOT
BRANCH   1   2
ATOM      2  C   UNL A   1      35.860  22.694  24.422  1.00  0.00     0.202 C 
BRANCH   2   3
ATOM      3  C   UNL A   1      34.420  23.128  24.119  1.00  0.00     0.261 C 
BRANCH   3   4
ATOM      4  O   UNL A   1      34.285  23.825  22.865  1.00  0.00    -0.463 OA
BRANCH   4   5
ATOM      5  C   UNL A   1      33.882  25.117  22.963  1.00  0.00     0.310 C 
ATOM      6  O   UNL A   1      34.064  25.966  22.093  1.00  0.00    -0.252 OA
BRANCH   5   7
ATOM      7  C   UNL A   1      33.203  25.486  24.259  1.00  0.00     0.160 C 
BRANCH   7   8
ATOM      8  C   UNL A   1      33.073  26.941  24.668  1.00  0.00    -0.013 A 
ATOM      9  C   UNL A   1      32.244  27.871  24.003  1.00  0.00     0.042 A 
ATOM     10  C   UNL A   1      32.257  29.217  24.422  1.00  0.00     0.026 A 
ATOM     11  C   UNL A   1      33.007  29.634  25.520  1.00  0.00     0.002 A 
ATOM     12  C   UNL A   1      33.779  27.375  25.810  1.00  0.00     0.006 A 
ATOM     13  C   UNL A   1      33.750  28.704  26.231  1.00  0.00     0.000 A 
BRANCH   9  14
ATOM     14  N   UNL A   1      31.276  27.523  23.039  1.00  0.00    -0.354 N 
ATOM     15  H   UNL A   1      31.635  27.058  22.248  1.00  0.00     0.167 HD
BRANCH  14  16
ATOM     16  C   UNL A   1      29.874  27.727  23.013  1.00  0.00     0.060 A 
ATOM     17  C   UNL A   1      29.601  25.438  24.109  1.00  0.00     0.046 C 
ATOM     18  C   UNL A   1      29.048  26.756  23.632  1.00  0.00    -0.026 A 
ATOM     19  C   UNL A   1      27.690  27.036  23.865  1.00  0.00     0.005 A 
ATOM     20  C   UNL A   1      27.130  28.248  23.472  1.00  0.00     0.002 A 
ATOM     21  C   UNL A   1      29.260  28.915  22.543  1.00  0.00     0.064 A 
ATOM     22  C   UNL A   1      27.908  29.176  22.791  1.00  0.00     0.023 A 
ATOM     23  Cl  UNL A   1      30.091  30.098  21.585  1.00  0.00    -0.082 Cl
ENDBRANCH  14  16
ENDBRANCH   9  14
ENDBRANCH   7   8
ENDBRANCH   5   7
ENDBRANCH   4   5
ENDBRANCH   3   4
ENDBRANCH   2   3
ENDBRANCH   1   2
BRANCH   1  24
ATOM     24  C   UNL A   1      36.431  20.395  24.968  1.00  0.00     0.202 C 
BRANCH  24  25
ATOM     25  C   UNL A   1      37.908  20.007  25.114  1.00  0.00     0.261 C 
BRANCH  25  26
ATOM     26  O   UNL A   1      38.759  21.152  25.302  1.00  0.00    -0.460 OA
BRANCH  26  27
ATOM     27  C   UNL A   1      39.747  20.969  26.210  1.00  0.00     0.338 C 
ATOM     28  O   UNL A   1      40.424  19.959  26.361  1.00  0.00    -0.246 OA
BRANCH  27  29
ATOM     29  C   UNL A   1      40.065  22.235  26.897  1.00  0.00     0.060 A 
ATOM     30  C   UNL A   1      39.361  23.374  26.485  1.00  0.00     0.016 A 
ATOM     31  C   UNL A   1      41.077  22.336  27.855  1.00  0.00     0.016 A 
ATOM     32  C   UNL A   1      39.713  24.629  26.975  1.00  0.00     0.010 A 
ATOM     33  C   UNL A   1      41.435  23.601  28.340  1.00  0.00     0.010 A 
ATOM     34  C   UNL A   1      40.783  24.756  27.869  1.00  0.00    -0.014 A 
BRANCH  34  35
ATOM     35  C   UNL A   1      41.316  26.111  28.158  1.00  0.00     0.031 A 
ATOM     36  C   UNL A   1      42.709  26.456  27.698  1.00  0.00     0.074 A 
ATOM     37  C   UNL A   1      40.548  27.041  28.754  1.00  0.00     0.049 A 
ATOM     38  N   UNL A   1      43.373  27.575  27.823  1.00  0.00    -0.248 NA
ATOM     39  C   UNL A   1      43.447  25.390  27.002  1.00  0.00     0.031 C 
ATOM     40  C   UNL A   1      39.168  26.838  29.193  1.00  0.00     0.029 A 
ATOM     41  N   UNL A   1      40.819  28.345  29.086  1.00  0.00    -0.354 N 
ATOM     42  C   UNL A   1      44.608  27.351  27.221  1.00  0.00     0.074 A 
ATOM     43  C   UNL A   1      44.612  25.975  26.771  1.00  0.00     0.031 C 
ATOM     44  C   UNL A   1      38.714  27.979  29.741  1.00  0.00     0.029 A 
ATOM     45  C   UNL A   1      39.778  28.980  29.722  1.00  0.00     0.049 A 
ATOM     46  H   UNL A   1      41.677  28.784  28.888  1.00  0.00     0.167 HD
ATOM     47  C   UNL A   1      45.638  28.217  27.051  1.00  0.00     0.034 A 
ATOM     48  C   UNL A   1      39.702  30.220  30.248  1.00  0.00     0.034 A 
ATOM     49  C   UNL A   1      45.622  29.582  27.517  1.00  0.00     0.049 A 
ATOM     50  C   UNL A   1      40.894  31.139  30.125  1.00  0.00     0.074 A 
ATOM     51  C   UNL A   1      46.605  30.548  27.394  1.00  0.00     0.029 A 
ATOM     52  N   UNL A   1      44.572  30.173  28.209  1.00  0.00    -0.354 N 
ATOM     53  N   UNL A   1      42.054  30.918  29.549  1.00  0.00    -0.248 NA
ATOM     54  C   UNL A   1      40.762  32.479  30.713  1.00  0.00     0.031 C 
ATOM     55  C   UNL A   1      46.181  31.696  28.072  1.00  0.00     0.029 A 
ATOM     56  C   UNL A   1      44.898  31.477  28.550  1.00  0.00     0.049 A 
ATOM     57  H   UNL A   1      43.720  29.731  28.426  1.00  0.00     0.167 HD
ATOM     58  C   UNL A   1      42.776  32.101  29.679  1.00  0.00     0.074 A 
ATOM     59  C   UNL A   1      41.917  33.036  30.376  1.00  0.00     0.031 C 
ATOM     60  C   UNL A   1      44.033  32.394  29.256  1.00  0.00     0.034 A 
BRANCH  47  61
ATOM     61  C   UNL A   1      46.885  27.688  26.380  1.00  0.00     0.023 A 
ATOM     62  C   UNL A   1      47.184  27.976  25.036  1.00  0.00     0.031 A 
ATOM     63  C   UNL A   1      47.769  26.854  27.086  1.00  0.00     0.131 A 
ATOM     64  C   UNL A   1      48.297  27.380  24.424  1.00  0.00     0.055 A 
ATOM     65  C   UNL A   1      48.917  26.327  26.494  1.00  0.00     0.041 A 
ATOM     66  F   UNL A   1      47.524  26.524  28.364  1.00  0.00    -0.206 F 
ATOM     67  C   UNL A   1      49.180  26.577  25.150  1.00  0.00     0.022 A 
BRANCH  64  68
ATOM     68  S   UNL A   1      48.497  27.552  22.628  1.00  0.00     0.124 S 
ATOM     69  O   UNL A   1      47.271  28.255  22.261  1.00  0.00    -0.237 OA
ATOM     70  O   UNL A   1      49.733  28.319  22.522  1.00  0.00    -0.237 OA
ATOM     71  O   UNL A   1      48.578  26.170  22.158  1.00  0.00    -0.744 OA
ENDBRANCH  64  68
ENDBRANCH  47  61
BRANCH  48  72
ATOM     72  C   UNL A   1      38.474  30.659  30.973  1.00  0.00     0.023 A 
ATOM     73  C   UNL A   1      37.456  31.372  30.322  1.00  0.00     0.031 A 
ATOM     74  C   UNL A   1      38.330  30.413  32.351  1.00  0.00     0.131 A 
ATOM     75  C   UNL A   1      36.361  31.853  31.057  1.00  0.00     0.055 A 
ATOM     76  C   UNL A   1      37.212  30.847  33.066  1.00  0.00     0.041 A 
ATOM     77  F   UNL A   1      39.275  29.737  33.024  1.00  0.00    -0.206 F 
ATOM     78  C   UNL A   1      36.225  31.583  32.420  1.00  0.00     0.022 A 
BRANCH  75  79
ATOM     79  S   UNL A   1      35.148  32.912  30.219  1.00  0.00     0.124 S 
ATOM     80  O   UNL A   1      34.320  33.355  31.335  1.00  0.00    -0.237 OA
ATOM     81  O   UNL A   1      36.003  33.926  29.609  1.00  0.00    -0.237 OA
ATOM     82  O   UNL A   1      34.495  32.003  29.279  1.00  0.00    -0.744 OA
ENDBRANCH  75  79
ENDBRANCH  48  72
BRANCH  60  83
ATOM     83  C   UNL A   1      44.531  33.798  29.498  1.00  0.00     0.023 A 
ATOM     84  C   UNL A   1      44.214  34.859  28.631  1.00  0.00     0.031 A 
ATOM     85  C   UNL A   1      45.343  34.076  30.612  1.00  0.00     0.131 A 
ATOM     86  C   UNL A   1      44.751  36.135  28.862  1.00  0.00     0.055 A 
ATOM     87  C   UNL A   1      45.824  35.361  30.870  1.00  0.00     0.041 A 
ATOM     88  F   UNL A   1      45.679  33.101  31.473  1.00  0.00    -0.206 F 
ATOM     89  C   UNL A   1      45.539  36.396  29.985  1.00  0.00     0.022 A 
BRANCH  86  90
ATOM     90  S   UNL A   1      44.477  37.433  27.624  1.00  0.00     0.124 S 
ATOM     91  O   UNL A   1      45.772  37.491  26.954  1.00  0.00    -0.237 OA
ATOM     92  O   UNL A   1      43.376  36.887  26.838  1.00  0.00    -0.237 OA
ATOM     93  O   UNL A   1      44.140  38.607  28.428  1.00  0.00    -0.744 OA
ENDBRANCH  86  90
ENDBRANCH  60  83
ENDBRANCH  34  35
ENDBRANCH  27  29
ENDBRANCH  26  27
ENDBRANCH  25  26
ENDBRANCH  24  25
ENDBRANCH   1  24
TORSDOF 20
ENDMDL
MODEL 3
REMARK VINA RESULT:     -11.2      2.177      7.904
REMARK SMILES Cc1cccc(Cl)c1Nc1ccccc1CC(=O)OCCOCCOC(=O)c1ccc(-c2c3nc(c(-c4cc(S(=O)(=O)[O-])ccc4F)c4ccc([nH]4)c(-c4cc(S(=O)(=O)[O-])ccc4F)c4nc(c(-c5cc(S(=O)(=O)[O-])ccc5F)c5ccc2[nH]5)C=C4)C=C3)cc1
REMARK SMILES IDX 22 1 21 2 20 3 19 4 17 5 18 6 16 7 15 8 10 9 11 10 12 11
REMARK SMILES IDX 14 12 13 13 9 14 8 16 1 17 2 18 3 19 4 20 6 21 5 22 7 23
REMARK SMILES IDX 23 24 24 25 25 26 26 27 27 28 28 29 29 30 90 31 30 32 89 33
REMARK SMILES IDX 31 34 32 35 33 36 83 37 34 38 88 39 82 40 84 41 35 42 87 43
REMARK SMILES IDX 81 44 80 45 36 47 68 48 48 49 67 50 49 51 52 52 66 53 85 54
REMARK SMILES IDX 50 55 51 56 65 58 86 59 53 60 37 61 38 62 46 63 39 64 45 65
REMARK SMILES IDX 47 66 44 67 40 68 41 69 42 70 43 71 69 72 70 73 78 74 71 75
REMARK SMILES IDX 77 76 79 77 76 78 72 79 73 80 74 81 75 82 54 83 55 84 63 85
REMARK SMILES IDX 56 86 62 87 64 88 61 89 57 90 58 91 59 92 60 93
REMARK H PARENT 9 15 84 46 52 57
REMARK Flexibility Score: inf
ROOT
ATOM      1  O   UNL A   1      37.136  21.933  23.890  1.00  0.00    -0.374 OA
ENDROOT
BRANCH   1   2
ATOM      2  C   UNL A   1      36.821  23.160  24.547  1.00  0.00     0.202 C 
BRANCH   2   3
ATOM      3  C   UNL A   1      35.341  23.457  24.812  1.00  0.00     0.261 C 
BRANCH   3   4
ATOM      4  O   UNL A   1      34.711  24.211  23.758  1.00  0.00    -0.463 OA
BRANCH   4   5
ATOM      5  C   UNL A   1      34.226  25.424  24.126  1.00  0.00     0.310 C 
ATOM      6  O   UNL A   1      33.822  26.276  23.337  1.00  0.00    -0.252 OA
BRANCH   5   7
ATOM      7  C   UNL A   1      34.237  25.702  25.609  1.00  0.00     0.160 C 
BRANCH   7   8
ATOM      8  C   UNL A   1      33.444  26.865  26.175  1.00  0.00    -0.013 A 
ATOM      9  C   UNL A   1      32.079  26.786  26.526  1.00  0.00     0.042 A 
ATOM     10  C   UNL A   1      31.421  27.949  26.974  1.00  0.00     0.026 A 
ATOM     11  C   UNL A   1      32.104  29.152  27.151  1.00  0.00     0.002 A 
ATOM     12  C   UNL A   1      34.125  28.077  26.416  1.00  0.00     0.006 A 
ATOM     13  C   UNL A   1      33.465  29.209  26.895  1.00  0.00     0.000 A 
BRANCH   9  14
ATOM     14  N   UNL A   1      31.351  25.581  26.611  1.00  0.00    -0.354 N 
ATOM     15  H   UNL A   1      30.808  25.488  27.428  1.00  0.00     0.167 HD
BRANCH  14  16
ATOM     16  C   UNL A   1      31.266  24.481  25.723  1.00  0.00     0.060 A 
ATOM     17  C   UNL A   1      29.901  25.959  24.151  1.00  0.00     0.046 C 
ATOM     18  C   UNL A   1      30.647  24.687  24.465  1.00  0.00    -0.026 A 
ATOM     19  C   UNL A   1      30.771  23.717  23.454  1.00  0.00     0.005 A 
ATOM     20  C   UNL A   1      31.472  22.536  23.677  1.00  0.00     0.002 A 
ATOM     21  C   UNL A   1      31.897  23.233  25.952  1.00  0.00     0.064 A 
ATOM     22  C   UNL A   1      32.014  22.283  24.931  1.00  0.00     0.023 A 
ATOM     23  Cl  UNL A   1      32.513  22.752  27.500  1.00  0.00    -0.082 Cl
ENDBRANCH  14  16
ENDBRANCH   9  14
ENDBRANCH   7   8
ENDBRANCH   5   7
ENDBRANCH   4   5
ENDBRANCH   3   4
ENDBRANCH   2   3
ENDBRANCH   1   2
BRANCH   1  24
ATOM     24  C   UNL A   1      36.927  20.733  24.630  1.00  0.00     0.202 C 
BRANCH  24  25
ATOM     25  C   UNL A   1      38.159  19.875  24.947  1.00  0.00     0.261 C 
BRANCH  25  26
ATOM     26  O   UNL A   1      38.701  20.158  26.250  1.00  0.00    -0.460 OA
BRANCH  26  27
ATOM     27  C   UNL A   1      40.035  20.392  26.261  1.00  0.00     0.338 C 
ATOM     28  O   UNL A   1      40.896  19.737  25.686  1.00  0.00    -0.246 OA
BRANCH  27  29
ATOM     29  C   UNL A   1      40.334  21.685  26.906  1.00  0.00     0.060 A 
ATOM     30  C   UNL A   1      39.694  22.817  26.383  1.00  0.00     0.016 A 
ATOM     31  C   UNL A   1      41.273  21.812  27.932  1.00  0.00     0.016 A 
ATOM     32  C   UNL A   1      40.041  24.086  26.835  1.00  0.00     0.010 A 
ATOM     33  C   UNL A   1      41.626  23.093  28.379  1.00  0.00     0.010 A 
ATOM     34  C   UNL A   1      41.043  24.236  27.801  1.00  0.00    -0.014 A 
BRANCH  34  35
ATOM     35  C   UNL A   1      41.589  25.592  28.061  1.00  0.00     0.031 A 
ATOM     36  C   UNL A   1      42.970  25.926  27.560  1.00  0.00     0.074 A 
ATOM     37  C   UNL A   1      40.842  26.531  28.669  1.00  0.00     0.049 A 
ATOM     38  N   UNL A   1      43.641  27.044  27.655  1.00  0.00    -0.248 NA
ATOM     39  C   UNL A   1      43.685  24.851  26.855  1.00  0.00     0.031 C 
ATOM     40  C   UNL A   1      39.474  26.338  29.147  1.00  0.00     0.029 A 
ATOM     41  N   UNL A   1      41.126  27.837  28.980  1.00  0.00    -0.354 N 
ATOM     42  C   UNL A   1      44.859  26.809  27.022  1.00  0.00     0.074 A 
ATOM     43  C   UNL A   1      44.845  25.429  26.586  1.00  0.00     0.031 C 
ATOM     44  C   UNL A   1      39.038  27.486  29.696  1.00  0.00     0.029 A 
ATOM     45  C   UNL A   1      40.105  28.483  29.638  1.00  0.00     0.049 A 
ATOM     46  H   UNL A   1      41.980  28.271  28.754  1.00  0.00     0.167 HD
ATOM     47  C   UNL A   1      45.887  27.669  26.814  1.00  0.00     0.034 A 
ATOM     48  C   UNL A   1      40.049  29.728  30.153  1.00  0.00     0.034 A 
ATOM     49  C   UNL A   1      45.889  29.039  27.267  1.00  0.00     0.049 A 
ATOM     50  C   UNL A   1      41.240  30.641  29.988  1.00  0.00     0.074 A 
ATOM     51  C   UNL A   1      46.872  30.000  27.107  1.00  0.00     0.029 A 
ATOM     52  N   UNL A   1      44.860  29.641  27.982  1.00  0.00    -0.354 N 
ATOM     53  N   UNL A   1      42.383  30.409  29.383  1.00  0.00    -0.248 NA
ATOM     54  C   UNL A   1      41.130  31.987  30.566  1.00  0.00     0.031 C 
ATOM     55  C   UNL A   1      46.471  31.156  27.785  1.00  0.00     0.029 A 
ATOM     56  C   UNL A   1      45.201  30.947  28.300  1.00  0.00     0.049 A 
ATOM     57  H   UNL A   1      44.013  29.204  28.226  1.00  0.00     0.167 HD
ATOM     58  C   UNL A   1      43.113  31.591  29.481  1.00  0.00     0.074 A 
ATOM     59  C   UNL A   1      42.277  32.536  30.192  1.00  0.00     0.031 C 
ATOM     60  C   UNL A   1      44.359  31.874  29.020  1.00  0.00     0.034 A 
BRANCH  47  61
ATOM     61  C   UNL A   1      47.112  27.128  26.115  1.00  0.00     0.023 A 
ATOM     62  C   UNL A   1      48.107  26.412  26.805  1.00  0.00     0.031 A 
ATOM     63  C   UNL A   1      47.305  27.363  24.742  1.00  0.00     0.131 A 
ATOM     64  C   UNL A   1      49.277  26.020  26.138  1.00  0.00     0.055 A 
ATOM     65  C   UNL A   1      48.436  26.902  24.066  1.00  0.00     0.041 A 
ATOM     66  F   UNL A   1      46.402  28.061  24.035  1.00  0.00    -0.206 F 
ATOM     67  C   UNL A   1      49.437  26.238  24.767  1.00  0.00     0.022 A 
BRANCH  64  68
ATOM     68  S   UNL A   1      50.651  25.347  27.115  1.00  0.00     0.124 S 
ATOM     69  O   UNL A   1      51.053  26.512  27.898  1.00  0.00    -0.237 OA
ATOM     70  O   UNL A   1      50.011  24.266  27.855  1.00  0.00    -0.237 OA
ATOM     71  O   UNL A   1      51.616  24.923  26.102  1.00  0.00    -0.744 OA
ENDBRANCH  64  68
ENDBRANCH  47  61
BRANCH  48  72
ATOM     72  C   UNL A   1      38.843  30.179  30.908  1.00  0.00     0.023 A 
ATOM     73  C   UNL A   1      37.832  30.929  30.288  1.00  0.00     0.031 A 
ATOM     74  C   UNL A   1      38.715  29.907  32.282  1.00  0.00     0.131 A 
ATOM     75  C   UNL A   1      36.759  31.419  31.050  1.00  0.00     0.055 A 
ATOM     76  C   UNL A   1      37.619  30.351  33.024  1.00  0.00     0.041 A 
ATOM     77  F   UNL A   1      39.654  29.195  32.925  1.00  0.00    -0.206 F 
ATOM     78  C   UNL A   1      36.639  31.123  32.410  1.00  0.00     0.022 A 
BRANCH  75  79
ATOM     79  S   UNL A   1      35.558  32.523  30.255  1.00  0.00     0.124 S 
ATOM     80  O   UNL A   1      36.258  33.802  30.296  1.00  0.00    -0.237 OA
ATOM     81  O   UNL A   1      35.412  31.911  28.939  1.00  0.00    -0.237 OA
ATOM     82  O   UNL A   1      34.383  32.426  31.119  1.00  0.00    -0.744 OA
ENDBRANCH  75  79
ENDBRANCH  48  72
BRANCH  60  83
ATOM     83  C   UNL A   1      44.868  33.279  29.234  1.00  0.00     0.023 A 
ATOM     84  C   UNL A   1      44.688  34.290  28.273  1.00  0.00     0.031 A 
ATOM     85  C   UNL A   1      45.553  33.608  30.418  1.00  0.00     0.131 A 
ATOM     86  C   UNL A   1      45.233  35.564  28.489  1.00  0.00     0.055 A 
ATOM     87  C   UNL A   1      46.041  34.895  30.653  1.00  0.00     0.041 A 
ATOM     88  F   UNL A   1      45.756  32.682  31.370  1.00  0.00    -0.206 F 
ATOM     89  C   UNL A   1      45.893  35.878  29.680  1.00  0.00     0.022 A 
BRANCH  86  90
ATOM     90  S   UNL A   1      45.146  36.787  27.151  1.00  0.00     0.124 S 
ATOM     91  O   UNL A   1      46.003  36.185  26.134  1.00  0.00    -0.237 OA
ATOM     92  O   UNL A   1      43.720  36.816  26.847  1.00  0.00    -0.237 OA
ATOM     93  O   UNL A   1      45.672  38.005  27.765  1.00  0.00    -0.744 OA
ENDBRANCH  86  90
ENDBRANCH  60  83
ENDBRANCH  34  35
ENDBRANCH  27  29
ENDBRANCH  26  27
ENDBRANCH  25  26
ENDBRANCH  24  25
ENDBRANCH   1  24
TORSDOF 20
ENDMDL
