MODEL 1
REMARK VINA RESULT:     -10.9      0.000      0.000
REMARK SMILES COc1cc(/C=C/C(=O)OCCOCCOC(=O)c2ccc(-c3c4nc(c(-c5cc(S(=O)(=O)[O-])ccc5F)c5ccc([nH]5)c(-c5cc(S(=O)(=O)[O-])ccc5F)c5nc(c(-c6cc(S(=O)(=O)[O-])ccc6F)c6ccc3[nH]6)C=C5)C=C4)cc2)cc(OC)c1O
REMARK SMILES IDX 14 1 13 2 12 3 11 4 10 5 8 6 9 7 7 8 6 9 5 10 3 11 4 12
REMARK SMILES IDX 86 13 83 14 82 15 2 16 1 17 87 18 84 20 85 21 15 22 16 23
REMARK SMILES IDX 17 24 18 25 19 26 20 27 81 28 21 29 80 30 22 31 23 32 24 33
REMARK SMILES IDX 74 34 25 35 79 36 73 37 75 38 26 39 78 40 72 41 71 42 27 44
REMARK SMILES IDX 59 45 39 46 58 47 40 48 43 49 57 50 76 51 41 52 42 53 56 55
REMARK SMILES IDX 77 56 44 57 28 58 29 59 37 60 30 61 36 62 38 63 35 64 31 65
REMARK SMILES IDX 32 66 33 67 34 68 60 69 61 70 69 71 62 72 68 73 70 74 67 75
REMARK SMILES IDX 63 76 64 77 65 78 66 79 45 80 46 81 54 82 47 83 53 84 55 85
REMARK SMILES IDX 52 86 48 87 49 88 50 89 51 90
REMARK H PARENT 87 19 75 43 43 54
REMARK Flexibility Score: inf
ROOT
ATOM      1  C   UNL A   1      35.216  21.110  25.466  1.00  0.00     0.202 C 
ENDROOT
BRANCH   1   2
ATOM      2  O   UNL A   1      34.183  21.145  24.479  1.00  0.00    -0.374 OA
BRANCH   2   3
ATOM      3  C   UNL A   1      32.854  20.886  24.930  1.00  0.00     0.202 C 
BRANCH   3   4
ATOM      4  C   UNL A   1      31.904  22.087  24.927  1.00  0.00     0.261 C 
BRANCH   4   5
ATOM      5  O   UNL A   1      32.074  22.907  26.097  1.00  0.00    -0.460 OA
BRANCH   5   6
ATOM      6  C   UNL A   1      31.087  23.805  26.316  1.00  0.00     0.330 C 
ATOM      7  O   UNL A   1      30.220  23.742  27.176  1.00  0.00    -0.247 OA
BRANCH   6   8
ATOM      8  C   UNL A   1      31.182  24.988  25.436  1.00  0.00     0.094 C 
ATOM      9  C   UNL A   1      30.270  25.961  25.277  1.00  0.00     0.016 C 
BRANCH   9  10
ATOM     10  C   UNL A   1      30.473  27.088  24.345  1.00  0.00    -0.018 A 
ATOM     11  C   UNL A   1      31.897  28.725  23.240  1.00  0.00     0.165 A 
ATOM     12  C   UNL A   1      31.734  27.661  24.131  1.00  0.00     0.058 A 
ATOM     13  C   UNL A   1      30.805  29.194  22.497  1.00  0.00     0.200 A 
ATOM     14  C   UNL A   1      29.534  28.642  22.696  1.00  0.00     0.165 A 
ATOM     15  C   UNL A   1      29.387  27.581  23.608  1.00  0.00     0.058 A 
BRANCH  11  16
ATOM     16  O   UNL A   1      33.182  29.180  23.076  1.00  0.00    -0.493 OA
ATOM     17  C   UNL A   1      34.164  28.150  22.945  1.00  0.00     0.278 C 
ENDBRANCH  11  16
BRANCH  13  18
ATOM     18  O   UNL A   1      31.023  30.131  21.523  1.00  0.00    -0.502 OA
ATOM     19  H   UNL A   1      30.476  30.890  21.472  1.00  0.00     0.293 HD
ENDBRANCH  13  18
BRANCH  14  20
ATOM     20  O   UNL A   1      28.367  28.967  22.057  1.00  0.00    -0.493 OA
ATOM     21  C   UNL A   1      27.396  29.712  22.778  1.00  0.00     0.278 C 
ENDBRANCH  14  20
ENDBRANCH   9  10
ENDBRANCH   6   8
ENDBRANCH   5   6
ENDBRANCH   4   5
ENDBRANCH   3   4
ENDBRANCH   2   3
ENDBRANCH   1   2
BRANCH   1  22
ATOM     22  C   UNL A   1      36.577  20.568  25.010  1.00  0.00     0.261 C 
BRANCH  22  23
ATOM     23  O   UNL A   1      37.610  21.568  25.075  1.00  0.00    -0.460 OA
BRANCH  23  24
ATOM     24  C   UNL A   1      38.701  21.218  25.799  1.00  0.00     0.338 C 
ATOM     25  O   UNL A   1      39.232  20.113  25.835  1.00  0.00    -0.246 OA
BRANCH  24  26
ATOM     26  C   UNL A   1      39.307  22.414  26.414  1.00  0.00     0.060 A 
ATOM     27  C   UNL A   1      38.781  23.662  26.062  1.00  0.00     0.016 A 
ATOM     28  C   UNL A   1      40.403  22.325  27.276  1.00  0.00     0.016 A 
ATOM     29  C   UNL A   1      39.376  24.831  26.534  1.00  0.00     0.010 A 
ATOM     30  C   UNL A   1      41.003  23.500  27.744  1.00  0.00     0.010 A 
ATOM     31  C   UNL A   1      40.512  24.759  27.349  1.00  0.00    -0.014 A 
BRANCH  31  32
ATOM     32  C   UNL A   1      41.268  25.997  27.668  1.00  0.00     0.031 A 
ATOM     33  C   UNL A   1      40.585  27.086  28.450  1.00  0.00     0.074 A 
ATOM     34  C   UNL A   1      42.552  26.137  27.293  1.00  0.00     0.049 A 
ATOM     35  N   UNL A   1      41.033  28.262  28.809  1.00  0.00    -0.248 NA
ATOM     36  C   UNL A   1      39.206  26.810  28.880  1.00  0.00     0.031 C 
ATOM     37  C   UNL A   1      43.334  25.134  26.574  1.00  0.00     0.029 A 
ATOM     38  N   UNL A   1      43.424  27.184  27.465  1.00  0.00    -0.354 N 
ATOM     39  C   UNL A   1      39.994  28.868  29.505  1.00  0.00     0.074 A 
ATOM     40  C   UNL A   1      38.878  27.945  29.478  1.00  0.00     0.031 C 
ATOM     41  C   UNL A   1      44.570  25.617  26.359  1.00  0.00     0.029 A 
ATOM     42  C   UNL A   1      44.655  26.976  26.889  1.00  0.00     0.049 A 
ATOM     43  H   UNL A   1      43.189  28.006  27.954  1.00  0.00     0.167 HD
ATOM     44  C   UNL A   1      39.975  30.078  30.119  1.00  0.00     0.034 A 
ATOM     45  C   UNL A   1      45.718  27.799  26.781  1.00  0.00     0.034 A 
ATOM     46  C   UNL A   1      41.090  30.993  30.122  1.00  0.00     0.049 A 
ATOM     47  C   UNL A   1      45.642  29.179  27.387  1.00  0.00     0.074 A 
ATOM     48  C   UNL A   1      41.184  32.238  30.721  1.00  0.00     0.029 A 
ATOM     49  N   UNL A   1      42.304  30.772  29.481  1.00  0.00    -0.354 N 
ATOM     50  N   UNL A   1      44.656  29.740  28.049  1.00  0.00    -0.248 NA
ATOM     51  C   UNL A   1      46.827  30.035  27.236  1.00  0.00     0.031 C 
ATOM     52  C   UNL A   1      42.421  32.798  30.381  1.00  0.00     0.029 A 
ATOM     53  C   UNL A   1      43.135  31.871  29.640  1.00  0.00     0.049 A 
ATOM     54  H   UNL A   1      42.539  29.954  28.987  1.00  0.00     0.167 HD
ATOM     55  C   UNL A   1      45.116  31.002  28.420  1.00  0.00     0.074 A 
ATOM     56  C   UNL A   1      46.471  31.113  27.918  1.00  0.00     0.031 C 
ATOM     57  C   UNL A   1      44.480  31.977  29.120  1.00  0.00     0.034 A 
BRANCH  44  58
ATOM     58  C   UNL A   1      38.684  30.493  30.786  1.00  0.00     0.023 A 
ATOM     59  C   UNL A   1      37.747  31.319  30.138  1.00  0.00     0.031 A 
ATOM     60  C   UNL A   1      38.404  30.093  32.105  1.00  0.00     0.131 A 
ATOM     61  C   UNL A   1      36.621  31.782  30.835  1.00  0.00     0.055 A 
ATOM     62  C   UNL A   1      37.240  30.489  32.765  1.00  0.00     0.041 A 
ATOM     63  F   UNL A   1      39.270  29.324  32.784  1.00  0.00    -0.206 F 
ATOM     64  C   UNL A   1      36.347  31.353  32.136  1.00  0.00     0.022 A 
BRANCH  61  65
ATOM     65  S   UNL A   1      35.602  33.077  30.075  1.00  0.00     0.124 S 
ATOM     66  O   UNL A   1      36.537  33.663  29.117  1.00  0.00    -0.237 OA
ATOM     67  O   UNL A   1      34.498  32.314  29.505  1.00  0.00    -0.237 OA
ATOM     68  O   UNL A   1      35.250  33.941  31.199  1.00  0.00    -0.744 OA
ENDBRANCH  61  65
ENDBRANCH  44  58
BRANCH  45  69
ATOM     69  C   UNL A   1      46.936  27.363  26.037  1.00  0.00     0.023 A 
ATOM     70  C   UNL A   1      47.154  27.753  24.707  1.00  0.00     0.031 A 
ATOM     71  C   UNL A   1      47.876  26.507  26.637  1.00  0.00     0.131 A 
ATOM     72  C   UNL A   1      48.264  27.255  24.007  1.00  0.00     0.055 A 
ATOM     73  C   UNL A   1      49.006  26.055  25.953  1.00  0.00     0.041 A 
ATOM     74  F   UNL A   1      47.714  26.102  27.908  1.00  0.00    -0.206 F 
ATOM     75  C   UNL A   1      49.198  26.420  24.624  1.00  0.00     0.022 A 
BRANCH  72  76
ATOM     76  S   UNL A   1      48.431  27.654  22.245  1.00  0.00     0.124 S 
ATOM     77  O   UNL A   1      48.510  26.326  21.647  1.00  0.00    -0.237 OA
ATOM     78  O   UNL A   1      47.206  28.403  21.987  1.00  0.00    -0.237 OA
ATOM     79  O   UNL A   1      49.663  28.438  22.189  1.00  0.00    -0.744 OA
ENDBRANCH  72  76
ENDBRANCH  45  69
BRANCH  57  80
ATOM     80  C   UNL A   1      45.266  33.231  29.423  1.00  0.00     0.023 A 
ATOM     81  C   UNL A   1      45.345  34.298  28.510  1.00  0.00     0.031 A 
ATOM     82  C   UNL A   1      45.955  33.355  30.644  1.00  0.00     0.131 A 
ATOM     83  C   UNL A   1      46.140  35.417  28.809  1.00  0.00     0.055 A 
ATOM     84  C   UNL A   1      46.693  34.496  30.961  1.00  0.00     0.041 A 
ATOM     85  F   UNL A   1      45.917  32.366  31.553  1.00  0.00    -0.206 F 
ATOM     86  C   UNL A   1      46.800  35.530  30.035  1.00  0.00     0.022 A 
BRANCH  83  87
ATOM     87  S   UNL A   1      46.375  36.685  27.534  1.00  0.00     0.124 S 
ATOM     88  O   UNL A   1      47.819  36.892  27.574  1.00  0.00    -0.237 OA
ATOM     89  O   UNL A   1      45.858  36.027  26.338  1.00  0.00    -0.237 OA
ATOM     90  O   UNL A   1      45.575  37.809  28.016  1.00  0.00    -0.744 OA
ENDBRANCH  83  87
ENDBRANCH  57  80
ENDBRANCH  31  32
ENDBRANCH  24  26
ENDBRANCH  23  24
ENDBRANCH  22  23
ENDBRANCH   1  22
TORSDOF 21
ENDMDL
MODEL 2
REMARK VINA RESULT:     -10.6      1.977      2.254
REMARK SMILES COc1cc(/C=C/C(=O)OCCOCCOC(=O)c2ccc(-c3c4nc(c(-c5cc(S(=O)(=O)[O-])ccc5F)c5ccc([nH]5)c(-c5cc(S(=O)(=O)[O-])ccc5F)c5nc(c(-c6cc(S(=O)(=O)[O-])ccc6F)c6ccc3[nH]6)C=C5)C=C4)cc2)cc(OC)c1O
REMARK SMILES IDX 14 1 13 2 12 3 11 4 10 5 8 6 9 7 7 8 6 9 5 10 3 11 4 12
REMARK SMILES IDX 86 13 83 14 82 15 2 16 1 17 87 18 84 20 85 21 15 22 16 23
REMARK SMILES IDX 17 24 18 25 19 26 20 27 81 28 21 29 80 30 22 31 23 32 24 33
REMARK SMILES IDX 74 34 25 35 79 36 73 37 75 38 26 39 78 40 72 41 71 42 27 44
REMARK SMILES IDX 59 45 39 46 58 47 40 48 43 49 57 50 76 51 41 52 42 53 56 55
REMARK SMILES IDX 77 56 44 57 28 58 29 59 37 60 30 61 36 62 38 63 35 64 31 65
REMARK SMILES IDX 32 66 33 67 34 68 60 69 61 70 69 71 62 72 68 73 70 74 67 75
REMARK SMILES IDX 63 76 64 77 65 78 66 79 45 80 46 81 54 82 47 83 53 84 55 85
REMARK SMILES IDX 52 86 48 87 49 88 50 89 51 90
REMARK H PARENT 87 19 75 43 43 54
REMARK Flexibility Score: inf
ROOT
ATOM      1  C   UNL A   1      34.933  21.457  24.648  1.00  0.00     0.202 C 
ENDROOT
BRANCH   1   2
ATOM      2  O   UNL A   1      33.935  20.475  24.363  1.00  0.00    -0.374 OA
BRANCH   2   3
ATOM      3  C   UNL A   1      32.596  20.790  24.747  1.00  0.00     0.202 C 
BRANCH   3   4
ATOM      4  C   UNL A   1      32.308  22.272  25.005  1.00  0.00     0.261 C 
BRANCH   4   5
ATOM      5  O   UNL A   1      30.944  22.489  25.408  1.00  0.00    -0.460 OA
BRANCH   5   6
ATOM      6  C   UNL A   1      30.714  23.658  26.047  1.00  0.00     0.330 C 
ATOM      7  O   UNL A   1      30.508  23.809  27.243  1.00  0.00    -0.247 OA
BRANCH   6   8
ATOM      8  C   UNL A   1      30.813  24.830  25.152  1.00  0.00     0.094 C 
ATOM      9  C   UNL A   1      30.123  25.979  25.236  1.00  0.00     0.016 C 
BRANCH   9  10
ATOM     10  C   UNL A   1      30.297  27.076  24.261  1.00  0.00    -0.018 A 
ATOM     11  C   UNL A   1      31.697  28.560  22.933  1.00  0.00     0.165 A 
ATOM     12  C   UNL A   1      31.563  27.523  23.860  1.00  0.00     0.058 A 
ATOM     13  C   UNL A   1      30.559  29.128  22.344  1.00  0.00     0.200 A 
ATOM     14  C   UNL A   1      29.284  28.703  22.732  1.00  0.00     0.165 A 
ATOM     15  C   UNL A   1      29.169  27.667  23.677  1.00  0.00     0.058 A 
BRANCH  11  16
ATOM     16  O   UNL A   1      32.983  28.888  22.579  1.00  0.00    -0.493 OA
ATOM     17  C   UNL A   1      33.968  28.574  23.566  1.00  0.00     0.278 C 
ENDBRANCH  11  16
BRANCH  13  18
ATOM     18  O   UNL A   1      30.723  30.034  21.330  1.00  0.00    -0.502 OA
ATOM     19  H   UNL A   1      31.001  29.744  20.484  1.00  0.00     0.293 HD
ENDBRANCH  13  18
BRANCH  14  20
ATOM     20  O   UNL A   1      28.073  29.136  22.259  1.00  0.00    -0.493 OA
ATOM     21  C   UNL A   1      27.585  30.388  22.719  1.00  0.00     0.278 C 
ENDBRANCH  14  20
ENDBRANCH   9  10
ENDBRANCH   6   8
ENDBRANCH   5   6
ENDBRANCH   4   5
ENDBRANCH   3   4
ENDBRANCH   2   3
ENDBRANCH   1   2
BRANCH   1  22
ATOM     22  C   UNL A   1      36.142  20.982  25.465  1.00  0.00     0.261 C 
BRANCH  22  23
ATOM     23  O   UNL A   1      37.353  21.662  25.087  1.00  0.00    -0.460 OA
BRANCH  23  24
ATOM     24  C   UNL A   1      38.467  21.252  25.741  1.00  0.00     0.338 C 
ATOM     25  O   UNL A   1      38.971  20.134  25.699  1.00  0.00    -0.246 OA
BRANCH  24  26
ATOM     26  C   UNL A   1      39.132  22.401  26.383  1.00  0.00     0.060 A 
ATOM     27  C   UNL A   1      38.620  23.677  26.118  1.00  0.00     0.016 A 
ATOM     28  C   UNL A   1      40.265  22.246  27.185  1.00  0.00     0.016 A 
ATOM     29  C   UNL A   1      39.266  24.808  26.617  1.00  0.00     0.010 A 
ATOM     30  C   UNL A   1      40.915  23.383  27.680  1.00  0.00     0.010 A 
ATOM     31  C   UNL A   1      40.437  24.670  27.371  1.00  0.00    -0.014 A 
BRANCH  31  32
ATOM     32  C   UNL A   1      41.238  25.874  27.712  1.00  0.00     0.031 A 
ATOM     33  C   UNL A   1      40.588  26.982  28.496  1.00  0.00     0.074 A 
ATOM     34  C   UNL A   1      42.532  25.966  27.356  1.00  0.00     0.049 A 
ATOM     35  N   UNL A   1      41.079  28.135  28.872  1.00  0.00    -0.248 NA
ATOM     36  C   UNL A   1      39.194  26.758  28.905  1.00  0.00     0.031 C 
ATOM     37  C   UNL A   1      43.282  24.938  26.637  1.00  0.00     0.029 A 
ATOM     38  N   UNL A   1      43.442  26.974  27.549  1.00  0.00    -0.354 N 
ATOM     39  C   UNL A   1      40.055  28.776  29.561  1.00  0.00     0.074 A 
ATOM     40  C   UNL A   1      38.904  27.899  29.510  1.00  0.00     0.031 C 
ATOM     41  C   UNL A   1      44.539  25.373  26.443  1.00  0.00     0.029 A 
ATOM     42  C   UNL A   1      44.672  26.723  26.988  1.00  0.00     0.049 A 
ATOM     43  H   UNL A   1      43.234  27.801  28.043  1.00  0.00     0.167 HD
ATOM     44  C   UNL A   1      40.076  29.979  30.187  1.00  0.00     0.034 A 
ATOM     45  C   UNL A   1      45.768  27.503  26.902  1.00  0.00     0.034 A 
ATOM     46  C   UNL A   1      41.228  30.849  30.214  1.00  0.00     0.049 A 
ATOM     47  C   UNL A   1      45.740  28.879  27.520  1.00  0.00     0.074 A 
ATOM     48  C   UNL A   1      41.363  32.084  30.827  1.00  0.00     0.029 A 
ATOM     49  N   UNL A   1      42.440  30.586  29.587  1.00  0.00    -0.354 N 
ATOM     50  N   UNL A   1      44.769  29.473  28.175  1.00  0.00    -0.248 NA
ATOM     51  C   UNL A   1      46.960  29.688  27.394  1.00  0.00     0.031 C 
ATOM     52  C   UNL A   1      42.627  32.597  30.508  1.00  0.00     0.029 A 
ATOM     53  C   UNL A   1      43.313  31.649  29.767  1.00  0.00     0.049 A 
ATOM     54  H   UNL A   1      42.649  29.763  29.088  1.00  0.00     0.167 HD
ATOM     55  C   UNL A   1      45.273  30.712  28.565  1.00  0.00     0.074 A 
ATOM     56  C   UNL A   1      46.638  30.773  28.082  1.00  0.00     0.031 C 
ATOM     57  C   UNL A   1      44.668  31.705  29.267  1.00  0.00     0.034 A 
BRANCH  44  58
ATOM     58  C   UNL A   1      38.795  30.440  30.841  1.00  0.00     0.023 A 
ATOM     59  C   UNL A   1      37.865  31.249  30.162  1.00  0.00     0.031 A 
ATOM     60  C   UNL A   1      38.516  30.102  32.177  1.00  0.00     0.131 A 
ATOM     61  C   UNL A   1      36.748  31.757  30.843  1.00  0.00     0.055 A 
ATOM     62  C   UNL A   1      37.361  30.541  32.825  1.00  0.00     0.041 A 
ATOM     63  F   UNL A   1      39.376  29.352  32.885  1.00  0.00    -0.206 F 
ATOM     64  C   UNL A   1      36.476  31.388  32.162  1.00  0.00     0.022 A 
BRANCH  61  65
ATOM     65  S   UNL A   1      35.742  33.029  30.031  1.00  0.00     0.124 S 
ATOM     66  O   UNL A   1      35.603  34.019  31.097  1.00  0.00    -0.237 OA
ATOM     67  O   UNL A   1      36.578  33.419  28.903  1.00  0.00    -0.237 OA
ATOM     68  O   UNL A   1      34.511  32.323  29.683  1.00  0.00    -0.744 OA
ENDBRANCH  61  65
ENDBRANCH  44  58
BRANCH  45  69
ATOM     69  C   UNL A   1      46.977  27.025  26.170  1.00  0.00     0.023 A 
ATOM     70  C   UNL A   1      48.052  26.432  26.850  1.00  0.00     0.031 A 
ATOM     71  C   UNL A   1      47.093  27.202  24.780  1.00  0.00     0.131 A 
ATOM     72  C   UNL A   1      49.212  26.073  26.146  1.00  0.00     0.055 A 
ATOM     73  C   UNL A   1      48.228  26.797  24.075  1.00  0.00     0.041 A 
ATOM     74  F   UNL A   1      46.094  27.767  24.081  1.00  0.00    -0.206 F 
ATOM     75  C   UNL A   1      49.302  26.239  24.762  1.00  0.00     0.022 A 
BRANCH  72  76
ATOM     76  S   UNL A   1      50.639  25.454  27.079  1.00  0.00     0.124 S 
ATOM     77  O   UNL A   1      50.092  24.248  27.690  1.00  0.00    -0.237 OA
ATOM     78  O   UNL A   1      51.626  25.250  26.024  1.00  0.00    -0.237 OA
ATOM     79  O   UNL A   1      50.937  26.544  28.006  1.00  0.00    -0.744 OA
ENDBRANCH  72  76
ENDBRANCH  45  69
BRANCH  57  80
ATOM     80  C   UNL A   1      45.499  32.923  29.593  1.00  0.00     0.023 A 
ATOM     81  C   UNL A   1      46.335  32.973  30.722  1.00  0.00     0.031 A 
ATOM     82  C   UNL A   1      45.445  34.058  28.762  1.00  0.00     0.131 A 
ATOM     83  C   UNL A   1      47.041  34.150  31.020  1.00  0.00     0.055 A 
ATOM     84  C   UNL A   1      46.196  35.204  29.029  1.00  0.00     0.041 A 
ATOM     85  F   UNL A   1      44.662  34.068  27.671  1.00  0.00    -0.206 F 
ATOM     86  C   UNL A   1      46.990  35.259  30.171  1.00  0.00     0.022 A 
BRANCH  83  87
ATOM     87  S   UNL A   1      47.957  34.247  32.582  1.00  0.00     0.124 S 
ATOM     88  O   UNL A   1      49.330  34.417  32.119  1.00  0.00    -0.237 OA
ATOM     89  O   UNL A   1      47.353  35.410  33.227  1.00  0.00    -0.237 OA
ATOM     90  O   UNL A   1      47.674  32.966  33.227  1.00  0.00    -0.744 OA
ENDBRANCH  83  87
ENDBRANCH  57  80
ENDBRANCH  31  32
ENDBRANCH  24  26
ENDBRANCH  23  24
ENDBRANCH  22  23
ENDBRANCH   1  22
TORSDOF 21
ENDMDL
MODEL 3
REMARK VINA RESULT:     -10.6      1.475      2.139
REMARK SMILES COc1cc(/C=C/C(=O)OCCOCCOC(=O)c2ccc(-c3c4nc(c(-c5cc(S(=O)(=O)[O-])ccc5F)c5ccc([nH]5)c(-c5cc(S(=O)(=O)[O-])ccc5F)c5nc(c(-c6cc(S(=O)(=O)[O-])ccc6F)c6ccc3[nH]6)C=C5)C=C4)cc2)cc(OC)c1O
REMARK SMILES IDX 14 1 13 2 12 3 11 4 10 5 8 6 9 7 7 8 6 9 5 10 3 11 4 12
REMARK SMILES IDX 86 13 83 14 82 15 2 16 1 17 87 18 84 20 85 21 15 22 16 23
REMARK SMILES IDX 17 24 18 25 19 26 20 27 81 28 21 29 80 30 22 31 23 32 24 33
REMARK SMILES IDX 74 34 25 35 79 36 73 37 75 38 26 39 78 40 72 41 71 42 27 44
REMARK SMILES IDX 59 45 39 46 58 47 40 48 43 49 57 50 76 51 41 52 42 53 56 55
REMARK SMILES IDX 77 56 44 57 28 58 29 59 37 60 30 61 36 62 38 63 35 64 31 65
REMARK SMILES IDX 32 66 33 67 34 68 60 69 61 70 69 71 62 72 68 73 70 74 67 75
REMARK SMILES IDX 63 76 64 77 65 78 66 79 45 80 46 81 54 82 47 83 53 84 55 85
REMARK SMILES IDX 52 86 48 87 49 88 50 89 51 90
REMARK H PARENT 87 19 75 43 43 54
REMARK Flexibility Score: inf
ROOT
ATOM      1  C   UNL A   1      35.528  21.123  24.730  1.00  0.00     0.202 C 
ENDROOT
BRANCH   1   2
ATOM      2  O   UNL A   1      34.443  20.226  24.978  1.00  0.00    -0.374 OA
BRANCH   2   3
ATOM      3  C   UNL A   1      33.129  20.723  24.724  1.00  0.00     0.202 C 
BRANCH   3   4
ATOM      4  C   UNL A   1      32.912  22.212  25.013  1.00  0.00     0.261 C 
BRANCH   4   5
ATOM      5  O   UNL A   1      31.557  22.486  25.411  1.00  0.00    -0.460 OA
BRANCH   5   6
ATOM      6  C   UNL A   1      31.425  23.367  26.429  1.00  0.00     0.330 C 
ATOM      7  O   UNL A   1      31.502  23.119  27.624  1.00  0.00    -0.247 OA
BRANCH   6   8
ATOM      8  C   UNL A   1      31.247  24.759  25.964  1.00  0.00     0.094 C 
ATOM      9  C   UNL A   1      30.643  25.170  24.838  1.00  0.00     0.016 C 
BRANCH   9  10
ATOM     10  C   UNL A   1      30.546  26.598  24.472  1.00  0.00    -0.018 A 
ATOM     11  C   UNL A   1      29.480  28.439  23.287  1.00  0.00     0.165 A 
ATOM     12  C   UNL A   1      29.549  27.081  23.613  1.00  0.00     0.058 A 
ATOM     13  C   UNL A   1      30.375  29.348  23.867  1.00  0.00     0.200 A 
ATOM     14  C   UNL A   1      31.382  28.889  24.723  1.00  0.00     0.165 A 
ATOM     15  C   UNL A   1      31.445  27.518  25.028  1.00  0.00     0.058 A 
BRANCH  11  16
ATOM     16  O   UNL A   1      28.438  28.808  22.473  1.00  0.00    -0.493 OA
ATOM     17  C   UNL A   1      27.165  28.853  23.121  1.00  0.00     0.278 C 
ENDBRANCH  11  16
BRANCH  13  18
ATOM     18  O   UNL A   1      30.188  30.687  23.650  1.00  0.00    -0.502 OA
ATOM     19  H   UNL A   1      30.833  31.303  23.938  1.00  0.00     0.293 HD
ENDBRANCH  13  18
BRANCH  14  20
ATOM     20  O   UNL A   1      32.328  29.630  25.381  1.00  0.00    -0.493 OA
ATOM     21  C   UNL A   1      31.979  30.199  26.635  1.00  0.00     0.278 C 
ENDBRANCH  14  20
ENDBRANCH   9  10
ENDBRANCH   6   8
ENDBRANCH   5   6
ENDBRANCH   4   5
ENDBRANCH   3   4
ENDBRANCH   2   3
ENDBRANCH   1   2
BRANCH   1  22
ATOM     22  C   UNL A   1      36.676  21.100  25.747  1.00  0.00     0.261 C 
BRANCH  22  23
ATOM     23  O   UNL A   1      37.956  21.321  25.128  1.00  0.00    -0.460 OA
BRANCH  23  24
ATOM     24  C   UNL A   1      39.027  21.039  25.909  1.00  0.00     0.338 C 
ATOM     25  O   UNL A   1      39.591  19.955  26.015  1.00  0.00    -0.246 OA
BRANCH  24  26
ATOM     26  C   UNL A   1      39.569  22.279  26.494  1.00  0.00     0.060 A 
ATOM     27  C   UNL A   1      39.066  23.496  26.017  1.00  0.00     0.016 A 
ATOM     28  C   UNL A   1      40.586  22.261  27.453  1.00  0.00     0.016 A 
ATOM     29  C   UNL A   1      39.610  24.700  26.462  1.00  0.00     0.010 A 
ATOM     30  C   UNL A   1      41.134  23.471  27.893  1.00  0.00     0.010 A 
ATOM     31  C   UNL A   1      40.671  24.696  27.375  1.00  0.00    -0.014 A 
BRANCH  31  32
ATOM     32  C   UNL A   1      41.387  25.961  27.677  1.00  0.00     0.031 A 
ATOM     33  C   UNL A   1      40.678  27.029  28.465  1.00  0.00     0.074 A 
ATOM     34  C   UNL A   1      42.660  26.145  27.280  1.00  0.00     0.049 A 
ATOM     35  N   UNL A   1      41.091  28.221  28.812  1.00  0.00    -0.248 NA
ATOM     36  C   UNL A   1      39.318  26.706  28.919  1.00  0.00     0.031 C 
ATOM     37  C   UNL A   1      43.465  25.166  26.553  1.00  0.00     0.029 A 
ATOM     38  N   UNL A   1      43.496  27.223  27.433  1.00  0.00    -0.354 N 
ATOM     39  C   UNL A   1      40.042  28.794  29.523  1.00  0.00     0.074 A 
ATOM     40  C   UNL A   1      38.959  27.832  29.518  1.00  0.00     0.031 C 
ATOM     41  C   UNL A   1      44.679  25.692  26.315  1.00  0.00     0.029 A 
ATOM     42  C   UNL A   1      44.724  27.056  26.839  1.00  0.00     0.049 A 
ATOM     43  H   UNL A   1      43.240  28.038  27.922  1.00  0.00     0.167 HD
ATOM     44  C   UNL A   1      39.990  30.004  30.132  1.00  0.00     0.034 A 
ATOM     45  C   UNL A   1      45.756  27.915  26.709  1.00  0.00     0.034 A 
ATOM     46  C   UNL A   1      41.072  30.959  30.113  1.00  0.00     0.049 A 
ATOM     47  C   UNL A   1      45.641  29.295  27.310  1.00  0.00     0.074 A 
ATOM     48  C   UNL A   1      41.131  32.210  30.705  1.00  0.00     0.029 A 
ATOM     49  N   UNL A   1      42.282  30.778  29.453  1.00  0.00    -0.354 N 
ATOM     50  N   UNL A   1      44.646  29.824  27.987  1.00  0.00    -0.248 NA
ATOM     51  C   UNL A   1      46.792  30.191  27.137  1.00  0.00     0.031 C 
ATOM     52  C   UNL A   1      42.342  32.811  30.342  1.00  0.00     0.029 A 
ATOM     53  C   UNL A   1      43.077  31.907  29.593  1.00  0.00     0.049 A 
ATOM     54  H   UNL A   1      42.538  29.967  28.959  1.00  0.00     0.167 HD
ATOM     55  C   UNL A   1      45.067  31.103  28.345  1.00  0.00     0.074 A 
ATOM     56  C   UNL A   1      46.408  31.260  27.820  1.00  0.00     0.031 C 
ATOM     57  C   UNL A   1      44.408  32.058  29.052  1.00  0.00     0.034 A 
BRANCH  44  58
ATOM     58  C   UNL A   1      38.696  30.377  30.818  1.00  0.00     0.023 A 
ATOM     59  C   UNL A   1      37.642  30.999  30.125  1.00  0.00     0.031 A 
ATOM     60  C   UNL A   1      38.529  30.146  32.195  1.00  0.00     0.131 A 
ATOM     61  C   UNL A   1      36.507  31.440  30.824  1.00  0.00     0.055 A 
ATOM     62  C   UNL A   1      37.363  30.510  32.869  1.00  0.00     0.041 A 
ATOM     63  F   UNL A   1      39.509  29.576  32.916  1.00  0.00    -0.206 F 
ATOM     64  C   UNL A   1      36.349  31.178  32.186  1.00  0.00     0.022 A 
BRANCH  61  65
ATOM     65  S   UNL A   1      35.314  32.499  29.960  1.00  0.00     0.124 S 
ATOM     66  O   UNL A   1      34.854  31.615  28.892  1.00  0.00    -0.237 OA
ATOM     67  O   UNL A   1      34.343  32.797  31.006  1.00  0.00    -0.237 OA
ATOM     68  O   UNL A   1      36.122  33.633  29.515  1.00  0.00    -0.744 OA
ENDBRANCH  61  65
ENDBRANCH  44  58
BRANCH  45  69
ATOM     69  C   UNL A   1      46.976  27.520  25.948  1.00  0.00     0.023 A 
ATOM     70  C   UNL A   1      47.126  27.849  24.592  1.00  0.00     0.031 A 
ATOM     71  C   UNL A   1      47.990  26.761  26.559  1.00  0.00     0.131 A 
ATOM     72  C   UNL A   1      48.244  27.387  23.880  1.00  0.00     0.055 A 
ATOM     73  C   UNL A   1      49.125  26.347  25.860  1.00  0.00     0.041 A 
ATOM     74  F   UNL A   1      47.895  26.416  27.854  1.00  0.00    -0.206 F 
ATOM     75  C   UNL A   1      49.251  26.649  24.508  1.00  0.00     0.022 A 
BRANCH  72  76
ATOM     76  S   UNL A   1      48.328  27.698  22.095  1.00  0.00     0.124 S 
ATOM     77  O   UNL A   1      49.465  28.607  22.006  1.00  0.00    -0.237 OA
ATOM     78  O   UNL A   1      48.534  26.355  21.562  1.00  0.00    -0.237 OA
ATOM     79  O   UNL A   1      47.028  28.293  21.793  1.00  0.00    -0.744 OA
ENDBRANCH  72  76
ENDBRANCH  45  69
BRANCH  57  80
ATOM     80  C   UNL A   1      45.154  33.340  29.337  1.00  0.00     0.023 A 
ATOM     81  C   UNL A   1      45.971  33.489  30.471  1.00  0.00     0.031 A 
ATOM     82  C   UNL A   1      45.036  34.435  28.461  1.00  0.00     0.131 A 
ATOM     83  C   UNL A   1      46.594  34.721  30.729  1.00  0.00     0.055 A 
ATOM     84  C   UNL A   1      45.706  35.638  28.689  1.00  0.00     0.041 A 
ATOM     85  F   UNL A   1      44.267  34.351  27.363  1.00  0.00    -0.206 F 
ATOM     86  C   UNL A   1      46.481  35.790  29.836  1.00  0.00     0.022 A 
BRANCH  83  87
ATOM     87  S   UNL A   1      47.483  34.940  32.294  1.00  0.00     0.124 S 
ATOM     88  O   UNL A   1      48.875  34.909  31.860  1.00  0.00    -0.237 OA
ATOM     89  O   UNL A   1      46.988  36.233  32.757  1.00  0.00    -0.237 OA
ATOM     90  O   UNL A   1      47.058  33.792  33.094  1.00  0.00    -0.744 OA
ENDBRANCH  83  87
ENDBRANCH  57  80
ENDBRANCH  31  32
ENDBRANCH  24  26
ENDBRANCH  23  24
ENDBRANCH  22  23
ENDBRANCH   1  22
TORSDOF 21
ENDMDL
