MODEL 1
REMARK VINA RESULT:     -12.7      0.000      0.000
REMARK SMILES COc1cc2ccccc2cc1C(=O)Nc1cc(C(=O)OCCOCCOC(=O)c2ccc(-c3c4nc(c(-c5cc(S(=O)(=O)[O-])ccc5F)c5ccc([nH]5)c(-c5cc(S(=O)(=O)[O-])ccc5F)c5nc(c(-c6cc(S(=O)(=O)[O-])ccc6F)c6ccc3[nH]6)C=C5)C=C4)cc2)ccc1C
REMARK SMILES IDX 24 1 23 2 22 3 21 4 19 5 20 6 18 7 16 8 17 9 95 10 94 11
REMARK SMILES IDX 96 12 93 13 15 14 13 15 14 16 12 18 3 19 4 20 5 21 11 22
REMARK SMILES IDX 6 23 10 24 7 25 9 26 8 27 2 28 1 29 25 30 26 31 27 32 28 33
REMARK SMILES IDX 29 34 30 35 31 36 92 37 32 38 91 39 33 40 34 41 35 42 85 43
REMARK SMILES IDX 36 44 90 45 84 46 86 47 37 48 89 49 83 50 82 51 38 53 70 54
REMARK SMILES IDX 50 55 69 56 51 57 54 58 68 59 87 60 52 61 53 62 67 64 88 65
REMARK SMILES IDX 55 66 39 67 40 68 48 69 41 70 47 71 49 72 46 73 42 74 43 75
REMARK SMILES IDX 44 76 45 77 71 78 72 79 80 80 73 81 79 82 81 83 78 84 74 85
REMARK SMILES IDX 75 86 76 87 77 88 56 89 57 90 65 91 58 92 64 93 66 94 63 95
REMARK SMILES IDX 59 96 60 97 61 98 62 99
REMARK H PARENT 15 17 86 52 54 63
REMARK Flexibility Score: inf
ROOT
ATOM      1  O   UNL A   1      34.347  34.314  27.712  1.00  0.00    -0.374 OA
ENDROOT
BRANCH   1   2
ATOM      2  C   UNL A   1      33.433  33.246  27.951  1.00  0.00     0.202 C 
BRANCH   2   3
ATOM      3  C   UNL A   1      34.311  32.055  27.907  1.00  0.00     0.261 C 
BRANCH   3   4
ATOM      4  O   UNL A   1      33.562  31.006  27.328  1.00  0.00    -0.460 OA
BRANCH   4   5
ATOM      5  C   UNL A   1      34.123  29.814  27.053  1.00  0.00     0.338 C 
ATOM      6  O   UNL A   1      35.245  29.386  27.237  1.00  0.00    -0.246 OA
BRANCH   5   7
ATOM      7  C   UNL A   1      32.994  29.090  26.467  1.00  0.00     0.062 A 
ATOM      8  C   UNL A   1      31.801  27.000  26.303  1.00  0.00     0.045 A 
ATOM      9  C   UNL A   1      32.742  27.784  26.916  1.00  0.00     0.042 A 
ATOM     10  C   UNL A   1      31.220  27.472  25.114  1.00  0.00    -0.027 A 
ATOM     11  C   UNL A   1      31.407  28.824  24.732  1.00  0.00     0.006 A 
ATOM     12  C   UNL A   1      30.311  26.637  24.269  1.00  0.00     0.046 C 
ATOM     13  C   UNL A   1      32.269  29.655  25.434  1.00  0.00     0.016 A 
BRANCH   8  14
ATOM     14  N   UNL A   1      31.478  25.759  26.869  1.00  0.00    -0.322 N 
ATOM     15  C   UNL A   1      31.904  24.465  26.574  1.00  0.00     0.259 C 
ATOM     16  O   UNL A   1      31.310  23.553  27.165  1.00  0.00    -0.269 OA
ATOM     17  H   UNL A   1      30.832  25.810  27.610  1.00  0.00     0.170 HD
BRANCH  15  18
ATOM     18  C   UNL A   1      33.054  24.077  25.656  1.00  0.00     0.082 A 
ATOM     19  C   UNL A   1      32.976  23.256  24.496  1.00  0.00     0.132 A 
ATOM     20  C   UNL A   1      34.102  22.599  23.933  1.00  0.00     0.056 A 
ATOM     21  C   UNL A   1      35.357  22.592  24.570  1.00  0.00    -0.015 A 
ATOM     22  C   UNL A   1      34.323  24.552  26.107  1.00  0.00     0.026 A 
ATOM     23  C   UNL A   1      36.818  21.428  24.339  1.00  0.00     0.009 A 
ATOM     24  C   UNL A   1      35.521  23.932  25.733  1.00  0.00    -0.017 A 
ATOM     25  C   UNL A   1      38.373  21.682  25.245  1.00  0.00     0.001 A 
ATOM     26  C   UNL A   1      37.100  24.207  26.560  1.00  0.00     0.009 A 
ATOM     27  C   UNL A   1      38.503  23.078  26.370  1.00  0.00     0.001 A 
BRANCH  19  28
ATOM     28  O   UNL A   1      31.816  22.777  23.929  1.00  0.00    -0.496 OA
ATOM     29  C   UNL A   1      31.938  21.607  23.144  1.00  0.00     0.278 C 
ENDBRANCH  19  28
ENDBRANCH  15  18
ENDBRANCH   8  14
ENDBRANCH   5   7
ENDBRANCH   4   5
ENDBRANCH   3   4
ENDBRANCH   2   3
ENDBRANCH   1   2
BRANCH   1  30
ATOM     30  C   UNL A   1      34.028  35.527  28.343  1.00  0.00     0.202 C 
BRANCH  30  31
ATOM     31  C   UNL A   1      33.225  35.206  29.599  1.00  0.00     0.261 C 
BRANCH  31  32
ATOM     32  O   UNL A   1      33.961  35.675  30.764  1.00  0.00    -0.460 OA
BRANCH  32  33
ATOM     33  C   UNL A   1      34.155  34.755  31.760  1.00  0.00     0.338 C 
ATOM     34  O   UNL A   1      33.870  34.937  32.933  1.00  0.00    -0.246 OA
BRANCH  33  35
ATOM     35  C   UNL A   1      34.964  33.577  31.279  1.00  0.00     0.060 A 
ATOM     36  C   UNL A   1      34.751  32.303  31.850  1.00  0.00     0.016 A 
ATOM     37  C   UNL A   1      36.153  33.824  30.600  1.00  0.00     0.016 A 
ATOM     38  C   UNL A   1      35.789  31.353  31.895  1.00  0.00     0.010 A 
ATOM     39  C   UNL A   1      37.210  32.943  30.775  1.00  0.00     0.010 A 
ATOM     40  C   UNL A   1      37.053  31.703  31.424  1.00  0.00    -0.014 A 
BRANCH  40  41
ATOM     41  C   UNL A   1      38.286  30.939  31.718  1.00  0.00     0.031 A 
ATOM     42  C   UNL A   1      38.758  29.837  30.833  1.00  0.00     0.074 A 
ATOM     43  C   UNL A   1      39.287  31.570  32.358  1.00  0.00     0.049 A 
ATOM     44  N   UNL A   1      39.906  29.234  30.891  1.00  0.00    -0.248 NA
ATOM     45  C   UNL A   1      37.860  29.283  29.838  1.00  0.00     0.031 C 
ATOM     46  C   UNL A   1      40.443  32.039  31.597  1.00  0.00     0.029 A 
ATOM     47  N   UNL A   1      39.343  32.303  33.535  1.00  0.00    -0.354 N 
ATOM     48  C   UNL A   1      39.957  28.314  29.858  1.00  0.00     0.074 A 
ATOM     49  C   UNL A   1      38.641  28.372  29.268  1.00  0.00     0.031 C 
ATOM     50  C   UNL A   1      41.053  32.958  32.352  1.00  0.00     0.029 A 
ATOM     51  C   UNL A   1      40.628  32.895  33.746  1.00  0.00     0.049 A 
ATOM     52  H   UNL A   1      38.585  32.404  34.155  1.00  0.00     0.167 HD
ATOM     53  C   UNL A   1      41.103  27.629  29.563  1.00  0.00     0.034 A 
ATOM     54  C   UNL A   1      41.433  32.543  34.914  1.00  0.00     0.034 A 
ATOM     55  C   UNL A   1      42.230  28.018  30.454  1.00  0.00     0.049 A 
ATOM     56  C   UNL A   1      43.045  31.178  35.382  1.00  0.00     0.074 A 
ATOM     57  C   UNL A   1      43.368  28.786  30.265  1.00  0.00     0.029 A 
ATOM     58  N   UNL A   1      42.194  27.760  31.827  1.00  0.00    -0.354 N 
ATOM     59  N   UNL A   1      43.904  30.434  34.505  1.00  0.00    -0.248 NA
ATOM     60  C   UNL A   1      43.560  30.335  36.710  1.00  0.00     0.031 C 
ATOM     61  C   UNL A   1      44.009  28.977  31.531  1.00  0.00     0.029 A 
ATOM     62  C   UNL A   1      43.294  28.308  32.511  1.00  0.00     0.049 A 
ATOM     63  H   UNL A   1      41.476  27.249  32.268  1.00  0.00     0.167 HD
ATOM     64  C   UNL A   1      43.869  29.090  34.827  1.00  0.00     0.074 A 
ATOM     65  C   UNL A   1      44.004  29.150  36.256  1.00  0.00     0.031 C 
ATOM     66  C   UNL A   1      43.478  28.068  33.967  1.00  0.00     0.034 A 
BRANCH  53  67
ATOM     67  C   UNL A   1      41.294  26.704  28.332  1.00  0.00     0.023 A 
ATOM     68  C   UNL A   1      41.713  25.370  28.539  1.00  0.00     0.031 A 
ATOM     69  C   UNL A   1      41.117  27.025  26.959  1.00  0.00     0.131 A 
ATOM     70  C   UNL A   1      41.989  24.491  27.460  1.00  0.00     0.055 A 
ATOM     71  C   UNL A   1      41.425  26.169  25.890  1.00  0.00     0.041 A 
ATOM     72  F   UNL A   1      40.570  28.160  26.529  1.00  0.00    -0.206 F 
ATOM     73  C   UNL A   1      41.869  24.891  26.135  1.00  0.00     0.022 A 
BRANCH  70  74
ATOM     74  S   UNL A   1      42.522  22.792  27.801  1.00  0.00     0.124 S 
ATOM     75  O   UNL A   1      42.939  22.333  26.481  1.00  0.00    -0.237 OA
ATOM     76  O   UNL A   1      43.576  22.992  28.788  1.00  0.00    -0.237 OA
ATOM     77  O   UNL A   1      41.311  22.152  28.318  1.00  0.00    -0.744 OA
ENDBRANCH  70  74
ENDBRANCH  53  67
BRANCH  54  78
ATOM     78  C   UNL A   1      40.436  33.599  35.840  1.00  0.00     0.023 A 
ATOM     79  C   UNL A   1      39.223  33.020  36.331  1.00  0.00     0.031 A 
ATOM     80  C   UNL A   1      41.040  34.580  36.681  1.00  0.00     0.131 A 
ATOM     81  C   UNL A   1      38.825  33.219  37.670  1.00  0.00     0.055 A 
ATOM     82  C   UNL A   1      40.634  34.764  38.013  1.00  0.00     0.041 A 
ATOM     83  F   UNL A   1      42.187  35.187  36.336  1.00  0.00    -0.206 F 
ATOM     84  C   UNL A   1      39.565  34.040  38.526  1.00  0.00     0.022 A 
BRANCH  81  85
ATOM     85  S   UNL A   1      37.550  32.135  38.411  1.00  0.00     0.124 S 
ATOM     86  O   UNL A   1      37.641  30.946  37.573  1.00  0.00    -0.237 OA
ATOM     87  O   UNL A   1      38.004  31.987  39.790  1.00  0.00    -0.237 OA
ATOM     88  O   UNL A   1      36.324  32.921  38.257  1.00  0.00    -0.744 OA
ENDBRANCH  81  85
ENDBRANCH  54  78
BRANCH  66  89
ATOM     89  C   UNL A   1      43.193  26.676  34.501  1.00  0.00     0.023 A 
ATOM     90  C   UNL A   1      44.117  25.636  34.372  1.00  0.00     0.031 A 
ATOM     91  C   UNL A   1      41.975  26.344  35.133  1.00  0.00     0.131 A 
ATOM     92  C   UNL A   1      43.722  24.309  34.561  1.00  0.00     0.055 A 
ATOM     93  C   UNL A   1      41.649  25.032  35.495  1.00  0.00     0.041 A 
ATOM     94  F   UNL A   1      41.046  27.272  35.401  1.00  0.00    -0.206 F 
ATOM     95  C   UNL A   1      42.499  23.993  35.143  1.00  0.00     0.022 A 
BRANCH  92  96
ATOM     96  S   UNL A   1      44.740  23.040  33.766  1.00  0.00     0.124 S 
ATOM     97  O   UNL A   1      46.090  23.525  34.047  1.00  0.00    -0.237 OA
ATOM     98  O   UNL A   1      44.346  21.828  34.475  1.00  0.00    -0.237 OA
ATOM     99  O   UNL A   1      44.338  23.107  32.364  1.00  0.00    -0.744 OA
ENDBRANCH  92  96
ENDBRANCH  66  89
ENDBRANCH  40  41
ENDBRANCH  33  35
ENDBRANCH  32  33
ENDBRANCH  31  32
ENDBRANCH  30  31
ENDBRANCH   1  30
TORSDOF 20
ENDMDL
MODEL 2
REMARK VINA RESULT:     -12.4      1.532      1.794
REMARK SMILES COc1cc2ccccc2cc1C(=O)Nc1cc(C(=O)OCCOCCOC(=O)c2ccc(-c3c4nc(c(-c5cc(S(=O)(=O)[O-])ccc5F)c5ccc([nH]5)c(-c5cc(S(=O)(=O)[O-])ccc5F)c5nc(c(-c6cc(S(=O)(=O)[O-])ccc6F)c6ccc3[nH]6)C=C5)C=C4)cc2)ccc1C
REMARK SMILES IDX 24 1 23 2 22 3 21 4 19 5 20 6 18 7 16 8 17 9 95 10 94 11
REMARK SMILES IDX 96 12 93 13 15 14 13 15 14 16 12 18 3 19 4 20 5 21 11 22
REMARK SMILES IDX 6 23 10 24 7 25 9 26 8 27 2 28 1 29 25 30 26 31 27 32 28 33
REMARK SMILES IDX 29 34 30 35 31 36 92 37 32 38 91 39 33 40 34 41 35 42 85 43
REMARK SMILES IDX 36 44 90 45 84 46 86 47 37 48 89 49 83 50 82 51 38 53 70 54
REMARK SMILES IDX 50 55 69 56 51 57 54 58 68 59 87 60 52 61 53 62 67 64 88 65
REMARK SMILES IDX 55 66 39 67 40 68 48 69 41 70 47 71 49 72 46 73 42 74 43 75
REMARK SMILES IDX 44 76 45 77 71 78 72 79 80 80 73 81 79 82 81 83 78 84 74 85
REMARK SMILES IDX 75 86 76 87 77 88 56 89 57 90 65 91 58 92 64 93 66 94 63 95
REMARK SMILES IDX 59 96 60 97 61 98 62 99
REMARK H PARENT 15 17 86 52 54 63
REMARK Flexibility Score: inf
ROOT
ATOM      1  O   UNL A   1      33.590  35.199  28.497  1.00  0.00    -0.374 OA
ENDROOT
BRANCH   1   2
ATOM      2  C   UNL A   1      33.522  33.870  29.010  1.00  0.00     0.202 C 
BRANCH   2   3
ATOM      3  C   UNL A   1      34.191  33.082  27.949  1.00  0.00     0.261 C 
BRANCH   3   4
ATOM      4  O   UNL A   1      33.365  31.969  27.674  1.00  0.00    -0.460 OA
BRANCH   4   5
ATOM      5  C   UNL A   1      33.873  30.727  27.582  1.00  0.00     0.338 C 
ATOM      6  O   UNL A   1      34.920  30.249  27.973  1.00  0.00    -0.246 OA
BRANCH   5   7
ATOM      7  C   UNL A   1      32.799  30.024  26.880  1.00  0.00     0.062 A 
ATOM      8  C   UNL A   1      31.662  27.930  26.506  1.00  0.00     0.045 A 
ATOM      9  C   UNL A   1      32.547  28.687  27.227  1.00  0.00     0.042 A 
ATOM     10  C   UNL A   1      31.145  28.470  25.316  1.00  0.00    -0.027 A 
ATOM     11  C   UNL A   1      31.326  29.847  25.035  1.00  0.00     0.006 A 
ATOM     12  C   UNL A   1      30.307  27.678  24.363  1.00  0.00     0.046 C 
ATOM     13  C   UNL A   1      32.126  30.645  25.843  1.00  0.00     0.016 A 
BRANCH   8  14
ATOM     14  N   UNL A   1      31.330  26.649  26.968  1.00  0.00    -0.322 N 
ATOM     15  C   UNL A   1      31.689  25.378  26.520  1.00  0.00     0.259 C 
ATOM     16  O   UNL A   1      31.101  24.430  27.057  1.00  0.00    -0.269 OA
ATOM     17  H   UNL A   1      30.735  26.645  27.752  1.00  0.00     0.170 HD
BRANCH  15  18
ATOM     18  C   UNL A   1      32.763  25.050  25.492  1.00  0.00     0.082 A 
ATOM     19  C   UNL A   1      32.554  24.658  24.141  1.00  0.00     0.132 A 
ATOM     20  C   UNL A   1      33.534  23.977  23.370  1.00  0.00     0.056 A 
ATOM     21  C   UNL A   1      34.733  23.506  23.937  1.00  0.00    -0.015 A 
ATOM     22  C   UNL A   1      34.087  25.080  26.029  1.00  0.00     0.026 A 
ATOM     23  C   UNL A   1      35.919  22.181  23.317  1.00  0.00     0.009 A 
ATOM     24  C   UNL A   1      35.137  24.359  25.447  1.00  0.00    -0.017 A 
ATOM     25  C   UNL A   1      37.456  21.806  24.210  1.00  0.00     0.001 A 
ATOM     26  C   UNL A   1      36.706  24.023  26.271  1.00  0.00     0.009 A 
ATOM     27  C   UNL A   1      37.840  22.731  25.703  1.00  0.00     0.001 A 
BRANCH  19  28
ATOM     28  O   UNL A   1      31.341  24.637  23.490  1.00  0.00    -0.496 OA
ATOM     29  C   UNL A   1      30.832  23.361  23.154  1.00  0.00     0.278 C 
ENDBRANCH  19  28
ENDBRANCH  15  18
ENDBRANCH   8  14
ENDBRANCH   5   7
ENDBRANCH   4   5
ENDBRANCH   3   4
ENDBRANCH   2   3
ENDBRANCH   1   2
BRANCH   1  30
ATOM     30  C   UNL A   1      33.090  36.196  29.352  1.00  0.00     0.202 C 
BRANCH  30  31
ATOM     31  C   UNL A   1      33.043  35.623  30.764  1.00  0.00     0.261 C 
BRANCH  31  32
ATOM     32  O   UNL A   1      33.955  36.377  31.612  1.00  0.00    -0.460 OA
BRANCH  32  33
ATOM     33  C   UNL A   1      34.456  35.706  32.696  1.00  0.00     0.338 C 
ATOM     34  O   UNL A   1      34.579  36.190  33.811  1.00  0.00    -0.246 OA
BRANCH  33  35
ATOM     35  C   UNL A   1      35.045  34.374  32.304  1.00  0.00     0.060 A 
ATOM     36  C   UNL A   1      34.878  33.260  33.155  1.00  0.00     0.016 A 
ATOM     37  C   UNL A   1      36.059  34.355  31.352  1.00  0.00     0.016 A 
ATOM     38  C   UNL A   1      35.828  32.220  33.170  1.00  0.00     0.010 A 
ATOM     39  C   UNL A   1      37.061  33.404  31.473  1.00  0.00     0.010 A 
ATOM     40  C   UNL A   1      36.970  32.329  32.379  1.00  0.00    -0.014 A 
BRANCH  40  41
ATOM     41  C   UNL A   1      38.179  31.494  32.553  1.00  0.00     0.031 A 
ATOM     42  C   UNL A   1      38.508  30.382  31.616  1.00  0.00     0.074 A 
ATOM     43  C   UNL A   1      39.267  32.059  33.107  1.00  0.00     0.049 A 
ATOM     44  N   UNL A   1      39.621  29.716  31.565  1.00  0.00    -0.248 NA
ATOM     45  C   UNL A   1      37.495  29.894  30.701  1.00  0.00     0.031 C 
ATOM     46  C   UNL A   1      40.375  32.476  32.251  1.00  0.00     0.029 A 
ATOM     47  N   UNL A   1      39.469  32.768  34.282  1.00  0.00    -0.354 N 
ATOM     48  C   UNL A   1      39.528  28.811  30.521  1.00  0.00     0.074 A 
ATOM     49  C   UNL A   1      38.170  28.951  30.052  1.00  0.00     0.031 C 
ATOM     50  C   UNL A   1      41.100  33.347  32.959  1.00  0.00     0.029 A 
ATOM     51  C   UNL A   1      40.799  33.285  34.384  1.00  0.00     0.049 A 
ATOM     52  H   UNL A   1      38.776  32.901  34.969  1.00  0.00     0.167 HD
ATOM     53  C   UNL A   1      40.603  28.069  30.117  1.00  0.00     0.034 A 
ATOM     54  C   UNL A   1      41.683  32.871  35.472  1.00  0.00     0.034 A 
ATOM     55  C   UNL A   1      41.825  28.381  30.907  1.00  0.00     0.049 A 
ATOM     56  C   UNL A   1      43.251  31.412  35.778  1.00  0.00     0.074 A 
ATOM     57  C   UNL A   1      42.983  29.088  30.626  1.00  0.00     0.029 A 
ATOM     58  N   UNL A   1      41.896  28.103  32.275  1.00  0.00    -0.354 N 
ATOM     59  N   UNL A   1      43.986  30.636  34.818  1.00  0.00    -0.248 NA
ATOM     60  C   UNL A   1      43.834  30.521  37.044  1.00  0.00     0.031 C 
ATOM     61  C   UNL A   1      43.743  29.224  31.831  1.00  0.00     0.029 A 
ATOM     62  C   UNL A   1      43.083  28.579  32.864  1.00  0.00     0.049 A 
ATOM     63  H   UNL A   1      41.193  27.625  32.773  1.00  0.00     0.167 HD
ATOM     64  C   UNL A   1      43.904  29.291  35.128  1.00  0.00     0.074 A 
ATOM     65  C   UNL A   1      44.168  29.320  36.539  1.00  0.00     0.031 C 
ATOM     66  C   UNL A   1      43.381  28.306  34.294  1.00  0.00     0.034 A 
BRANCH  53  67
ATOM     67  C   UNL A   1      40.632  27.155  28.863  1.00  0.00     0.023 A 
ATOM     68  C   UNL A   1      41.584  27.414  27.852  1.00  0.00     0.031 A 
ATOM     69  C   UNL A   1      39.787  26.052  28.565  1.00  0.00     0.131 A 
ATOM     70  C   UNL A   1      41.617  26.675  26.641  1.00  0.00     0.055 A 
ATOM     71  C   UNL A   1      39.794  25.344  27.352  1.00  0.00     0.041 A 
ATOM     72  F   UNL A   1      38.932  25.517  29.433  1.00  0.00    -0.206 F 
ATOM     73  C   UNL A   1      40.711  25.655  26.376  1.00  0.00     0.022 A 
BRANCH  70  74
ATOM     74  S   UNL A   1      42.866  27.063  25.387  1.00  0.00     0.124 S 
ATOM     75  O   UNL A   1      42.907  25.831  24.607  1.00  0.00    -0.237 OA
ATOM     76  O   UNL A   1      42.294  28.233  24.733  1.00  0.00    -0.237 OA
ATOM     77  O   UNL A   1      44.071  27.328  26.176  1.00  0.00    -0.744 OA
ENDBRANCH  70  74
ENDBRANCH  53  67
BRANCH  54  78
ATOM     78  C   UNL A   1      40.833  33.965  36.495  1.00  0.00     0.023 A 
ATOM     79  C   UNL A   1      39.969  33.354  37.458  1.00  0.00     0.031 A 
ATOM     80  C   UNL A   1      41.463  35.177  36.906  1.00  0.00     0.131 A 
ATOM     81  C   UNL A   1      39.972  33.789  38.800  1.00  0.00     0.055 A 
ATOM     82  C   UNL A   1      41.459  35.595  38.247  1.00  0.00     0.041 A 
ATOM     83  F   UNL A   1      42.305  35.838  36.095  1.00  0.00    -0.206 F 
ATOM     84  C   UNL A   1      40.764  34.868  39.206  1.00  0.00     0.022 A 
BRANCH  81  85
ATOM     85  S   UNL A   1      39.226  32.738  40.099  1.00  0.00     0.124 S 
ATOM     86  O   UNL A   1      40.400  32.108  40.689  1.00  0.00    -0.237 OA
ATOM     87  O   UNL A   1      38.522  33.702  40.939  1.00  0.00    -0.237 OA
ATOM     88  O   UNL A   1      38.351  31.847  39.335  1.00  0.00    -0.744 OA
ENDBRANCH  81  85
ENDBRANCH  54  78
BRANCH  66  89
ATOM     89  C   UNL A   1      43.067  26.923  34.836  1.00  0.00     0.023 A 
ATOM     90  C   UNL A   1      43.924  25.840  34.627  1.00  0.00     0.031 A 
ATOM     91  C   UNL A   1      41.885  26.645  35.558  1.00  0.00     0.131 A 
ATOM     92  C   UNL A   1      43.477  24.532  34.834  1.00  0.00     0.055 A 
ATOM     93  C   UNL A   1      41.522  25.347  35.933  1.00  0.00     0.041 A 
ATOM     94  F   UNL A   1      41.029  27.615  35.906  1.00  0.00    -0.206 F 
ATOM     95  C   UNL A   1      42.288  24.271  35.506  1.00  0.00     0.022 A 
BRANCH  92  96
ATOM     96  S   UNL A   1      44.364  23.224  33.951  1.00  0.00     0.124 S 
ATOM     97  O   UNL A   1      43.614  23.152  32.699  1.00  0.00    -0.237 OA
ATOM     98  O   UNL A   1      45.712  23.771  33.846  1.00  0.00    -0.237 OA
ATOM     99  O   UNL A   1      44.223  22.062  34.825  1.00  0.00    -0.744 OA
ENDBRANCH  92  96
ENDBRANCH  66  89
ENDBRANCH  40  41
ENDBRANCH  33  35
ENDBRANCH  32  33
ENDBRANCH  31  32
ENDBRANCH  30  31
ENDBRANCH   1  30
TORSDOF 20
ENDMDL
MODEL 3
REMARK VINA RESULT:     -12.1      4.720     11.132
REMARK SMILES COc1cc2ccccc2cc1C(=O)Nc1cc(C(=O)OCCOCCOC(=O)c2ccc(-c3c4nc(c(-c5cc(S(=O)(=O)[O-])ccc5F)c5ccc([nH]5)c(-c5cc(S(=O)(=O)[O-])ccc5F)c5nc(c(-c6cc(S(=O)(=O)[O-])ccc6F)c6ccc3[nH]6)C=C5)C=C4)cc2)ccc1C
REMARK SMILES IDX 24 1 23 2 22 3 21 4 19 5 20 6 18 7 16 8 17 9 95 10 94 11
REMARK SMILES IDX 96 12 93 13 15 14 13 15 14 16 12 18 3 19 4 20 5 21 11 22
REMARK SMILES IDX 6 23 10 24 7 25 9 26 8 27 2 28 1 29 25 30 26 31 27 32 28 33
REMARK SMILES IDX 29 34 30 35 31 36 92 37 32 38 91 39 33 40 34 41 35 42 85 43
REMARK SMILES IDX 36 44 90 45 84 46 86 47 37 48 89 49 83 50 82 51 38 53 70 54
REMARK SMILES IDX 50 55 69 56 51 57 54 58 68 59 87 60 52 61 53 62 67 64 88 65
REMARK SMILES IDX 55 66 39 67 40 68 48 69 41 70 47 71 49 72 46 73 42 74 43 75
REMARK SMILES IDX 44 76 45 77 71 78 72 79 80 80 73 81 79 82 81 83 78 84 74 85
REMARK SMILES IDX 75 86 76 87 77 88 56 89 57 90 65 91 58 92 64 93 66 94 63 95
REMARK SMILES IDX 59 96 60 97 61 98 62 99
REMARK H PARENT 15 17 86 52 54 63
REMARK Flexibility Score: inf
ROOT
ATOM      1  O   UNL A   1      39.090  20.786  26.331  1.00  0.00    -0.374 OA
ENDROOT
BRANCH   1   2
ATOM      2  C   UNL A   1      38.309  21.791  25.689  1.00  0.00     0.202 C 
BRANCH   2   3
ATOM      3  C   UNL A   1      37.057  21.069  25.367  1.00  0.00     0.261 C 
BRANCH   3   4
ATOM      4  O   UNL A   1      36.028  22.035  25.286  1.00  0.00    -0.460 OA
BRANCH   4   5
ATOM      5  C   UNL A   1      34.920  21.942  26.043  1.00  0.00     0.338 C 
ATOM      6  O   UNL A   1      34.748  21.558  27.183  1.00  0.00    -0.246 OA
BRANCH   5   7
ATOM      7  C   UNL A   1      33.902  22.468  25.134  1.00  0.00     0.062 A 
ATOM      8  C   UNL A   1      33.247  24.255  23.652  1.00  0.00     0.045 A 
ATOM      9  C   UNL A   1      34.206  23.627  24.401  1.00  0.00     0.042 A 
ATOM     10  C   UNL A   1      31.919  23.811  23.770  1.00  0.00    -0.027 A 
ATOM     11  C   UNL A   1      31.646  22.587  24.428  1.00  0.00     0.006 A 
ATOM     12  C   UNL A   1      30.767  24.524  23.134  1.00  0.00     0.046 C 
ATOM     13  C   UNL A   1      32.649  21.885  25.082  1.00  0.00     0.016 A 
BRANCH   8  14
ATOM     14  N   UNL A   1      33.623  25.322  22.823  1.00  0.00    -0.322 N 
ATOM     15  C   UNL A   1      33.445  26.699  22.945  1.00  0.00     0.259 C 
ATOM     16  O   UNL A   1      33.763  27.374  21.956  1.00  0.00    -0.269 OA
ATOM     17  H   UNL A   1      34.100  25.049  22.007  1.00  0.00     0.170 HD
BRANCH  15  18
ATOM     18  C   UNL A   1      32.961  27.445  24.180  1.00  0.00     0.082 A 
ATOM     19  C   UNL A   1      31.681  28.038  24.367  1.00  0.00     0.132 A 
ATOM     20  C   UNL A   1      31.429  29.051  25.331  1.00  0.00     0.056 A 
ATOM     21  C   UNL A   1      32.465  29.649  26.072  1.00  0.00    -0.015 A 
ATOM     22  C   UNL A   1      33.969  27.596  25.180  1.00  0.00     0.026 A 
ATOM     23  C   UNL A   1      32.495  31.293  26.990  1.00  0.00     0.009 A 
ATOM     24  C   UNL A   1      33.921  28.625  26.129  1.00  0.00    -0.017 A 
ATOM     25  C   UNL A   1      33.953  31.809  27.943  1.00  0.00     0.001 A 
ATOM     26  C   UNL A   1      35.325  29.124  27.146  1.00  0.00     0.009 A 
ATOM     27  C   UNL A   1      35.379  30.715  28.008  1.00  0.00     0.001 A 
BRANCH  19  28
ATOM     28  O   UNL A   1      30.610  27.925  23.509  1.00  0.00    -0.496 OA
ATOM     29  C   UNL A   1      30.591  28.813  22.409  1.00  0.00     0.278 C 
ENDBRANCH  19  28
ENDBRANCH  15  18
ENDBRANCH   8  14
ENDBRANCH   5   7
ENDBRANCH   4   5
ENDBRANCH   3   4
ENDBRANCH   2   3
ENDBRANCH   1   2
BRANCH   1  30
ATOM     30  C   UNL A   1      39.690  19.853  25.469  1.00  0.00     0.202 C 
BRANCH  30  31
ATOM     31  C   UNL A   1      40.861  19.216  26.210  1.00  0.00     0.261 C 
BRANCH  31  32
ATOM     32  O   UNL A   1      41.685  20.268  26.788  1.00  0.00    -0.460 OA
BRANCH  32  33
ATOM     33  C   UNL A   1      42.596  20.846  25.944  1.00  0.00     0.338 C 
ATOM     34  O   UNL A   1      43.625  20.309  25.565  1.00  0.00    -0.246 OA
BRANCH  33  35
ATOM     35  C   UNL A   1      42.291  22.305  25.712  1.00  0.00     0.060 A 
ATOM     36  C   UNL A   1      43.165  23.084  24.923  1.00  0.00     0.016 A 
ATOM     37  C   UNL A   1      41.415  22.943  26.584  1.00  0.00     0.016 A 
ATOM     38  C   UNL A   1      43.282  24.471  25.136  1.00  0.00     0.010 A 
ATOM     39  C   UNL A   1      41.638  24.279  26.886  1.00  0.00     0.010 A 
ATOM     40  C   UNL A   1      42.572  25.062  26.179  1.00  0.00    -0.014 A 
BRANCH  40  41
ATOM     41  C   UNL A   1      42.859  26.411  26.715  1.00  0.00     0.031 A 
ATOM     42  C   UNL A   1      41.799  27.250  27.343  1.00  0.00     0.074 A 
ATOM     43  C   UNL A   1      44.086  26.648  27.214  1.00  0.00     0.049 A 
ATOM     44  N   UNL A   1      41.974  28.353  28.004  1.00  0.00    -0.248 NA
ATOM     45  C   UNL A   1      40.405  26.895  27.162  1.00  0.00     0.031 C 
ATOM     46  C   UNL A   1      44.285  26.655  28.661  1.00  0.00     0.029 A 
ATOM     47  N   UNL A   1      45.364  26.472  26.702  1.00  0.00    -0.354 N 
ATOM     48  C   UNL A   1      40.738  28.779  28.458  1.00  0.00     0.074 A 
ATOM     49  C   UNL A   1      39.805  27.847  27.868  1.00  0.00     0.031 C 
ATOM     50  C   UNL A   1      45.596  26.494  28.869  1.00  0.00     0.029 A 
ATOM     51  C   UNL A   1      46.380  26.756  27.668  1.00  0.00     0.049 A 
ATOM     52  H   UNL A   1      45.551  26.184  25.779  1.00  0.00     0.167 HD
ATOM     53  C   UNL A   1      40.613  29.834  29.318  1.00  0.00     0.034 A 
ATOM     54  C   UNL A   1      47.348  27.828  27.444  1.00  0.00     0.034 A 
ATOM     55  C   UNL A   1      41.935  30.408  29.692  1.00  0.00     0.049 A 
ATOM     56  C   UNL A   1      47.577  29.906  28.002  1.00  0.00     0.074 A 
ATOM     57  C   UNL A   1      42.704  30.350  30.843  1.00  0.00     0.029 A 
ATOM     58  N   UNL A   1      42.754  31.023  28.741  1.00  0.00    -0.354 N 
ATOM     59  N   UNL A   1      46.884  30.672  29.000  1.00  0.00    -0.248 NA
ATOM     60  C   UNL A   1      48.262  31.260  27.342  1.00  0.00     0.031 C 
ATOM     61  C   UNL A   1      43.981  30.938  30.573  1.00  0.00     0.029 A 
ATOM     62  C   UNL A   1      44.008  31.393  29.264  1.00  0.00     0.049 A 
ATOM     63  H   UNL A   1      42.484  31.182  27.807  1.00  0.00     0.167 HD
ATOM     64  C   UNL A   1      46.341  31.812  28.436  1.00  0.00     0.074 A 
ATOM     65  C   UNL A   1      47.451  32.285  27.657  1.00  0.00     0.031 C 
ATOM     66  C   UNL A   1      44.987  32.136  28.430  1.00  0.00     0.034 A 
BRANCH  53  67
ATOM     67  C   UNL A   1      39.290  30.276  29.999  1.00  0.00     0.023 A 
ATOM     68  C   UNL A   1      38.898  31.630  29.911  1.00  0.00     0.031 A 
ATOM     69  C   UNL A   1      38.382  29.479  30.746  1.00  0.00     0.131 A 
ATOM     70  C   UNL A   1      37.746  32.126  30.576  1.00  0.00     0.055 A 
ATOM     71  C   UNL A   1      37.263  29.975  31.436  1.00  0.00     0.041 A 
ATOM     72  F   UNL A   1      38.450  28.153  30.824  1.00  0.00    -0.206 F 
ATOM     73  C   UNL A   1      36.938  31.308  31.358  1.00  0.00     0.022 A 
BRANCH  70  74
ATOM     74  S   UNL A   1      37.302  33.876  30.418  1.00  0.00     0.124 S 
ATOM     75  O   UNL A   1      37.834  34.437  31.656  1.00  0.00    -0.237 OA
ATOM     76  O   UNL A   1      37.978  34.256  29.184  1.00  0.00    -0.237 OA
ATOM     77  O   UNL A   1      35.841  33.852  30.335  1.00  0.00    -0.744 OA
ENDBRANCH  70  74
ENDBRANCH  53  67
BRANCH  54  78
ATOM     78  C   UNL A   1      48.195  26.759  26.392  1.00  0.00     0.023 A 
ATOM     79  C   UNL A   1      47.908  26.918  25.000  1.00  0.00     0.031 A 
ATOM     80  C   UNL A   1      49.529  26.368  26.711  1.00  0.00     0.131 A 
ATOM     81  C   UNL A   1      48.953  26.950  24.052  1.00  0.00     0.055 A 
ATOM     82  C   UNL A   1      50.559  26.408  25.757  1.00  0.00     0.041 A 
ATOM     83  F   UNL A   1      49.923  26.197  27.983  1.00  0.00    -0.206 F 
ATOM     84  C   UNL A   1      50.282  26.758  24.441  1.00  0.00     0.022 A 
BRANCH  81  85
ATOM     85  S   UNL A   1      48.637  27.595  22.369  1.00  0.00     0.124 S 
ATOM     86  O   UNL A   1      48.653  26.376  21.571  1.00  0.00    -0.237 OA
ATOM     87  O   UNL A   1      47.344  28.258  22.507  1.00  0.00    -0.237 OA
ATOM     88  O   UNL A   1      49.764  28.504  22.151  1.00  0.00    -0.744 OA
ENDBRANCH  81  85
ENDBRANCH  54  78
BRANCH  66  89
ATOM     89  C   UNL A   1      44.464  33.247  27.537  1.00  0.00     0.023 A 
ATOM     90  C   UNL A   1      44.029  34.467  28.061  1.00  0.00     0.031 A 
ATOM     91  C   UNL A   1      44.363  33.106  26.136  1.00  0.00     0.131 A 
ATOM     92  C   UNL A   1      43.256  35.336  27.286  1.00  0.00     0.055 A 
ATOM     93  C   UNL A   1      43.749  34.068  25.326  1.00  0.00     0.041 A 
ATOM     94  F   UNL A   1      44.834  32.023  25.502  1.00  0.00    -0.206 F 
ATOM     95  C   UNL A   1      43.125  35.160  25.912  1.00  0.00     0.022 A 
BRANCH  92  96
ATOM     96  S   UNL A   1      42.218  36.516  28.185  1.00  0.00     0.124 S 
ATOM     97  O   UNL A   1      41.914  37.496  27.144  1.00  0.00    -0.237 OA
ATOM     98  O   UNL A   1      41.097  35.688  28.615  1.00  0.00    -0.237 OA
ATOM     99  O   UNL A   1      43.090  36.998  29.252  1.00  0.00    -0.744 OA
ENDBRANCH  92  96
ENDBRANCH  66  89
ENDBRANCH  40  41
ENDBRANCH  33  35
ENDBRANCH  32  33
ENDBRANCH  31  32
ENDBRANCH  30  31
ENDBRANCH   1  30
TORSDOF 20
ENDMDL
