MODEL 1
REMARK VINA RESULT:     -11.8      0.000      0.000
REMARK SMILES C[C@H]1[C@@H](C(=O)OCCOCCOC(=O)c2ccc(-c3c4nc(c(-c5cc(S(=O)(=O)[O-])ccc5F)c5ccc([nH]5)c(-c5cc(S(=O)(=O)[O-])ccc5F)c5nc(c(-c6cc(S(=O)(=O)[O-])ccc6F)c6ccc3[nH]6)C=C5)C=C4)cc2)CC[N@@H+]1Cc1cc(F)c(F)c(F)c1
REMARK SMILES IDX 10 1 9 2 8 3 7 4 6 5 4 6 5 7 3 8 1 9 2 10 80 11 78 12 79 13
REMARK SMILES IDX 81 15 82 16 83 17 90 18 84 19 88 20 85 21 86 22 89 23 87 24
REMARK SMILES IDX 11 25 12 26 13 27 14 28 15 29 16 30 77 31 17 32 76 33 18 34
REMARK SMILES IDX 19 35 20 36 70 37 21 38 75 39 69 40 71 41 22 42 74 43 68 44
REMARK SMILES IDX 67 45 23 47 55 48 35 49 54 50 36 51 39 52 53 53 72 54 37 55
REMARK SMILES IDX 38 56 52 58 73 59 40 60 24 61 25 62 33 63 26 64 32 65 34 66
REMARK SMILES IDX 31 67 27 68 28 69 29 70 30 71 56 72 57 73 65 74 58 75 64 76
REMARK SMILES IDX 66 77 63 78 59 79 60 80 61 81 62 82 41 83 42 84 50 85 43 86
REMARK SMILES IDX 49 87 51 88 48 89 44 90 45 91 46 92 47 93
REMARK H PARENT 80 14 71 46 39 57
REMARK Flexibility Score: inf
ROOT
ATOM      1  C   UNL A   1      32.175  29.972  25.389  1.00  0.00     0.202 C 
ENDROOT
BRANCH   1   2
ATOM      2  O   UNL A   1      31.321  28.840  25.244  1.00  0.00    -0.374 OA
BRANCH   2   3
ATOM      3  C   UNL A   1      31.028  28.447  23.897  1.00  0.00     0.202 C 
BRANCH   3   4
ATOM      4  C   UNL A   1      32.253  28.033  23.074  1.00  0.00     0.261 C 
BRANCH   4   5
ATOM      5  O   UNL A   1      32.446  26.607  23.187  1.00  0.00    -0.463 OA
BRANCH   5   6
ATOM      6  C   UNL A   1      33.236  26.161  24.184  1.00  0.00     0.315 C 
ATOM      7  O   UNL A   1      34.152  26.811  24.682  1.00  0.00    -0.252 OA
BRANCH   6   8
ATOM      8  C   UNL A   1      32.819  24.817  24.764  1.00  0.00     0.162 C 
ATOM      9  C   UNL A   1      33.951  23.382  22.845  1.00  0.00     0.076 C 
ATOM     10  C   UNL A   1      33.285  23.451  24.217  1.00  0.00     0.195 C 
ATOM     11  N   UNL A   1      32.077  22.602  24.158  1.00  0.00    -0.328 N 
ATOM     12  C   UNL A   1      31.287  24.746  24.798  1.00  0.00     0.083 C 
ATOM     13  C   UNL A   1      30.919  23.475  24.058  1.00  0.00     0.263 C 
ATOM     14  H   UNL A   1      32.138  22.031  23.315  1.00  0.00     0.348 HD
BRANCH  11  15
ATOM     15  C   UNL A   1      31.979  21.511  25.127  1.00  0.00     0.299 C 
BRANCH  15  16
ATOM     16  C   UNL A   1      32.360  20.130  24.640  1.00  0.00     0.012 A 
ATOM     17  C   UNL A   1      32.770  19.143  25.550  1.00  0.00     0.052 A 
ATOM     18  C   UNL A   1      32.301  19.799  23.276  1.00  0.00     0.052 A 
ATOM     19  C   UNL A   1      33.063  17.856  25.103  1.00  0.00     0.162 A 
ATOM     20  C   UNL A   1      32.562  18.498  22.852  1.00  0.00     0.162 A 
ATOM     21  F   UNL A   1      33.460  16.932  25.989  1.00  0.00    -0.204 F 
ATOM     22  C   UNL A   1      32.941  17.524  23.761  1.00  0.00     0.194 A 
ATOM     23  F   UNL A   1      32.428  18.197  21.553  1.00  0.00    -0.204 F 
ATOM     24  F   UNL A   1      33.190  16.274  23.346  1.00  0.00    -0.200 F 
ENDBRANCH  15  16
ENDBRANCH  11  15
ENDBRANCH   6   8
ENDBRANCH   5   6
ENDBRANCH   4   5
ENDBRANCH   3   4
ENDBRANCH   2   3
ENDBRANCH   1   2
BRANCH   1  25
ATOM     25  C   UNL A   1      31.884  30.887  26.581  1.00  0.00     0.261 C 
BRANCH  25  26
ATOM     26  O   UNL A   1      32.902  30.758  27.583  1.00  0.00    -0.460 OA
BRANCH  26  27
ATOM     27  C   UNL A   1      33.660  31.867  27.729  1.00  0.00     0.338 C 
ATOM     28  O   UNL A   1      33.255  33.017  27.836  1.00  0.00    -0.246 OA
BRANCH  27  29
ATOM     29  C   UNL A   1      35.073  31.501  27.938  1.00  0.00     0.060 A 
ATOM     30  C   UNL A   1      35.355  30.133  27.997  1.00  0.00     0.016 A 
ATOM     31  C   UNL A   1      36.086  32.446  28.134  1.00  0.00     0.016 A 
ATOM     32  C   UNL A   1      36.622  29.701  28.361  1.00  0.00     0.010 A 
ATOM     33  C   UNL A   1      37.366  32.009  28.492  1.00  0.00     0.010 A 
ATOM     34  C   UNL A   1      37.617  30.638  28.670  1.00  0.00    -0.014 A 
BRANCH  34  35
ATOM     35  C   UNL A   1      38.825  30.151  29.379  1.00  0.00     0.031 A 
ATOM     36  C   UNL A   1      39.071  30.620  30.789  1.00  0.00     0.074 A 
ATOM     37  C   UNL A   1      39.612  29.215  28.820  1.00  0.00     0.049 A 
ATOM     38  N   UNL A   1      39.995  30.256  31.639  1.00  0.00    -0.248 NA
ATOM     39  C   UNL A   1      38.143  31.637  31.313  1.00  0.00     0.031 C 
ATOM     40  C   UNL A   1      39.434  28.658  27.478  1.00  0.00     0.029 A 
ATOM     41  N   UNL A   1      40.700  28.548  29.319  1.00  0.00    -0.354 N 
ATOM     42  C   UNL A   1      39.760  30.995  32.795  1.00  0.00     0.074 A 
ATOM     43  C   UNL A   1      38.641  31.867  32.516  1.00  0.00     0.031 C 
ATOM     44  C   UNL A   1      40.373  27.720  27.268  1.00  0.00     0.029 A 
ATOM     45  C   UNL A   1      41.235  27.632  28.444  1.00  0.00     0.049 A 
ATOM     46  H   UNL A   1      41.065  28.710  30.219  1.00  0.00     0.167 HD
ATOM     47  C   UNL A   1      40.408  30.936  33.984  1.00  0.00     0.034 A 
ATOM     48  C   UNL A   1      42.302  26.820  28.580  1.00  0.00     0.034 A 
ATOM     49  C   UNL A   1      41.527  30.062  34.238  1.00  0.00     0.049 A 
ATOM     50  C   UNL A   1      43.052  26.824  29.890  1.00  0.00     0.074 A 
ATOM     51  C   UNL A   1      42.261  29.914  35.401  1.00  0.00     0.029 A 
ATOM     52  N   UNL A   1      42.083  29.193  33.306  1.00  0.00    -0.354 N 
ATOM     53  N   UNL A   1      42.813  27.520  30.980  1.00  0.00    -0.248 NA
ATOM     54  C   UNL A   1      44.202  25.918  29.995  1.00  0.00     0.031 C 
ATOM     55  C   UNL A   1      43.305  29.016  35.150  1.00  0.00     0.029 A 
ATOM     56  C   UNL A   1      43.169  28.532  33.858  1.00  0.00     0.049 A 
ATOM     57  H   UNL A   1      41.752  29.064  32.387  1.00  0.00     0.167 HD
ATOM     58  C   UNL A   1      43.767  27.109  31.909  1.00  0.00     0.074 A 
ATOM     59  C   UNL A   1      44.564  26.089  31.256  1.00  0.00     0.031 C 
ATOM     60  C   UNL A   1      43.964  27.530  33.186  1.00  0.00     0.034 A 
BRANCH  47  61
ATOM     61  C   UNL A   1      39.950  31.882  35.072  1.00  0.00     0.023 A 
ATOM     62  C   UNL A   1      39.163  31.449  36.154  1.00  0.00     0.031 A 
ATOM     63  C   UNL A   1      40.276  33.248  35.004  1.00  0.00     0.131 A 
ATOM     64  C   UNL A   1      38.668  32.382  37.079  1.00  0.00     0.055 A 
ATOM     65  C   UNL A   1      39.850  34.158  35.973  1.00  0.00     0.041 A 
ATOM     66  F   UNL A   1      41.000  33.728  33.980  1.00  0.00    -0.206 F 
ATOM     67  C   UNL A   1      39.028  33.729  37.012  1.00  0.00     0.022 A 
BRANCH  64  68
ATOM     68  S   UNL A   1      37.423  31.839  38.282  1.00  0.00     0.124 S 
ATOM     69  O   UNL A   1      37.138  30.483  37.818  1.00  0.00    -0.237 OA
ATOM     70  O   UNL A   1      38.140  31.944  39.547  1.00  0.00    -0.237 OA
ATOM     71  O   UNL A   1      36.331  32.793  38.101  1.00  0.00    -0.744 OA
ENDBRANCH  64  68
ENDBRANCH  47  61
BRANCH  48  72
ATOM     72  C   UNL A   1      42.744  25.956  27.446  1.00  0.00     0.023 A 
ATOM     73  C   UNL A   1      42.252  24.652  27.284  1.00  0.00     0.031 A 
ATOM     74  C   UNL A   1      43.714  26.412  26.535  1.00  0.00     0.131 A 
ATOM     75  C   UNL A   1      42.765  23.832  26.266  1.00  0.00     0.055 A 
ATOM     76  C   UNL A   1      44.180  25.613  25.489  1.00  0.00     0.041 A 
ATOM     77  F   UNL A   1      44.221  27.650  26.644  1.00  0.00    -0.206 F 
ATOM     78  C   UNL A   1      43.715  24.308  25.360  1.00  0.00     0.022 A 
BRANCH  75  79
ATOM     79  S   UNL A   1      42.242  22.096  26.200  1.00  0.00     0.124 S 
ATOM     80  O   UNL A   1      42.693  21.601  27.496  1.00  0.00    -0.237 OA
ATOM     81  O   UNL A   1      40.798  22.223  26.027  1.00  0.00    -0.237 OA
ATOM     82  O   UNL A   1      42.962  21.568  25.043  1.00  0.00    -0.744 OA
ENDBRANCH  75  79
ENDBRANCH  48  72
BRANCH  60  83
ATOM     83  C   UNL A   1      45.064  26.847  33.967  1.00  0.00     0.023 A 
ATOM     84  C   UNL A   1      44.839  25.654  34.676  1.00  0.00     0.031 A 
ATOM     85  C   UNL A   1      46.348  27.418  34.029  1.00  0.00     0.131 A 
ATOM     86  C   UNL A   1      45.854  25.115  35.480  1.00  0.00     0.055 A 
ATOM     87  C   UNL A   1      47.377  26.835  34.769  1.00  0.00     0.041 A 
ATOM     88  F   UNL A   1      46.622  28.558  33.374  1.00  0.00    -0.206 F 
ATOM     89  C   UNL A   1      47.128  25.688  35.515  1.00  0.00     0.022 A 
BRANCH  86  90
ATOM     90  S   UNL A   1      45.448  23.732  36.581  1.00  0.00     0.124 S 
ATOM     91  O   UNL A   1      46.743  23.078  36.734  1.00  0.00    -0.237 OA
ATOM     92  O   UNL A   1      44.934  24.415  37.763  1.00  0.00    -0.237 OA
ATOM     93  O   UNL A   1      44.456  22.972  35.823  1.00  0.00    -0.744 OA
ENDBRANCH  86  90
ENDBRANCH  60  83
ENDBRANCH  34  35
ENDBRANCH  27  29
ENDBRANCH  26  27
ENDBRANCH  25  26
ENDBRANCH   1  25
TORSDOF 19
ENDMDL
MODEL 2
REMARK VINA RESULT:     -11.6      2.400      2.940
REMARK SMILES C[C@H]1[C@@H](C(=O)OCCOCCOC(=O)c2ccc(-c3c4nc(c(-c5cc(S(=O)(=O)[O-])ccc5F)c5ccc([nH]5)c(-c5cc(S(=O)(=O)[O-])ccc5F)c5nc(c(-c6cc(S(=O)(=O)[O-])ccc6F)c6ccc3[nH]6)C=C5)C=C4)cc2)CC[N@@H+]1Cc1cc(F)c(F)c(F)c1
REMARK SMILES IDX 10 1 9 2 8 3 7 4 6 5 4 6 5 7 3 8 1 9 2 10 80 11 78 12 79 13
REMARK SMILES IDX 81 15 82 16 83 17 90 18 84 19 88 20 85 21 86 22 89 23 87 24
REMARK SMILES IDX 11 25 12 26 13 27 14 28 15 29 16 30 77 31 17 32 76 33 18 34
REMARK SMILES IDX 19 35 20 36 70 37 21 38 75 39 69 40 71 41 22 42 74 43 68 44
REMARK SMILES IDX 67 45 23 47 55 48 35 49 54 50 36 51 39 52 53 53 72 54 37 55
REMARK SMILES IDX 38 56 52 58 73 59 40 60 24 61 25 62 33 63 26 64 32 65 34 66
REMARK SMILES IDX 31 67 27 68 28 69 29 70 30 71 56 72 57 73 65 74 58 75 64 76
REMARK SMILES IDX 66 77 63 78 59 79 60 80 61 81 62 82 41 83 42 84 50 85 43 86
REMARK SMILES IDX 49 87 51 88 48 89 44 90 45 91 46 92 47 93
REMARK H PARENT 80 14 71 46 39 57
REMARK Flexibility Score: inf
ROOT
ATOM      1  C   UNL A   1      31.668  29.545  25.244  1.00  0.00     0.202 C 
ENDROOT
BRANCH   1   2
ATOM      2  O   UNL A   1      31.672  29.296  23.839  1.00  0.00    -0.374 OA
BRANCH   2   3
ATOM      3  C   UNL A   1      30.679  28.378  23.365  1.00  0.00     0.202 C 
BRANCH   3   4
ATOM      4  C   UNL A   1      31.229  27.229  22.513  1.00  0.00     0.261 C 
BRANCH   4   5
ATOM      5  O   UNL A   1      32.666  27.188  22.635  1.00  0.00    -0.463 OA
BRANCH   5   6
ATOM      6  C   UNL A   1      33.273  25.993  22.482  1.00  0.00     0.315 C 
ATOM      7  O   UNL A   1      33.642  25.540  21.402  1.00  0.00    -0.252 OA
BRANCH   6   8
ATOM      8  C   UNL A   1      33.605  25.286  23.788  1.00  0.00     0.162 C 
ATOM      9  C   UNL A   1      31.484  23.698  23.730  1.00  0.00     0.076 C 
ATOM     10  C   UNL A   1      32.837  24.064  24.335  1.00  0.00     0.195 C 
ATOM     11  N   UNL A   1      32.614  24.332  25.771  1.00  0.00    -0.328 N 
ATOM     12  C   UNL A   1      33.603  26.316  24.925  1.00  0.00     0.083 C 
ATOM     13  C   UNL A   1      32.649  25.771  25.969  1.00  0.00     0.263 C 
ATOM     14  H   UNL A   1      31.686  23.984  26.013  1.00  0.00     0.348 HD
BRANCH  11  15
ATOM     15  C   UNL A   1      33.378  23.531  26.727  1.00  0.00     0.299 C 
BRANCH  15  16
ATOM     16  C   UNL A   1      34.680  22.939  26.234  1.00  0.00     0.012 A 
ATOM     17  C   UNL A   1      34.736  21.604  25.803  1.00  0.00     0.052 A 
ATOM     18  C   UNL A   1      35.855  23.707  26.183  1.00  0.00     0.052 A 
ATOM     19  C   UNL A   1      35.924  21.080  25.295  1.00  0.00     0.162 A 
ATOM     20  C   UNL A   1      37.024  23.179  25.639  1.00  0.00     0.162 A 
ATOM     21  F   UNL A   1      35.956  19.801  24.897  1.00  0.00    -0.204 F 
ATOM     22  C   UNL A   1      37.062  21.868  25.192  1.00  0.00     0.194 A 
ATOM     23  F   UNL A   1      38.108  23.960  25.540  1.00  0.00    -0.204 F 
ATOM     24  F   UNL A   1      38.189  21.366  24.669  1.00  0.00    -0.200 F 
ENDBRANCH  15  16
ENDBRANCH  11  15
ENDBRANCH   6   8
ENDBRANCH   5   6
ENDBRANCH   4   5
ENDBRANCH   3   4
ENDBRANCH   2   3
ENDBRANCH   1   2
BRANCH   1  25
ATOM     25  C   UNL A   1      32.984  30.051  25.841  1.00  0.00     0.261 C 
BRANCH  25  26
ATOM     26  O   UNL A   1      32.803  30.446  27.208  1.00  0.00    -0.460 OA
BRANCH  26  27
ATOM     27  C   UNL A   1      33.481  31.567  27.540  1.00  0.00     0.338 C 
ATOM     28  O   UNL A   1      33.002  32.676  27.737  1.00  0.00    -0.246 OA
BRANCH  27  29
ATOM     29  C   UNL A   1      34.891  31.250  27.829  1.00  0.00     0.060 A 
ATOM     30  C   UNL A   1      35.198  29.896  27.998  1.00  0.00     0.016 A 
ATOM     31  C   UNL A   1      35.876  32.230  27.993  1.00  0.00     0.016 A 
ATOM     32  C   UNL A   1      36.458  29.522  28.441  1.00  0.00     0.010 A 
ATOM     33  C   UNL A   1      37.150  31.849  28.430  1.00  0.00     0.010 A 
ATOM     34  C   UNL A   1      37.421  30.501  28.718  1.00  0.00    -0.014 A 
BRANCH  34  35
ATOM     35  C   UNL A   1      38.611  30.095  29.506  1.00  0.00     0.031 A 
ATOM     36  C   UNL A   1      38.748  30.607  30.916  1.00  0.00     0.074 A 
ATOM     37  C   UNL A   1      39.476  29.191  29.015  1.00  0.00     0.049 A 
ATOM     38  N   UNL A   1      39.640  30.311  31.825  1.00  0.00    -0.248 NA
ATOM     39  C   UNL A   1      37.740  31.583  31.361  1.00  0.00     0.031 C 
ATOM     40  C   UNL A   1      39.406  28.597  27.679  1.00  0.00     0.029 A 
ATOM     41  N   UNL A   1      40.567  28.595  29.591  1.00  0.00    -0.354 N 
ATOM     42  C   UNL A   1      39.300  31.059  32.948  1.00  0.00     0.074 A 
ATOM     43  C   UNL A   1      38.155  31.865  32.585  1.00  0.00     0.031 C 
ATOM     44  C   UNL A   1      40.403  27.707  27.546  1.00  0.00     0.029 A 
ATOM     45  C   UNL A   1      41.199  27.690  28.771  1.00  0.00     0.049 A 
ATOM     46  H   UNL A   1      40.870  28.795  30.506  1.00  0.00     0.167 HD
ATOM     47  C   UNL A   1      39.880  31.061  34.173  1.00  0.00     0.034 A 
ATOM     48  C   UNL A   1      42.297  26.940  28.986  1.00  0.00     0.034 A 
ATOM     49  C   UNL A   1      41.027  30.254  34.511  1.00  0.00     0.049 A 
ATOM     50  C   UNL A   1      42.969  27.011  30.336  1.00  0.00     0.074 A 
ATOM     51  C   UNL A   1      41.699  30.169  35.717  1.00  0.00     0.029 A 
ATOM     52  N   UNL A   1      41.680  29.396  33.634  1.00  0.00    -0.354 N 
ATOM     53  N   UNL A   1      42.631  27.716  31.393  1.00  0.00    -0.248 NA
ATOM     54  C   UNL A   1      44.156  26.171  30.528  1.00  0.00     0.031 C 
ATOM     55  C   UNL A   1      42.801  29.324  35.548  1.00  0.00     0.029 A 
ATOM     56  C   UNL A   1      42.766  28.806  34.262  1.00  0.00     0.049 A 
ATOM     57  H   UNL A   1      41.411  29.231  32.701  1.00  0.00     0.167 HD
ATOM     58  C   UNL A   1      43.549  27.376  32.385  1.00  0.00     0.074 A 
ATOM     59  C   UNL A   1      44.436  26.388  31.803  1.00  0.00     0.031 C 
ATOM     60  C   UNL A   1      43.650  27.834  33.660  1.00  0.00     0.034 A 
BRANCH  47  61
ATOM     61  C   UNL A   1      39.311  32.004  35.210  1.00  0.00     0.023 A 
ATOM     62  C   UNL A   1      39.766  33.328  35.342  1.00  0.00     0.031 A 
ATOM     63  C   UNL A   1      38.325  31.557  36.107  1.00  0.00     0.131 A 
ATOM     64  C   UNL A   1      39.290  34.132  36.391  1.00  0.00     0.055 A 
ATOM     65  C   UNL A   1      37.795  32.388  37.095  1.00  0.00     0.041 A 
ATOM     66  F   UNL A   1      37.871  30.294  36.050  1.00  0.00    -0.206 F 
ATOM     67  C   UNL A   1      38.288  33.680  37.251  1.00  0.00     0.022 A 
BRANCH  64  68
ATOM     68  S   UNL A   1      40.108  35.720  36.710  1.00  0.00     0.124 S 
ATOM     69  O   UNL A   1      39.635  36.525  35.587  1.00  0.00    -0.237 OA
ATOM     70  O   UNL A   1      39.586  36.084  38.023  1.00  0.00    -0.237 OA
ATOM     71  O   UNL A   1      41.530  35.387  36.673  1.00  0.00    -0.744 OA
ENDBRANCH  64  68
ENDBRANCH  47  61
BRANCH  48  72
ATOM     72  C   UNL A   1      42.849  26.077  27.901  1.00  0.00     0.023 A 
ATOM     73  C   UNL A   1      42.288  24.826  27.602  1.00  0.00     0.031 A 
ATOM     74  C   UNL A   1      43.989  26.476  27.179  1.00  0.00     0.131 A 
ATOM     75  C   UNL A   1      42.894  23.997  26.644  1.00  0.00     0.055 A 
ATOM     76  C   UNL A   1      44.555  25.673  26.187  1.00  0.00     0.041 A 
ATOM     77  F   UNL A   1      44.569  27.661  27.424  1.00  0.00    -0.206 F 
ATOM     78  C   UNL A   1      44.015  24.418  25.925  1.00  0.00     0.022 A 
BRANCH  75  79
ATOM     79  S   UNL A   1      42.252  22.316  26.416  1.00  0.00     0.124 S 
ATOM     80  O   UNL A   1      42.725  21.651  27.625  1.00  0.00    -0.237 OA
ATOM     81  O   UNL A   1      40.814  22.551  26.333  1.00  0.00    -0.237 OA
ATOM     82  O   UNL A   1      42.882  21.877  25.173  1.00  0.00    -0.744 OA
ENDBRANCH  75  79
ENDBRANCH  48  72
BRANCH  60  83
ATOM     83  C   UNL A   1      44.737  27.229  34.519  1.00  0.00     0.023 A 
ATOM     84  C   UNL A   1      46.014  27.811  34.618  1.00  0.00     0.031 A 
ATOM     85  C   UNL A   1      44.503  26.032  35.220  1.00  0.00     0.131 A 
ATOM     86  C   UNL A   1      47.028  27.157  35.333  1.00  0.00     0.055 A 
ATOM     87  C   UNL A   1      45.494  25.427  35.994  1.00  0.00     0.041 A 
ATOM     88  F   UNL A   1      43.305  25.429  35.162  1.00  0.00    -0.206 F 
ATOM     89  C   UNL A   1      46.770  25.978  36.037  1.00  0.00     0.022 A 
BRANCH  86  90
ATOM     90  S   UNL A   1      48.721  27.798  35.221  1.00  0.00     0.124 S 
ATOM     91  O   UNL A   1      49.419  26.978  36.206  1.00  0.00    -0.237 OA
ATOM     92  O   UNL A   1      49.058  27.544  33.825  1.00  0.00    -0.237 OA
ATOM     93  O   UNL A   1      48.578  29.207  35.579  1.00  0.00    -0.744 OA
ENDBRANCH  86  90
ENDBRANCH  60  83
ENDBRANCH  34  35
ENDBRANCH  27  29
ENDBRANCH  26  27
ENDBRANCH  25  26
ENDBRANCH   1  25
TORSDOF 19
ENDMDL
MODEL 3
REMARK VINA RESULT:     -11.5      2.078      2.350
REMARK SMILES C[C@H]1[C@@H](C(=O)OCCOCCOC(=O)c2ccc(-c3c4nc(c(-c5cc(S(=O)(=O)[O-])ccc5F)c5ccc([nH]5)c(-c5cc(S(=O)(=O)[O-])ccc5F)c5nc(c(-c6cc(S(=O)(=O)[O-])ccc6F)c6ccc3[nH]6)C=C5)C=C4)cc2)CC[N@@H+]1Cc1cc(F)c(F)c(F)c1
REMARK SMILES IDX 10 1 9 2 8 3 7 4 6 5 4 6 5 7 3 8 1 9 2 10 80 11 78 12 79 13
REMARK SMILES IDX 81 15 82 16 83 17 90 18 84 19 88 20 85 21 86 22 89 23 87 24
REMARK SMILES IDX 11 25 12 26 13 27 14 28 15 29 16 30 77 31 17 32 76 33 18 34
REMARK SMILES IDX 19 35 20 36 70 37 21 38 75 39 69 40 71 41 22 42 74 43 68 44
REMARK SMILES IDX 67 45 23 47 55 48 35 49 54 50 36 51 39 52 53 53 72 54 37 55
REMARK SMILES IDX 38 56 52 58 73 59 40 60 24 61 25 62 33 63 26 64 32 65 34 66
REMARK SMILES IDX 31 67 27 68 28 69 29 70 30 71 56 72 57 73 65 74 58 75 64 76
REMARK SMILES IDX 66 77 63 78 59 79 60 80 61 81 62 82 41 83 42 84 50 85 43 86
REMARK SMILES IDX 49 87 51 88 48 89 44 90 45 91 46 92 47 93
REMARK H PARENT 80 14 71 46 39 57
REMARK Flexibility Score: inf
ROOT
ATOM      1  C   UNL A   1      31.678  29.542  25.762  1.00  0.00     0.202 C 
ENDROOT
BRANCH   1   2
ATOM      2  O   UNL A   1      30.923  29.593  24.553  1.00  0.00    -0.374 OA
BRANCH   2   3
ATOM      3  C   UNL A   1      30.740  28.344  23.877  1.00  0.00     0.202 C 
BRANCH   3   4
ATOM      4  C   UNL A   1      31.989  27.819  23.159  1.00  0.00     0.261 C 
BRANCH   4   5
ATOM      5  O   UNL A   1      32.161  26.418  23.463  1.00  0.00    -0.463 OA
BRANCH   5   6
ATOM      6  C   UNL A   1      33.070  26.090  24.403  1.00  0.00     0.315 C 
ATOM      7  O   UNL A   1      33.859  26.884  24.908  1.00  0.00    -0.252 OA
BRANCH   6   8
ATOM      8  C   UNL A   1      32.958  24.660  24.914  1.00  0.00     0.162 C 
ATOM      9  C   UNL A   1      34.034  23.564  22.755  1.00  0.00     0.076 C 
ATOM     10  C   UNL A   1      33.559  23.431  24.200  1.00  0.00     0.195 C 
ATOM     11  N   UNL A   1      32.507  22.394  24.219  1.00  0.00    -0.328 N 
ATOM     12  C   UNL A   1      31.476  24.326  25.131  1.00  0.00     0.083 C 
ATOM     13  C   UNL A   1      31.221  23.060  24.337  1.00  0.00     0.263 C 
ATOM     14  H   UNL A   1      32.545  21.895  23.329  1.00  0.00     0.348 HD
BRANCH  11  15
ATOM     15  C   UNL A   1      32.720  21.243  25.096  1.00  0.00     0.299 C 
BRANCH  15  16
ATOM     16  C   UNL A   1      33.080  19.934  24.430  1.00  0.00     0.012 A 
ATOM     17  C   UNL A   1      34.186  19.191  24.873  1.00  0.00     0.052 A 
ATOM     18  C   UNL A   1      32.316  19.425  23.366  1.00  0.00     0.052 A 
ATOM     19  C   UNL A   1      34.479  17.957  24.294  1.00  0.00     0.162 A 
ATOM     20  C   UNL A   1      32.601  18.174  22.824  1.00  0.00     0.162 A 
ATOM     21  F   UNL A   1      35.544  17.269  24.728  1.00  0.00    -0.204 F 
ATOM     22  C   UNL A   1      33.679  17.436  23.286  1.00  0.00     0.194 A 
ATOM     23  F   UNL A   1      31.810  17.687  21.859  1.00  0.00    -0.204 F 
ATOM     24  F   UNL A   1      33.948  16.233  22.761  1.00  0.00    -0.200 F 
ENDBRANCH  15  16
ENDBRANCH  11  15
ENDBRANCH   6   8
ENDBRANCH   5   6
ENDBRANCH   4   5
ENDBRANCH   3   4
ENDBRANCH   2   3
ENDBRANCH   1   2
BRANCH   1  25
ATOM     25  C   UNL A   1      32.091  30.890  26.356  1.00  0.00     0.261 C 
BRANCH  25  26
ATOM     26  O   UNL A   1      33.018  30.708  27.435  1.00  0.00    -0.460 OA
BRANCH  26  27
ATOM     27  C   UNL A   1      33.707  31.828  27.750  1.00  0.00     0.338 C 
ATOM     28  O   UNL A   1      33.238  32.946  27.925  1.00  0.00    -0.246 OA
BRANCH  27  29
ATOM     29  C   UNL A   1      35.112  31.501  28.053  1.00  0.00     0.060 A 
ATOM     30  C   UNL A   1      35.387  30.159  28.334  1.00  0.00     0.016 A 
ATOM     31  C   UNL A   1      36.122  32.466  28.125  1.00  0.00     0.016 A 
ATOM     32  C   UNL A   1      36.642  29.791  28.796  1.00  0.00     0.010 A 
ATOM     33  C   UNL A   1      37.390  32.091  28.582  1.00  0.00     0.010 A 
ATOM     34  C   UNL A   1      37.632  30.766  28.980  1.00  0.00    -0.014 A 
BRANCH  34  35
ATOM     35  C   UNL A   1      38.819  30.398  29.789  1.00  0.00     0.031 A 
ATOM     36  C   UNL A   1      38.921  30.923  31.198  1.00  0.00     0.074 A 
ATOM     37  C   UNL A   1      39.716  29.514  29.320  1.00  0.00     0.049 A 
ATOM     38  N   UNL A   1      39.806  30.658  32.123  1.00  0.00    -0.248 NA
ATOM     39  C   UNL A   1      37.881  31.875  31.620  1.00  0.00     0.031 C 
ATOM     40  C   UNL A   1      39.683  28.908  27.987  1.00  0.00     0.029 A 
ATOM     41  N   UNL A   1      40.814  28.952  29.917  1.00  0.00    -0.354 N 
ATOM     42  C   UNL A   1      39.429  31.406  33.234  1.00  0.00     0.074 A 
ATOM     43  C   UNL A   1      38.268  32.177  32.848  1.00  0.00     0.031 C 
ATOM     44  C   UNL A   1      40.705  28.045  27.876  1.00  0.00     0.029 A 
ATOM     45  C   UNL A   1      41.482  28.058  29.113  1.00  0.00     0.049 A 
ATOM     46  H   UNL A   1      41.097  29.166  30.835  1.00  0.00     0.167 HD
ATOM     47  C   UNL A   1      39.989  31.432  34.468  1.00  0.00     0.034 A 
ATOM     48  C   UNL A   1      42.597  27.339  29.351  1.00  0.00     0.034 A 
ATOM     49  C   UNL A   1      41.152  30.658  34.830  1.00  0.00     0.049 A 
ATOM     50  C   UNL A   1      43.245  27.439  30.711  1.00  0.00     0.074 A 
ATOM     51  C   UNL A   1      41.808  30.601  36.047  1.00  0.00     0.029 A 
ATOM     52  N   UNL A   1      41.842  29.812  33.969  1.00  0.00    -0.354 N 
ATOM     53  N   UNL A   1      42.873  28.142  31.757  1.00  0.00    -0.248 NA
ATOM     54  C   UNL A   1      44.452  26.632  30.927  1.00  0.00     0.031 C 
ATOM     55  C   UNL A   1      42.934  29.785  35.901  1.00  0.00     0.029 A 
ATOM     56  C   UNL A   1      42.934  29.256  34.619  1.00  0.00     0.049 A 
ATOM     57  H   UNL A   1      41.591  29.633  33.034  1.00  0.00     0.167 HD
ATOM     58  C   UNL A   1      43.784  27.835  32.765  1.00  0.00     0.074 A 
ATOM     59  C   UNL A   1      44.705  26.866  32.205  1.00  0.00     0.031 C 
ATOM     60  C   UNL A   1      43.853  28.304  34.038  1.00  0.00     0.034 A 
BRANCH  47  61
ATOM     61  C   UNL A   1      39.379  32.367  35.489  1.00  0.00     0.023 A 
ATOM     62  C   UNL A   1      39.803  33.701  35.624  1.00  0.00     0.031 A 
ATOM     63  C   UNL A   1      38.385  31.902  36.368  1.00  0.00     0.131 A 
ATOM     64  C   UNL A   1      39.288  34.499  36.659  1.00  0.00     0.055 A 
ATOM     65  C   UNL A   1      37.817  32.726  37.341  1.00  0.00     0.041 A 
ATOM     66  F   UNL A   1      37.959  30.630  36.308  1.00  0.00    -0.206 F 
ATOM     67  C   UNL A   1      38.279  34.029  37.501  1.00  0.00     0.022 A 
BRANCH  64  68
ATOM     68  S   UNL A   1      40.065  36.105  36.988  1.00  0.00     0.124 S 
ATOM     69  O   UNL A   1      41.451  35.716  37.238  1.00  0.00    -0.237 OA
ATOM     70  O   UNL A   1      39.819  36.833  35.748  1.00  0.00    -0.237 OA
ATOM     71  O   UNL A   1      39.344  36.602  38.158  1.00  0.00    -0.744 OA
ENDBRANCH  64  68
ENDBRANCH  47  61
BRANCH  48  72
ATOM     72  C   UNL A   1      43.189  26.484  28.281  1.00  0.00     0.023 A 
ATOM     73  C   UNL A   1      44.273  26.923  27.507  1.00  0.00     0.031 A 
ATOM     74  C   UNL A   1      42.634  25.225  27.983  1.00  0.00     0.131 A 
ATOM     75  C   UNL A   1      44.739  26.135  26.442  1.00  0.00     0.055 A 
ATOM     76  C   UNL A   1      43.138  24.419  26.960  1.00  0.00     0.041 A 
ATOM     77  F   UNL A   1      41.595  24.755  28.690  1.00  0.00    -0.206 F 
ATOM     78  C   UNL A   1      44.187  24.880  26.173  1.00  0.00     0.022 A 
BRANCH  75  79
ATOM     79  S   UNL A   1      46.018  26.814  25.349  1.00  0.00     0.124 S 
ATOM     80  O   UNL A   1      47.022  27.258  26.309  1.00  0.00    -0.237 OA
ATOM     81  O   UNL A   1      46.371  25.652  24.540  1.00  0.00    -0.237 OA
ATOM     82  O   UNL A   1      45.322  27.881  24.634  1.00  0.00    -0.744 OA
ENDBRANCH  75  79
ENDBRANCH  48  72
BRANCH  60  83
ATOM     83  C   UNL A   1      44.942  27.735  34.918  1.00  0.00     0.023 A 
ATOM     84  C   UNL A   1      44.714  26.631  35.759  1.00  0.00     0.031 A 
ATOM     85  C   UNL A   1      46.218  28.326  34.939  1.00  0.00     0.131 A 
ATOM     86  C   UNL A   1      45.716  26.205  36.643  1.00  0.00     0.055 A 
ATOM     87  C   UNL A   1      47.237  27.849  35.765  1.00  0.00     0.041 A 
ATOM     88  F   UNL A   1      46.495  29.383  34.159  1.00  0.00    -0.206 F 
ATOM     89  C   UNL A   1      46.983  26.795  36.637  1.00  0.00     0.022 A 
BRANCH  86  90
ATOM     90  S   UNL A   1      45.301  24.958  37.892  1.00  0.00     0.124 S 
ATOM     91  O   UNL A   1      45.604  25.661  39.134  1.00  0.00    -0.237 OA
ATOM     92  O   UNL A   1      43.887  24.711  37.627  1.00  0.00    -0.237 OA
ATOM     93  O   UNL A   1      46.194  23.846  37.575  1.00  0.00    -0.744 OA
ENDBRANCH  86  90
ENDBRANCH  60  83
ENDBRANCH  34  35
ENDBRANCH  27  29
ENDBRANCH  26  27
ENDBRANCH  25  26
ENDBRANCH   1  25
TORSDOF 19
ENDMDL
