MODEL 1
REMARK VINA RESULT:     -11.2      0.000      0.000
REMARK SMILES NS(=O)(=O)c1ccc(-c2coc(=O)n2-c2ccc(C(=O)OCCOCCOC(=O)c3ccc(-c4c5nc(c(-c6cc(S(=O)(=O)[O-])ccc6F)c6ccc([nH]6)c(-c6cc(S(=O)(=O)[O-])ccc6F)c6nc(c(-c7cc(S(=O)(=O)[O-])ccc7F)c7ccc4[nH]7)C=C6)C=C5)cc3)cc2)cc1
REMARK SMILES IDX 23 1 22 2 21 3 19 4 20 5 18 6 15 7 16 8 94 9 17 10 93 11
REMARK SMILES IDX 14 12 9 13 10 14 11 15 12 16 13 17 8 18 5 19 6 20 96 21 7 22
REMARK SMILES IDX 95 23 2 24 3 25 4 26 1 27 24 30 25 31 26 32 27 33 28 34
REMARK SMILES IDX 29 35 30 36 31 37 92 38 32 39 91 40 33 41 34 42 35 43 85 44
REMARK SMILES IDX 36 45 90 46 84 47 86 48 37 49 89 50 83 51 82 52 38 54 70 55
REMARK SMILES IDX 50 56 69 57 51 58 54 59 68 60 87 61 52 62 53 63 67 65 88 66
REMARK SMILES IDX 55 67 39 68 40 69 48 70 41 71 47 72 49 73 46 74 42 75 43 76
REMARK SMILES IDX 44 77 45 78 71 79 72 80 80 81 73 82 79 83 81 84 78 85 74 86
REMARK SMILES IDX 75 87 76 88 77 89 56 90 57 91 65 92 58 93 64 94 66 95 63 96
REMARK SMILES IDX 59 97 60 98 61 99 62 100
REMARK H PARENT 1 28 1 29 86 53 54 64
REMARK Flexibility Score: inf
ROOT
ATOM      1  C   UNL A   1      41.400  20.185  26.569  1.00  0.00     0.202 C 
ENDROOT
BRANCH   1   2
ATOM      2  C   UNL A   1      40.893  21.558  26.124  1.00  0.00     0.261 C 
BRANCH   2   3
ATOM      3  O   UNL A   1      39.461  21.638  26.106  1.00  0.00    -0.460 OA
BRANCH   3   4
ATOM      4  C   UNL A   1      38.974  22.901  26.075  1.00  0.00     0.338 C 
ATOM      5  O   UNL A   1      39.599  23.940  26.208  1.00  0.00    -0.246 OA
BRANCH   4   6
ATOM      6  C   UNL A   1      37.548  22.885  25.698  1.00  0.00     0.060 A 
ATOM      7  C   UNL A   1      34.826  22.528  25.261  1.00  0.00     0.053 A 
ATOM      8  C   UNL A   1      35.251  23.201  26.408  1.00  0.00     0.028 A 
ATOM      9  C   UNL A   1      35.760  22.154  24.279  1.00  0.00     0.028 A 
ATOM     10  C   UNL A   1      36.617  23.344  26.642  1.00  0.00     0.018 A 
ATOM     11  C   UNL A   1      37.124  22.354  24.483  1.00  0.00     0.018 A 
BRANCH   7  12
ATOM     12  N   UNL A   1      33.507  22.043  25.186  1.00  0.00    -0.242 N 
ATOM     13  C   UNL A   1      32.367  22.788  25.065  1.00  0.00     0.095 A 
ATOM     14  C   UNL A   1      31.364  21.919  25.020  1.00  0.00     0.228 A 
ATOM     15  O   UNL A   1      31.761  20.584  25.085  1.00  0.00    -0.415 OA
ATOM     16  C   UNL A   1      33.152  20.698  25.138  1.00  0.00     0.424 A 
ATOM     17  O   UNL A   1      33.893  19.725  25.145  1.00  0.00    -0.223 OA
BRANCH  13  18
ATOM     18  C   UNL A   1      32.316  24.227  24.795  1.00  0.00     0.002 A 
ATOM     19  C   UNL A   1      32.160  26.988  24.334  1.00  0.00     0.082 A 
ATOM     20  C   UNL A   1      32.151  26.512  25.644  1.00  0.00     0.022 A 
ATOM     21  C   UNL A   1      32.252  26.102  23.255  1.00  0.00     0.022 A 
ATOM     22  C   UNL A   1      32.236  25.137  25.869  1.00  0.00     0.012 A 
ATOM     23  C   UNL A   1      32.334  24.724  23.488  1.00  0.00     0.012 A 
BRANCH  19  24
ATOM     24  S   UNL A   1      32.045  28.727  24.038  1.00  0.00     0.238 S 
ATOM     25  O   UNL A   1      31.215  29.326  25.063  1.00  0.00    -0.207 OA
ATOM     26  O   UNL A   1      31.818  28.939  22.633  1.00  0.00    -0.207 OA
BRANCH  24  27
ATOM     27  N   UNL A   1      33.600  29.278  24.359  1.00  0.00    -0.225 NA
ATOM     28  H   UNL A   1      33.562  30.260  24.631  1.00  0.00     0.137 HD
ATOM     29  H   UNL A   1      34.175  29.178  23.523  1.00  0.00     0.137 HD
ENDBRANCH  24  27
ENDBRANCH  19  24
ENDBRANCH  13  18
ENDBRANCH   7  12
ENDBRANCH   4   6
ENDBRANCH   3   4
ENDBRANCH   2   3
ENDBRANCH   1   2
BRANCH   1  30
ATOM     30  O   UNL A   1      41.824  19.259  25.571  1.00  0.00    -0.374 OA
BRANCH  30  31
ATOM     31  C   UNL A   1      42.971  18.444  25.788  1.00  0.00     0.202 C 
BRANCH  31  32
ATOM     32  C   UNL A   1      44.285  18.802  25.110  1.00  0.00     0.261 C 
BRANCH  32  33
ATOM     33  O   UNL A   1      44.700  20.123  25.407  1.00  0.00    -0.460 OA
BRANCH  33  34
ATOM     34  C   UNL A   1      44.741  20.930  24.321  1.00  0.00     0.338 C 
ATOM     35  O   UNL A   1      44.623  20.600  23.154  1.00  0.00    -0.246 OA
BRANCH  34  36
ATOM     36  C   UNL A   1      45.106  22.276  24.763  1.00  0.00     0.060 A 
ATOM     37  C   UNL A   1      46.036  22.351  25.801  1.00  0.00     0.016 A 
ATOM     38  C   UNL A   1      44.275  23.351  24.417  1.00  0.00     0.016 A 
ATOM     39  C   UNL A   1      45.943  23.411  26.672  1.00  0.00     0.010 A 
ATOM     40  C   UNL A   1      44.159  24.385  25.305  1.00  0.00     0.010 A 
ATOM     41  C   UNL A   1      44.926  24.349  26.468  1.00  0.00    -0.014 A 
BRANCH  41  42
ATOM     42  C   UNL A   1      44.762  25.421  27.421  1.00  0.00     0.031 A 
ATOM     43  C   UNL A   1      45.939  26.315  27.400  1.00  0.00     0.074 A 
ATOM     44  C   UNL A   1      43.608  25.622  28.087  1.00  0.00     0.049 A 
ATOM     45  N   UNL A   1      46.902  26.359  28.260  1.00  0.00    -0.248 NA
ATOM     46  C   UNL A   1      46.243  27.013  26.133  1.00  0.00     0.031 C 
ATOM     47  C   UNL A   1      42.341  24.899  27.953  1.00  0.00     0.029 A 
ATOM     48  N   UNL A   1      43.296  26.598  28.978  1.00  0.00    -0.354 N 
ATOM     49  C   UNL A   1      47.763  27.334  27.771  1.00  0.00     0.074 A 
ATOM     50  C   UNL A   1      47.489  27.421  26.368  1.00  0.00     0.031 C 
ATOM     51  C   UNL A   1      41.354  25.605  28.555  1.00  0.00     0.029 A 
ATOM     52  C   UNL A   1      41.932  26.764  29.215  1.00  0.00     0.049 A 
ATOM     53  H   UNL A   1      43.982  27.147  29.424  1.00  0.00     0.167 HD
ATOM     54  C   UNL A   1      48.315  28.245  28.618  1.00  0.00     0.034 A 
ATOM     55  C   UNL A   1      41.340  27.821  29.847  1.00  0.00     0.034 A 
ATOM     56  C   UNL A   1      48.248  27.763  29.986  1.00  0.00     0.049 A 
ATOM     57  C   UNL A   1      42.409  28.476  30.650  1.00  0.00     0.074 A 
ATOM     58  C   UNL A   1      48.705  26.630  30.634  1.00  0.00     0.029 A 
ATOM     59  N   UNL A   1      47.275  28.292  30.810  1.00  0.00    -0.354 N 
ATOM     60  N   UNL A   1      42.993  27.889  31.661  1.00  0.00    -0.248 NA
ATOM     61  C   UNL A   1      43.197  29.521  30.009  1.00  0.00     0.031 C 
ATOM     62  C   UNL A   1      47.665  26.278  31.544  1.00  0.00     0.029 A 
ATOM     63  C   UNL A   1      46.673  27.260  31.488  1.00  0.00     0.049 A 
ATOM     64  H   UNL A   1      47.051  29.246  30.897  1.00  0.00     0.167 HD
ATOM     65  C   UNL A   1      44.345  28.164  31.511  1.00  0.00     0.074 A 
ATOM     66  C   UNL A   1      44.402  29.241  30.520  1.00  0.00     0.031 C 
ATOM     67  C   UNL A   1      45.299  27.291  31.958  1.00  0.00     0.034 A 
BRANCH  54  68
ATOM     68  C   UNL A   1      48.452  29.723  28.284  1.00  0.00     0.023 A 
ATOM     69  C   UNL A   1      47.249  30.414  28.065  1.00  0.00     0.031 A 
ATOM     70  C   UNL A   1      49.623  30.409  27.878  1.00  0.00     0.131 A 
ATOM     71  C   UNL A   1      47.222  31.602  27.320  1.00  0.00     0.055 A 
ATOM     72  C   UNL A   1      49.595  31.623  27.186  1.00  0.00     0.041 A 
ATOM     73  F   UNL A   1      50.861  29.941  28.058  1.00  0.00    -0.206 F 
ATOM     74  C   UNL A   1      48.388  32.206  26.862  1.00  0.00     0.022 A 
BRANCH  71  75
ATOM     75  S   UNL A   1      45.611  32.222  26.788  1.00  0.00     0.124 S 
ATOM     76  O   UNL A   1      45.941  33.597  26.431  1.00  0.00    -0.237 OA
ATOM     77  O   UNL A   1      45.300  31.323  25.681  1.00  0.00    -0.237 OA
ATOM     78  O   UNL A   1      44.780  32.062  27.977  1.00  0.00    -0.744 OA
ENDBRANCH  71  75
ENDBRANCH  54  68
BRANCH  55  79
ATOM     79  C   UNL A   1      40.052  28.496  29.478  1.00  0.00     0.023 A 
ATOM     80  C   UNL A   1      39.133  29.018  30.420  1.00  0.00     0.031 A 
ATOM     81  C   UNL A   1      39.827  28.851  28.127  1.00  0.00     0.131 A 
ATOM     82  C   UNL A   1      38.053  29.840  29.995  1.00  0.00     0.055 A 
ATOM     83  C   UNL A   1      38.766  29.661  27.716  1.00  0.00     0.041 A 
ATOM     84  F   UNL A   1      40.687  28.491  27.162  1.00  0.00    -0.206 F 
ATOM     85  C   UNL A   1      37.879  30.166  28.648  1.00  0.00     0.022 A 
BRANCH  82  86
ATOM     86  S   UNL A   1      36.877  30.565  31.193  1.00  0.00     0.124 S 
ATOM     87  O   UNL A   1      35.889  31.193  30.323  1.00  0.00    -0.237 OA
ATOM     88  O   UNL A   1      36.433  29.397  31.945  1.00  0.00    -0.237 OA
ATOM     89  O   UNL A   1      37.700  31.504  31.958  1.00  0.00    -0.744 OA
ENDBRANCH  82  86
ENDBRANCH  55  79
BRANCH  67  90
ATOM     90  C   UNL A   1      44.864  26.161  32.875  1.00  0.00     0.023 A 
ATOM     91  C   UNL A   1      44.584  26.285  34.257  1.00  0.00     0.031 A 
ATOM     92  C   UNL A   1      44.605  24.919  32.268  1.00  0.00     0.131 A 
ATOM     93  C   UNL A   1      44.075  25.181  34.975  1.00  0.00     0.055 A 
ATOM     94  C   UNL A   1      44.081  23.840  32.976  1.00  0.00     0.041 A 
ATOM     95  F   UNL A   1      44.825  24.745  30.955  1.00  0.00    -0.206 F 
ATOM     96  C   UNL A   1      43.819  23.965  34.335  1.00  0.00     0.022 A 
BRANCH  93  97
ATOM     97  S   UNL A   1      43.750  25.297  36.767  1.00  0.00     0.124 S 
ATOM     98  O   UNL A   1      44.122  26.670  37.091  1.00  0.00    -0.237 OA
ATOM     99  O   UNL A   1      42.327  24.982  36.851  1.00  0.00    -0.237 OA
ATOM    100  O   UNL A   1      44.631  24.276  37.340  1.00  0.00    -0.744 OA
ENDBRANCH  93  97
ENDBRANCH  67  90
ENDBRANCH  41  42
ENDBRANCH  34  36
ENDBRANCH  33  34
ENDBRANCH  32  33
ENDBRANCH  31  32
ENDBRANCH  30  31
ENDBRANCH   1  30
TORSDOF 21
ENDMDL
MODEL 2
REMARK VINA RESULT:     -10.9      3.063      9.233
REMARK SMILES NS(=O)(=O)c1ccc(-c2coc(=O)n2-c2ccc(C(=O)OCCOCCOC(=O)c3ccc(-c4c5nc(c(-c6cc(S(=O)(=O)[O-])ccc6F)c6ccc([nH]6)c(-c6cc(S(=O)(=O)[O-])ccc6F)c6nc(c(-c7cc(S(=O)(=O)[O-])ccc7F)c7ccc4[nH]7)C=C6)C=C5)cc3)cc2)cc1
REMARK SMILES IDX 23 1 22 2 21 3 19 4 20 5 18 6 15 7 16 8 94 9 17 10 93 11
REMARK SMILES IDX 14 12 9 13 10 14 11 15 12 16 13 17 8 18 5 19 6 20 96 21 7 22
REMARK SMILES IDX 95 23 2 24 3 25 4 26 1 27 24 30 25 31 26 32 27 33 28 34
REMARK SMILES IDX 29 35 30 36 31 37 92 38 32 39 91 40 33 41 34 42 35 43 85 44
REMARK SMILES IDX 36 45 90 46 84 47 86 48 37 49 89 50 83 51 82 52 38 54 70 55
REMARK SMILES IDX 50 56 69 57 51 58 54 59 68 60 87 61 52 62 53 63 67 65 88 66
REMARK SMILES IDX 55 67 39 68 40 69 48 70 41 71 47 72 49 73 46 74 42 75 43 76
REMARK SMILES IDX 44 77 45 78 71 79 72 80 80 81 73 82 79 83 81 84 78 85 74 86
REMARK SMILES IDX 75 87 76 88 77 89 56 90 57 91 65 92 58 93 64 94 66 95 63 96
REMARK SMILES IDX 59 97 60 98 61 99 62 100
REMARK H PARENT 1 28 1 29 86 53 54 64
REMARK Flexibility Score: inf
ROOT
ATOM      1  C   UNL A   1      31.916  28.596  26.979  1.00  0.00     0.202 C 
ENDROOT
BRANCH   1   2
ATOM      2  C   UNL A   1      31.465  28.097  25.606  1.00  0.00     0.261 C 
BRANCH   2   3
ATOM      3  O   UNL A   1      31.702  26.695  25.422  1.00  0.00    -0.460 OA
BRANCH   3   4
ATOM      4  C   UNL A   1      32.374  26.386  24.289  1.00  0.00     0.338 C 
ATOM      5  O   UNL A   1      32.350  26.985  23.226  1.00  0.00    -0.246 OA
BRANCH   4   6
ATOM      6  C   UNL A   1      33.301  25.266  24.538  1.00  0.00     0.060 A 
ATOM      7  C   UNL A   1      35.309  23.452  25.172  1.00  0.00     0.053 A 
ATOM      8  C   UNL A   1      34.455  23.904  26.179  1.00  0.00     0.028 A 
ATOM      9  C   UNL A   1      35.069  23.809  23.834  1.00  0.00     0.028 A 
ATOM     10  C   UNL A   1      33.474  24.843  25.865  1.00  0.00     0.018 A 
ATOM     11  C   UNL A   1      34.048  24.700  23.508  1.00  0.00     0.018 A 
BRANCH   7  12
ATOM     12  N   UNL A   1      36.517  22.816  25.516  1.00  0.00    -0.242 N 
ATOM     13  C   UNL A   1      36.734  21.469  25.614  1.00  0.00     0.095 A 
ATOM     14  C   UNL A   1      38.011  21.328  25.950  1.00  0.00     0.228 A 
ATOM     15  O   UNL A   1      38.707  22.530  26.071  1.00  0.00    -0.415 OA
ATOM     16  C   UNL A   1      37.727  23.467  25.734  1.00  0.00     0.424 A 
ATOM     17  O   UNL A   1      37.960  24.665  25.662  1.00  0.00    -0.223 OA
BRANCH  13  18
ATOM     18  C   UNL A   1      35.800  20.424  25.190  1.00  0.00     0.002 A 
ATOM     19  C   UNL A   1      34.061  18.406  24.318  1.00  0.00     0.082 A 
ATOM     20  C   UNL A   1      35.434  18.165  24.337  1.00  0.00     0.022 A 
ATOM     21  C   UNL A   1      33.549  19.638  24.735  1.00  0.00     0.022 A 
ATOM     22  C   UNL A   1      36.295  19.170  24.779  1.00  0.00     0.012 A 
ATOM     23  C   UNL A   1      34.419  20.643  25.174  1.00  0.00     0.012 A 
BRANCH  19  24
ATOM     24  S   UNL A   1      32.961  17.141  23.752  1.00  0.00     0.238 S 
ATOM     25  O   UNL A   1      31.949  16.910  24.763  1.00  0.00    -0.207 OA
ATOM     26  O   UNL A   1      33.742  16.078  23.177  1.00  0.00    -0.207 OA
BRANCH  24  27
ATOM     27  N   UNL A   1      32.147  17.877  22.481  1.00  0.00    -0.225 NA
ATOM     28  H   UNL A   1      31.306  18.333  22.835  1.00  0.00     0.137 HD
ATOM     29  H   UNL A   1      31.887  17.173  21.790  1.00  0.00     0.137 HD
ENDBRANCH  24  27
ENDBRANCH  19  24
ENDBRANCH  13  18
ENDBRANCH   7  12
ENDBRANCH   4   6
ENDBRANCH   3   4
ENDBRANCH   2   3
ENDBRANCH   1   2
BRANCH   1  30
ATOM     30  O   UNL A   1      31.965  30.003  27.211  1.00  0.00    -0.374 OA
BRANCH  30  31
ATOM     31  C   UNL A   1      33.204  30.701  27.135  1.00  0.00     0.202 C 
BRANCH  31  32
ATOM     32  C   UNL A   1      34.398  30.196  27.929  1.00  0.00     0.261 C 
BRANCH  32  33
ATOM     33  O   UNL A   1      35.555  30.986  27.719  1.00  0.00    -0.460 OA
BRANCH  33  34
ATOM     34  C   UNL A   1      36.277  31.191  28.846  1.00  0.00     0.338 C 
ATOM     35  O   UNL A   1      35.900  31.720  29.877  1.00  0.00    -0.246 OA
BRANCH  34  36
ATOM     36  C   UNL A   1      37.662  30.800  28.581  1.00  0.00     0.060 A 
ATOM     37  C   UNL A   1      37.839  29.669  27.782  1.00  0.00     0.016 A 
ATOM     38  C   UNL A   1      38.678  31.308  29.402  1.00  0.00     0.016 A 
ATOM     39  C   UNL A   1      38.945  28.886  28.011  1.00  0.00     0.010 A 
ATOM     40  C   UNL A   1      39.760  30.509  29.654  1.00  0.00     0.010 A 
ATOM     41  C   UNL A   1      39.826  29.266  29.028  1.00  0.00    -0.014 A 
BRANCH  41  42
ATOM     42  C   UNL A   1      40.947  28.411  29.338  1.00  0.00     0.031 A 
ATOM     43  C   UNL A   1      41.192  28.387  30.795  1.00  0.00     0.074 A 
ATOM     44  C   UNL A   1      41.542  27.639  28.407  1.00  0.00     0.049 A 
ATOM     45  N   UNL A   1      42.121  29.012  31.442  1.00  0.00    -0.248 NA
ATOM     46  C   UNL A   1      40.109  27.876  31.661  1.00  0.00     0.031 C 
ATOM     47  C   UNL A   1      41.172  27.457  27.002  1.00  0.00     0.029 A 
ATOM     48  N   UNL A   1      42.574  26.768  28.555  1.00  0.00    -0.354 N 
ATOM     49  C   UNL A   1      41.897  28.688  32.774  1.00  0.00     0.074 A 
ATOM     50  C   UNL A   1      40.518  28.309  32.852  1.00  0.00     0.031 C 
ATOM     51  C   UNL A   1      41.813  26.372  26.505  1.00  0.00     0.029 A 
ATOM     52  C   UNL A   1      42.725  25.854  27.511  1.00  0.00     0.049 A 
ATOM     53  H   UNL A   1      43.169  26.780  29.339  1.00  0.00     0.167 HD
ATOM     54  C   UNL A   1      42.942  28.372  33.586  1.00  0.00     0.034 A 
ATOM     55  C   UNL A   1      43.494  24.725  27.526  1.00  0.00     0.034 A 
ATOM     56  C   UNL A   1      44.185  28.862  33.016  1.00  0.00     0.049 A 
ATOM     57  C   UNL A   1      44.491  24.916  28.615  1.00  0.00     0.074 A 
ATOM     58  C   UNL A   1      44.643  30.107  32.624  1.00  0.00     0.029 A 
ATOM     59  N   UNL A   1      45.012  27.952  32.390  1.00  0.00    -0.354 N 
ATOM     60  N   UNL A   1      45.418  25.837  28.571  1.00  0.00    -0.248 NA
ATOM     61  C   UNL A   1      44.125  24.477  29.956  1.00  0.00     0.031 C 
ATOM     62  C   UNL A   1      45.382  29.871  31.428  1.00  0.00     0.029 A 
ATOM     63  C   UNL A   1      45.431  28.494  31.200  1.00  0.00     0.049 A 
ATOM     64  H   UNL A   1      45.259  27.065  32.738  1.00  0.00     0.167 HD
ATOM     65  C   UNL A   1      45.433  26.399  29.841  1.00  0.00     0.074 A 
ATOM     66  C   UNL A   1      44.671  25.466  30.674  1.00  0.00     0.031 C 
ATOM     67  C   UNL A   1      45.784  27.707  30.031  1.00  0.00     0.034 A 
BRANCH  54  68
ATOM     68  C   UNL A   1      42.906  27.235  34.597  1.00  0.00     0.023 A 
ATOM     69  C   UNL A   1      43.671  26.103  34.269  1.00  0.00     0.031 A 
ATOM     70  C   UNL A   1      41.983  27.053  35.655  1.00  0.00     0.131 A 
ATOM     71  C   UNL A   1      43.382  24.849  34.827  1.00  0.00     0.055 A 
ATOM     72  C   UNL A   1      41.740  25.812  36.251  1.00  0.00     0.041 A 
ATOM     73  F   UNL A   1      41.212  28.027  36.147  1.00  0.00    -0.206 F 
ATOM     74  C   UNL A   1      42.409  24.691  35.807  1.00  0.00     0.022 A 
BRANCH  71  75
ATOM     75  S   UNL A   1      44.170  23.401  34.089  1.00  0.00     0.124 S 
ATOM     76  O   UNL A   1      44.139  22.463  35.205  1.00  0.00    -0.237 OA
ATOM     77  O   UNL A   1      43.272  23.113  32.977  1.00  0.00    -0.237 OA
ATOM     78  O   UNL A   1      45.493  23.892  33.715  1.00  0.00    -0.744 OA
ENDBRANCH  71  75
ENDBRANCH  54  68
BRANCH  55  79
ATOM     79  C   UNL A   1      43.155  23.387  26.941  1.00  0.00     0.023 A 
ATOM     80  C   UNL A   1      44.043  22.620  26.146  1.00  0.00     0.031 A 
ATOM     81  C   UNL A   1      41.984  22.725  27.378  1.00  0.00     0.131 A 
ATOM     82  C   UNL A   1      43.737  21.271  25.820  1.00  0.00     0.055 A 
ATOM     83  C   UNL A   1      41.689  21.397  27.056  1.00  0.00     0.041 A 
ATOM     84  F   UNL A   1      41.118  23.322  28.211  1.00  0.00    -0.206 F 
ATOM     85  C   UNL A   1      42.568  20.661  26.283  1.00  0.00     0.022 A 
BRANCH  82  86
ATOM     86  S   UNL A   1      44.885  20.244  24.834  1.00  0.00     0.124 S 
ATOM     87  O   UNL A   1      44.526  20.596  23.466  1.00  0.00    -0.237 OA
ATOM     88  O   UNL A   1      46.191  20.695  25.301  1.00  0.00    -0.237 OA
ATOM     89  O   UNL A   1      44.540  18.875  25.222  1.00  0.00    -0.744 OA
ENDBRANCH  82  86
ENDBRANCH  55  79
BRANCH  67  90
ATOM     90  C   UNL A   1      46.433  28.451  28.876  1.00  0.00     0.023 A 
ATOM     91  C   UNL A   1      47.795  28.360  28.501  1.00  0.00     0.031 A 
ATOM     92  C   UNL A   1      45.578  29.197  28.045  1.00  0.00     0.131 A 
ATOM     93  C   UNL A   1      48.249  29.014  27.336  1.00  0.00     0.055 A 
ATOM     94  C   UNL A   1      46.027  29.820  26.883  1.00  0.00     0.041 A 
ATOM     95  F   UNL A   1      44.270  29.299  28.332  1.00  0.00    -0.206 F 
ATOM     96  C   UNL A   1      47.367  29.736  26.526  1.00  0.00     0.022 A 
BRANCH  93  97
ATOM     97  S   UNL A   1      50.009  28.955  26.853  1.00  0.00     0.124 S 
ATOM     98  O   UNL A   1      50.300  30.330  26.464  1.00  0.00    -0.237 OA
ATOM     99  O   UNL A   1      50.656  28.484  28.074  1.00  0.00    -0.237 OA
ATOM    100  O   UNL A   1      50.027  27.993  25.748  1.00  0.00    -0.744 OA
ENDBRANCH  93  97
ENDBRANCH  67  90
ENDBRANCH  41  42
ENDBRANCH  34  36
ENDBRANCH  33  34
ENDBRANCH  32  33
ENDBRANCH  31  32
ENDBRANCH  30  31
ENDBRANCH   1  30
TORSDOF 21
ENDMDL
MODEL 3
REMARK VINA RESULT:     -10.9      2.663      9.351
REMARK SMILES NS(=O)(=O)c1ccc(-c2coc(=O)n2-c2ccc(C(=O)OCCOCCOC(=O)c3ccc(-c4c5nc(c(-c6cc(S(=O)(=O)[O-])ccc6F)c6ccc([nH]6)c(-c6cc(S(=O)(=O)[O-])ccc6F)c6nc(c(-c7cc(S(=O)(=O)[O-])ccc7F)c7ccc4[nH]7)C=C6)C=C5)cc3)cc2)cc1
REMARK SMILES IDX 23 1 22 2 21 3 19 4 20 5 18 6 15 7 16 8 94 9 17 10 93 11
REMARK SMILES IDX 14 12 9 13 10 14 11 15 12 16 13 17 8 18 5 19 6 20 96 21 7 22
REMARK SMILES IDX 95 23 2 24 3 25 4 26 1 27 24 30 25 31 26 32 27 33 28 34
REMARK SMILES IDX 29 35 30 36 31 37 92 38 32 39 91 40 33 41 34 42 35 43 85 44
REMARK SMILES IDX 36 45 90 46 84 47 86 48 37 49 89 50 83 51 82 52 38 54 70 55
REMARK SMILES IDX 50 56 69 57 51 58 54 59 68 60 87 61 52 62 53 63 67 65 88 66
REMARK SMILES IDX 55 67 39 68 40 69 48 70 41 71 47 72 49 73 46 74 42 75 43 76
REMARK SMILES IDX 44 77 45 78 71 79 72 80 80 81 73 82 79 83 81 84 78 85 74 86
REMARK SMILES IDX 75 87 76 88 77 89 56 90 57 91 65 92 58 93 64 94 66 95 63 96
REMARK SMILES IDX 59 97 60 98 61 99 62 100
REMARK H PARENT 1 28 1 29 86 53 54 64
REMARK Flexibility Score: inf
ROOT
ATOM      1  C   UNL A   1      35.281  33.457  28.434  1.00  0.00     0.202 C 
ENDROOT
BRANCH   1   2
ATOM      2  C   UNL A   1      34.463  32.182  28.232  1.00  0.00     0.261 C 
BRANCH   2   3
ATOM      3  O   UNL A   1      35.136  31.218  27.410  1.00  0.00    -0.460 OA
BRANCH   3   4
ATOM      4  C   UNL A   1      35.036  29.943  27.850  1.00  0.00     0.338 C 
ATOM      5  O   UNL A   1      35.559  29.457  28.839  1.00  0.00    -0.246 OA
BRANCH   4   6
ATOM      6  C   UNL A   1      34.055  29.200  27.036  1.00  0.00     0.060 A 
ATOM      7  C   UNL A   1      32.158  28.168  25.286  1.00  0.00     0.053 A 
ATOM      8  C   UNL A   1      33.480  28.304  24.857  1.00  0.00     0.028 A 
ATOM      9  C   UNL A   1      31.824  28.426  26.627  1.00  0.00     0.028 A 
ATOM     10  C   UNL A   1      34.419  28.858  25.724  1.00  0.00     0.018 A 
ATOM     11  C   UNL A   1      32.778  28.921  27.514  1.00  0.00     0.018 A 
BRANCH   7  12
ATOM     12  N   UNL A   1      31.134  27.976  24.339  1.00  0.00    -0.242 N 
ATOM     13  C   UNL A   1      30.776  26.795  23.750  1.00  0.00     0.095 A 
ATOM     14  C   UNL A   1      29.764  27.083  22.940  1.00  0.00     0.228 A 
ATOM     15  O   UNL A   1      29.383  28.424  22.954  1.00  0.00    -0.415 OA
ATOM     16  C   UNL A   1      30.253  28.961  23.906  1.00  0.00     0.424 A 
ATOM     17  O   UNL A   1      30.201  30.131  24.259  1.00  0.00    -0.223 OA
BRANCH  13  18
ATOM     18  C   UNL A   1      31.262  25.469  24.137  1.00  0.00     0.002 A 
ATOM     19  C   UNL A   1      32.207  22.958  24.951  1.00  0.00     0.082 A 
ATOM     20  C   UNL A   1      31.364  23.679  25.796  1.00  0.00     0.022 A 
ATOM     21  C   UNL A   1      32.576  23.474  23.704  1.00  0.00     0.022 A 
ATOM     22  C   UNL A   1      30.890  24.925  25.383  1.00  0.00     0.012 A 
ATOM     23  C   UNL A   1      32.099  24.726  23.298  1.00  0.00     0.012 A 
BRANCH  19  24
ATOM     24  S   UNL A   1      32.819  21.381  25.468  1.00  0.00     0.238 S 
ATOM     25  O   UNL A   1      34.191  21.240  25.024  1.00  0.00    -0.207 OA
ATOM     26  O   UNL A   1      31.811  20.389  25.203  1.00  0.00    -0.207 OA
BRANCH  24  27
ATOM     27  N   UNL A   1      32.914  21.532  27.138  1.00  0.00    -0.225 NA
ATOM     28  H   UNL A   1      31.973  21.528  27.533  1.00  0.00     0.137 HD
ATOM     29  H   UNL A   1      33.379  22.408  27.375  1.00  0.00     0.137 HD
ENDBRANCH  24  27
ENDBRANCH  19  24
ENDBRANCH  13  18
ENDBRANCH   7  12
ENDBRANCH   4   6
ENDBRANCH   3   4
ENDBRANCH   2   3
ENDBRANCH   1   2
BRANCH   1  30
ATOM     30  O   UNL A   1      35.218  34.113  29.700  1.00  0.00    -0.374 OA
BRANCH  30  31
ATOM     31  C   UNL A   1      34.497  33.526  30.778  1.00  0.00     0.202 C 
BRANCH  31  32
ATOM     32  C   UNL A   1      35.255  32.807  31.883  1.00  0.00     0.261 C 
BRANCH  32  33
ATOM     33  O   UNL A   1      35.831  31.592  31.437  1.00  0.00    -0.460 OA
BRANCH  33  34
ATOM     34  C   UNL A   1      36.838  31.152  32.227  1.00  0.00     0.338 C 
ATOM     35  O   UNL A   1      36.980  31.356  33.421  1.00  0.00    -0.246 OA
BRANCH  34  36
ATOM     36  C   UNL A   1      37.835  30.499  31.380  1.00  0.00     0.060 A 
ATOM     37  C   UNL A   1      37.784  29.104  31.335  1.00  0.00     0.016 A 
ATOM     38  C   UNL A   1      38.967  31.224  30.982  1.00  0.00     0.016 A 
ATOM     39  C   UNL A   1      38.965  28.424  31.152  1.00  0.00     0.010 A 
ATOM     40  C   UNL A   1      40.146  30.546  30.837  1.00  0.00     0.010 A 
ATOM     41  C   UNL A   1      40.143  29.165  31.021  1.00  0.00    -0.014 A 
BRANCH  41  42
ATOM     42  C   UNL A   1      41.401  28.465  30.911  1.00  0.00     0.031 A 
ATOM     43  C   UNL A   1      42.046  28.351  32.237  1.00  0.00     0.074 A 
ATOM     44  C   UNL A   1      41.800  27.876  29.767  1.00  0.00     0.049 A 
ATOM     45  N   UNL A   1      43.036  29.049  32.686  1.00  0.00    -0.248 NA
ATOM     46  C   UNL A   1      41.320  27.608  33.288  1.00  0.00     0.031 C 
ATOM     47  C   UNL A   1      41.074  27.763  28.500  1.00  0.00     0.029 A 
ATOM     48  N   UNL A   1      42.928  27.160  29.524  1.00  0.00    -0.354 N 
ATOM     49  C   UNL A   1      43.236  28.580  33.978  1.00  0.00     0.074 A 
ATOM     50  C   UNL A   1      41.991  27.993  34.372  1.00  0.00     0.031 C 
ATOM     51  C   UNL A   1      41.676  26.835  27.718  1.00  0.00     0.029 A 
ATOM     52  C   UNL A   1      42.890  26.375  28.372  1.00  0.00     0.049 A 
ATOM     53  H   UNL A   1      43.714  27.193  30.117  1.00  0.00     0.167 HD
ATOM     54  C   UNL A   1      44.498  28.356  34.437  1.00  0.00     0.034 A 
ATOM     55  C   UNL A   1      43.763  25.378  28.039  1.00  0.00     0.034 A 
ATOM     56  C   UNL A   1      45.462  29.076  33.623  1.00  0.00     0.049 A 
ATOM     57  C   UNL A   1      44.995  25.621  28.839  1.00  0.00     0.074 A 
ATOM     58  C   UNL A   1      45.637  30.404  33.283  1.00  0.00     0.029 A 
ATOM     59  N   UNL A   1      46.183  28.358  32.690  1.00  0.00    -0.354 N 
ATOM     60  N   UNL A   1      45.754  26.671  28.667  1.00  0.00    -0.248 NA
ATOM     61  C   UNL A   1      45.076  25.016  30.163  1.00  0.00     0.031 C 
ATOM     62  C   UNL A   1      46.034  30.388  31.913  1.00  0.00     0.029 A 
ATOM     63  C   UNL A   1      46.183  29.059  31.510  1.00  0.00     0.049 A 
ATOM     64  H   UNL A   1      46.623  27.492  32.846  1.00  0.00     0.167 HD
ATOM     65  C   UNL A   1      46.057  27.115  29.947  1.00  0.00     0.074 A 
ATOM     66  C   UNL A   1      45.678  26.009  30.829  1.00  0.00     0.031 C 
ATOM     67  C   UNL A   1      46.286  28.441  30.199  1.00  0.00     0.034 A 
BRANCH  54  68
ATOM     68  C   UNL A   1      44.884  27.143  35.269  1.00  0.00     0.023 A 
ATOM     69  C   UNL A   1      44.658  25.893  34.669  1.00  0.00     0.031 A 
ATOM     70  C   UNL A   1      45.155  27.103  36.659  1.00  0.00     0.131 A 
ATOM     71  C   UNL A   1      44.520  24.732  35.443  1.00  0.00     0.055 A 
ATOM     72  C   UNL A   1      45.075  25.933  37.419  1.00  0.00     0.041 A 
ATOM     73  F   UNL A   1      45.453  28.180  37.391  1.00  0.00    -0.206 F 
ATOM     74  C   UNL A   1      44.711  24.744  36.821  1.00  0.00     0.022 A 
BRANCH  71  75
ATOM     75  S   UNL A   1      43.882  23.252  34.630  1.00  0.00     0.124 S 
ATOM     76  O   UNL A   1      44.341  23.460  33.262  1.00  0.00    -0.237 OA
ATOM     77  O   UNL A   1      44.548  22.193  35.381  1.00  0.00    -0.237 OA
ATOM     78  O   UNL A   1      42.440  23.351  34.833  1.00  0.00    -0.744 OA
ENDBRANCH  71  75
ENDBRANCH  54  68
BRANCH  55  79
ATOM     79  C   UNL A   1      43.437  24.059  27.403  1.00  0.00     0.023 A 
ATOM     80  C   UNL A   1      44.141  23.517  26.299  1.00  0.00     0.031 A 
ATOM     81  C   UNL A   1      42.540  23.185  28.058  1.00  0.00     0.131 A 
ATOM     82  C   UNL A   1      43.924  22.170  25.898  1.00  0.00     0.055 A 
ATOM     83  C   UNL A   1      42.333  21.861  27.660  1.00  0.00     0.041 A 
ATOM     84  F   UNL A   1      41.889  23.561  29.170  1.00  0.00    -0.206 F 
ATOM     85  C   UNL A   1      43.030  21.345  26.584  1.00  0.00     0.022 A 
BRANCH  82  86
ATOM     86  S   UNL A   1      44.851  21.429  24.507  1.00  0.00     0.124 S 
ATOM     87  O   UNL A   1      46.230  21.495  24.977  1.00  0.00    -0.237 OA
ATOM     88  O   UNL A   1      44.260  20.099  24.408  1.00  0.00    -0.237 OA
ATOM     89  O   UNL A   1      44.548  22.314  23.381  1.00  0.00    -0.744 OA
ENDBRANCH  82  86
ENDBRANCH  55  79
BRANCH  67  90
ATOM     90  C   UNL A   1      46.489  29.371  29.017  1.00  0.00     0.023 A 
ATOM     91  C   UNL A   1      45.470  30.104  28.363  1.00  0.00     0.031 A 
ATOM     92  C   UNL A   1      47.817  29.611  28.622  1.00  0.00     0.131 A 
ATOM     93  C   UNL A   1      45.805  31.025  27.347  1.00  0.00     0.055 A 
ATOM     94  C   UNL A   1      48.145  30.539  27.636  1.00  0.00     0.041 A 
ATOM     95  F   UNL A   1      48.832  28.968  29.222  1.00  0.00    -0.206 F 
ATOM     96  C   UNL A   1      47.139  31.247  26.990  1.00  0.00     0.022 A 
BRANCH  93  97
ATOM     97  S   UNL A   1      44.509  31.949  26.453  1.00  0.00     0.124 S 
ATOM     98  O   UNL A   1      44.053  32.927  27.434  1.00  0.00    -0.237 OA
ATOM     99  O   UNL A   1      45.237  32.484  25.306  1.00  0.00    -0.237 OA
ATOM    100  O   UNL A   1      43.525  30.917  26.118  1.00  0.00    -0.744 OA
ENDBRANCH  93  97
ENDBRANCH  67  90
ENDBRANCH  41  42
ENDBRANCH  34  36
ENDBRANCH  33  34
ENDBRANCH  32  33
ENDBRANCH  31  32
ENDBRANCH  30  31
ENDBRANCH   1  30
TORSDOF 21
ENDMDL
