MODEL 1
REMARK VINA RESULT:      -9.1      0.000      0.000
REMARK SMILES O=C(CCCC[C@@H]1CCSS1)OCCOCCOC(=O)c1ccc(-c2c3nc(c(-c4cc(S(=O)(=O)[O-])ccc4F)c4ccc([nH]4)c(-c4cc(S(=O)(=O)[O-])ccc4F)c4nc(c(-c5cc(S(=O)(=O)[O-])ccc5F)c5ccc2[nH]5)C=C4)C=C3)cc1
REMARK SMILES IDX 14 1 13 2 12 3 2 4 1 5 3 6 4 7 5 8 6 9 7 10 8 11 11 12 9 13
REMARK SMILES IDX 10 14 15 15 16 16 17 17 18 18 19 19 20 20 21 21 22 22 83 23
REMARK SMILES IDX 23 24 82 25 24 26 25 27 26 28 76 29 27 30 81 31 75 32 77 33
REMARK SMILES IDX 28 34 80 35 74 36 73 37 29 39 61 40 41 41 60 42 42 43 45 44
REMARK SMILES IDX 59 45 78 46 43 47 44 48 58 50 79 51 46 52 30 53 31 54 39 55
REMARK SMILES IDX 32 56 38 57 40 58 37 59 33 60 34 61 35 62 36 63 62 64 63 65
REMARK SMILES IDX 71 66 64 67 70 68 72 69 69 70 65 71 66 72 67 73 68 74 47 75
REMARK SMILES IDX 48 76 56 77 49 78 55 79 57 80 54 81 50 82 51 83 52 84 53 85
REMARK H PARENT 77 38 45 49
REMARK Flexibility Score: inf
ROOT
ATOM      1  C   UNL A   1      31.915  29.657  25.884  1.00  0.00     0.202 C 
ENDROOT
BRANCH   1   2
ATOM      2  C   UNL A   1      31.090  29.532  24.616  1.00  0.00     0.261 C 
BRANCH   2   3
ATOM      3  O   UNL A   1      31.600  28.539  23.718  1.00  0.00    -0.463 OA
BRANCH   3   4
ATOM      4  C   UNL A   1      31.752  27.231  24.000  1.00  0.00     0.305 C 
ATOM      5  O   UNL A   1      30.783  26.598  24.424  1.00  0.00    -0.252 OA
BRANCH   4   6
ATOM      6  C   UNL A   1      33.089  26.534  23.833  1.00  0.00     0.123 C 
BRANCH   6   7
ATOM      7  C   UNL A   1      33.974  26.384  25.072  1.00  0.00     0.012 C 
BRANCH   7   8
ATOM      8  C   UNL A   1      34.546  24.996  25.426  1.00  0.00     0.002 C 
BRANCH   8   9
ATOM      9  C   UNL A   1      33.546  23.876  25.773  1.00  0.00     0.015 C 
BRANCH   9  10
ATOM     10  C   UNL A   1      33.617  22.578  24.961  1.00  0.00     0.059 C 
ATOM     11  C   UNL A   1      32.393  22.244  24.110  1.00  0.00     0.027 C 
ATOM     12  S   UNL A   1      33.880  21.154  26.087  1.00  0.00    -0.091 SA
ATOM     13  C   UNL A   1      32.491  20.808  23.608  1.00  0.00     0.083 C 
ATOM     14  S   UNL A   1      32.727  19.794  25.081  1.00  0.00    -0.094 SA
ENDBRANCH   9  10
ENDBRANCH   8   9
ENDBRANCH   7   8
ENDBRANCH   6   7
ENDBRANCH   4   6
ENDBRANCH   3   4
ENDBRANCH   2   3
ENDBRANCH   1   2
BRANCH   1  15
ATOM     15  O   UNL A   1      31.429  30.653  26.781  1.00  0.00    -0.374 OA
BRANCH  15  16
ATOM     16  C   UNL A   1      31.156  31.914  26.164  1.00  0.00     0.202 C 
BRANCH  16  17
ATOM     17  C   UNL A   1      31.913  33.087  26.800  1.00  0.00     0.261 C 
BRANCH  17  18
ATOM     18  O   UNL A   1      32.919  32.617  27.712  1.00  0.00    -0.460 OA
BRANCH  18  19
ATOM     19  C   UNL A   1      33.979  33.450  27.883  1.00  0.00     0.338 C 
ATOM     20  O   UNL A   1      33.955  34.670  27.875  1.00  0.00    -0.246 OA
BRANCH  19  21
ATOM     21  C   UNL A   1      35.153  32.656  28.321  1.00  0.00     0.060 A 
ATOM     22  C   UNL A   1      34.957  31.296  28.614  1.00  0.00     0.016 A 
ATOM     23  C   UNL A   1      36.436  33.208  28.388  1.00  0.00     0.016 A 
ATOM     24  C   UNL A   1      36.029  30.498  29.013  1.00  0.00     0.010 A 
ATOM     25  C   UNL A   1      37.507  32.413  28.799  1.00  0.00     0.010 A 
ATOM     26  C   UNL A   1      37.300  31.067  29.152  1.00  0.00    -0.014 A 
BRANCH  26  27
ATOM     27  C   UNL A   1      38.349  30.365  29.930  1.00  0.00     0.031 A 
ATOM     28  C   UNL A   1      38.532  30.782  31.364  1.00  0.00     0.074 A 
ATOM     29  C   UNL A   1      39.129  29.414  29.387  1.00  0.00     0.049 A 
ATOM     30  N   UNL A   1      39.464  30.455  32.217  1.00  0.00    -0.248 NA
ATOM     31  C   UNL A   1      37.528  31.719  31.893  1.00  0.00     0.031 C 
ATOM     32  C   UNL A   1      39.005  28.889  28.029  1.00  0.00     0.029 A 
ATOM     33  N   UNL A   1      40.198  28.736  29.916  1.00  0.00    -0.354 N 
ATOM     34  C   UNL A   1      39.170  31.161  33.379  1.00  0.00     0.074 A 
ATOM     35  C   UNL A   1      37.999  31.962  33.104  1.00  0.00     0.031 C 
ATOM     36  C   UNL A   1      39.979  27.983  27.825  1.00  0.00     0.029 A 
ATOM     37  C   UNL A   1      40.819  27.901  29.018  1.00  0.00     0.049 A 
ATOM     38  H   UNL A   1      40.491  28.836  30.851  1.00  0.00     0.167 HD
ATOM     39  C   UNL A   1      39.818  31.139  34.569  1.00  0.00     0.034 A 
ATOM     40  C   UNL A   1      41.958  27.186  29.140  1.00  0.00     0.034 A 
ATOM     41  C   UNL A   1      40.997  30.346  34.814  1.00  0.00     0.049 A 
ATOM     42  C   UNL A   1      42.721  27.244  30.444  1.00  0.00     0.074 A 
ATOM     43  C   UNL A   1      41.738  30.239  35.976  1.00  0.00     0.029 A 
ATOM     44  N   UNL A   1      41.613  29.531  33.873  1.00  0.00    -0.354 N 
ATOM     45  N   UNL A   1      42.445  27.920  31.537  1.00  0.00    -0.248 NA
ATOM     46  C   UNL A   1      43.948  26.440  30.532  1.00  0.00     0.031 C 
ATOM     47  C   UNL A   1      42.843  29.423  35.715  1.00  0.00     0.029 A 
ATOM     48  C   UNL A   1      42.743  28.944  34.418  1.00  0.00     0.049 A 
ATOM     49  H   UNL A   1      41.294  29.391  32.951  1.00  0.00     0.167 HD
ATOM     50  C   UNL A   1      43.442  27.590  32.453  1.00  0.00     0.074 A 
ATOM     51  C   UNL A   1      44.323  26.654  31.785  1.00  0.00     0.031 C 
ATOM     52  C   UNL A   1      43.611  28.012  33.734  1.00  0.00     0.034 A 
BRANCH  39  53
ATOM     53  C   UNL A   1      39.297  32.050  35.653  1.00  0.00     0.023 A 
ATOM     54  C   UNL A   1      39.731  33.383  35.774  1.00  0.00     0.031 A 
ATOM     55  C   UNL A   1      38.404  31.560  36.622  1.00  0.00     0.131 A 
ATOM     56  C   UNL A   1      39.344  34.147  36.884  1.00  0.00     0.055 A 
ATOM     57  C   UNL A   1      37.950  32.357  37.675  1.00  0.00     0.041 A 
ATOM     58  F   UNL A   1      37.977  30.288  36.579  1.00  0.00    -0.206 F 
ATOM     59  C   UNL A   1      38.435  33.654  37.822  1.00  0.00     0.022 A 
BRANCH  56  60
ATOM     60  S   UNL A   1      40.181  35.730  37.179  1.00  0.00     0.124 S 
ATOM     61  O   UNL A   1      39.648  36.107  38.486  1.00  0.00    -0.237 OA
ATOM     62  O   UNL A   1      41.589  35.352  37.148  1.00  0.00    -0.237 OA
ATOM     63  O   UNL A   1      39.734  36.567  36.067  1.00  0.00    -0.744 OA
ENDBRANCH  56  60
ENDBRANCH  39  53
BRANCH  40  64
ATOM     64  C   UNL A   1      42.480  26.392  27.989  1.00  0.00     0.023 A 
ATOM     65  C   UNL A   1      42.169  25.029  27.846  1.00  0.00     0.031 A 
ATOM     66  C   UNL A   1      43.338  26.974  27.039  1.00  0.00     0.131 A 
ATOM     67  C   UNL A   1      42.744  24.286  26.802  1.00  0.00     0.055 A 
ATOM     68  C   UNL A   1      43.865  26.243  25.972  1.00  0.00     0.041 A 
ATOM     69  F   UNL A   1      43.671  28.272  27.129  1.00  0.00    -0.206 F 
ATOM     70  C   UNL A   1      43.578  24.886  25.856  1.00  0.00     0.022 A 
BRANCH  67  71
ATOM     71  S   UNL A   1      42.445  22.497  26.741  1.00  0.00     0.124 S 
ATOM     72  O   UNL A   1      42.674  22.111  28.129  1.00  0.00    -0.237 OA
ATOM     73  O   UNL A   1      41.063  22.438  26.277  1.00  0.00    -0.237 OA
ATOM     74  O   UNL A   1      43.442  22.019  25.786  1.00  0.00    -0.744 OA
ENDBRANCH  67  71
ENDBRANCH  40  64
BRANCH  52  75
ATOM     75  C   UNL A   1      44.752  27.411  34.520  1.00  0.00     0.023 A 
ATOM     76  C   UNL A   1      44.618  26.210  35.237  1.00  0.00     0.031 A 
ATOM     77  C   UNL A   1      46.004  28.053  34.535  1.00  0.00     0.131 A 
ATOM     78  C   UNL A   1      45.702  25.714  35.978  1.00  0.00     0.055 A 
ATOM     79  C   UNL A   1      47.097  27.522  35.221  1.00  0.00     0.041 A 
ATOM     80  F   UNL A   1      46.190  29.205  33.869  1.00  0.00    -0.206 F 
ATOM     81  C   UNL A   1      46.946  26.352  35.958  1.00  0.00     0.022 A 
BRANCH  78  82
ATOM     82  S   UNL A   1      45.445  24.268  37.041  1.00  0.00     0.124 S 
ATOM     83  O   UNL A   1      46.795  23.722  37.143  1.00  0.00    -0.237 OA
ATOM     84  O   UNL A   1      44.905  24.866  38.257  1.00  0.00    -0.237 OA
ATOM     85  O   UNL A   1      44.502  23.448  36.282  1.00  0.00    -0.744 OA
ENDBRANCH  78  82
ENDBRANCH  52  75
ENDBRANCH  26  27
ENDBRANCH  19  21
ENDBRANCH  18  19
ENDBRANCH  17  18
ENDBRANCH  16  17
ENDBRANCH  15  16
ENDBRANCH   1  15
TORSDOF 21
ENDMDL
MODEL 2
REMARK VINA RESULT:      -8.9      2.289      9.029
REMARK SMILES O=C(CCCC[C@@H]1CCSS1)OCCOCCOC(=O)c1ccc(-c2c3nc(c(-c4cc(S(=O)(=O)[O-])ccc4F)c4ccc([nH]4)c(-c4cc(S(=O)(=O)[O-])ccc4F)c4nc(c(-c5cc(S(=O)(=O)[O-])ccc5F)c5ccc2[nH]5)C=C4)C=C3)cc1
REMARK SMILES IDX 14 1 13 2 12 3 2 4 1 5 3 6 4 7 5 8 6 9 7 10 8 11 11 12 9 13
REMARK SMILES IDX 10 14 15 15 16 16 17 17 18 18 19 19 20 20 21 21 22 22 83 23
REMARK SMILES IDX 23 24 82 25 24 26 25 27 26 28 76 29 27 30 81 31 75 32 77 33
REMARK SMILES IDX 28 34 80 35 74 36 73 37 29 39 61 40 41 41 60 42 42 43 45 44
REMARK SMILES IDX 59 45 78 46 43 47 44 48 58 50 79 51 46 52 30 53 31 54 39 55
REMARK SMILES IDX 32 56 38 57 40 58 37 59 33 60 34 61 35 62 36 63 62 64 63 65
REMARK SMILES IDX 71 66 64 67 70 68 72 69 69 70 65 71 66 72 67 73 68 74 47 75
REMARK SMILES IDX 48 76 56 77 49 78 55 79 57 80 54 81 50 82 51 83 52 84 53 85
REMARK H PARENT 77 38 45 49
REMARK Flexibility Score: inf
ROOT
ATOM      1  C   UNL A   1      38.154  21.881  25.918  1.00  0.00     0.202 C 
ENDROOT
BRANCH   1   2
ATOM      2  C   UNL A   1      37.366  21.261  24.778  1.00  0.00     0.261 C 
BRANCH   2   3
ATOM      3  O   UNL A   1      36.151  20.640  25.216  1.00  0.00    -0.463 OA
BRANCH   3   4
ATOM      4  C   UNL A   1      35.017  21.286  25.548  1.00  0.00     0.305 C 
ATOM      5  O   UNL A   1      34.716  21.383  26.739  1.00  0.00    -0.252 OA
BRANCH   4   6
ATOM      6  C   UNL A   1      34.096  21.866  24.492  1.00  0.00     0.123 C 
BRANCH   6   7
ATOM      7  C   UNL A   1      34.184  23.369  24.218  1.00  0.00     0.012 C 
BRANCH   7   8
ATOM      8  C   UNL A   1      34.777  24.298  25.298  1.00  0.00     0.002 C 
BRANCH   8   9
ATOM      9  C   UNL A   1      34.289  25.759  25.333  1.00  0.00     0.015 C 
BRANCH   9  10
ATOM     10  C   UNL A   1      33.161  26.159  24.377  1.00  0.00     0.059 C 
ATOM     11  C   UNL A   1      33.491  27.247  23.356  1.00  0.00     0.027 C 
ATOM     12  S   UNL A   1      31.717  26.757  25.336  1.00  0.00    -0.091 SA
ATOM     13  C   UNL A   1      32.209  27.735  22.692  1.00  0.00     0.083 C 
ATOM     14  S   UNL A   1      31.118  28.226  24.041  1.00  0.00    -0.094 SA
ENDBRANCH   9  10
ENDBRANCH   8   9
ENDBRANCH   7   8
ENDBRANCH   6   7
ENDBRANCH   4   6
ENDBRANCH   3   4
ENDBRANCH   2   3
ENDBRANCH   1   2
BRANCH   1  15
ATOM     15  O   UNL A   1      39.550  21.989  25.650  1.00  0.00    -0.374 OA
BRANCH  15  16
ATOM     16  C   UNL A   1      40.349  20.991  26.290  1.00  0.00     0.202 C 
BRANCH  16  17
ATOM     17  C   UNL A   1      41.832  21.369  26.402  1.00  0.00     0.261 C 
BRANCH  17  18
ATOM     18  O   UNL A   1      42.196  22.329  25.397  1.00  0.00    -0.460 OA
BRANCH  18  19
ATOM     19  C   UNL A   1      43.236  23.140  25.723  1.00  0.00     0.338 C 
ATOM     20  O   UNL A   1      44.382  23.056  25.312  1.00  0.00    -0.246 OA
BRANCH  19  21
ATOM     21  C   UNL A   1      42.721  24.308  26.479  1.00  0.00     0.060 A 
ATOM     22  C   UNL A   1      43.601  25.373  26.729  1.00  0.00     0.016 A 
ATOM     23  C   UNL A   1      41.386  24.395  26.886  1.00  0.00     0.016 A 
ATOM     24  C   UNL A   1      43.165  26.504  27.419  1.00  0.00     0.010 A 
ATOM     25  C   UNL A   1      40.952  25.520  27.588  1.00  0.00     0.010 A 
ATOM     26  C   UNL A   1      41.849  26.559  27.893  1.00  0.00    -0.014 A 
BRANCH  26  27
ATOM     27  C   UNL A   1      41.476  27.540  28.939  1.00  0.00     0.031 A 
ATOM     28  C   UNL A   1      42.265  27.508  30.220  1.00  0.00     0.074 A 
ATOM     29  C   UNL A   1      40.463  28.409  28.780  1.00  0.00     0.049 A 
ATOM     30  N   UNL A   1      42.057  28.133  31.347  1.00  0.00    -0.248 NA
ATOM     31  C   UNL A   1      43.442  26.624  30.227  1.00  0.00     0.031 C 
ATOM     32  C   UNL A   1      39.669  28.571  27.565  1.00  0.00     0.029 A 
ATOM     33  N   UNL A   1      39.920  29.309  29.662  1.00  0.00    -0.354 N 
ATOM     34  C   UNL A   1      43.065  27.704  32.204  1.00  0.00     0.074 A 
ATOM     35  C   UNL A   1      43.857  26.737  31.477  1.00  0.00     0.031 C 
ATOM     36  C   UNL A   1      38.721  29.501  27.787  1.00  0.00     0.029 A 
ATOM     37  C   UNL A   1      38.815  29.963  29.171  1.00  0.00     0.049 A 
ATOM     38  H   UNL A   1      40.288  29.472  30.560  1.00  0.00     0.167 HD
ATOM     39  C   UNL A   1      43.310  28.086  33.481  1.00  0.00     0.034 A 
ATOM     40  C   UNL A   1      37.958  30.806  29.786  1.00  0.00     0.034 A 
ATOM     41  C   UNL A   1      42.495  29.039  34.191  1.00  0.00     0.049 A 
ATOM     42  C   UNL A   1      38.191  31.152  31.240  1.00  0.00     0.074 A 
ATOM     43  C   UNL A   1      42.643  29.506  35.484  1.00  0.00     0.029 A 
ATOM     44  N   UNL A   1      41.368  29.663  33.670  1.00  0.00    -0.354 N 
ATOM     45  N   UNL A   1      39.141  30.736  32.049  1.00  0.00    -0.248 NA
ATOM     46  C   UNL A   1      37.240  32.082  31.862  1.00  0.00     0.031 C 
ATOM     47  C   UNL A   1      41.566  30.351  35.770  1.00  0.00     0.029 A 
ATOM     48  C   UNL A   1      40.794  30.484  34.626  1.00  0.00     0.049 A 
ATOM     49  H   UNL A   1      41.026  29.538  32.755  1.00  0.00     0.167 HD
ATOM     50  C   UNL A   1      38.921  31.387  33.262  1.00  0.00     0.074 A 
ATOM     51  C   UNL A   1      37.753  32.222  33.076  1.00  0.00     0.031 C 
ATOM     52  C   UNL A   1      39.626  31.311  34.422  1.00  0.00     0.034 A 
BRANCH  39  53
ATOM     53  C   UNL A   1      44.460  27.415  34.191  1.00  0.00     0.023 A 
ATOM     54  C   UNL A   1      44.284  26.235  34.935  1.00  0.00     0.031 A 
ATOM     55  C   UNL A   1      45.738  28.001  34.182  1.00  0.00     0.131 A 
ATOM     56  C   UNL A   1      45.340  25.730  35.708  1.00  0.00     0.055 A 
ATOM     57  C   UNL A   1      46.810  27.442  34.879  1.00  0.00     0.041 A 
ATOM     58  F   UNL A   1      45.961  29.144  33.514  1.00  0.00    -0.206 F 
ATOM     59  C   UNL A   1      46.610  26.309  35.664  1.00  0.00     0.022 A 
BRANCH  56  60
ATOM     60  S   UNL A   1      44.985  24.413  36.904  1.00  0.00     0.124 S 
ATOM     61  O   UNL A   1      43.898  25.005  37.680  1.00  0.00    -0.237 OA
ATOM     62  O   UNL A   1      44.621  23.294  36.042  1.00  0.00    -0.237 OA
ATOM     63  O   UNL A   1      46.245  24.259  37.629  1.00  0.00    -0.744 OA
ENDBRANCH  56  60
ENDBRANCH  39  53
BRANCH  40  64
ATOM     64  C   UNL A   1      36.775  31.348  29.057  1.00  0.00     0.023 A 
ATOM     65  C   UNL A   1      35.787  30.495  28.537  1.00  0.00     0.031 A 
ATOM     66  C   UNL A   1      36.639  32.729  28.826  1.00  0.00     0.131 A 
ATOM     67  C   UNL A   1      34.730  31.026  27.780  1.00  0.00     0.055 A 
ATOM     68  C   UNL A   1      35.557  33.257  28.118  1.00  0.00     0.041 A 
ATOM     69  F   UNL A   1      37.555  33.590  29.297  1.00  0.00    -0.206 F 
ATOM     70  C   UNL A   1      34.601  32.402  27.579  1.00  0.00     0.022 A 
BRANCH  67  71
ATOM     71  S   UNL A   1      33.562  29.882  26.994  1.00  0.00     0.124 S 
ATOM     72  O   UNL A   1      33.183  29.029  28.115  1.00  0.00    -0.237 OA
ATOM     73  O   UNL A   1      32.533  30.792  26.501  1.00  0.00    -0.237 OA
ATOM     74  O   UNL A   1      34.365  29.234  25.959  1.00  0.00    -0.744 OA
ENDBRANCH  67  71
ENDBRANCH  40  64
BRANCH  52  75
ATOM     75  C   UNL A   1      39.193  32.207  35.558  1.00  0.00     0.023 A 
ATOM     76  C   UNL A   1      39.674  33.519  35.703  1.00  0.00     0.031 A 
ATOM     77  C   UNL A   1      38.267  31.734  36.507  1.00  0.00     0.131 A 
ATOM     78  C   UNL A   1      39.264  34.296  36.798  1.00  0.00     0.055 A 
ATOM     79  C   UNL A   1      37.814  32.533  37.557  1.00  0.00     0.041 A 
ATOM     80  F   UNL A   1      37.775  30.486  36.419  1.00  0.00    -0.206 F 
ATOM     81  C   UNL A   1      38.322  33.818  37.714  1.00  0.00     0.022 A 
BRANCH  78  82
ATOM     82  S   UNL A   1      40.042  35.913  37.061  1.00  0.00     0.124 S 
ATOM     83  O   UNL A   1      39.688  36.623  35.836  1.00  0.00    -0.237 OA
ATOM     84  O   UNL A   1      39.389  36.379  38.280  1.00  0.00    -0.237 OA
ATOM     85  O   UNL A   1      41.461  35.592  37.202  1.00  0.00    -0.744 OA
ENDBRANCH  78  82
ENDBRANCH  52  75
ENDBRANCH  26  27
ENDBRANCH  19  21
ENDBRANCH  18  19
ENDBRANCH  17  18
ENDBRANCH  16  17
ENDBRANCH  15  16
ENDBRANCH   1  15
TORSDOF 21
ENDMDL
MODEL 3
REMARK VINA RESULT:      -8.8      5.670     11.209
REMARK SMILES O=C(CCCC[C@@H]1CCSS1)OCCOCCOC(=O)c1ccc(-c2c3nc(c(-c4cc(S(=O)(=O)[O-])ccc4F)c4ccc([nH]4)c(-c4cc(S(=O)(=O)[O-])ccc4F)c4nc(c(-c5cc(S(=O)(=O)[O-])ccc5F)c5ccc2[nH]5)C=C4)C=C3)cc1
REMARK SMILES IDX 14 1 13 2 12 3 2 4 1 5 3 6 4 7 5 8 6 9 7 10 8 11 11 12 9 13
REMARK SMILES IDX 10 14 15 15 16 16 17 17 18 18 19 19 20 20 21 21 22 22 83 23
REMARK SMILES IDX 23 24 82 25 24 26 25 27 26 28 76 29 27 30 81 31 75 32 77 33
REMARK SMILES IDX 28 34 80 35 74 36 73 37 29 39 61 40 41 41 60 42 42 43 45 44
REMARK SMILES IDX 59 45 78 46 43 47 44 48 58 50 79 51 46 52 30 53 31 54 39 55
REMARK SMILES IDX 32 56 38 57 40 58 37 59 33 60 34 61 35 62 36 63 62 64 63 65
REMARK SMILES IDX 71 66 64 67 70 68 72 69 69 70 65 71 66 72 67 73 68 74 47 75
REMARK SMILES IDX 48 76 56 77 49 78 55 79 57 80 54 81 50 82 51 83 52 84 53 85
REMARK H PARENT 77 38 45 49
REMARK Flexibility Score: inf
ROOT
ATOM      1  C   UNL A   1      37.399  22.643  25.753  1.00  0.00     0.202 C 
ENDROOT
BRANCH   1   2
ATOM      2  C   UNL A   1      35.965  22.167  25.610  1.00  0.00     0.261 C 
BRANCH   2   3
ATOM      3  O   UNL A   1      35.138  23.102  24.906  1.00  0.00    -0.463 OA
BRANCH   3   4
ATOM      4  C   UNL A   1      34.755  22.996  23.620  1.00  0.00     0.305 C 
ATOM      5  O   UNL A   1      35.551  23.315  22.735  1.00  0.00    -0.252 OA
BRANCH   4   6
ATOM      6  C   UNL A   1      33.364  22.522  23.242  1.00  0.00     0.123 C 
BRANCH   6   7
ATOM      7  C   UNL A   1      32.399  22.170  24.376  1.00  0.00     0.012 C 
BRANCH   7   8
ATOM      8  C   UNL A   1      32.505  20.788  25.053  1.00  0.00     0.002 C 
BRANCH   8   9
ATOM      9  C   UNL A   1      33.089  19.627  24.225  1.00  0.00     0.015 C 
BRANCH   9  10
ATOM     10  C   UNL A   1      33.689  18.439  24.984  1.00  0.00     0.059 C 
ATOM     11  C   UNL A   1      34.764  17.639  24.248  1.00  0.00     0.027 C 
ATOM     12  S   UNL A   1      32.364  17.254  25.432  1.00  0.00    -0.091 SA
ATOM     13  C   UNL A   1      35.042  16.341  24.998  1.00  0.00     0.083 C 
ATOM     14  S   UNL A   1      33.441  15.531  25.177  1.00  0.00    -0.094 SA
ENDBRANCH   9  10
ENDBRANCH   8   9
ENDBRANCH   7   8
ENDBRANCH   6   7
ENDBRANCH   4   6
ENDBRANCH   3   4
ENDBRANCH   2   3
ENDBRANCH   1   2
BRANCH   1  15
ATOM     15  O   UNL A   1      38.355  21.741  25.199  1.00  0.00    -0.374 OA
BRANCH  15  16
ATOM     16  C   UNL A   1      39.362  21.316  26.120  1.00  0.00     0.202 C 
BRANCH  16  17
ATOM     17  C   UNL A   1      39.679  19.817  26.035  1.00  0.00     0.261 C 
BRANCH  17  18
ATOM     18  O   UNL A   1      40.951  19.595  25.404  1.00  0.00    -0.460 OA
BRANCH  18  19
ATOM     19  C   UNL A   1      42.016  19.555  26.246  1.00  0.00     0.338 C 
ATOM     20  O   UNL A   1      42.557  18.556  26.689  1.00  0.00    -0.246 OA
BRANCH  19  21
ATOM     21  C   UNL A   1      42.587  20.919  26.369  1.00  0.00     0.060 A 
ATOM     22  C   UNL A   1      42.967  21.362  27.646  1.00  0.00     0.016 A 
ATOM     23  C   UNL A   1      42.807  21.732  25.253  1.00  0.00     0.016 A 
ATOM     24  C   UNL A   1      43.527  22.628  27.818  1.00  0.00     0.010 A 
ATOM     25  C   UNL A   1      43.354  23.004  25.425  1.00  0.00     0.010 A 
ATOM     26  C   UNL A   1      43.678  23.472  26.711  1.00  0.00    -0.014 A 
BRANCH  26  27
ATOM     27  C   UNL A   1      43.894  24.925  26.908  1.00  0.00     0.031 A 
ATOM     28  C   UNL A   1      45.283  25.449  26.663  1.00  0.00     0.074 A 
ATOM     29  C   UNL A   1      42.912  25.748  27.314  1.00  0.00     0.049 A 
ATOM     30  N   UNL A   1      45.787  26.628  26.908  1.00  0.00    -0.248 NA
ATOM     31  C   UNL A   1      46.236  24.492  26.080  1.00  0.00     0.031 C 
ATOM     32  C   UNL A   1      41.518  25.366  27.526  1.00  0.00     0.029 A 
ATOM     33  N   UNL A   1      42.950  27.081  27.639  1.00  0.00    -0.354 N 
ATOM     34  C   UNL A   1      47.122  26.549  26.527  1.00  0.00     0.074 A 
ATOM     35  C   UNL A   1      47.355  25.196  26.073  1.00  0.00     0.031 C 
ATOM     36  C   UNL A   1      40.837  26.438  27.969  1.00  0.00     0.029 A 
ATOM     37  C   UNL A   1      41.755  27.566  28.115  1.00  0.00     0.049 A 
ATOM     38  H   UNL A   1      43.756  27.637  27.539  1.00  0.00     0.167 HD
ATOM     39  C   UNL A   1      48.068  27.520  26.549  1.00  0.00     0.034 A 
ATOM     40  C   UNL A   1      41.456  28.772  28.644  1.00  0.00     0.034 A 
ATOM     41  C   UNL A   1      47.817  28.858  27.023  1.00  0.00     0.049 A 
ATOM     42  C   UNL A   1      42.544  29.816  28.748  1.00  0.00     0.074 A 
ATOM     43  C   UNL A   1      48.691  29.926  27.093  1.00  0.00     0.029 A 
ATOM     44  N   UNL A   1      46.600  29.307  27.522  1.00  0.00    -0.354 N 
ATOM     45  N   UNL A   1      43.808  29.734  28.394  1.00  0.00    -0.248 NA
ATOM     46  C   UNL A   1      42.166  31.115  29.319  1.00  0.00     0.031 C 
ATOM     47  C   UNL A   1      48.027  30.995  27.703  1.00  0.00     0.029 A 
ATOM     48  C   UNL A   1      46.711  30.625  27.930  1.00  0.00     0.049 A 
ATOM     49  H   UNL A   1      45.779  28.766  27.578  1.00  0.00     0.167 HD
ATOM     50  C   UNL A   1      44.362  30.984  28.664  1.00  0.00     0.074 A 
ATOM     51  C   UNL A   1      43.296  31.800  29.207  1.00  0.00     0.031 C 
ATOM     52  C   UNL A   1      45.634  31.424  28.471  1.00  0.00     0.034 A 
BRANCH  39  53
ATOM     53  C   UNL A   1      49.460  27.135  26.111  1.00  0.00     0.023 A 
ATOM     54  C   UNL A   1      49.978  27.521  24.862  1.00  0.00     0.031 A 
ATOM     55  C   UNL A   1      50.256  26.312  26.926  1.00  0.00     0.131 A 
ATOM     56  C   UNL A   1      51.212  27.013  24.428  1.00  0.00     0.055 A 
ATOM     57  C   UNL A   1      51.524  25.884  26.527  1.00  0.00     0.041 A 
ATOM     58  F   UNL A   1      49.805  25.885  28.116  1.00  0.00    -0.206 F 
ATOM     59  C   UNL A   1      52.001  26.219  25.263  1.00  0.00     0.022 A 
BRANCH  56  60
ATOM     60  S   UNL A   1      51.688  27.261  22.695  1.00  0.00     0.124 S 
ATOM     61  O   UNL A   1      51.808  28.715  22.628  1.00  0.00    -0.237 OA
ATOM     62  O   UNL A   1      52.935  26.511  22.601  1.00  0.00    -0.237 OA
ATOM     63  O   UNL A   1      50.565  26.700  21.947  1.00  0.00    -0.744 OA
ENDBRANCH  56  60
ENDBRANCH  39  53
BRANCH  40  64
ATOM     64  C   UNL A   1      40.084  29.051  29.162  1.00  0.00     0.023 A 
ATOM     65  C   UNL A   1      39.793  28.968  30.533  1.00  0.00     0.031 A 
ATOM     66  C   UNL A   1      39.029  29.358  28.283  1.00  0.00     0.131 A 
ATOM     67  C   UNL A   1      38.474  29.150  30.983  1.00  0.00     0.055 A 
ATOM     68  C   UNL A   1      37.730  29.590  28.741  1.00  0.00     0.041 A 
ATOM     69  F   UNL A   1      39.249  29.447  26.962  1.00  0.00    -0.206 F 
ATOM     70  C   UNL A   1      37.444  29.475  30.097  1.00  0.00     0.022 A 
BRANCH  67  71
ATOM     71  S   UNL A   1      38.109  28.881  32.739  1.00  0.00     0.124 S 
ATOM     72  O   UNL A   1      39.204  29.598  33.383  1.00  0.00    -0.237 OA
ATOM     73  O   UNL A   1      36.784  29.481  32.867  1.00  0.00    -0.237 OA
ATOM     74  O   UNL A   1      38.148  27.427  32.876  1.00  0.00    -0.744 OA
ENDBRANCH  67  71
ENDBRANCH  40  64
BRANCH  52  75
ATOM     75  C   UNL A   1      45.924  32.872  28.785  1.00  0.00     0.023 A 
ATOM     76  C   UNL A   1      45.681  33.902  27.860  1.00  0.00     0.031 A 
ATOM     77  C   UNL A   1      46.442  33.224  30.045  1.00  0.00     0.131 A 
ATOM     78  C   UNL A   1      46.001  35.228  28.192  1.00  0.00     0.055 A 
ATOM     79  C   UNL A   1      46.698  34.551  30.392  1.00  0.00     0.041 A 
ATOM     80  F   UNL A   1      46.696  32.280  30.967  1.00  0.00    -0.206 F 
ATOM     81  C   UNL A   1      46.489  35.561  29.460  1.00  0.00     0.022 A 
BRANCH  78  82
ATOM     82  S   UNL A   1      45.853  36.508  26.916  1.00  0.00     0.124 S 
ATOM     83  O   UNL A   1      46.220  35.776  25.709  1.00  0.00    -0.237 OA
ATOM     84  O   UNL A   1      44.450  36.897  27.024  1.00  0.00    -0.237 OA
ATOM     85  O   UNL A   1      46.812  37.527  27.339  1.00  0.00    -0.744 OA
ENDBRANCH  78  82
ENDBRANCH  52  75
ENDBRANCH  26  27
ENDBRANCH  19  21
ENDBRANCH  18  19
ENDBRANCH  17  18
ENDBRANCH  16  17
ENDBRANCH  15  16
ENDBRANCH   1  15
TORSDOF 21
ENDMDL
