MODEL 1
REMARK VINA RESULT:     -11.8      0.000      0.000
REMARK SMILES Cc1ccc2cc(C[N@H+]3CC[NH2+][C@H](C(=O)OCCOCCOC(=O)c4ccc(-c5c6nc(c(-c7cc(S(=O)(=O)[O-])ccc7F)c7ccc([nH]7)c(-c7cc(S(=O)(=O)[O-])ccc7F)c7nc(c(-c8cc(S(=O)(=O)[O-])ccc8F)c8ccc5[nH]8)C=C7)C=C6)cc4)C3)c(N3CCOCC3)nc2c1
REMARK SMILES IDX 19 1 18 2 17 3 16 4 14 5 15 6 13 7 9 8 10 9 88 10 11 12
REMARK SMILES IDX 12 13 8 16 7 17 1 18 2 19 3 20 98 21 4 22 97 23 5 24 96 25
REMARK SMILES IDX 6 26 89 27 90 28 91 29 95 30 92 31 94 32 93 33 20 34 21 35
REMARK SMILES IDX 22 36 23 37 24 38 25 39 26 40 87 41 27 42 86 43 28 44 29 45
REMARK SMILES IDX 30 46 80 47 31 48 85 49 79 50 81 51 32 52 84 53 78 54 77 55
REMARK SMILES IDX 33 57 65 58 45 59 64 60 46 61 49 62 63 63 82 64 47 65 48 66
REMARK SMILES IDX 62 68 83 69 50 70 34 71 35 72 43 73 36 74 42 75 44 76 41 77
REMARK SMILES IDX 37 78 38 79 39 80 40 81 66 82 67 83 75 84 68 85 74 86 76 87
REMARK SMILES IDX 73 88 69 89 70 90 71 91 72 92 51 93 52 94 60 95 53 96 59 97
REMARK SMILES IDX 61 98 58 99 54 100 55 101 56 102 57 103
REMARK H PARENT 9 11 12 14 12 15 81 56 49 67
REMARK Flexibility Score: inf
ROOT
ATOM      1  O   UNL A   1      30.348  29.860  24.234  1.00  0.00    -0.374 OA
ENDROOT
BRANCH   1   2
ATOM      2  C   UNL A   1      30.507  28.818  23.269  1.00  0.00     0.202 C 
BRANCH   2   3
ATOM      3  C   UNL A   1      31.090  27.481  23.753  1.00  0.00     0.261 C 
BRANCH   3   4
ATOM      4  O   UNL A   1      32.528  27.447  23.761  1.00  0.00    -0.459 OA
BRANCH   4   5
ATOM      5  C   UNL A   1      33.110  27.211  22.546  1.00  0.00     0.371 C 
ATOM      6  O   UNL A   1      34.000  27.896  22.054  1.00  0.00    -0.245 OA
BRANCH   5   7
ATOM      7  C   UNL A   1      32.553  25.927  21.905  1.00  0.00     0.348 C 
ATOM      8  N   UNL A   1      32.905  23.355  22.091  1.00  0.00    -0.321 N 
ATOM      9  C   UNL A   1      33.139  23.388  20.644  1.00  0.00     0.324 C 
ATOM     10  C   UNL A   1      33.088  24.688  22.682  1.00  0.00     0.341 C 
ATOM     11  H   UNL A   1      33.635  22.767  22.492  1.00  0.00     0.348 HD
ATOM     12  C   UNL A   1      32.558  24.604  19.891  1.00  0.00     0.323 C 
ATOM     13  N   UNL A   1      32.939  25.895  20.468  1.00  0.00    -0.325 N 
ATOM     14  H   UNL A   1      32.459  26.645  19.970  1.00  0.00     0.347 HD
ATOM     15  H   UNL A   1      33.947  26.023  20.383  1.00  0.00     0.347 HD
BRANCH   8  16
ATOM     16  C   UNL A   1      31.714  22.602  22.531  1.00  0.00     0.303 C 
BRANCH  16  17
ATOM     17  C   UNL A   1      31.958  21.375  23.375  1.00  0.00     0.049 A 
ATOM     18  C   UNL A   1      34.954  15.926  25.146  1.00  0.00     0.044 C 
ATOM     19  C   UNL A   1      34.188  17.048  24.512  1.00  0.00    -0.049 A 
ATOM     20  C   UNL A   1      33.817  16.947  23.172  1.00  0.00     0.004 A 
ATOM     21  C   UNL A   1      33.796  18.182  25.255  1.00  0.00     0.032 A 
ATOM     22  C   UNL A   1      33.070  17.959  22.588  1.00  0.00     0.010 A 
ATOM     23  C   UNL A   1      33.087  19.241  24.684  1.00  0.00     0.073 A 
ATOM     24  C   UNL A   1      32.718  19.091  23.336  1.00  0.00     0.001 A 
ATOM     25  N   UNL A   1      32.807  20.373  25.383  1.00  0.00    -0.230 NA
ATOM     26  C   UNL A   1      32.079  20.149  22.713  1.00  0.00     0.023 A 
ATOM     27  C   UNL A   1      32.245  21.429  24.746  1.00  0.00     0.138 A 
BRANCH  27  28
ATOM     28  N   UNL A   1      32.030  22.606  25.441  1.00  0.00    -0.352 N 
ATOM     29  C   UNL A   1      30.715  22.827  26.056  1.00  0.00     0.146 C 
ATOM     30  C   UNL A   1      33.120  23.249  26.172  1.00  0.00     0.146 C 
ATOM     31  C   UNL A   1      30.468  24.344  26.118  1.00  0.00     0.181 C 
ATOM     32  C   UNL A   1      32.802  24.760  26.245  1.00  0.00     0.181 C 
ATOM     33  O   UNL A   1      31.515  25.019  26.841  1.00  0.00    -0.378 OA
ENDBRANCH  27  28
ENDBRANCH  16  17
ENDBRANCH   8  16
ENDBRANCH   5   7
ENDBRANCH   4   5
ENDBRANCH   3   4
ENDBRANCH   2   3
ENDBRANCH   1   2
BRANCH   1  34
ATOM     34  C   UNL A   1      31.447  30.053  25.121  1.00  0.00     0.202 C 
BRANCH  34  35
ATOM     35  C   UNL A   1      31.366  31.210  26.118  1.00  0.00     0.261 C 
BRANCH  35  36
ATOM     36  O   UNL A   1      32.359  31.065  27.148  1.00  0.00    -0.460 OA
BRANCH  36  37
ATOM     37  C   UNL A   1      33.118  32.168  27.354  1.00  0.00     0.338 C 
ATOM     38  O   UNL A   1      32.745  33.330  27.312  1.00  0.00    -0.246 OA
BRANCH  37  39
ATOM     39  C   UNL A   1      34.441  31.758  27.866  1.00  0.00     0.060 A 
ATOM     40  C   UNL A   1      35.493  32.664  28.018  1.00  0.00     0.016 A 
ATOM     41  C   UNL A   1      34.611  30.410  28.205  1.00  0.00     0.016 A 
ATOM     42  C   UNL A   1      36.704  32.221  28.557  1.00  0.00     0.010 A 
ATOM     43  C   UNL A   1      35.818  29.969  28.745  1.00  0.00     0.010 A 
ATOM     44  C   UNL A   1      36.864  30.878  28.952  1.00  0.00    -0.014 A 
BRANCH  44  45
ATOM     45  C   UNL A   1      38.051  30.467  29.742  1.00  0.00     0.031 A 
ATOM     46  C   UNL A   1      38.290  30.968  31.134  1.00  0.00     0.074 A 
ATOM     47  C   UNL A   1      38.949  29.655  29.151  1.00  0.00     0.049 A 
ATOM     48  N   UNL A   1      39.245  30.643  31.965  1.00  0.00    -0.248 NA
ATOM     49  C   UNL A   1      37.349  31.968  31.659  1.00  0.00     0.031 C 
ATOM     50  C   UNL A   1      38.843  29.165  27.776  1.00  0.00     0.029 A 
ATOM     51  N   UNL A   1      40.114  29.098  29.615  1.00  0.00    -0.354 N 
ATOM     52  C   UNL A   1      39.015  31.380  33.120  1.00  0.00     0.074 A 
ATOM     53  C   UNL A   1      37.858  32.211  32.860  1.00  0.00     0.031 C 
ATOM     54  C   UNL A   1      39.877  28.352  27.519  1.00  0.00     0.029 A 
ATOM     55  C   UNL A   1      40.744  28.294  28.693  1.00  0.00     0.049 A 
ATOM     56  H   UNL A   1      40.466  29.259  30.520  1.00  0.00     0.167 HD
ATOM     57  C   UNL A   1      39.696  31.341  34.289  1.00  0.00     0.034 A 
ATOM     58  C   UNL A   1      41.889  27.586  28.778  1.00  0.00     0.034 A 
ATOM     59  C   UNL A   1      40.857  30.513  34.514  1.00  0.00     0.049 A 
ATOM     60  C   UNL A   1      42.638  27.573  30.086  1.00  0.00     0.074 A 
ATOM     61  C   UNL A   1      41.582  30.364  35.683  1.00  0.00     0.029 A 
ATOM     62  N   UNL A   1      41.471  29.711  33.562  1.00  0.00    -0.354 N 
ATOM     63  N   UNL A   1      42.335  28.175  31.212  1.00  0.00    -0.248 NA
ATOM     64  C   UNL A   1      43.870  26.776  30.147  1.00  0.00     0.031 C 
ATOM     65  C   UNL A   1      42.679  29.544  35.417  1.00  0.00     0.029 A 
ATOM     66  C   UNL A   1      42.588  29.096  34.109  1.00  0.00     0.049 A 
ATOM     67  H   UNL A   1      41.161  29.595  32.636  1.00  0.00     0.167 HD
ATOM     68  C   UNL A   1      43.322  27.807  32.122  1.00  0.00     0.074 A 
ATOM     69  C   UNL A   1      44.216  26.909  31.421  1.00  0.00     0.031 C 
ATOM     70  C   UNL A   1      43.471  28.185  33.417  1.00  0.00     0.034 A 
BRANCH  57  71
ATOM     71  C   UNL A   1      39.213  32.184  35.446  1.00  0.00     0.023 A 
ATOM     72  C   UNL A   1      39.662  33.511  35.592  1.00  0.00     0.031 A 
ATOM     73  C   UNL A   1      38.451  31.624  36.489  1.00  0.00     0.131 A 
ATOM     74  C   UNL A   1      39.391  34.213  36.773  1.00  0.00     0.055 A 
ATOM     75  C   UNL A   1      38.142  32.346  37.642  1.00  0.00     0.041 A 
ATOM     76  F   UNL A   1      38.003  30.362  36.404  1.00  0.00    -0.206 F 
ATOM     77  C   UNL A   1      38.627  33.641  37.796  1.00  0.00     0.022 A 
BRANCH  74  78
ATOM     78  S   UNL A   1      40.091  35.861  37.068  1.00  0.00     0.124 S 
ATOM     79  O   UNL A   1      41.505  35.553  37.268  1.00  0.00    -0.237 OA
ATOM     80  O   UNL A   1      39.773  36.554  35.822  1.00  0.00    -0.237 OA
ATOM     81  O   UNL A   1      39.385  36.335  38.254  1.00  0.00    -0.744 OA
ENDBRANCH  74  78
ENDBRANCH  57  71
BRANCH  58  82
ATOM     82  C   UNL A   1      42.330  26.778  27.603  1.00  0.00     0.023 A 
ATOM     83  C   UNL A   1      42.121  25.386  27.565  1.00  0.00     0.031 A 
ATOM     84  C   UNL A   1      43.073  27.362  26.564  1.00  0.00     0.131 A 
ATOM     85  C   UNL A   1      42.716  24.620  26.554  1.00  0.00     0.055 A 
ATOM     86  C   UNL A   1      43.595  26.603  25.514  1.00  0.00     0.041 A 
ATOM     87  F   UNL A   1      43.315  28.682  26.565  1.00  0.00    -0.206 F 
ATOM     88  C   UNL A   1      43.434  25.222  25.518  1.00  0.00     0.022 A 
BRANCH  85  89
ATOM     89  S   UNL A   1      42.703  22.807  26.637  1.00  0.00     0.124 S 
ATOM     90  O   UNL A   1      42.052  22.449  25.382  1.00  0.00    -0.237 OA
ATOM     91  O   UNL A   1      44.131  22.505  26.717  1.00  0.00    -0.237 OA
ATOM     92  O   UNL A   1      41.942  22.523  27.849  1.00  0.00    -0.744 OA
ENDBRANCH  85  89
ENDBRANCH  58  82
BRANCH  70  93
ATOM     93  C   UNL A   1      44.638  27.636  34.208  1.00  0.00     0.023 A 
ATOM     94  C   UNL A   1      44.505  26.411  34.893  1.00  0.00     0.031 A 
ATOM     95  C   UNL A   1      45.801  28.392  34.427  1.00  0.00     0.131 A 
ATOM     96  C   UNL A   1      45.487  26.010  35.807  1.00  0.00     0.055 A 
ATOM     97  C   UNL A   1      46.807  27.958  35.293  1.00  0.00     0.041 A 
ATOM     98  F   UNL A   1      45.974  29.572  33.810  1.00  0.00    -0.206 F 
ATOM     99  C   UNL A   1      46.644  26.771  36.002  1.00  0.00     0.022 A 
BRANCH  96 100
ATOM    100  S   UNL A   1      45.250  24.547  36.854  1.00  0.00     0.124 S 
ATOM    101  O   UNL A   1      44.255  23.791  36.097  1.00  0.00    -0.237 OA
ATOM    102  O   UNL A   1      46.590  23.966  36.875  1.00  0.00    -0.237 OA
ATOM    103  O   UNL A   1      44.782  25.093  38.124  1.00  0.00    -0.744 OA
ENDBRANCH  96 100
ENDBRANCH  70  93
ENDBRANCH  44  45
ENDBRANCH  37  39
ENDBRANCH  36  37
ENDBRANCH  35  36
ENDBRANCH  34  35
ENDBRANCH   1  34
TORSDOF 20
ENDMDL
MODEL 2
REMARK VINA RESULT:     -11.7      4.704     10.299
REMARK SMILES Cc1ccc2cc(C[N@H+]3CC[NH2+][C@H](C(=O)OCCOCCOC(=O)c4ccc(-c5c6nc(c(-c7cc(S(=O)(=O)[O-])ccc7F)c7ccc([nH]7)c(-c7cc(S(=O)(=O)[O-])ccc7F)c7nc(c(-c8cc(S(=O)(=O)[O-])ccc8F)c8ccc5[nH]8)C=C7)C=C6)cc4)C3)c(N3CCOCC3)nc2c1
REMARK SMILES IDX 19 1 18 2 17 3 16 4 14 5 15 6 13 7 9 8 10 9 88 10 11 12
REMARK SMILES IDX 12 13 8 16 7 17 1 18 2 19 3 20 98 21 4 22 97 23 5 24 96 25
REMARK SMILES IDX 6 26 89 27 90 28 91 29 95 30 92 31 94 32 93 33 20 34 21 35
REMARK SMILES IDX 22 36 23 37 24 38 25 39 26 40 87 41 27 42 86 43 28 44 29 45
REMARK SMILES IDX 30 46 80 47 31 48 85 49 79 50 81 51 32 52 84 53 78 54 77 55
REMARK SMILES IDX 33 57 65 58 45 59 64 60 46 61 49 62 63 63 82 64 47 65 48 66
REMARK SMILES IDX 62 68 83 69 50 70 34 71 35 72 43 73 36 74 42 75 44 76 41 77
REMARK SMILES IDX 37 78 38 79 39 80 40 81 66 82 67 83 75 84 68 85 74 86 76 87
REMARK SMILES IDX 73 88 69 89 70 90 71 91 72 92 51 93 52 94 60 95 53 96 59 97
REMARK SMILES IDX 61 98 58 99 54 100 55 101 56 102 57 103
REMARK H PARENT 9 11 12 14 12 15 81 56 49 67
REMARK Flexibility Score: inf
ROOT
ATOM      1  O   UNL A   1      34.637  20.733  25.737  1.00  0.00    -0.374 OA
ENDROOT
BRANCH   1   2
ATOM      2  C   UNL A   1      33.816  20.891  24.578  1.00  0.00     0.202 C 
BRANCH   2   3
ATOM      3  C   UNL A   1      33.044  22.211  24.426  1.00  0.00     0.261 C 
BRANCH   3   4
ATOM      4  O   UNL A   1      33.864  23.316  24.007  1.00  0.00    -0.459 OA
BRANCH   4   5
ATOM      5  C   UNL A   1      33.505  23.885  22.815  1.00  0.00     0.371 C 
ATOM      6  O   UNL A   1      33.532  23.311  21.732  1.00  0.00    -0.245 OA
BRANCH   5   7
ATOM      7  C   UNL A   1      32.995  25.323  23.020  1.00  0.00     0.348 C 
ATOM      8  N   UNL A   1      31.039  26.825  22.187  1.00  0.00    -0.321 N 
ATOM      9  C   UNL A   1      32.080  27.776  21.785  1.00  0.00     0.324 C 
ATOM     10  C   UNL A   1      31.597  25.475  22.349  1.00  0.00     0.341 C 
ATOM     11  H   UNL A   1      30.381  26.764  21.411  1.00  0.00     0.348 HD
ATOM     12  C   UNL A   1      33.442  27.632  22.497  1.00  0.00     0.323 C 
ATOM     13  N   UNL A   1      33.991  26.276  22.457  1.00  0.00    -0.325 N 
ATOM     14  H   UNL A   1      34.847  26.239  23.011  1.00  0.00     0.347 HD
ATOM     15  H   UNL A   1      34.200  26.020  21.493  1.00  0.00     0.347 HD
BRANCH   8  16
ATOM     16  C   UNL A   1      30.124  27.287  23.249  1.00  0.00     0.303 C 
BRANCH  16  17
ATOM     17  C   UNL A   1      30.716  28.171  24.320  1.00  0.00     0.049 A 
ATOM     18  C   UNL A   1      35.442  30.790  27.871  1.00  0.00     0.044 C 
ATOM     19  C   UNL A   1      34.417  29.949  27.171  1.00  0.00    -0.049 A 
ATOM     20  C   UNL A   1      34.516  28.559  27.238  1.00  0.00     0.004 A 
ATOM     21  C   UNL A   1      33.330  30.533  26.486  1.00  0.00     0.032 A 
ATOM     22  C   UNL A   1      33.549  27.772  26.631  1.00  0.00     0.010 A 
ATOM     23  C   UNL A   1      32.367  29.769  25.823  1.00  0.00     0.073 A 
ATOM     24  C   UNL A   1      32.494  28.374  25.930  1.00  0.00     0.001 A 
ATOM     25  N   UNL A   1      31.385  30.346  25.080  1.00  0.00    -0.230 NA
ATOM     26  C   UNL A   1      31.603  27.582  25.226  1.00  0.00     0.023 A 
ATOM     27  C   UNL A   1      30.562  29.564  24.339  1.00  0.00     0.138 A 
BRANCH  27  28
ATOM     28  N   UNL A   1      29.612  30.155  23.526  1.00  0.00    -0.352 N 
ATOM     29  C   UNL A   1      28.988  31.407  23.973  1.00  0.00     0.146 C 
ATOM     30  C   UNL A   1      29.708  30.051  22.071  1.00  0.00     0.146 C 
ATOM     31  C   UNL A   1      27.579  31.481  23.358  1.00  0.00     0.181 C 
ATOM     32  C   UNL A   1      28.277  30.175  21.502  1.00  0.00     0.181 C 
ATOM     33  O   UNL A   1      27.627  31.392  21.921  1.00  0.00    -0.378 OA
ENDBRANCH  27  28
ENDBRANCH  16  17
ENDBRANCH   8  16
ENDBRANCH   5   7
ENDBRANCH   4   5
ENDBRANCH   3   4
ENDBRANCH   2   3
ENDBRANCH   1   2
BRANCH   1  34
ATOM     34  C   UNL A   1      35.854  21.474  25.735  1.00  0.00     0.202 C 
BRANCH  34  35
ATOM     35  C   UNL A   1      37.087  20.822  25.106  1.00  0.00     0.261 C 
BRANCH  35  36
ATOM     36  O   UNL A   1      38.206  21.725  25.125  1.00  0.00    -0.460 OA
BRANCH  36  37
ATOM     37  C   UNL A   1      39.174  21.399  26.014  1.00  0.00     0.338 C 
ATOM     38  O   UNL A   1      39.692  20.303  26.164  1.00  0.00    -0.246 OA
BRANCH  37  39
ATOM     39  C   UNL A   1      39.688  22.632  26.644  1.00  0.00     0.060 A 
ATOM     40  C   UNL A   1      40.678  22.606  27.629  1.00  0.00     0.016 A 
ATOM     41  C   UNL A   1      39.146  23.850  26.214  1.00  0.00     0.016 A 
ATOM     42  C   UNL A   1      41.157  23.813  28.148  1.00  0.00     0.010 A 
ATOM     43  C   UNL A   1      39.626  25.052  26.730  1.00  0.00     0.010 A 
ATOM     44  C   UNL A   1      40.656  25.044  27.679  1.00  0.00    -0.014 A 
BRANCH  44  45
ATOM     45  C   UNL A   1      41.330  26.314  28.047  1.00  0.00     0.031 A 
ATOM     46  C   UNL A   1      42.752  26.595  27.670  1.00  0.00     0.074 A 
ATOM     47  C   UNL A   1      40.634  27.205  28.780  1.00  0.00     0.049 A 
ATOM     48  N   UNL A   1      43.447  27.685  27.865  1.00  0.00    -0.248 NA
ATOM     49  C   UNL A   1      43.496  25.518  27.002  1.00  0.00     0.031 C 
ATOM     50  C   UNL A   1      39.265  26.997  29.255  1.00  0.00     0.029 A 
ATOM     51  N   UNL A   1      40.966  28.450  29.253  1.00  0.00    -0.354 N 
ATOM     52  C   UNL A   1      44.704  27.439  27.328  1.00  0.00     0.074 A 
ATOM     53  C   UNL A   1      44.692  26.072  26.849  1.00  0.00     0.031 C 
ATOM     54  C   UNL A   1      38.861  28.090  29.917  1.00  0.00     0.029 A 
ATOM     55  C   UNL A   1      39.952  29.059  29.955  1.00  0.00     0.049 A 
ATOM     56  H   UNL A   1      41.846  28.866  29.104  1.00  0.00     0.167 HD
ATOM     57  C   UNL A   1      45.755  28.287  27.229  1.00  0.00     0.034 A 
ATOM     58  C   UNL A   1      39.900  30.264  30.559  1.00  0.00     0.034 A 
ATOM     59  C   UNL A   1      45.744  29.640  27.732  1.00  0.00     0.049 A 
ATOM     60  C   UNL A   1      41.089  31.183  30.449  1.00  0.00     0.074 A 
ATOM     61  C   UNL A   1      46.741  30.595  27.629  1.00  0.00     0.029 A 
ATOM     62  N   UNL A   1      44.704  30.229  28.438  1.00  0.00    -0.354 N 
ATOM     63  N   UNL A   1      42.226  30.983  29.825  1.00  0.00    -0.248 NA
ATOM     64  C   UNL A   1      40.989  32.494  31.104  1.00  0.00     0.031 C 
ATOM     65  C   UNL A   1      46.342  31.724  28.343  1.00  0.00     0.029 A 
ATOM     66  C   UNL A   1      45.052  31.519  28.809  1.00  0.00     0.049 A 
ATOM     67  H   UNL A   1      43.845  29.796  28.645  1.00  0.00     0.167 HD
ATOM     68  C   UNL A   1      42.965  32.152  29.988  1.00  0.00     0.074 A 
ATOM     69  C   UNL A   1      42.134  33.063  30.747  1.00  0.00     0.031 C 
ATOM     70  C   UNL A   1      44.217  32.437  29.551  1.00  0.00     0.034 A 
BRANCH  57  71
ATOM     71  C   UNL A   1      47.010  27.819  26.531  1.00  0.00     0.023 A 
ATOM     72  C   UNL A   1      47.177  28.044  25.150  1.00  0.00     0.031 A 
ATOM     73  C   UNL A   1      47.954  27.009  27.189  1.00  0.00     0.131 A 
ATOM     74  C   UNL A   1      48.229  27.422  24.465  1.00  0.00     0.055 A 
ATOM     75  C   UNL A   1      49.029  26.433  26.510  1.00  0.00     0.041 A 
ATOM     76  F   UNL A   1      47.839  26.759  28.503  1.00  0.00    -0.206 F 
ATOM     77  C   UNL A   1      49.160  26.624  25.138  1.00  0.00     0.022 A 
BRANCH  74  78
ATOM     78  S   UNL A   1      48.381  27.551  22.661  1.00  0.00     0.124 S 
ATOM     79  O   UNL A   1      49.635  28.289  22.520  1.00  0.00    -0.237 OA
ATOM     80  O   UNL A   1      48.433  26.149  22.259  1.00  0.00    -0.237 OA
ATOM     81  O   UNL A   1      47.183  28.282  22.260  1.00  0.00    -0.744 OA
ENDBRANCH  74  78
ENDBRANCH  57  71
BRANCH  58  82
ATOM     82  C   UNL A   1      38.640  30.675  31.246  1.00  0.00     0.023 A 
ATOM     83  C   UNL A   1      37.738  31.563  30.628  1.00  0.00     0.031 A 
ATOM     84  C   UNL A   1      38.382  30.289  32.571  1.00  0.00     0.131 A 
ATOM     85  C   UNL A   1      36.669  32.093  31.363  1.00  0.00     0.055 A 
ATOM     86  C   UNL A   1      37.268  30.757  33.272  1.00  0.00     0.041 A 
ATOM     87  F   UNL A   1      39.221  29.460  33.210  1.00  0.00    -0.206 F 
ATOM     88  C   UNL A   1      36.416  31.680  32.673  1.00  0.00     0.022 A 
BRANCH  85  89
ATOM     89  S   UNL A   1      35.664  33.445  30.690  1.00  0.00     0.124 S 
ATOM     90  O   UNL A   1      34.382  32.788  30.460  1.00  0.00    -0.237 OA
ATOM     91  O   UNL A   1      35.691  34.409  31.789  1.00  0.00    -0.237 OA
ATOM     92  O   UNL A   1      36.390  33.852  29.492  1.00  0.00    -0.744 OA
ENDBRANCH  85  89
ENDBRANCH  58  82
BRANCH  70  93
ATOM     93  C   UNL A   1      44.806  33.798  29.855  1.00  0.00     0.023 A 
ATOM     94  C   UNL A   1      44.620  34.859  28.946  1.00  0.00     0.031 A 
ATOM     95  C   UNL A   1      45.681  33.998  30.935  1.00  0.00     0.131 A 
ATOM     96  C   UNL A   1      45.345  36.047  29.100  1.00  0.00     0.055 A 
ATOM     97  C   UNL A   1      46.355  35.207  31.119  1.00  0.00     0.041 A 
ATOM     98  F   UNL A   1      45.904  33.016  31.823  1.00  0.00    -0.206 F 
ATOM     99  C   UNL A   1      46.202  36.231  30.189  1.00  0.00     0.022 A 
BRANCH  96 100
ATOM    100  S   UNL A   1      45.286  37.350  27.839  1.00  0.00     0.124 S 
ATOM    101  O   UNL A   1      44.152  36.928  27.021  1.00  0.00    -0.237 OA
ATOM    102  O   UNL A   1      45.061  38.547  28.646  1.00  0.00    -0.237 OA
ATOM    103  O   UNL A   1      46.588  37.269  27.186  1.00  0.00    -0.744 OA
ENDBRANCH  96 100
ENDBRANCH  70  93
ENDBRANCH  44  45
ENDBRANCH  37  39
ENDBRANCH  36  37
ENDBRANCH  35  36
ENDBRANCH  34  35
ENDBRANCH   1  34
TORSDOF 20
ENDMDL
MODEL 3
REMARK VINA RESULT:     -11.5      1.716      2.223
REMARK SMILES Cc1ccc2cc(C[N@H+]3CC[NH2+][C@H](C(=O)OCCOCCOC(=O)c4ccc(-c5c6nc(c(-c7cc(S(=O)(=O)[O-])ccc7F)c7ccc([nH]7)c(-c7cc(S(=O)(=O)[O-])ccc7F)c7nc(c(-c8cc(S(=O)(=O)[O-])ccc8F)c8ccc5[nH]8)C=C7)C=C6)cc4)C3)c(N3CCOCC3)nc2c1
REMARK SMILES IDX 19 1 18 2 17 3 16 4 14 5 15 6 13 7 9 8 10 9 88 10 11 12
REMARK SMILES IDX 12 13 8 16 7 17 1 18 2 19 3 20 98 21 4 22 97 23 5 24 96 25
REMARK SMILES IDX 6 26 89 27 90 28 91 29 95 30 92 31 94 32 93 33 20 34 21 35
REMARK SMILES IDX 22 36 23 37 24 38 25 39 26 40 87 41 27 42 86 43 28 44 29 45
REMARK SMILES IDX 30 46 80 47 31 48 85 49 79 50 81 51 32 52 84 53 78 54 77 55
REMARK SMILES IDX 33 57 65 58 45 59 64 60 46 61 49 62 63 63 82 64 47 65 48 66
REMARK SMILES IDX 62 68 83 69 50 70 34 71 35 72 43 73 36 74 42 75 44 76 41 77
REMARK SMILES IDX 37 78 38 79 39 80 40 81 66 82 67 83 75 84 68 85 74 86 76 87
REMARK SMILES IDX 73 88 69 89 70 90 71 91 72 92 51 93 52 94 60 95 53 96 59 97
REMARK SMILES IDX 61 98 58 99 54 100 55 101 56 102 57 103
REMARK H PARENT 9 11 12 14 12 15 81 56 49 67
REMARK Flexibility Score: inf
ROOT
ATOM      1  O   UNL A   1      30.700  29.607  24.796  1.00  0.00    -0.374 OA
ENDROOT
BRANCH   1   2
ATOM      2  C   UNL A   1      30.683  28.301  24.216  1.00  0.00     0.202 C 
BRANCH   2   3
ATOM      3  C   UNL A   1      31.347  27.162  25.005  1.00  0.00     0.261 C 
BRANCH   3   4
ATOM      4  O   UNL A   1      32.785  27.206  24.985  1.00  0.00    -0.459 OA
BRANCH   4   5
ATOM      5  C   UNL A   1      33.364  26.732  23.840  1.00  0.00     0.371 C 
ATOM      6  O   UNL A   1      33.845  27.436  22.958  1.00  0.00    -0.245 OA
BRANCH   5   7
ATOM      7  C   UNL A   1      33.400  25.193  23.835  1.00  0.00     0.348 C 
ATOM      8  N   UNL A   1      35.162  23.292  24.062  1.00  0.00    -0.321 N 
ATOM      9  C   UNL A   1      34.636  22.794  22.787  1.00  0.00     0.324 C 
ATOM     10  C   UNL A   1      34.819  24.707  24.254  1.00  0.00     0.341 C 
ATOM     11  H   UNL A   1      36.179  23.256  23.994  1.00  0.00     0.348 HD
ATOM     12  C   UNL A   1      33.210  23.254  22.417  1.00  0.00     0.323 C 
ATOM     13  N   UNL A   1      33.020  24.704  22.481  1.00  0.00    -0.325 N 
ATOM     14  H   UNL A   1      32.040  24.927  22.301  1.00  0.00     0.347 HD
ATOM     15  H   UNL A   1      33.604  25.157  21.778  1.00  0.00     0.347 HD
BRANCH   8  16
ATOM     16  C   UNL A   1      34.964  22.406  25.226  1.00  0.00     0.303 C 
BRANCH  16  17
ATOM     17  C   UNL A   1      34.125  21.171  25.007  1.00  0.00     0.049 A 
ATOM     18  C   UNL A   1      32.659  14.885  25.390  1.00  0.00     0.044 C 
ATOM     19  C   UNL A   1      33.203  16.260  25.138  1.00  0.00    -0.049 A 
ATOM     20  C   UNL A   1      34.462  16.397  24.554  1.00  0.00     0.004 A 
ATOM     21  C   UNL A   1      32.449  17.415  25.437  1.00  0.00     0.032 A 
ATOM     22  C   UNL A   1      34.955  17.663  24.276  1.00  0.00     0.010 A 
ATOM     23  C   UNL A   1      32.937  18.704  25.216  1.00  0.00     0.073 A 
ATOM     24  C   UNL A   1      34.202  18.798  24.610  1.00  0.00     0.001 A 
ATOM     25  N   UNL A   1      32.244  19.807  25.605  1.00  0.00    -0.230 NA
ATOM     26  C   UNL A   1      34.753  20.057  24.442  1.00  0.00     0.023 A 
ATOM     27  C   UNL A   1      32.821  21.029  25.500  1.00  0.00     0.138 A 
BRANCH  27  28
ATOM     28  N   UNL A   1      32.144  22.142  25.966  1.00  0.00    -0.352 N 
ATOM     29  C   UNL A   1      30.726  22.297  25.619  1.00  0.00     0.146 C 
ATOM     30  C   UNL A   1      32.486  22.736  27.257  1.00  0.00     0.146 C 
ATOM     31  C   UNL A   1      30.404  23.801  25.595  1.00  0.00     0.181 C 
ATOM     32  C   UNL A   1      32.103  24.231  27.197  1.00  0.00     0.181 C 
ATOM     33  O   UNL A   1      30.716  24.427  26.855  1.00  0.00    -0.378 OA
ENDBRANCH  27  28
ENDBRANCH  16  17
ENDBRANCH   8  16
ENDBRANCH   5   7
ENDBRANCH   4   5
ENDBRANCH   3   4
ENDBRANCH   2   3
ENDBRANCH   1   2
BRANCH   1  34
ATOM     34  C   UNL A   1      31.973  30.069  25.238  1.00  0.00     0.202 C 
BRANCH  34  35
ATOM     35  C   UNL A   1      32.026  30.904  26.518  1.00  0.00     0.261 C 
BRANCH  35  36
ATOM     36  O   UNL A   1      33.167  30.544  27.316  1.00  0.00    -0.460 OA
BRANCH  36  37
ATOM     37  C   UNL A   1      33.928  31.592  27.712  1.00  0.00     0.338 C 
ATOM     38  O   UNL A   1      33.553  32.738  27.900  1.00  0.00    -0.246 OA
BRANCH  37  39
ATOM     39  C   UNL A   1      35.263  31.099  28.108  1.00  0.00     0.060 A 
ATOM     40  C   UNL A   1      36.347  31.959  28.295  1.00  0.00     0.016 A 
ATOM     41  C   UNL A   1      35.410  29.719  28.297  1.00  0.00     0.016 A 
ATOM     42  C   UNL A   1      37.570  31.434  28.721  1.00  0.00     0.010 A 
ATOM     43  C   UNL A   1      36.630  29.196  28.724  1.00  0.00     0.010 A 
ATOM     44  C   UNL A   1      37.711  30.053  28.968  1.00  0.00    -0.014 A 
BRANCH  44  45
ATOM     45  C   UNL A   1      38.924  29.534  29.647  1.00  0.00     0.031 A 
ATOM     46  C   UNL A   1      39.424  30.120  30.932  1.00  0.00     0.074 A 
ATOM     47  C   UNL A   1      39.602  28.537  29.046  1.00  0.00     0.049 A 
ATOM     48  N   UNL A   1      40.428  29.726  31.671  1.00  0.00    -0.248 NA
ATOM     49  C   UNL A   1      38.722  31.302  31.451  1.00  0.00     0.031 C 
ATOM     50  C   UNL A   1      39.235  27.943  27.760  1.00  0.00     0.029 A 
ATOM     51  N   UNL A   1      40.727  27.848  29.424  1.00  0.00    -0.354 N 
ATOM     52  C   UNL A   1      40.471  30.595  32.754  1.00  0.00     0.074 A 
ATOM     53  C   UNL A   1      39.423  31.572  32.544  1.00  0.00     0.031 C 
ATOM     54  C   UNL A   1      40.094  26.955  27.473  1.00  0.00     0.029 A 
ATOM     55  C   UNL A   1      41.099  26.871  28.529  1.00  0.00     0.049 A 
ATOM     56  H   UNL A   1      41.221  28.035  30.255  1.00  0.00     0.167 HD
ATOM     57  C   UNL A   1      41.296  30.558  33.826  1.00  0.00     0.034 A 
ATOM     58  C   UNL A   1      42.128  26.000  28.553  1.00  0.00     0.034 A 
ATOM     59  C   UNL A   1      42.343  29.580  34.000  1.00  0.00     0.049 A 
ATOM     60  C   UNL A   1      43.042  25.991  29.751  1.00  0.00     0.074 A 
ATOM     61  C   UNL A   1      43.195  29.428  35.080  1.00  0.00     0.029 A 
ATOM     62  N   UNL A   1      42.696  28.605  33.078  1.00  0.00    -0.354 N 
ATOM     63  N   UNL A   1      42.990  26.736  30.830  1.00  0.00    -0.248 NA
ATOM     64  C   UNL A   1      44.142  25.017  29.751  1.00  0.00     0.031 C 
ATOM     65  C   UNL A   1      44.113  28.422  34.777  1.00  0.00     0.029 A 
ATOM     66  C   UNL A   1      43.776  27.874  33.549  1.00  0.00     0.049 A 
ATOM     67  H   UNL A   1      42.246  28.453  32.216  1.00  0.00     0.167 HD
ATOM     68  C   UNL A   1      44.030  26.303  31.648  1.00  0.00     0.074 A 
ATOM     69  C   UNL A   1      44.677  25.212  30.949  1.00  0.00     0.031 C 
ATOM     70  C   UNL A   1      44.412  26.772  32.862  1.00  0.00     0.034 A 
BRANCH  57  71
ATOM     71  C   UNL A   1      41.107  31.572  34.931  1.00  0.00     0.023 A 
ATOM     72  C   UNL A   1      39.924  31.571  35.697  1.00  0.00     0.031 A 
ATOM     73  C   UNL A   1      42.011  32.635  35.109  1.00  0.00     0.131 A 
ATOM     74  C   UNL A   1      39.655  32.638  36.564  1.00  0.00     0.055 A 
ATOM     75  C   UNL A   1      41.760  33.669  36.012  1.00  0.00     0.041 A 
ATOM     76  F   UNL A   1      43.150  32.687  34.401  1.00  0.00    -0.206 F 
ATOM     77  C   UNL A   1      40.570  33.683  36.731  1.00  0.00     0.022 A 
BRANCH  74  78
ATOM     78  S   UNL A   1      38.072  32.758  37.442  1.00  0.00     0.124 S 
ATOM     79  O   UNL A   1      38.193  34.058  38.099  1.00  0.00    -0.237 OA
ATOM     80  O   UNL A   1      37.111  32.700  36.345  1.00  0.00    -0.237 OA
ATOM     81  O   UNL A   1      38.080  31.607  38.339  1.00  0.00    -0.744 OA
ENDBRANCH  74  78
ENDBRANCH  57  71
BRANCH  58  82
ATOM     82  C   UNL A   1      42.279  25.025  27.432  1.00  0.00     0.023 A 
ATOM     83  C   UNL A   1      41.515  23.843  27.398  1.00  0.00     0.031 A 
ATOM     84  C   UNL A   1      43.270  25.199  26.453  1.00  0.00     0.131 A 
ATOM     85  C   UNL A   1      41.811  22.850  26.454  1.00  0.00     0.055 A 
ATOM     86  C   UNL A   1      43.505  24.242  25.463  1.00  0.00     0.041 A 
ATOM     87  F   UNL A   1      44.036  26.301  26.454  1.00  0.00    -0.206 F 
ATOM     88  C   UNL A   1      42.786  23.051  25.474  1.00  0.00     0.022 A 
BRANCH  85  89
ATOM     89  S   UNL A   1      41.043  21.210  26.563  1.00  0.00     0.124 S 
ATOM     90  O   UNL A   1      40.811  21.076  27.997  1.00  0.00    -0.237 OA
ATOM     91  O   UNL A   1      39.846  21.389  25.744  1.00  0.00    -0.237 OA
ATOM     92  O   UNL A   1      42.051  20.318  26.000  1.00  0.00    -0.744 OA
ENDBRANCH  85  89
ENDBRANCH  58  82
BRANCH  70  93
ATOM     93  C   UNL A   1      45.585  26.121  33.562  1.00  0.00     0.023 A 
ATOM     94  C   UNL A   1      45.365  25.036  34.434  1.00  0.00     0.031 A 
ATOM     95  C   UNL A   1      46.876  26.672  33.505  1.00  0.00     0.131 A 
ATOM     96  C   UNL A   1      46.403  24.578  35.256  1.00  0.00     0.055 A 
ATOM     97  C   UNL A   1      47.923  26.171  34.281  1.00  0.00     0.041 A 
ATOM     98  F   UNL A   1      47.138  27.714  32.699  1.00  0.00    -0.206 F 
ATOM     99  C   UNL A   1      47.684  25.132  35.175  1.00  0.00     0.022 A 
BRANCH  96 100
ATOM    100  S   UNL A   1      46.101  23.325  36.533  1.00  0.00     0.124 S 
ATOM    101  O   UNL A   1      47.360  22.584  36.534  1.00  0.00    -0.237 OA
ATOM    102  O   UNL A   1      45.861  24.146  37.717  1.00  0.00    -0.237 OA
ATOM    103  O   UNL A   1      44.945  22.586  36.037  1.00  0.00    -0.744 OA
ENDBRANCH  96 100
ENDBRANCH  70  93
ENDBRANCH  44  45
ENDBRANCH  37  39
ENDBRANCH  36  37
ENDBRANCH  35  36
ENDBRANCH  34  35
ENDBRANCH   1  34
TORSDOF 20
ENDMDL
