MODEL 1
REMARK VINA RESULT:     -11.8      0.000      0.000
REMARK SMILES Cc1cc2n(n1)[C@H](C(F)(F)F)CCN2C(=O)c1cnn([C@@H](C)C(=O)OCCOCCOC(=O)c2ccc(-c3c4nc(c(-c5cc(S(=O)(=O)[O-])ccc5F)c5ccc([nH]5)c(-c5cc(S(=O)(=O)[O-])ccc5F)c5nc(c(-c6cc(S(=O)(=O)[O-])ccc6F)c6ccc3[nH]6)C=C5)C=C4)cc2)c1
REMARK SMILES IDX 27 1 26 2 25 3 23 4 24 5 21 6 22 7 20 8 17 9 18 10 97 11
REMARK SMILES IDX 19 12 15 13 16 14 14 15 1 16 2 17 3 18 6 19 4 20 5 21 7 22
REMARK SMILES IDX 13 23 12 24 8 25 9 26 10 27 11 28 28 29 29 30 30 31 31 32
REMARK SMILES IDX 32 33 33 34 34 35 35 36 96 37 36 38 95 39 37 40 38 41 39 42
REMARK SMILES IDX 89 43 40 44 94 45 88 46 90 47 41 48 93 49 87 50 86 51 42 53
REMARK SMILES IDX 74 54 54 55 73 56 55 57 58 58 72 59 91 60 56 61 57 62 71 64
REMARK SMILES IDX 92 65 59 66 43 67 44 68 52 69 45 70 51 71 53 72 50 73 46 74
REMARK SMILES IDX 47 75 48 76 49 77 75 78 76 79 84 80 77 81 83 82 85 83 82 84
REMARK SMILES IDX 78 85 79 86 80 87 81 88 60 89 61 90 69 91 62 92 68 93 70 94
REMARK SMILES IDX 67 95 63 96 64 97 65 98 66 99
REMARK H PARENT 90 52 58 63
REMARK Flexibility Score: inf
ROOT
ATOM      1  C   UNL A   1      37.320  22.084  24.911  1.00  0.00     0.202 C 
ENDROOT
BRANCH   1   2
ATOM      2  C   UNL A   1      35.923  22.319  25.485  1.00  0.00     0.261 C 
BRANCH   2   3
ATOM      3  O   UNL A   1      34.902  22.248  24.472  1.00  0.00    -0.462 OA
BRANCH   3   4
ATOM      4  C   UNL A   1      34.100  21.157  24.516  1.00  0.00     0.330 C 
ATOM      5  O   UNL A   1      34.493  20.019  24.768  1.00  0.00    -0.250 OA
BRANCH   4   6
ATOM      6  C   UNL A   1      32.645  21.413  24.205  1.00  0.00     0.213 C 
ATOM      7  C   UNL A   1      32.517  21.886  22.761  1.00  0.00     0.046 C 
BRANCH   6   8
ATOM      8  N   UNL A   1      31.899  22.267  25.134  1.00  0.00    -0.258 N 
ATOM      9  C   UNL A   1      30.868  24.074  25.918  1.00  0.00     0.078 A 
ATOM     10  C   UNL A   1      31.488  23.314  26.929  1.00  0.00     0.149 A 
ATOM     11  C   UNL A   1      31.096  23.326  24.774  1.00  0.00     0.123 A 
ATOM     12  N   UNL A   1      32.182  22.280  26.451  1.00  0.00    -0.180 NA
BRANCH   9  13
ATOM     13  C   UNL A   1      30.100  25.302  26.002  1.00  0.00     0.262 C 
ATOM     14  O   UNL A   1      29.158  25.447  26.761  1.00  0.00    -0.269 OA
BRANCH  13  15
ATOM     15  N   UNL A   1      30.449  26.306  24.993  1.00  0.00    -0.293 N 
ATOM     16  C   UNL A   1      33.051  29.987  27.265  1.00  0.00     0.069 C 
ATOM     17  C   UNL A   1      32.309  29.111  26.324  1.00  0.00     0.062 A 
ATOM     18  C   UNL A   1      31.762  27.818  26.557  1.00  0.00     0.072 A 
ATOM     19  N   UNL A   1      32.090  29.514  25.068  1.00  0.00    -0.176 NA
ATOM     20  C   UNL A   1      31.163  27.456  25.371  1.00  0.00     0.134 A 
ATOM     21  N   UNL A   1      31.399  28.509  24.526  1.00  0.00    -0.237 N 
ATOM     22  C   UNL A   1      30.991  28.565  23.144  1.00  0.00     0.216 C 
ATOM     23  C   UNL A   1      29.866  26.286  23.627  1.00  0.00     0.130 C 
ATOM     24  C   UNL A   1      30.625  27.168  22.631  1.00  0.00     0.059 C 
BRANCH  22  25
ATOM     25  C   UNL A   1      29.860  29.552  22.960  1.00  0.00     0.410 C 
ATOM     26  F   UNL A   1      29.985  30.228  21.793  1.00  0.00    -0.169 F 
ATOM     27  F   UNL A   1      28.635  28.999  22.997  1.00  0.00    -0.169 F 
ATOM     28  F   UNL A   1      29.899  30.481  23.950  1.00  0.00    -0.169 F 
ENDBRANCH  22  25
ENDBRANCH  13  15
ENDBRANCH   9  13
ENDBRANCH   6   8
ENDBRANCH   4   6
ENDBRANCH   3   4
ENDBRANCH   2   3
ENDBRANCH   1   2
BRANCH   1  29
ATOM     29  O   UNL A   1      37.862  20.775  25.074  1.00  0.00    -0.374 OA
BRANCH  29  30
ATOM     30  C   UNL A   1      39.199  20.637  25.539  1.00  0.00     0.202 C 
BRANCH  30  31
ATOM     31  C   UNL A   1      39.863  19.273  25.422  1.00  0.00     0.261 C 
BRANCH  31  32
ATOM     32  O   UNL A   1      41.006  19.130  26.259  1.00  0.00    -0.460 OA
BRANCH  32  33
ATOM     33  C   UNL A   1      42.125  19.712  25.758  1.00  0.00     0.338 C 
ATOM     34  O   UNL A   1      42.884  19.234  24.933  1.00  0.00    -0.246 OA
BRANCH  33  35
ATOM     35  C   UNL A   1      42.398  20.947  26.509  1.00  0.00     0.060 A 
ATOM     36  C   UNL A   1      41.994  20.984  27.841  1.00  0.00     0.016 A 
ATOM     37  C   UNL A   1      42.842  22.103  25.852  1.00  0.00     0.016 A 
ATOM     38  C   UNL A   1      41.899  22.213  28.465  1.00  0.00     0.010 A 
ATOM     39  C   UNL A   1      42.747  23.332  26.473  1.00  0.00     0.010 A 
ATOM     40  C   UNL A   1      42.222  23.384  27.759  1.00  0.00    -0.014 A 
BRANCH  40  41
ATOM     41  C   UNL A   1      42.262  24.632  28.507  1.00  0.00     0.031 A 
ATOM     42  C   UNL A   1      41.116  25.483  28.129  1.00  0.00     0.074 A 
ATOM     43  C   UNL A   1      43.155  24.960  29.463  1.00  0.00     0.049 A 
ATOM     44  N   UNL A   1      41.124  26.426  27.249  1.00  0.00    -0.248 NA
ATOM     45  C   UNL A   1      39.762  25.071  28.543  1.00  0.00     0.031 C 
ATOM     46  C   UNL A   1      44.158  24.081  30.068  1.00  0.00     0.029 A 
ATOM     47  N   UNL A   1      43.317  26.131  30.154  1.00  0.00    -0.354 N 
ATOM     48  C   UNL A   1      39.850  26.972  27.319  1.00  0.00     0.074 A 
ATOM     49  C   UNL A   1      39.014  25.935  27.851  1.00  0.00     0.031 C 
ATOM     50  C   UNL A   1      44.674  24.677  31.169  1.00  0.00     0.029 A 
ATOM     51  C   UNL A   1      44.151  26.033  31.270  1.00  0.00     0.049 A 
ATOM     52  H   UNL A   1      42.883  26.974  29.887  1.00  0.00     0.167 HD
ATOM     53  C   UNL A   1      39.731  28.325  27.388  1.00  0.00     0.034 A 
ATOM     54  C   UNL A   1      44.405  26.987  32.209  1.00  0.00     0.034 A 
ATOM     55  C   UNL A   1      40.959  28.958  26.945  1.00  0.00     0.049 A 
ATOM     56  C   UNL A   1      44.197  28.302  31.565  1.00  0.00     0.074 A 
ATOM     57  C   UNL A   1      41.637  29.143  25.760  1.00  0.00     0.029 A 
ATOM     58  N   UNL A   1      41.860  29.172  27.957  1.00  0.00    -0.354 N 
ATOM     59  N   UNL A   1      44.956  28.733  30.595  1.00  0.00    -0.248 NA
ATOM     60  C   UNL A   1      42.923  28.998  31.712  1.00  0.00     0.031 C 
ATOM     61  C   UNL A   1      43.004  29.380  26.106  1.00  0.00     0.029 A 
ATOM     62  C   UNL A   1      43.128  29.389  27.491  1.00  0.00     0.049 A 
ATOM     63  H   UNL A   1      41.620  29.170  28.911  1.00  0.00     0.167 HD
ATOM     64  C   UNL A   1      44.096  29.421  29.765  1.00  0.00     0.074 A 
ATOM     65  C   UNL A   1      42.920  29.703  30.578  1.00  0.00     0.031 C 
ATOM     66  C   UNL A   1      44.255  29.376  28.410  1.00  0.00     0.034 A 
BRANCH  53  67
ATOM     67  C   UNL A   1      38.818  29.047  28.376  1.00  0.00     0.023 A 
ATOM     68  C   UNL A   1      39.082  28.828  29.743  1.00  0.00     0.031 A 
ATOM     69  C   UNL A   1      37.565  29.644  28.091  1.00  0.00     0.131 A 
ATOM     70  C   UNL A   1      38.107  29.085  30.723  1.00  0.00     0.055 A 
ATOM     71  C   UNL A   1      36.615  29.935  29.074  1.00  0.00     0.041 A 
ATOM     72  F   UNL A   1      37.140  29.911  26.853  1.00  0.00    -0.206 F 
ATOM     73  C   UNL A   1      36.870  29.629  30.396  1.00  0.00     0.022 A 
BRANCH  70  74
ATOM     74  S   UNL A   1      38.430  28.550  32.420  1.00  0.00     0.124 S 
ATOM     75  O   UNL A   1      39.449  29.505  32.836  1.00  0.00    -0.237 OA
ATOM     76  O   UNL A   1      37.112  28.696  33.032  1.00  0.00    -0.237 OA
ATOM     77  O   UNL A   1      38.888  27.173  32.254  1.00  0.00    -0.744 OA
ENDBRANCH  70  74
ENDBRANCH  53  67
BRANCH  54  78
ATOM     78  C   UNL A   1      44.603  26.830  33.681  1.00  0.00     0.023 A 
ATOM     79  C   UNL A   1      43.534  26.814  34.612  1.00  0.00     0.031 A 
ATOM     80  C   UNL A   1      45.862  26.408  34.163  1.00  0.00     0.131 A 
ATOM     81  C   UNL A   1      43.748  26.369  35.941  1.00  0.00     0.055 A 
ATOM     82  C   UNL A   1      46.063  25.965  35.473  1.00  0.00     0.041 A 
ATOM     83  F   UNL A   1      46.925  26.325  33.349  1.00  0.00    -0.206 F 
ATOM     84  C   UNL A   1      45.003  25.929  36.364  1.00  0.00     0.022 A 
BRANCH  81  85
ATOM     85  S   UNL A   1      42.368  26.261  37.135  1.00  0.00     0.124 S 
ATOM     86  O   UNL A   1      43.054  26.406  38.413  1.00  0.00    -0.237 OA
ATOM     87  O   UNL A   1      41.510  27.365  36.725  1.00  0.00    -0.237 OA
ATOM     88  O   UNL A   1      41.811  24.930  36.888  1.00  0.00    -0.744 OA
ENDBRANCH  81  85
ENDBRANCH  54  78
BRANCH  66  89
ATOM     89  C   UNL A   1      45.656  29.230  27.875  1.00  0.00     0.023 A 
ATOM     90  C   UNL A   1      46.272  28.019  27.493  1.00  0.00     0.031 A 
ATOM     91  C   UNL A   1      46.414  30.410  27.768  1.00  0.00     0.131 A 
ATOM     92  C   UNL A   1      47.607  28.023  27.042  1.00  0.00     0.055 A 
ATOM     93  C   UNL A   1      47.727  30.413  27.304  1.00  0.00     0.041 A 
ATOM     94  F   UNL A   1      45.885  31.595  28.117  1.00  0.00    -0.206 F 
ATOM     95  C   UNL A   1      48.332  29.215  26.947  1.00  0.00     0.022 A 
BRANCH  92  96
ATOM     96  S   UNL A   1      48.444  26.463  26.613  1.00  0.00     0.124 S 
ATOM     97  O   UNL A   1      47.636  25.926  25.525  1.00  0.00    -0.237 OA
ATOM     98  O   UNL A   1      49.782  26.918  26.245  1.00  0.00    -0.237 OA
ATOM     99  O   UNL A   1      48.385  25.692  27.856  1.00  0.00    -0.744 OA
ENDBRANCH  92  96
ENDBRANCH  66  89
ENDBRANCH  40  41
ENDBRANCH  33  35
ENDBRANCH  32  33
ENDBRANCH  31  32
ENDBRANCH  30  31
ENDBRANCH  29  30
ENDBRANCH   1  29
TORSDOF 21
ENDMDL
MODEL 2
REMARK VINA RESULT:     -11.7      5.175      9.898
REMARK SMILES Cc1cc2n(n1)[C@H](C(F)(F)F)CCN2C(=O)c1cnn([C@@H](C)C(=O)OCCOCCOC(=O)c2ccc(-c3c4nc(c(-c5cc(S(=O)(=O)[O-])ccc5F)c5ccc([nH]5)c(-c5cc(S(=O)(=O)[O-])ccc5F)c5nc(c(-c6cc(S(=O)(=O)[O-])ccc6F)c6ccc3[nH]6)C=C5)C=C4)cc2)c1
REMARK SMILES IDX 27 1 26 2 25 3 23 4 24 5 21 6 22 7 20 8 17 9 18 10 97 11
REMARK SMILES IDX 19 12 15 13 16 14 14 15 1 16 2 17 3 18 6 19 4 20 5 21 7 22
REMARK SMILES IDX 13 23 12 24 8 25 9 26 10 27 11 28 28 29 29 30 30 31 31 32
REMARK SMILES IDX 32 33 33 34 34 35 35 36 96 37 36 38 95 39 37 40 38 41 39 42
REMARK SMILES IDX 89 43 40 44 94 45 88 46 90 47 41 48 93 49 87 50 86 51 42 53
REMARK SMILES IDX 74 54 54 55 73 56 55 57 58 58 72 59 91 60 56 61 57 62 71 64
REMARK SMILES IDX 92 65 59 66 43 67 44 68 52 69 45 70 51 71 53 72 50 73 46 74
REMARK SMILES IDX 47 75 48 76 49 77 75 78 76 79 84 80 77 81 83 82 85 83 82 84
REMARK SMILES IDX 78 85 79 86 80 87 81 88 60 89 61 90 69 91 62 92 68 93 70 94
REMARK SMILES IDX 67 95 63 96 64 97 65 98 66 99
REMARK H PARENT 90 52 58 63
REMARK Flexibility Score: inf
ROOT
ATOM      1  C   UNL A   1      33.960  33.889  28.985  1.00  0.00     0.202 C 
ENDROOT
BRANCH   1   2
ATOM      2  C   UNL A   1      34.138  32.932  27.807  1.00  0.00     0.261 C 
BRANCH   2   3
ATOM      3  O   UNL A   1      33.383  31.717  27.978  1.00  0.00    -0.462 OA
BRANCH   3   4
ATOM      4  C   UNL A   1      33.794  30.658  27.241  1.00  0.00     0.330 C 
ATOM      5  O   UNL A   1      34.872  30.086  27.392  1.00  0.00    -0.250 OA
BRANCH   4   6
ATOM      6  C   UNL A   1      32.835  30.210  26.164  1.00  0.00     0.213 C 
ATOM      7  C   UNL A   1      31.539  31.004  26.285  1.00  0.00     0.046 C 
BRANCH   6   8
ATOM      8  N   UNL A   1      32.591  28.770  26.038  1.00  0.00    -0.258 N 
ATOM      9  C   UNL A   1      32.372  26.780  25.071  1.00  0.00     0.078 A 
ATOM     10  C   UNL A   1      31.524  26.945  26.183  1.00  0.00     0.149 A 
ATOM     11  C   UNL A   1      33.101  27.958  25.049  1.00  0.00     0.123 A 
ATOM     12  N   UNL A   1      31.589  28.170  26.709  1.00  0.00    -0.180 NA
BRANCH   9  13
ATOM     13  C   UNL A   1      32.542  25.648  24.179  1.00  0.00     0.262 C 
ATOM     14  O   UNL A   1      32.479  25.742  22.966  1.00  0.00    -0.269 OA
BRANCH  13  15
ATOM     15  N   UNL A   1      32.643  24.352  24.856  1.00  0.00    -0.293 N 
ATOM     16  C   UNL A   1      37.503  23.510  25.932  1.00  0.00     0.069 C 
ATOM     17  C   UNL A   1      36.033  23.441  25.740  1.00  0.00     0.062 A 
ATOM     18  C   UNL A   1      35.153  24.443  25.244  1.00  0.00     0.072 A 
ATOM     19  N   UNL A   1      35.370  22.325  26.059  1.00  0.00    -0.176 NA
ATOM     20  C   UNL A   1      33.902  23.866  25.248  1.00  0.00     0.134 A 
ATOM     21  N   UNL A   1      34.102  22.607  25.749  1.00  0.00    -0.237 N 
ATOM     22  C   UNL A   1      33.061  21.635  25.979  1.00  0.00     0.216 C 
ATOM     23  C   UNL A   1      31.498  23.410  24.928  1.00  0.00     0.130 C 
ATOM     24  C   UNL A   1      31.684  22.308  25.977  1.00  0.00     0.059 C 
BRANCH  22  25
ATOM     25  C   UNL A   1      33.146  20.511  24.970  1.00  0.00     0.410 C 
ATOM     26  F   UNL A   1      33.942  19.512  25.416  1.00  0.00    -0.169 F 
ATOM     27  F   UNL A   1      31.956  19.983  24.633  1.00  0.00    -0.169 F 
ATOM     28  F   UNL A   1      33.708  20.970  23.822  1.00  0.00    -0.169 F 
ENDBRANCH  22  25
ENDBRANCH  13  15
ENDBRANCH   9  13
ENDBRANCH   6   8
ENDBRANCH   4   6
ENDBRANCH   3   4
ENDBRANCH   2   3
ENDBRANCH   1   2
BRANCH   1  29
ATOM     29  O   UNL A   1      34.399  35.231  28.785  1.00  0.00    -0.374 OA
BRANCH  29  30
ATOM     30  C   UNL A   1      33.511  36.299  29.095  1.00  0.00     0.202 C 
BRANCH  30  31
ATOM     31  C   UNL A   1      32.447  36.063  30.157  1.00  0.00     0.261 C 
BRANCH  31  32
ATOM     32  O   UNL A   1      32.900  36.338  31.478  1.00  0.00    -0.460 OA
BRANCH  32  33
ATOM     33  C   UNL A   1      32.707  35.313  32.346  1.00  0.00     0.338 C 
ATOM     34  O   UNL A   1      31.714  35.116  33.026  1.00  0.00    -0.246 OA
BRANCH  33  35
ATOM     35  C   UNL A   1      33.966  34.568  32.493  1.00  0.00     0.060 A 
ATOM     36  C   UNL A   1      35.149  35.301  32.448  1.00  0.00     0.016 A 
ATOM     37  C   UNL A   1      33.978  33.166  32.458  1.00  0.00     0.016 A 
ATOM     38  C   UNL A   1      36.333  34.626  32.220  1.00  0.00     0.010 A 
ATOM     39  C   UNL A   1      35.159  32.490  32.228  1.00  0.00     0.010 A 
ATOM     40  C   UNL A   1      36.322  33.231  32.054  1.00  0.00    -0.014 A 
BRANCH  40  41
ATOM     41  C   UNL A   1      37.607  32.552  31.979  1.00  0.00     0.031 A 
ATOM     42  C   UNL A   1      38.223  32.489  33.320  1.00  0.00     0.074 A 
ATOM     43  C   UNL A   1      38.147  31.985  30.880  1.00  0.00     0.049 A 
ATOM     44  N   UNL A   1      39.092  33.314  33.799  1.00  0.00    -0.248 NA
ATOM     45  C   UNL A   1      37.617  31.611  34.337  1.00  0.00     0.031 C 
ATOM     46  C   UNL A   1      37.495  31.784  29.585  1.00  0.00     0.029 A 
ATOM     47  N   UNL A   1      39.374  31.403  30.700  1.00  0.00    -0.354 N 
ATOM     48  C   UNL A   1      39.416  32.788  35.041  1.00  0.00     0.074 A 
ATOM     49  C   UNL A   1      38.291  31.986  35.427  1.00  0.00     0.031 C 
ATOM     50  C   UNL A   1      38.244  30.947  28.828  1.00  0.00     0.029 A 
ATOM     51  C   UNL A   1      39.495  30.665  29.520  1.00  0.00     0.049 A 
ATOM     52  H   UNL A   1      40.110  31.496  31.347  1.00  0.00     0.167 HD
ATOM     53  C   UNL A   1      40.732  32.683  35.373  1.00  0.00     0.034 A 
ATOM     54  C   UNL A   1      40.540  29.885  29.127  1.00  0.00     0.034 A 
ATOM     55  C   UNL A   1      41.532  33.543  34.522  1.00  0.00     0.049 A 
ATOM     56  C   UNL A   1      41.754  30.413  29.788  1.00  0.00     0.074 A 
ATOM     57  C   UNL A   1      41.748  34.894  34.358  1.00  0.00     0.029 A 
ATOM     58  N   UNL A   1      41.964  32.928  33.375  1.00  0.00    -0.354 N 
ATOM     59  N   UNL A   1      42.239  31.593  29.518  1.00  0.00    -0.248 NA
ATOM     60  C   UNL A   1      42.232  29.814  31.030  1.00  0.00     0.031 C 
ATOM     61  C   UNL A   1      42.236  35.068  33.025  1.00  0.00     0.029 A 
ATOM     62  C   UNL A   1      42.362  33.822  32.419  1.00  0.00     0.049 A 
ATOM     63  H   UNL A   1      41.988  31.952  33.255  1.00  0.00     0.167 HD
ATOM     64  C   UNL A   1      42.713  32.055  30.728  1.00  0.00     0.074 A 
ATOM     65  C   UNL A   1      42.846  30.872  31.567  1.00  0.00     0.031 C 
ATOM     66  C   UNL A   1      42.603  33.376  31.057  1.00  0.00     0.034 A 
BRANCH  53  67
ATOM     67  C   UNL A   1      41.354  31.433  35.990  1.00  0.00     0.023 A 
ATOM     68  C   UNL A   1      42.316  31.648  36.997  1.00  0.00     0.031 A 
ATOM     69  C   UNL A   1      41.317  30.119  35.462  1.00  0.00     0.131 A 
ATOM     70  C   UNL A   1      43.238  30.646  37.349  1.00  0.00     0.055 A 
ATOM     71  C   UNL A   1      42.208  29.114  35.845  1.00  0.00     0.041 A 
ATOM     72  F   UNL A   1      40.480  29.738  34.492  1.00  0.00    -0.206 F 
ATOM     73  C   UNL A   1      43.195  29.381  36.773  1.00  0.00     0.022 A 
BRANCH  70  74
ATOM     74  S   UNL A   1      44.592  31.076  38.468  1.00  0.00     0.124 S 
ATOM     75  O   UNL A   1      44.944  29.770  39.012  1.00  0.00    -0.237 OA
ATOM     76  O   UNL A   1      45.553  31.679  37.551  1.00  0.00    -0.237 OA
ATOM     77  O   UNL A   1      43.964  32.001  39.409  1.00  0.00    -0.744 OA
ENDBRANCH  70  74
ENDBRANCH  53  67
BRANCH  54  78
ATOM     78  C   UNL A   1      40.520  28.585  28.392  1.00  0.00     0.023 A 
ATOM     79  C   UNL A   1      41.359  28.306  27.284  1.00  0.00     0.031 A 
ATOM     80  C   UNL A   1      39.851  27.482  28.966  1.00  0.00     0.131 A 
ATOM     81  C   UNL A   1      41.512  26.975  26.819  1.00  0.00     0.055 A 
ATOM     82  C   UNL A   1      40.013  26.173  28.506  1.00  0.00     0.041 A 
ATOM     83  F   UNL A   1      39.084  27.627  30.058  1.00  0.00    -0.206 F 
ATOM     84  C   UNL A   1      40.856  25.911  27.440  1.00  0.00     0.022 A 
BRANCH  81  85
ATOM     85  S   UNL A   1      42.651  26.580  25.445  1.00  0.00     0.124 S 
ATOM     86  O   UNL A   1      43.939  26.505  26.123  1.00  0.00    -0.237 OA
ATOM     87  O   UNL A   1      42.107  25.328  24.934  1.00  0.00    -0.237 OA
ATOM     88  O   UNL A   1      42.501  27.723  24.542  1.00  0.00    -0.744 OA
ENDBRANCH  81  85
ENDBRANCH  54  78
BRANCH  66  89
ATOM     89  C   UNL A   1      42.661  34.383  29.937  1.00  0.00     0.023 A 
ATOM     90  C   UNL A   1      43.838  34.891  29.346  1.00  0.00     0.031 A 
ATOM     91  C   UNL A   1      41.430  34.864  29.460  1.00  0.00     0.131 A 
ATOM     92  C   UNL A   1      43.747  35.861  28.327  1.00  0.00     0.055 A 
ATOM     93  C   UNL A   1      41.343  35.808  28.440  1.00  0.00     0.041 A 
ATOM     94  F   UNL A   1      40.274  34.420  29.983  1.00  0.00    -0.206 F 
ATOM     95  C   UNL A   1      42.505  36.317  27.875  1.00  0.00     0.022 A 
BRANCH  92  96
ATOM     96  S   UNL A   1      45.253  36.584  27.600  1.00  0.00     0.124 S 
ATOM     97  O   UNL A   1      45.728  35.548  26.691  1.00  0.00    -0.237 OA
ATOM     98  O   UNL A   1      44.743  37.798  26.969  1.00  0.00    -0.237 OA
ATOM     99  O   UNL A   1      46.112  36.818  28.763  1.00  0.00    -0.744 OA
ENDBRANCH  92  96
ENDBRANCH  66  89
ENDBRANCH  40  41
ENDBRANCH  33  35
ENDBRANCH  32  33
ENDBRANCH  31  32
ENDBRANCH  30  31
ENDBRANCH  29  30
ENDBRANCH   1  29
TORSDOF 21
ENDMDL
MODEL 3
REMARK VINA RESULT:     -11.2      3.403      7.126
REMARK SMILES Cc1cc2n(n1)[C@H](C(F)(F)F)CCN2C(=O)c1cnn([C@@H](C)C(=O)OCCOCCOC(=O)c2ccc(-c3c4nc(c(-c5cc(S(=O)(=O)[O-])ccc5F)c5ccc([nH]5)c(-c5cc(S(=O)(=O)[O-])ccc5F)c5nc(c(-c6cc(S(=O)(=O)[O-])ccc6F)c6ccc3[nH]6)C=C5)C=C4)cc2)c1
REMARK SMILES IDX 27 1 26 2 25 3 23 4 24 5 21 6 22 7 20 8 17 9 18 10 97 11
REMARK SMILES IDX 19 12 15 13 16 14 14 15 1 16 2 17 3 18 6 19 4 20 5 21 7 22
REMARK SMILES IDX 13 23 12 24 8 25 9 26 10 27 11 28 28 29 29 30 30 31 31 32
REMARK SMILES IDX 32 33 33 34 34 35 35 36 96 37 36 38 95 39 37 40 38 41 39 42
REMARK SMILES IDX 89 43 40 44 94 45 88 46 90 47 41 48 93 49 87 50 86 51 42 53
REMARK SMILES IDX 74 54 54 55 73 56 55 57 58 58 72 59 91 60 56 61 57 62 71 64
REMARK SMILES IDX 92 65 59 66 43 67 44 68 52 69 45 70 51 71 53 72 50 73 46 74
REMARK SMILES IDX 47 75 48 76 49 77 75 78 76 79 84 80 77 81 83 82 85 83 82 84
REMARK SMILES IDX 78 85 79 86 80 87 81 88 60 89 61 90 69 91 62 92 68 93 70 94
REMARK SMILES IDX 67 95 63 96 64 97 65 98 66 99
REMARK H PARENT 90 52 58 63
REMARK Flexibility Score: inf
ROOT
ATOM      1  C   UNL A   1      37.166  21.201  25.166  1.00  0.00     0.202 C 
ENDROOT
BRANCH   1   2
ATOM      2  C   UNL A   1      35.750  21.685  24.857  1.00  0.00     0.261 C 
BRANCH   2   3
ATOM      3  O   UNL A   1      35.720  22.594  23.740  1.00  0.00    -0.462 OA
BRANCH   3   4
ATOM      4  C   UNL A   1      34.492  23.008  23.347  1.00  0.00     0.330 C 
ATOM      5  O   UNL A   1      34.291  23.952  22.584  1.00  0.00    -0.250 OA
BRANCH   4   6
ATOM      6  C   UNL A   1      33.333  22.238  23.934  1.00  0.00     0.213 C 
ATOM      7  C   UNL A   1      32.531  21.602  22.804  1.00  0.00     0.046 C 
BRANCH   6   8
ATOM      8  N   UNL A   1      32.475  22.943  24.891  1.00  0.00    -0.258 N 
ATOM      9  C   UNL A   1      31.154  24.530  25.716  1.00  0.00     0.078 A 
ATOM     10  C   UNL A   1      31.941  23.904  26.702  1.00  0.00     0.149 A 
ATOM     11  C   UNL A   1      31.476  23.832  24.562  1.00  0.00     0.123 A 
ATOM     12  N   UNL A   1      32.798  23.015  26.197  1.00  0.00    -0.180 NA
BRANCH   9  13
ATOM     13  C   UNL A   1      30.174  25.594  25.830  1.00  0.00     0.262 C 
ATOM     14  O   UNL A   1      29.189  25.517  26.543  1.00  0.00    -0.269 OA
BRANCH  13  15
ATOM     15  N   UNL A   1      30.379  26.710  24.904  1.00  0.00    -0.293 N 
ATOM     16  C   UNL A   1      32.949  30.318  27.326  1.00  0.00     0.069 C 
ATOM     17  C   UNL A   1      32.183  29.489  26.362  1.00  0.00     0.062 A 
ATOM     18  C   UNL A   1      31.731  28.148  26.505  1.00  0.00     0.072 A 
ATOM     19  N   UNL A   1      31.837  29.996  25.174  1.00  0.00    -0.176 NA
ATOM     20  C   UNL A   1      31.056  27.863  25.339  1.00  0.00     0.134 A 
ATOM     21  N   UNL A   1      31.161  29.005  24.589  1.00  0.00    -0.237 N 
ATOM     22  C   UNL A   1      30.636  29.167  23.255  1.00  0.00     0.216 C 
ATOM     23  C   UNL A   1      29.687  26.783  23.592  1.00  0.00     0.130 C 
ATOM     24  C   UNL A   1      30.308  27.804  22.634  1.00  0.00     0.059 C 
BRANCH  22  25
ATOM     25  C   UNL A   1      29.439  30.092  23.260  1.00  0.00     0.410 C 
ATOM     26  F   UNL A   1      28.298  29.415  23.530  1.00  0.00    -0.169 F 
ATOM     27  F   UNL A   1      29.538  31.115  24.127  1.00  0.00    -0.169 F 
ATOM     28  F   UNL A   1      29.280  30.639  22.026  1.00  0.00    -0.169 F 
ENDBRANCH  22  25
ENDBRANCH  13  15
ENDBRANCH   9  13
ENDBRANCH   6   8
ENDBRANCH   4   6
ENDBRANCH   3   4
ENDBRANCH   2   3
ENDBRANCH   1   2
BRANCH   1  29
ATOM     29  O   UNL A   1      38.009  22.111  25.870  1.00  0.00    -0.374 OA
BRANCH  29  30
ATOM     30  C   UNL A   1      39.421  21.966  25.761  1.00  0.00     0.202 C 
BRANCH  30  31
ATOM     31  C   UNL A   1      40.191  21.502  26.989  1.00  0.00     0.261 C 
BRANCH  31  32
ATOM     32  O   UNL A   1      40.724  22.575  27.757  1.00  0.00    -0.460 OA
BRANCH  32  33
ATOM     33  C   UNL A   1      41.882  23.078  27.260  1.00  0.00     0.338 C 
ATOM     34  O   UNL A   1      42.829  22.437  26.837  1.00  0.00    -0.246 OA
BRANCH  33  35
ATOM     35  C   UNL A   1      41.908  24.531  27.486  1.00  0.00     0.060 A 
ATOM     36  C   UNL A   1      42.726  25.002  28.510  1.00  0.00     0.016 A 
ATOM     37  C   UNL A   1      40.985  25.372  26.848  1.00  0.00     0.016 A 
ATOM     38  C   UNL A   1      42.512  26.281  28.987  1.00  0.00     0.010 A 
ATOM     39  C   UNL A   1      40.768  26.649  27.324  1.00  0.00     0.010 A 
ATOM     40  C   UNL A   1      41.496  27.075  28.430  1.00  0.00    -0.014 A 
BRANCH  40  41
ATOM     41  C   UNL A   1      41.418  28.465  28.855  1.00  0.00     0.031 A 
ATOM     42  C   UNL A   1      42.532  29.235  28.267  1.00  0.00     0.074 A 
ATOM     43  C   UNL A   1      40.443  29.015  29.608  1.00  0.00     0.049 A 
ATOM     44  N   UNL A   1      43.660  29.499  28.836  1.00  0.00    -0.248 NA
ATOM     45  C   UNL A   1      42.527  29.492  26.816  1.00  0.00     0.031 C 
ATOM     46  C   UNL A   1      39.186  28.385  30.015  1.00  0.00     0.029 A 
ATOM     47  N   UNL A   1      40.332  30.281  30.120  1.00  0.00    -0.354 N 
ATOM     48  C   UNL A   1      44.325  30.305  27.924  1.00  0.00     0.074 A 
ATOM     49  C   UNL A   1      43.753  29.995  26.645  1.00  0.00     0.031 C 
ATOM     50  C   UNL A   1      38.354  29.326  30.521  1.00  0.00     0.029 A 
ATOM     51  C   UNL A   1      39.063  30.595  30.611  1.00  0.00     0.049 A 
ATOM     52  H   UNL A   1      41.083  30.917  30.140  1.00  0.00     0.167 HD
ATOM     53  C   UNL A   1      44.906  31.449  28.377  1.00  0.00     0.034 A 
ATOM     54  C   UNL A   1      38.619  31.800  31.066  1.00  0.00     0.034 A 
ATOM     55  C   UNL A   1      45.079  31.383  29.816  1.00  0.00     0.049 A 
ATOM     56  C   UNL A   1      39.799  32.545  31.557  1.00  0.00     0.074 A 
ATOM     57  C   UNL A   1      45.870  30.702  30.715  1.00  0.00     0.029 A 
ATOM     58  N   UNL A   1      44.007  31.871  30.518  1.00  0.00    -0.354 N 
ATOM     59  N   UNL A   1      40.491  32.154  32.591  1.00  0.00    -0.248 NA
ATOM     60  C   UNL A   1      40.466  33.514  30.693  1.00  0.00     0.031 C 
ATOM     61  C   UNL A   1      45.174  30.719  31.964  1.00  0.00     0.029 A 
ATOM     62  C   UNL A   1      44.001  31.454  31.822  1.00  0.00     0.049 A 
ATOM     63  H   UNL A   1      43.319  32.457  30.128  1.00  0.00     0.167 HD
ATOM     64  C   UNL A   1      41.795  32.472  32.273  1.00  0.00     0.074 A 
ATOM     65  C   UNL A   1      41.701  33.452  31.198  1.00  0.00     0.031 C 
ATOM     66  C   UNL A   1      42.820  31.651  32.645  1.00  0.00     0.034 A 
BRANCH  53  67
ATOM     67  C   UNL A   1      44.763  32.804  27.689  1.00  0.00     0.023 A 
ATOM     68  C   UNL A   1      45.936  33.341  27.121  1.00  0.00     0.031 A 
ATOM     69  C   UNL A   1      43.688  33.715  27.829  1.00  0.00     0.131 A 
ATOM     70  C   UNL A   1      46.042  34.713  26.831  1.00  0.00     0.055 A 
ATOM     71  C   UNL A   1      43.785  35.070  27.500  1.00  0.00     0.041 A 
ATOM     72  F   UNL A   1      42.507  33.387  28.360  1.00  0.00    -0.206 F 
ATOM     73  C   UNL A   1      44.976  35.584  27.026  1.00  0.00     0.022 A 
BRANCH  70  74
ATOM     74  S   UNL A   1      47.654  35.366  26.336  1.00  0.00     0.124 S 
ATOM     75  O   UNL A   1      47.312  36.736  25.973  1.00  0.00    -0.237 OA
ATOM     76  O   UNL A   1      48.431  35.191  27.559  1.00  0.00    -0.237 OA
ATOM     77  O   UNL A   1      48.038  34.498  25.226  1.00  0.00    -0.744 OA
ENDBRANCH  70  74
ENDBRANCH  53  67
BRANCH  54  78
ATOM     78  C   UNL A   1      37.275  32.431  30.903  1.00  0.00     0.023 A 
ATOM     79  C   UNL A   1      36.511  32.924  31.990  1.00  0.00     0.031 A 
ATOM     80  C   UNL A   1      36.848  32.811  29.612  1.00  0.00     0.131 A 
ATOM     81  C   UNL A   1      35.397  33.770  31.758  1.00  0.00     0.055 A 
ATOM     82  C   UNL A   1      35.753  33.651  29.391  1.00  0.00     0.041 A 
ATOM     83  F   UNL A   1      37.538  32.452  28.518  1.00  0.00    -0.206 F 
ATOM     84  C   UNL A   1      35.031  34.146  30.465  1.00  0.00     0.022 A 
BRANCH  81  85
ATOM     85  S   UNL A   1      34.446  34.483  33.146  1.00  0.00     0.124 S 
ATOM     86  O   UNL A   1      33.184  34.833  32.508  1.00  0.00    -0.237 OA
ATOM     87  O   UNL A   1      34.413  33.384  34.103  1.00  0.00    -0.237 OA
ATOM     88  O   UNL A   1      35.260  35.628  33.560  1.00  0.00    -0.744 OA
ENDBRANCH  81  85
ENDBRANCH  54  78
BRANCH  66  89
ATOM     89  C   UNL A   1      42.662  30.872  33.926  1.00  0.00     0.023 A 
ATOM     90  C   UNL A   1      42.369  29.495  34.024  1.00  0.00     0.031 A 
ATOM     91  C   UNL A   1      42.802  31.596  35.124  1.00  0.00     0.131 A 
ATOM     92  C   UNL A   1      42.211  28.900  35.292  1.00  0.00     0.055 A 
ATOM     93  C   UNL A   1      42.664  31.002  36.375  1.00  0.00     0.041 A 
ATOM     94  F   UNL A   1      43.079  32.912  35.097  1.00  0.00    -0.206 F 
ATOM     95  C   UNL A   1      42.358  29.650  36.463  1.00  0.00     0.022 A 
BRANCH  92  96
ATOM     96  S   UNL A   1      41.762  27.141  35.440  1.00  0.00     0.124 S 
ATOM     97  O   UNL A   1      40.806  26.937  34.359  1.00  0.00    -0.237 OA
ATOM     98  O   UNL A   1      43.052  26.475  35.280  1.00  0.00    -0.237 OA
ATOM     99  O   UNL A   1      41.192  27.048  36.785  1.00  0.00    -0.744 OA
ENDBRANCH  92  96
ENDBRANCH  66  89
ENDBRANCH  40  41
ENDBRANCH  33  35
ENDBRANCH  32  33
ENDBRANCH  31  32
ENDBRANCH  30  31
ENDBRANCH  29  30
ENDBRANCH   1  29
TORSDOF 21
ENDMDL
