MODEL 1
REMARK VINA RESULT:     -11.7      0.000      0.000
REMARK SMILES O=C(/C=C/c1ccc(NC(=O)[C@@H]2COc3ccccc3C2)cc1)OCCOCCOC(=O)c1ccc(-c2c3nc(c(-c4cc(S(=O)(=O)[O-])ccc4F)c4ccc([nH]4)c(-c4cc(S(=O)(=O)[O-])ccc4F)c4nc(c(-c5cc(S(=O)(=O)[O-])ccc5F)c5ccc2[nH]5)C=C4)C=C3)cc1
REMARK SMILES IDX 27 1 26 2 25 3 24 4 2 5 1 6 3 7 4 8 5 9 6 10 23 11 7 12
REMARK SMILES IDX 22 13 8 14 9 15 10 16 11 18 12 19 13 20 21 21 14 22 20 23
REMARK SMILES IDX 15 24 19 25 16 26 18 27 17 28 28 29 29 30 30 31 31 32 32 33
REMARK SMILES IDX 33 34 34 35 95 36 35 37 94 38 36 39 37 40 38 41 88 42 39 43
REMARK SMILES IDX 93 44 87 45 89 46 40 47 92 48 86 49 85 50 41 52 73 53 53 54
REMARK SMILES IDX 72 55 54 56 57 57 71 58 90 59 55 60 56 61 70 63 91 64 58 65
REMARK SMILES IDX 42 66 43 67 51 68 44 69 50 70 52 71 49 72 45 73 46 74 47 75
REMARK SMILES IDX 48 76 74 77 75 78 83 79 76 80 82 81 84 82 81 83 77 84 78 85
REMARK SMILES IDX 79 86 80 87 59 88 60 89 68 90 61 91 67 92 69 93 66 94 62 95
REMARK SMILES IDX 63 96 64 97 65 98
REMARK H PARENT 9 17 89 51 57 62
REMARK Flexibility Score: inf
ROOT
ATOM      1  O   UNL A   1      35.748  20.012  25.047  1.00  0.00    -0.374 OA
ENDROOT
BRANCH   1   2
ATOM      2  C   UNL A   1      35.907  18.663  24.618  1.00  0.00     0.202 C 
BRANCH   2   3
ATOM      3  C   UNL A   1      34.632  17.838  24.456  1.00  0.00     0.261 C 
BRANCH   3   4
ATOM      4  O   UNL A   1      33.403  18.530  24.760  1.00  0.00    -0.460 OA
BRANCH   4   5
ATOM      5  C   UNL A   1      32.587  19.185  23.902  1.00  0.00     0.330 C 
ATOM      6  O   UNL A   1      32.148  18.626  22.900  1.00  0.00    -0.247 OA
BRANCH   5   7
ATOM      7  C   UNL A   1      32.341  20.623  24.070  1.00  0.00     0.094 C 
ATOM      8  C   UNL A   1      31.750  21.169  25.136  1.00  0.00     0.015 C 
BRANCH   8   9
ATOM      9  C   UNL A   1      31.698  22.607  25.366  1.00  0.00    -0.025 A 
ATOM     10  C   UNL A   1      32.894  23.265  25.673  1.00  0.00     0.010 A 
ATOM     11  C   UNL A   1      30.492  23.304  25.393  1.00  0.00     0.010 A 
ATOM     12  C   UNL A   1      32.877  24.595  26.079  1.00  0.00     0.027 A 
ATOM     13  C   UNL A   1      30.475  24.637  25.803  1.00  0.00     0.027 A 
ATOM     14  C   UNL A   1      31.666  25.280  26.155  1.00  0.00     0.041 A 
BRANCH  14  15
ATOM     15  N   UNL A   1      31.593  26.563  26.706  1.00  0.00    -0.326 N 
ATOM     16  C   UNL A   1      32.075  27.733  26.168  1.00  0.00     0.231 C 
ATOM     17  H   UNL A   1      31.146  26.636  27.579  1.00  0.00     0.169 HD
ATOM     18  O   UNL A   1      32.730  28.496  26.879  1.00  0.00    -0.274 OA
BRANCH  16  19
ATOM     19  C   UNL A   1      31.372  28.207  24.906  1.00  0.00     0.121 C 
ATOM     20  C   UNL A   1      31.540  27.555  23.537  1.00  0.00     0.243 C 
ATOM     21  C   UNL A   1      31.538  29.708  24.644  1.00  0.00     0.056 C 
ATOM     22  O   UNL A   1      30.500  27.964  22.614  1.00  0.00    -0.492 OA
ATOM     23  C   UNL A   1      30.288  30.041  23.875  1.00  0.00    -0.005 A 
ATOM     24  C   UNL A   1      29.799  29.092  22.963  1.00  0.00     0.122 A 
ATOM     25  C   UNL A   1      29.499  31.131  24.246  1.00  0.00     0.007 A 
ATOM     26  C   UNL A   1      28.491  29.181  22.501  1.00  0.00     0.047 A 
ATOM     27  C   UNL A   1      28.181  31.201  23.801  1.00  0.00     0.001 A 
ATOM     28  C   UNL A   1      27.670  30.214  22.955  1.00  0.00     0.004 A 
ENDBRANCH  16  19
ENDBRANCH  14  15
ENDBRANCH   8   9
ENDBRANCH   5   7
ENDBRANCH   4   5
ENDBRANCH   3   4
ENDBRANCH   2   3
ENDBRANCH   1   2
BRANCH   1  29
ATOM     29  C   UNL A   1      36.956  20.783  25.044  1.00  0.00     0.202 C 
BRANCH  29  30
ATOM     30  C   UNL A   1      38.240  19.999  25.348  1.00  0.00     0.261 C 
BRANCH  30  31
ATOM     31  O   UNL A   1      39.391  20.857  25.392  1.00  0.00    -0.460 OA
BRANCH  31  32
ATOM     32  C   UNL A   1      40.154  20.716  26.505  1.00  0.00     0.338 C 
ATOM     33  O   UNL A   1      40.654  19.681  26.921  1.00  0.00    -0.246 OA
BRANCH  32  34
ATOM     34  C   UNL A   1      40.504  22.052  27.033  1.00  0.00     0.060 A 
ATOM     35  C   UNL A   1      39.808  23.149  26.509  1.00  0.00     0.016 A 
ATOM     36  C   UNL A   1      41.468  22.238  28.029  1.00  0.00     0.016 A 
ATOM     37  C   UNL A   1      40.107  24.437  26.942  1.00  0.00     0.010 A 
ATOM     38  C   UNL A   1      41.772  23.534  28.458  1.00  0.00     0.010 A 
ATOM     39  C   UNL A   1      41.118  24.641  27.890  1.00  0.00    -0.014 A 
BRANCH  39  40
ATOM     40  C   UNL A   1      41.592  26.023  28.147  1.00  0.00     0.031 A 
ATOM     41  C   UNL A   1      42.964  26.412  27.667  1.00  0.00     0.074 A 
ATOM     42  C   UNL A   1      40.786  26.929  28.731  1.00  0.00     0.049 A 
ATOM     43  N   UNL A   1      43.587  27.557  27.773  1.00  0.00    -0.248 NA
ATOM     44  C   UNL A   1      43.737  25.368  26.977  1.00  0.00     0.031 C 
ATOM     45  C   UNL A   1      39.422  26.671  29.193  1.00  0.00     0.029 A 
ATOM     46  N   UNL A   1      40.997  28.252  29.029  1.00  0.00    -0.354 N 
ATOM     47  C   UNL A   1      44.820  27.375  27.154  1.00  0.00     0.074 A 
ATOM     48  C   UNL A   1      44.876  25.995  26.724  1.00  0.00     0.031 C 
ATOM     49  C   UNL A   1      38.919  27.800  29.721  1.00  0.00     0.029 A 
ATOM     50  C   UNL A   1      39.936  28.849  29.670  1.00  0.00     0.049 A 
ATOM     51  H   UNL A   1      41.828  28.728  28.806  1.00  0.00     0.167 HD
ATOM     52  C   UNL A   1      45.806  28.281  26.950  1.00  0.00     0.034 A 
ATOM     53  C   UNL A   1      39.812  30.093  30.177  1.00  0.00     0.034 A 
ATOM     54  C   UNL A   1      45.739  29.649  27.400  1.00  0.00     0.049 A 
ATOM     55  C   UNL A   1      40.965  31.058  30.014  1.00  0.00     0.074 A 
ATOM     56  C   UNL A   1      46.683  30.651  27.257  1.00  0.00     0.029 A 
ATOM     57  N   UNL A   1      44.671  30.208  28.090  1.00  0.00    -0.354 N 
ATOM     58  N   UNL A   1      42.123  30.873  29.422  1.00  0.00    -0.248 NA
ATOM     59  C   UNL A   1      40.785  32.402  30.576  1.00  0.00     0.031 C 
ATOM     60  C   UNL A   1      46.218  31.790  27.923  1.00  0.00     0.029 A 
ATOM     61  C   UNL A   1      44.945  31.530  28.405  1.00  0.00     0.049 A 
ATOM     62  H   UNL A   1      43.839  29.734  28.320  1.00  0.00     0.167 HD
ATOM     63  C   UNL A   1      42.796  32.090  29.515  1.00  0.00     0.074 A 
ATOM     64  C   UNL A   1      41.898  33.006  30.188  1.00  0.00     0.031 C 
ATOM     65  C   UNL A   1      44.042  32.425  29.090  1.00  0.00     0.034 A 
BRANCH  52  66
ATOM     66  C   UNL A   1      47.054  27.808  26.244  1.00  0.00     0.023 A 
ATOM     67  C   UNL A   1      47.227  27.972  24.858  1.00  0.00     0.031 A 
ATOM     68  C   UNL A   1      48.084  27.180  26.966  1.00  0.00     0.131 A 
ATOM     69  C   UNL A   1      48.378  27.469  24.232  1.00  0.00     0.055 A 
ATOM     70  C   UNL A   1      49.260  26.748  26.348  1.00  0.00     0.041 A 
ATOM     71  F   UNL A   1      47.962  26.968  28.287  1.00  0.00    -0.206 F 
ATOM     72  C   UNL A   1      49.407  26.883  24.971  1.00  0.00     0.022 A 
BRANCH  69  73
ATOM     73  S   UNL A   1      48.456  27.482  22.419  1.00  0.00     0.124 S 
ATOM     74  O   UNL A   1      47.215  28.174  22.076  1.00  0.00    -0.237 OA
ATOM     75  O   UNL A   1      49.689  28.215  22.162  1.00  0.00    -0.237 OA
ATOM     76  O   UNL A   1      48.487  26.063  22.069  1.00  0.00    -0.744 OA
ENDBRANCH  69  73
ENDBRANCH  52  66
BRANCH  53  77
ATOM     77  C   UNL A   1      38.585  30.496  30.927  1.00  0.00     0.023 A 
ATOM     78  C   UNL A   1      37.511  31.134  30.285  1.00  0.00     0.031 A 
ATOM     79  C   UNL A   1      38.508  30.330  32.322  1.00  0.00     0.131 A 
ATOM     80  C   UNL A   1      36.443  31.642  31.043  1.00  0.00     0.055 A 
ATOM     81  C   UNL A   1      37.410  30.775  33.062  1.00  0.00     0.041 A 
ATOM     82  F   UNL A   1      39.506  29.732  32.992  1.00  0.00    -0.206 F 
ATOM     83  C   UNL A   1      36.378  31.452  32.424  1.00  0.00     0.022 A 
BRANCH  80  84
ATOM     84  S   UNL A   1      35.200  32.669  30.209  1.00  0.00     0.124 S 
ATOM     85  O   UNL A   1      34.129  32.699  31.199  1.00  0.00    -0.237 OA
ATOM     86  O   UNL A   1      35.926  33.918  30.011  1.00  0.00    -0.237 OA
ATOM     87  O   UNL A   1      34.905  31.920  28.989  1.00  0.00    -0.744 OA
ENDBRANCH  80  84
ENDBRANCH  53  77
BRANCH  65  88
ATOM     88  C   UNL A   1      44.479  33.854  29.315  1.00  0.00     0.023 A 
ATOM     89  C   UNL A   1      45.141  34.247  30.490  1.00  0.00     0.031 A 
ATOM     90  C   UNL A   1      44.190  34.845  28.359  1.00  0.00     0.131 A 
ATOM     91  C   UNL A   1      45.411  35.604  30.722  1.00  0.00     0.055 A 
ATOM     92  C   UNL A   1      44.535  36.183  28.558  1.00  0.00     0.041 A 
ATOM     93  F   UNL A   1      43.557  34.532  27.216  1.00  0.00    -0.206 F 
ATOM     94  C   UNL A   1      45.130  36.572  29.754  1.00  0.00     0.022 A 
BRANCH  91  95
ATOM     95  S   UNL A   1      46.002  36.102  32.362  1.00  0.00     0.124 S 
ATOM     96  O   UNL A   1      46.065  34.823  33.061  1.00  0.00    -0.237 OA
ATOM     97  O   UNL A   1      47.285  36.725  32.055  1.00  0.00    -0.237 OA
ATOM     98  O   UNL A   1      44.966  37.018  32.836  1.00  0.00    -0.744 OA
ENDBRANCH  91  95
ENDBRANCH  65  88
ENDBRANCH  39  40
ENDBRANCH  32  34
ENDBRANCH  31  32
ENDBRANCH  30  31
ENDBRANCH  29  30
ENDBRANCH   1  29
TORSDOF 20
ENDMDL
MODEL 2
REMARK VINA RESULT:     -11.7      5.318     12.373
REMARK SMILES O=C(/C=C/c1ccc(NC(=O)[C@@H]2COc3ccccc3C2)cc1)OCCOCCOC(=O)c1ccc(-c2c3nc(c(-c4cc(S(=O)(=O)[O-])ccc4F)c4ccc([nH]4)c(-c4cc(S(=O)(=O)[O-])ccc4F)c4nc(c(-c5cc(S(=O)(=O)[O-])ccc5F)c5ccc2[nH]5)C=C4)C=C3)cc1
REMARK SMILES IDX 27 1 26 2 25 3 24 4 2 5 1 6 3 7 4 8 5 9 6 10 23 11 7 12
REMARK SMILES IDX 22 13 8 14 9 15 10 16 11 18 12 19 13 20 21 21 14 22 20 23
REMARK SMILES IDX 15 24 19 25 16 26 18 27 17 28 28 29 29 30 30 31 31 32 32 33
REMARK SMILES IDX 33 34 34 35 95 36 35 37 94 38 36 39 37 40 38 41 88 42 39 43
REMARK SMILES IDX 93 44 87 45 89 46 40 47 92 48 86 49 85 50 41 52 73 53 53 54
REMARK SMILES IDX 72 55 54 56 57 57 71 58 90 59 55 60 56 61 70 63 91 64 58 65
REMARK SMILES IDX 42 66 43 67 51 68 44 69 50 70 52 71 49 72 45 73 46 74 47 75
REMARK SMILES IDX 48 76 74 77 75 78 83 79 76 80 82 81 84 82 81 83 77 84 78 85
REMARK SMILES IDX 79 86 80 87 59 88 60 89 68 90 61 91 67 92 69 93 66 94 62 95
REMARK SMILES IDX 63 96 64 97 65 98
REMARK H PARENT 9 17 89 51 57 62
REMARK Flexibility Score: inf
ROOT
ATOM      1  O   UNL A   1      33.831  35.834  29.112  1.00  0.00    -0.374 OA
ENDROOT
BRANCH   1   2
ATOM      2  C   UNL A   1      32.885  36.319  30.061  1.00  0.00     0.202 C 
BRANCH   2   3
ATOM      3  C   UNL A   1      33.189  36.047  31.533  1.00  0.00     0.261 C 
BRANCH   3   4
ATOM      4  O   UNL A   1      33.123  34.663  31.935  1.00  0.00    -0.460 OA
BRANCH   4   5
ATOM      5  C   UNL A   1      34.051  33.953  32.618  1.00  0.00     0.330 C 
ATOM      6  O   UNL A   1      33.744  33.323  33.627  1.00  0.00    -0.247 OA
BRANCH   5   7
ATOM      7  C   UNL A   1      35.471  34.056  32.258  1.00  0.00     0.094 C 
ATOM      8  C   UNL A   1      36.085  33.261  31.377  1.00  0.00     0.015 C 
BRANCH   8   9
ATOM      9  C   UNL A   1      37.436  33.509  30.892  1.00  0.00    -0.025 A 
ATOM     10  C   UNL A   1      38.395  33.944  31.814  1.00  0.00     0.010 A 
ATOM     11  C   UNL A   1      37.758  33.426  29.538  1.00  0.00     0.010 A 
ATOM     12  C   UNL A   1      39.645  34.367  31.377  1.00  0.00     0.027 A 
ATOM     13  C   UNL A   1      39.012  33.854  29.100  1.00  0.00     0.027 A 
ATOM     14  C   UNL A   1      39.952  34.333  30.019  1.00  0.00     0.041 A 
BRANCH  14  15
ATOM     15  N   UNL A   1      41.134  34.895  29.529  1.00  0.00    -0.326 N 
ATOM     16  C   UNL A   1      42.400  34.768  30.052  1.00  0.00     0.231 C 
ATOM     17  H   UNL A   1      41.051  35.445  28.717  1.00  0.00     0.169 HD
ATOM     18  O   UNL A   1      43.098  35.773  30.188  1.00  0.00    -0.274 OA
BRANCH  16  19
ATOM     19  C   UNL A   1      42.999  33.372  29.972  1.00  0.00     0.121 C 
ATOM     20  C   UNL A   1      43.540  32.604  31.173  1.00  0.00     0.243 C 
ATOM     21  C   UNL A   1      44.090  33.238  28.903  1.00  0.00     0.056 C 
ATOM     22  O   UNL A   1      43.707  31.194  30.881  1.00  0.00    -0.492 OA
ATOM     23  C   UNL A   1      44.000  31.783  28.533  1.00  0.00    -0.005 A 
ATOM     24  C   UNL A   1      43.723  30.856  29.550  1.00  0.00     0.122 A 
ATOM     25  C   UNL A   1      43.931  31.397  27.193  1.00  0.00     0.007 A 
ATOM     26  C   UNL A   1      43.283  29.579  29.226  1.00  0.00     0.047 A 
ATOM     27  C   UNL A   1      43.464  30.124  26.873  1.00  0.00     0.001 A 
ATOM     28  C   UNL A   1      43.114  29.228  27.887  1.00  0.00     0.004 A 
ENDBRANCH  16  19
ENDBRANCH  14  15
ENDBRANCH   8   9
ENDBRANCH   5   7
ENDBRANCH   4   5
ENDBRANCH   3   4
ENDBRANCH   2   3
ENDBRANCH   1   2
BRANCH   1  29
ATOM     29  C   UNL A   1      33.391  34.691  28.367  1.00  0.00     0.202 C 
BRANCH  29  30
ATOM     30  C   UNL A   1      33.996  33.348  28.801  1.00  0.00     0.261 C 
BRANCH  30  31
ATOM     31  O   UNL A   1      34.657  32.684  27.712  1.00  0.00    -0.460 OA
BRANCH  31  32
ATOM     32  C   UNL A   1      34.410  31.353  27.633  1.00  0.00     0.338 C 
ATOM     33  O   UNL A   1      33.416  30.822  27.160  1.00  0.00    -0.246 OA
BRANCH  32  34
ATOM     34  C   UNL A   1      35.635  30.603  27.990  1.00  0.00     0.060 A 
ATOM     35  C   UNL A   1      35.573  29.779  29.120  1.00  0.00     0.016 A 
ATOM     36  C   UNL A   1      36.808  30.679  27.233  1.00  0.00     0.016 A 
ATOM     37  C   UNL A   1      36.696  29.067  29.528  1.00  0.00     0.010 A 
ATOM     38  C   UNL A   1      37.939  29.967  27.648  1.00  0.00     0.010 A 
ATOM     39  C   UNL A   1      37.898  29.187  28.817  1.00  0.00    -0.014 A 
BRANCH  39  40
ATOM     40  C   UNL A   1      39.138  28.628  29.407  1.00  0.00     0.031 A 
ATOM     41  C   UNL A   1      39.637  29.200  30.706  1.00  0.00     0.074 A 
ATOM     42  C   UNL A   1      39.765  27.585  28.831  1.00  0.00     0.049 A 
ATOM     43  N   UNL A   1      40.689  28.871  31.409  1.00  0.00    -0.248 NA
ATOM     44  C   UNL A   1      38.840  30.291  31.290  1.00  0.00     0.031 C 
ATOM     45  C   UNL A   1      39.341  26.925  27.596  1.00  0.00     0.029 A 
ATOM     46  N   UNL A   1      40.886  26.894  29.213  1.00  0.00    -0.354 N 
ATOM     47  C   UNL A   1      40.676  29.706  32.522  1.00  0.00     0.074 A 
ATOM     48  C   UNL A   1      39.541  30.591  32.373  1.00  0.00     0.031 C 
ATOM     49  C   UNL A   1      40.197  25.926  27.320  1.00  0.00     0.029 A 
ATOM     50  C   UNL A   1      41.248  25.898  28.335  1.00  0.00     0.049 A 
ATOM     51  H   UNL A   1      41.385  27.091  30.038  1.00  0.00     0.167 HD
ATOM     52  C   UNL A   1      41.524  29.720  33.579  1.00  0.00     0.034 A 
ATOM     53  C   UNL A   1      42.319  25.077  28.340  1.00  0.00     0.034 A 
ATOM     54  C   UNL A   1      42.660  28.841  33.703  1.00  0.00     0.049 A 
ATOM     55  C   UNL A   1      43.300  25.177  29.487  1.00  0.00     0.074 A 
ATOM     56  C   UNL A   1      43.591  28.775  34.724  1.00  0.00     0.029 A 
ATOM     57  N   UNL A   1      43.026  27.879  32.771  1.00  0.00    -0.354 N 
ATOM     58  N   UNL A   1      43.272  25.968  30.536  1.00  0.00    -0.248 NA
ATOM     59  C   UNL A   1      44.447  24.262  29.456  1.00  0.00     0.031 C 
ATOM     60  C   UNL A   1      44.558  27.827  34.376  1.00  0.00     0.029 A 
ATOM     61  C   UNL A   1      44.185  27.235  33.179  1.00  0.00     0.049 A 
ATOM     62  H   UNL A   1      42.534  27.681  31.942  1.00  0.00     0.167 HD
ATOM     63  C   UNL A   1      44.382  25.621  31.303  1.00  0.00     0.074 A 
ATOM     64  C   UNL A   1      45.035  24.529  30.612  1.00  0.00     0.031 C 
ATOM     65  C   UNL A   1      44.830  26.157  32.469  1.00  0.00     0.034 A 
BRANCH  52  66
ATOM     66  C   UNL A   1      41.275  30.745  34.659  1.00  0.00     0.023 A 
ATOM     67  C   UNL A   1      40.060  30.796  35.364  1.00  0.00     0.031 A 
ATOM     68  C   UNL A   1      42.266  31.687  34.988  1.00  0.00     0.131 A 
ATOM     69  C   UNL A   1      39.847  31.798  36.323  1.00  0.00     0.055 A 
ATOM     70  C   UNL A   1      42.077  32.635  35.995  1.00  0.00     0.041 A 
ATOM     71  F   UNL A   1      43.436  31.706  34.328  1.00  0.00    -0.206 F 
ATOM     72  C   UNL A   1      40.858  32.701  36.663  1.00  0.00     0.022 A 
BRANCH  69  73
ATOM     73  S   UNL A   1      38.189  31.983  37.034  1.00  0.00     0.124 S 
ATOM     74  O   UNL A   1      38.414  33.020  38.040  1.00  0.00    -0.237 OA
ATOM     75  O   UNL A   1      37.392  32.374  35.879  1.00  0.00    -0.237 OA
ATOM     76  O   UNL A   1      37.899  30.656  37.573  1.00  0.00    -0.744 OA
ENDBRANCH  69  73
ENDBRANCH  52  66
BRANCH  53  77
ATOM     77  C   UNL A   1      42.560  24.126  27.215  1.00  0.00     0.023 A 
ATOM     78  C   UNL A   1      41.958  22.858  27.187  1.00  0.00     0.031 A 
ATOM     79  C   UNL A   1      43.475  24.439  26.193  1.00  0.00     0.131 A 
ATOM     80  C   UNL A   1      42.327  21.928  26.201  1.00  0.00     0.055 A 
ATOM     81  C   UNL A   1      43.786  23.535  25.174  1.00  0.00     0.041 A 
ATOM     82  F   UNL A   1      44.087  25.634  26.169  1.00  0.00    -0.206 F 
ATOM     83  C   UNL A   1      43.225  22.264  25.186  1.00  0.00     0.022 A 
BRANCH  80  84
ATOM     84  S   UNL A   1      41.713  20.226  26.341  1.00  0.00     0.124 S 
ATOM     85  O   UNL A   1      40.286  20.405  26.099  1.00  0.00    -0.237 OA
ATOM     86  O   UNL A   1      42.463  19.547  25.291  1.00  0.00    -0.237 OA
ATOM     87  O   UNL A   1      42.073  19.847  27.707  1.00  0.00    -0.744 OA
ENDBRANCH  80  84
ENDBRANCH  53  77
BRANCH  65  88
ATOM     88  C   UNL A   1      46.064  25.531  33.077  1.00  0.00     0.023 A 
ATOM     89  C   UNL A   1      45.997  24.342  33.824  1.00  0.00     0.031 A 
ATOM     90  C   UNL A   1      47.318  26.154  32.944  1.00  0.00     0.131 A 
ATOM     91  C   UNL A   1      47.138  23.865  34.484  1.00  0.00     0.055 A 
ATOM     92  C   UNL A   1      48.468  25.629  33.535  1.00  0.00     0.041 A 
ATOM     93  F   UNL A   1      47.446  27.294  32.243  1.00  0.00    -0.206 F 
ATOM     94  C   UNL A   1      48.378  24.489  34.328  1.00  0.00     0.022 A 
BRANCH  91  95
ATOM     95  S   UNL A   1      46.949  22.499  35.663  1.00  0.00     0.124 S 
ATOM     96  O   UNL A   1      45.522  22.555  35.961  1.00  0.00    -0.237 OA
ATOM     97  O   UNL A   1      47.393  21.349  34.882  1.00  0.00    -0.237 OA
ATOM     98  O   UNL A   1      47.829  22.876  36.767  1.00  0.00    -0.744 OA
ENDBRANCH  91  95
ENDBRANCH  65  88
ENDBRANCH  39  40
ENDBRANCH  32  34
ENDBRANCH  31  32
ENDBRANCH  30  31
ENDBRANCH  29  30
ENDBRANCH   1  29
TORSDOF 20
ENDMDL
MODEL 3
REMARK VINA RESULT:     -11.6      5.853     11.930
REMARK SMILES O=C(/C=C/c1ccc(NC(=O)[C@@H]2COc3ccccc3C2)cc1)OCCOCCOC(=O)c1ccc(-c2c3nc(c(-c4cc(S(=O)(=O)[O-])ccc4F)c4ccc([nH]4)c(-c4cc(S(=O)(=O)[O-])ccc4F)c4nc(c(-c5cc(S(=O)(=O)[O-])ccc5F)c5ccc2[nH]5)C=C4)C=C3)cc1
REMARK SMILES IDX 27 1 26 2 25 3 24 4 2 5 1 6 3 7 4 8 5 9 6 10 23 11 7 12
REMARK SMILES IDX 22 13 8 14 9 15 10 16 11 18 12 19 13 20 21 21 14 22 20 23
REMARK SMILES IDX 15 24 19 25 16 26 18 27 17 28 28 29 29 30 30 31 31 32 32 33
REMARK SMILES IDX 33 34 34 35 95 36 35 37 94 38 36 39 37 40 38 41 88 42 39 43
REMARK SMILES IDX 93 44 87 45 89 46 40 47 92 48 86 49 85 50 41 52 73 53 53 54
REMARK SMILES IDX 72 55 54 56 57 57 71 58 90 59 55 60 56 61 70 63 91 64 58 65
REMARK SMILES IDX 42 66 43 67 51 68 44 69 50 70 52 71 49 72 45 73 46 74 47 75
REMARK SMILES IDX 48 76 74 77 75 78 83 79 76 80 82 81 84 82 81 83 77 84 78 85
REMARK SMILES IDX 79 86 80 87 59 88 60 89 68 90 61 91 67 92 69 93 66 94 62 95
REMARK SMILES IDX 63 96 64 97 65 98
REMARK H PARENT 9 17 89 51 57 62
REMARK Flexibility Score: inf
ROOT
ATOM      1  O   UNL A   1      33.869  33.041  29.313  1.00  0.00    -0.374 OA
ENDROOT
BRANCH   1   2
ATOM      2  C   UNL A   1      34.855  32.100  28.899  1.00  0.00     0.202 C 
BRANCH   2   3
ATOM      3  C   UNL A   1      34.538  31.274  27.654  1.00  0.00     0.261 C 
BRANCH   3   4
ATOM      4  O   UNL A   1      33.185  30.778  27.568  1.00  0.00    -0.460 OA
BRANCH   4   5
ATOM      5  C   UNL A   1      32.619  30.090  26.549  1.00  0.00     0.330 C 
ATOM      6  O   UNL A   1      31.622  30.521  25.975  1.00  0.00    -0.247 OA
BRANCH   5   7
ATOM      7  C   UNL A   1      33.090  28.738  26.220  1.00  0.00     0.094 C 
ATOM      8  C   UNL A   1      32.594  27.985  25.236  1.00  0.00     0.015 C 
BRANCH   8   9
ATOM      9  C   UNL A   1      33.208  26.735  24.805  1.00  0.00    -0.025 A 
ATOM     10  C   UNL A   1      34.010  26.048  25.723  1.00  0.00     0.010 A 
ATOM     11  C   UNL A   1      33.102  26.279  23.493  1.00  0.00     0.010 A 
ATOM     12  C   UNL A   1      34.763  24.954  25.313  1.00  0.00     0.027 A 
ATOM     13  C   UNL A   1      33.860  25.182  23.081  1.00  0.00     0.027 A 
ATOM     14  C   UNL A   1      34.697  24.525  23.989  1.00  0.00     0.041 A 
BRANCH  14  15
ATOM     15  N   UNL A   1      35.554  23.532  23.506  1.00  0.00    -0.326 N 
ATOM     16  C   UNL A   1      35.905  22.356  24.126  1.00  0.00     0.231 C 
ATOM     17  H   UNL A   1      35.952  23.693  22.620  1.00  0.00     0.169 HD
ATOM     18  O   UNL A   1      37.092  22.028  24.166  1.00  0.00    -0.274 OA
BRANCH  16  19
ATOM     19  C   UNL A   1      34.781  21.344  24.287  1.00  0.00     0.121 C 
ATOM     20  C   UNL A   1      33.368  21.701  24.736  1.00  0.00     0.243 C 
ATOM     21  C   UNL A   1      35.168  20.136  25.147  1.00  0.00     0.056 C 
ATOM     22  O   UNL A   1      32.428  20.634  24.455  1.00  0.00    -0.492 OA
ATOM     23  C   UNL A   1      34.279  19.053  24.599  1.00  0.00    -0.005 A 
ATOM     24  C   UNL A   1      32.978  19.402  24.202  1.00  0.00     0.122 A 
ATOM     25  C   UNL A   1      34.811  17.810  24.251  1.00  0.00     0.007 A 
ATOM     26  C   UNL A   1      32.252  18.551  23.378  1.00  0.00     0.047 A 
ATOM     27  C   UNL A   1      34.089  16.973  23.403  1.00  0.00     0.001 A 
ATOM     28  C   UNL A   1      32.825  17.356  22.945  1.00  0.00     0.004 A 
ENDBRANCH  16  19
ENDBRANCH  14  15
ENDBRANCH   8   9
ENDBRANCH   5   7
ENDBRANCH   4   5
ENDBRANCH   3   4
ENDBRANCH   2   3
ENDBRANCH   1   2
BRANCH   1  29
ATOM     29  C   UNL A   1      33.966  34.322  28.677  1.00  0.00     0.202 C 
BRANCH  29  30
ATOM     30  C   UNL A   1      33.283  35.481  29.417  1.00  0.00     0.261 C 
BRANCH  30  31
ATOM     31  O   UNL A   1      32.508  35.018  30.533  1.00  0.00    -0.460 OA
BRANCH  31  32
ATOM     32  C   UNL A   1      32.797  35.627  31.710  1.00  0.00     0.338 C 
ATOM     33  O   UNL A   1      32.134  36.488  32.269  1.00  0.00    -0.246 OA
BRANCH  32  34
ATOM     34  C   UNL A   1      33.928  34.929  32.360  1.00  0.00     0.060 A 
ATOM     35  C   UNL A   1      35.184  35.545  32.292  1.00  0.00     0.016 A 
ATOM     36  C   UNL A   1      33.771  33.717  33.040  1.00  0.00     0.016 A 
ATOM     37  C   UNL A   1      36.295  34.929  32.859  1.00  0.00     0.010 A 
ATOM     38  C   UNL A   1      34.890  33.096  33.604  1.00  0.00     0.010 A 
ATOM     39  C   UNL A   1      36.163  33.682  33.484  1.00  0.00    -0.014 A 
BRANCH  39  40
ATOM     40  C   UNL A   1      37.388  32.932  33.853  1.00  0.00     0.031 A 
ATOM     41  C   UNL A   1      38.114  33.320  35.112  1.00  0.00     0.074 A 
ATOM     42  C   UNL A   1      37.801  31.883  33.118  1.00  0.00     0.049 A 
ATOM     43  N   UNL A   1      39.198  32.809  35.637  1.00  0.00    -0.248 NA
ATOM     44  C   UNL A   1      37.541  34.435  35.883  1.00  0.00     0.031 C 
ATOM     45  C   UNL A   1      37.145  31.394  31.905  1.00  0.00     0.029 A 
ATOM     46  N   UNL A   1      38.866  31.036  33.289  1.00  0.00    -0.354 N 
ATOM     47  C   UNL A   1      39.431  33.533  36.802  1.00  0.00     0.074 A 
ATOM     48  C   UNL A   1      38.406  34.552  36.879  1.00  0.00     0.031 C 
ATOM     49  C   UNL A   1      37.826  30.334  31.438  1.00  0.00     0.029 A 
ATOM     50  C   UNL A   1      38.986  30.092  32.295  1.00  0.00     0.049 A 
ATOM     51  H   UNL A   1      39.486  31.097  34.050  1.00  0.00     0.167 HD
ATOM     52  C   UNL A   1      40.401  33.352  37.731  1.00  0.00     0.034 A 
ATOM     53  C   UNL A   1      39.937  29.157  32.090  1.00  0.00     0.034 A 
ATOM     54  C   UNL A   1      41.424  32.341  37.631  1.00  0.00     0.049 A 
ATOM     55  C   UNL A   1      41.060  29.037  33.096  1.00  0.00     0.074 A 
ATOM     56  C   UNL A   1      42.461  32.074  38.507  1.00  0.00     0.029 A 
ATOM     57  N   UNL A   1      41.545  31.434  36.586  1.00  0.00    -0.354 N 
ATOM     58  N   UNL A   1      41.265  29.725  34.197  1.00  0.00    -0.248 NA
ATOM     59  C   UNL A   1      42.070  28.004  32.837  1.00  0.00     0.031 C 
ATOM     60  C   UNL A   1      43.250  31.059  37.956  1.00  0.00     0.029 A 
ATOM     61  C   UNL A   1      42.657  30.628  36.780  1.00  0.00     0.049 A 
ATOM     62  H   UNL A   1      40.931  31.372  35.818  1.00  0.00     0.167 HD
ATOM     63  C   UNL A   1      42.411  29.184  34.775  1.00  0.00     0.074 A 
ATOM     64  C   UNL A   1      42.829  28.093  33.919  1.00  0.00     0.031 C 
ATOM     65  C   UNL A   1      43.066  29.554  35.907  1.00  0.00     0.034 A 
BRANCH  52  66
ATOM     66  C   UNL A   1      40.421  34.293  38.911  1.00  0.00     0.023 A 
ATOM     67  C   UNL A   1      39.629  34.067  40.051  1.00  0.00     0.031 A 
ATOM     68  C   UNL A   1      41.242  35.435  38.897  1.00  0.00     0.131 A 
ATOM     69  C   UNL A   1      39.636  34.994  41.104  1.00  0.00     0.055 A 
ATOM     70  C   UNL A   1      41.300  36.315  39.979  1.00  0.00     0.041 A 
ATOM     71  F   UNL A   1      41.998  35.719  37.823  1.00  0.00    -0.206 F 
ATOM     72  C   UNL A   1      40.486  36.102  41.088  1.00  0.00     0.022 A 
BRANCH  69  73
ATOM     73  S   UNL A   1      38.427  34.798  42.443  1.00  0.00     0.124 S 
ATOM     74  O   UNL A   1      37.167  34.788  41.702  1.00  0.00    -0.237 OA
ATOM     75  O   UNL A   1      38.826  33.532  43.045  1.00  0.00    -0.237 OA
ATOM     76  O   UNL A   1      38.643  35.981  43.274  1.00  0.00    -0.744 OA
ENDBRANCH  69  73
ENDBRANCH  52  66
BRANCH  53  77
ATOM     77  C   UNL A   1      39.913  28.294  30.872  1.00  0.00     0.023 A 
ATOM     78  C   UNL A   1      40.665  28.616  29.731  1.00  0.00     0.031 A 
ATOM     79  C   UNL A   1      39.061  27.177  30.800  1.00  0.00     0.131 A 
ATOM     80  C   UNL A   1      40.500  27.875  28.549  1.00  0.00     0.055 A 
ATOM     81  C   UNL A   1      38.953  26.400  29.644  1.00  0.00     0.041 A 
ATOM     82  F   UNL A   1      38.313  26.822  31.857  1.00  0.00    -0.206 F 
ATOM     83  C   UNL A   1      39.661  26.760  28.503  1.00  0.00     0.022 A 
BRANCH  80  84
ATOM     84  S   UNL A   1      41.302  28.470  27.034  1.00  0.00     0.124 S 
ATOM     85  O   UNL A   1      42.341  29.342  27.571  1.00  0.00    -0.237 OA
ATOM     86  O   UNL A   1      41.759  27.225  26.427  1.00  0.00    -0.237 OA
ATOM     87  O   UNL A   1      40.221  29.149  26.322  1.00  0.00    -0.744 OA
ENDBRANCH  80  84
ENDBRANCH  53  77
BRANCH  65  88
ATOM     88  C   UNL A   1      44.279  28.738  36.290  1.00  0.00     0.023 A 
ATOM     89  C   UNL A   1      44.197  27.686  37.220  1.00  0.00     0.031 A 
ATOM     90  C   UNL A   1      45.542  29.042  35.751  1.00  0.00     0.131 A 
ATOM     91  C   UNL A   1      45.365  27.040  37.650  1.00  0.00     0.055 A 
ATOM     92  C   UNL A   1      46.690  28.340  36.121  1.00  0.00     0.041 A 
ATOM     93  F   UNL A   1      45.685  30.037  34.859  1.00  0.00    -0.206 F 
ATOM     94  C   UNL A   1      46.609  27.346  37.092  1.00  0.00     0.022 A 
BRANCH  91  95
ATOM     95  S   UNL A   1      45.254  25.895  39.052  1.00  0.00     0.124 S 
ATOM     96  O   UNL A   1      46.575  26.031  39.657  1.00  0.00    -0.237 OA
ATOM     97  O   UNL A   1      44.142  26.447  39.819  1.00  0.00    -0.237 OA
ATOM     98  O   UNL A   1      44.991  24.604  38.420  1.00  0.00    -0.744 OA
ENDBRANCH  91  95
ENDBRANCH  65  88
ENDBRANCH  39  40
ENDBRANCH  32  34
ENDBRANCH  31  32
ENDBRANCH  30  31
ENDBRANCH  29  30
ENDBRANCH   1  29
TORSDOF 20
ENDMDL
