MODEL 1
REMARK VINA RESULT:     -11.6      0.000      0.000
REMARK SMILES Nc1c(N2CCCC2)ncnc1N1CCC(C(=O)OCCOCCOC(=O)c2ccc(-c3c4nc(c(-c5cc(S(=O)(=O)[O-])ccc5F)c5ccc([nH]5)c(-c5cc(S(=O)(=O)[O-])ccc5F)c5nc(c(-c6cc(S(=O)(=O)[O-])ccc6F)c6ccc3[nH]6)C=C5)C=C4)cc2)CC1
REMARK SMILES IDX 23 1 22 2 21 3 20 4 19 5 17 6 18 7 16 8 13 9 14 10 92 11
REMARK SMILES IDX 15 12 91 13 12 14 2 15 3 16 9 17 11 18 10 19 1 20 4 23 5 24
REMARK SMILES IDX 8 25 6 26 7 27 24 28 25 29 26 30 27 31 28 32 29 33 90 34
REMARK SMILES IDX 30 35 89 36 31 37 32 38 33 39 83 40 34 41 88 42 82 43 84 44
REMARK SMILES IDX 35 45 87 46 81 47 80 48 36 50 68 51 48 52 67 53 49 54 52 55
REMARK SMILES IDX 66 56 85 57 50 58 51 59 65 61 86 62 53 63 37 64 38 65 46 66
REMARK SMILES IDX 39 67 45 68 47 69 44 70 40 71 41 72 42 73 43 74 69 75 70 76
REMARK SMILES IDX 78 77 71 78 77 79 79 80 76 81 72 82 73 83 74 84 75 85 54 86
REMARK SMILES IDX 55 87 63 88 56 89 62 90 64 91 61 92 57 93 58 94 59 95 60 96
REMARK H PARENT 1 21 1 22 84 49 52 60
REMARK Flexibility Score: inf
ROOT
ATOM      1  C   UNL A   1      32.107  30.993  26.339  1.00  0.00     0.202 C 
ENDROOT
BRANCH   1   2
ATOM      2  O   UNL A   1      31.617  29.764  26.873  1.00  0.00    -0.374 OA
BRANCH   2   3
ATOM      3  C   UNL A   1      31.651  28.614  26.030  1.00  0.00     0.202 C 
BRANCH   3   4
ATOM      4  C   UNL A   1      31.460  28.850  24.531  1.00  0.00     0.261 C 
BRANCH   4   5
ATOM      5  O   UNL A   1      32.095  27.828  23.746  1.00  0.00    -0.463 OA
BRANCH   5   6
ATOM      6  C   UNL A   1      31.315  27.257  22.797  1.00  0.00     0.309 C 
ATOM      7  O   UNL A   1      30.467  27.839  22.128  1.00  0.00    -0.252 OA
BRANCH   6   8
ATOM      8  C   UNL A   1      31.575  25.782  22.624  1.00  0.00     0.103 C 
ATOM      9  N   UNL A   1      32.341  23.088  23.107  1.00  0.00    -0.355 N 
ATOM     10  C   UNL A   1      33.054  23.838  22.081  1.00  0.00     0.119 C 
ATOM     11  C   UNL A   1      31.038  23.557  23.575  1.00  0.00     0.119 C 
ATOM     12  C   UNL A   1      33.015  25.344  22.343  1.00  0.00     0.037 C 
ATOM     13  C   UNL A   1      31.060  25.048  23.856  1.00  0.00     0.037 C 
BRANCH   9  14
ATOM     14  C   UNL A   1      33.091  22.308  23.992  1.00  0.00     0.157 A 
ATOM     15  C   UNL A   1      32.984  20.905  23.937  1.00  0.00     0.118 A 
ATOM     16  C   UNL A   1      33.694  20.180  24.906  1.00  0.00     0.157 A 
ATOM     17  N   UNL A   1      34.391  20.802  25.873  1.00  0.00    -0.217 NA
ATOM     18  N   UNL A   1      33.856  22.930  24.903  1.00  0.00    -0.217 NA
ATOM     19  C   UNL A   1      34.454  22.140  25.805  1.00  0.00     0.226 A 
BRANCH  15  20
ATOM     20  N   UNL A   1      32.237  20.276  22.921  1.00  0.00    -0.393 N 
ATOM     21  H   UNL A   1      32.420  19.339  22.683  1.00  0.00     0.156 HD
ATOM     22  H   UNL A   1      31.530  20.774  22.450  1.00  0.00     0.156 HD
ENDBRANCH  15  20
BRANCH  16  23
ATOM     23  N   UNL A   1      33.668  18.808  24.945  1.00  0.00    -0.355 N 
ATOM     24  C   UNL A   1      34.560  17.926  24.226  1.00  0.00     0.118 C 
ATOM     25  C   UNL A   1      32.501  18.130  25.477  1.00  0.00     0.118 C 
ATOM     26  C   UNL A   1      33.621  16.804  23.797  1.00  0.00     0.023 C 
ATOM     27  C   UNL A   1      32.675  16.686  24.989  1.00  0.00     0.023 C 
ENDBRANCH  16  23
ENDBRANCH   9  14
ENDBRANCH   6   8
ENDBRANCH   5   6
ENDBRANCH   4   5
ENDBRANCH   3   4
ENDBRANCH   2   3
ENDBRANCH   1   2
BRANCH   1  28
ATOM     28  C   UNL A   1      31.670  32.290  27.034  1.00  0.00     0.261 C 
BRANCH  28  29
ATOM     29  O   UNL A   1      32.654  33.335  26.928  1.00  0.00    -0.460 OA
BRANCH  29  30
ATOM     30  C   UNL A   1      33.171  33.743  28.114  1.00  0.00     0.338 C 
ATOM     31  O   UNL A   1      32.621  34.452  28.948  1.00  0.00    -0.246 OA
BRANCH  30  32
ATOM     32  C   UNL A   1      34.448  33.058  28.381  1.00  0.00     0.060 A 
ATOM     33  C   UNL A   1      34.389  31.721  28.796  1.00  0.00     0.016 A 
ATOM     34  C   UNL A   1      35.670  33.730  28.320  1.00  0.00     0.016 A 
ATOM     35  C   UNL A   1      35.548  31.064  29.199  1.00  0.00     0.010 A 
ATOM     36  C   UNL A   1      36.833  33.071  28.740  1.00  0.00     0.010 A 
ATOM     37  C   UNL A   1      36.769  31.749  29.215  1.00  0.00    -0.014 A 
BRANCH  37  38
ATOM     38  C   UNL A   1      37.934  31.130  29.894  1.00  0.00     0.031 A 
ATOM     39  C   UNL A   1      38.237  31.521  31.315  1.00  0.00     0.074 A 
ATOM     40  C   UNL A   1      38.659  30.174  29.288  1.00  0.00     0.049 A 
ATOM     41  N   UNL A   1      39.197  31.111  32.103  1.00  0.00    -0.248 NA
ATOM     42  C   UNL A   1      37.327  32.500  31.930  1.00  0.00     0.031 C 
ATOM     43  C   UNL A   1      38.408  29.648  27.948  1.00  0.00     0.029 A 
ATOM     44  N   UNL A   1      39.743  29.460  29.734  1.00  0.00    -0.354 N 
ATOM     45  C   UNL A   1      38.997  31.767  33.313  1.00  0.00     0.074 A 
ATOM     46  C   UNL A   1      37.854  32.638  33.136  1.00  0.00     0.031 C 
ATOM     47  C   UNL A   1      39.301  28.676  27.689  1.00  0.00     0.029 A 
ATOM     48  C   UNL A   1      40.209  28.540  28.826  1.00  0.00     0.049 A 
ATOM     49  H   UNL A   1      40.149  29.594  30.621  1.00  0.00     0.167 HD
ATOM     50  C   UNL A   1      39.688  31.640  34.472  1.00  0.00     0.034 A 
ATOM     51  C   UNL A   1      41.254  27.693  28.902  1.00  0.00     0.034 A 
ATOM     52  C   UNL A   1      40.841  30.790  34.632  1.00  0.00     0.049 A 
ATOM     53  C   UNL A   1      42.105  27.678  30.145  1.00  0.00     0.074 A 
ATOM     54  C   UNL A   1      41.643  30.622  35.748  1.00  0.00     0.029 A 
ATOM     55  N   UNL A   1      41.363  29.967  33.642  1.00  0.00    -0.354 N 
ATOM     56  N   UNL A   1      41.951  28.356  31.258  1.00  0.00    -0.248 NA
ATOM     57  C   UNL A   1      43.278  26.793  30.135  1.00  0.00     0.031 C 
ATOM     58  C   UNL A   1      42.680  29.744  35.415  1.00  0.00     0.029 A 
ATOM     59  C   UNL A   1      42.488  29.310  34.113  1.00  0.00     0.049 A 
ATOM     60  H   UNL A   1      40.986  29.864  32.738  1.00  0.00     0.167 HD
ATOM     61  C   UNL A   1      42.993  27.962  32.091  1.00  0.00     0.074 A 
ATOM     62  C   UNL A   1      43.771  26.988  31.352  1.00  0.00     0.031 C 
ATOM     63  C   UNL A   1      43.272  28.361  33.358  1.00  0.00     0.034 A 
BRANCH  50  64
ATOM     64  C   UNL A   1      39.231  32.477  35.638  1.00  0.00     0.023 A 
ATOM     65  C   UNL A   1      39.653  33.810  35.792  1.00  0.00     0.031 A 
ATOM     66  C   UNL A   1      38.391  31.931  36.624  1.00  0.00     0.131 A 
ATOM     67  C   UNL A   1      39.285  34.531  36.937  1.00  0.00     0.055 A 
ATOM     68  C   UNL A   1      37.971  32.678  37.727  1.00  0.00     0.041 A 
ATOM     69  F   UNL A   1      37.977  30.657  36.540  1.00  0.00    -0.206 F 
ATOM     70  C   UNL A   1      38.428  33.981  37.895  1.00  0.00     0.022 A 
BRANCH  67  71
ATOM     71  S   UNL A   1      40.038  36.157  37.218  1.00  0.00     0.124 S 
ATOM     72  O   UNL A   1      39.130  36.734  38.207  1.00  0.00    -0.237 OA
ATOM     73  O   UNL A   1      41.370  35.809  37.699  1.00  0.00    -0.237 OA
ATOM     74  O   UNL A   1      39.996  36.786  35.899  1.00  0.00    -0.744 OA
ENDBRANCH  67  71
ENDBRANCH  50  64
BRANCH  51  75
ATOM     75  C   UNL A   1      41.563  26.795  27.756  1.00  0.00     0.023 A 
ATOM     76  C   UNL A   1      41.200  25.441  27.786  1.00  0.00     0.031 A 
ATOM     77  C   UNL A   1      42.216  27.284  26.611  1.00  0.00     0.131 A 
ATOM     78  C   UNL A   1      41.500  24.615  26.691  1.00  0.00     0.055 A 
ATOM     79  C   UNL A   1      42.483  26.467  25.512  1.00  0.00     0.041 A 
ATOM     80  F   UNL A   1      42.578  28.574  26.536  1.00  0.00    -0.206 F 
ATOM     81  C   UNL A   1      42.128  25.122  25.550  1.00  0.00     0.022 A 
BRANCH  78  82
ATOM     82  S   UNL A   1      41.061  22.858  26.778  1.00  0.00     0.124 S 
ATOM     83  O   UNL A   1      41.820  22.306  25.662  1.00  0.00    -0.237 OA
ATOM     84  O   UNL A   1      41.521  22.493  28.113  1.00  0.00    -0.237 OA
ATOM     85  O   UNL A   1      39.608  22.862  26.606  1.00  0.00    -0.744 OA
ENDBRANCH  78  82
ENDBRANCH  51  75
BRANCH  63  86
ATOM     86  C   UNL A   1      44.459  27.730  34.039  1.00  0.00     0.023 A 
ATOM     87  C   UNL A   1      44.329  26.565  34.814  1.00  0.00     0.031 A 
ATOM     88  C   UNL A   1      45.743  28.281  33.877  1.00  0.00     0.131 A 
ATOM     89  C   UNL A   1      45.461  26.003  35.422  1.00  0.00     0.055 A 
ATOM     90  C   UNL A   1      46.872  27.692  34.447  1.00  0.00     0.041 A 
ATOM     91  F   UNL A   1      45.921  29.393  33.144  1.00  0.00    -0.206 F 
ATOM     92  C   UNL A   1      46.734  26.550  35.230  1.00  0.00     0.022 A 
BRANCH  89  93
ATOM     93  S   UNL A   1      45.249  24.563  36.504  1.00  0.00     0.124 S 
ATOM     94  O   UNL A   1      44.638  23.594  35.600  1.00  0.00    -0.237 OA
ATOM     95  O   UNL A   1      46.617  24.275  36.920  1.00  0.00    -0.237 OA
ATOM     96  O   UNL A   1      44.373  25.057  37.566  1.00  0.00    -0.744 OA
ENDBRANCH  89  93
ENDBRANCH  63  86
ENDBRANCH  37  38
ENDBRANCH  30  32
ENDBRANCH  29  30
ENDBRANCH  28  29
ENDBRANCH   1  28
TORSDOF 20
ENDMDL
MODEL 2
REMARK VINA RESULT:     -11.6      1.614      7.571
REMARK SMILES Nc1c(N2CCCC2)ncnc1N1CCC(C(=O)OCCOCCOC(=O)c2ccc(-c3c4nc(c(-c5cc(S(=O)(=O)[O-])ccc5F)c5ccc([nH]5)c(-c5cc(S(=O)(=O)[O-])ccc5F)c5nc(c(-c6cc(S(=O)(=O)[O-])ccc6F)c6ccc3[nH]6)C=C5)C=C4)cc2)CC1
REMARK SMILES IDX 23 1 22 2 21 3 20 4 19 5 17 6 18 7 16 8 13 9 14 10 92 11
REMARK SMILES IDX 15 12 91 13 12 14 2 15 3 16 9 17 11 18 10 19 1 20 4 23 5 24
REMARK SMILES IDX 8 25 6 26 7 27 24 28 25 29 26 30 27 31 28 32 29 33 90 34
REMARK SMILES IDX 30 35 89 36 31 37 32 38 33 39 83 40 34 41 88 42 82 43 84 44
REMARK SMILES IDX 35 45 87 46 81 47 80 48 36 50 68 51 48 52 67 53 49 54 52 55
REMARK SMILES IDX 66 56 85 57 50 58 51 59 65 61 86 62 53 63 37 64 38 65 46 66
REMARK SMILES IDX 39 67 45 68 47 69 44 70 40 71 41 72 42 73 43 74 69 75 70 76
REMARK SMILES IDX 78 77 71 78 77 79 79 80 76 81 72 82 73 83 74 84 75 85 54 86
REMARK SMILES IDX 55 87 63 88 56 89 62 90 64 91 61 92 57 93 58 94 59 95 60 96
REMARK H PARENT 1 21 1 22 84 49 52 60
REMARK Flexibility Score: inf
ROOT
ATOM      1  C   UNL A   1      31.131  30.023  24.938  1.00  0.00     0.202 C 
ENDROOT
BRANCH   1   2
ATOM      2  O   UNL A   1      30.156  30.540  24.033  1.00  0.00    -0.374 OA
BRANCH   2   3
ATOM      3  C   UNL A   1      29.474  29.611  23.192  1.00  0.00     0.202 C 
BRANCH   3   4
ATOM      4  C   UNL A   1      29.748  28.126  23.437  1.00  0.00     0.261 C 
BRANCH   4   5
ATOM      5  O   UNL A   1      30.337  27.497  22.288  1.00  0.00    -0.463 OA
BRANCH   5   6
ATOM      6  C   UNL A   1      31.611  27.067  22.451  1.00  0.00     0.309 C 
ATOM      7  O   UNL A   1      32.588  27.789  22.626  1.00  0.00    -0.252 OA
BRANCH   6   8
ATOM      8  C   UNL A   1      31.744  25.566  22.389  1.00  0.00     0.103 C 
ATOM      9  N   UNL A   1      32.396  22.873  23.019  1.00  0.00    -0.355 N 
ATOM     10  C   UNL A   1      32.994  23.471  21.832  1.00  0.00     0.119 C 
ATOM     11  C   UNL A   1      31.211  23.483  23.622  1.00  0.00     0.119 C 
ATOM     12  C   UNL A   1      33.093  24.993  21.948  1.00  0.00     0.037 C 
ATOM     13  C   UNL A   1      31.374  24.987  23.748  1.00  0.00     0.037 C 
BRANCH   9  14
ATOM     14  C   UNL A   1      33.218  22.117  23.859  1.00  0.00     0.157 A 
ATOM     15  C   UNL A   1      33.079  20.715  23.882  1.00  0.00     0.118 A 
ATOM     16  C   UNL A   1      33.871  20.019  24.807  1.00  0.00     0.157 A 
ATOM     17  N   UNL A   1      34.674  20.666  25.668  1.00  0.00    -0.217 NA
ATOM     18  N   UNL A   1      34.083  22.761  24.658  1.00  0.00    -0.217 NA
ATOM     19  C   UNL A   1      34.755  21.998  25.531  1.00  0.00     0.226 A 
BRANCH  15  20
ATOM     20  N   UNL A   1      32.220  20.059  22.978  1.00  0.00    -0.393 N 
ATOM     21  H   UNL A   1      31.249  20.050  23.139  1.00  0.00     0.156 HD
ATOM     22  H   UNL A   1      32.591  19.609  22.185  1.00  0.00     0.156 HD
ENDBRANCH  15  20
BRANCH  16  23
ATOM     23  N   UNL A   1      33.823  18.651  24.914  1.00  0.00    -0.355 N 
ATOM     24  C   UNL A   1      34.658  17.717  24.190  1.00  0.00     0.118 C 
ATOM     25  C   UNL A   1      32.676  18.021  25.540  1.00  0.00     0.118 C 
ATOM     26  C   UNL A   1      33.677  16.596  23.867  1.00  0.00     0.023 C 
ATOM     27  C   UNL A   1      32.797  16.553  25.114  1.00  0.00     0.023 C 
ENDBRANCH  16  23
ENDBRANCH   9  14
ENDBRANCH   6   8
ENDBRANCH   5   6
ENDBRANCH   4   5
ENDBRANCH   3   4
ENDBRANCH   2   3
ENDBRANCH   1   2
BRANCH   1  28
ATOM     28  C   UNL A   1      31.438  30.849  26.195  1.00  0.00     0.261 C 
BRANCH  28  29
ATOM     29  O   UNL A   1      32.722  30.538  26.765  1.00  0.00    -0.460 OA
BRANCH  29  30
ATOM     30  C   UNL A   1      33.393  31.608  27.259  1.00  0.00     0.338 C 
ATOM     31  O   UNL A   1      32.937  32.726  27.466  1.00  0.00    -0.246 OA
BRANCH  30  32
ATOM     32  C   UNL A   1      34.737  31.208  27.711  1.00  0.00     0.060 A 
ATOM     33  C   UNL A   1      34.946  29.852  27.994  1.00  0.00     0.016 A 
ATOM     34  C   UNL A   1      35.743  32.147  27.946  1.00  0.00     0.016 A 
ATOM     35  C   UNL A   1      36.148  29.434  28.558  1.00  0.00     0.010 A 
ATOM     36  C   UNL A   1      36.946  31.727  28.528  1.00  0.00     0.010 A 
ATOM     37  C   UNL A   1      37.138  30.376  28.870  1.00  0.00    -0.014 A 
BRANCH  37  38
ATOM     38  C   UNL A   1      38.289  29.961  29.708  1.00  0.00     0.031 A 
ATOM     39  C   UNL A   1      39.301  29.009  29.132  1.00  0.00     0.074 A 
ATOM     40  C   UNL A   1      38.477  30.487  30.932  1.00  0.00     0.049 A 
ATOM     41  N   UNL A   1      40.382  28.514  29.678  1.00  0.00    -0.248 NA
ATOM     42  C   UNL A   1      39.065  28.566  27.749  1.00  0.00     0.031 C 
ATOM     43  C   UNL A   1      37.615  31.485  31.561  1.00  0.00     0.029 A 
ATOM     44  N   UNL A   1      39.471  30.271  31.852  1.00  0.00    -0.354 N 
ATOM     45  C   UNL A   1      40.965  27.715  28.701  1.00  0.00     0.074 A 
ATOM     46  C   UNL A   1      40.091  27.754  27.548  1.00  0.00     0.031 C 
ATOM     47  C   UNL A   1      38.131  31.811  32.760  1.00  0.00     0.029 A 
ATOM     48  C   UNL A   1      39.336  31.018  32.997  1.00  0.00     0.049 A 
ATOM     49  H   UNL A   1      40.212  29.638  31.705  1.00  0.00     0.167 HD
ATOM     50  C   UNL A   1      42.133  27.029  28.752  1.00  0.00     0.034 A 
ATOM     51  C   UNL A   1      40.092  31.049  34.112  1.00  0.00     0.034 A 
ATOM     52  C   UNL A   1      42.984  26.974  29.913  1.00  0.00     0.049 A 
ATOM     53  C   UNL A   1      41.304  30.159  34.208  1.00  0.00     0.074 A 
ATOM     54  C   UNL A   1      44.163  26.271  30.087  1.00  0.00     0.029 A 
ATOM     55  N   UNL A   1      42.743  27.644  31.106  1.00  0.00    -0.354 N 
ATOM     56  N   UNL A   1      41.808  29.352  33.304  1.00  0.00    -0.248 NA
ATOM     57  C   UNL A   1      42.042  30.178  35.479  1.00  0.00     0.031 C 
ATOM     58  C   UNL A   1      44.603  26.470  31.400  1.00  0.00     0.029 A 
ATOM     59  C   UNL A   1      43.736  27.352  32.026  1.00  0.00     0.049 A 
ATOM     60  H   UNL A   1      41.978  28.242  31.271  1.00  0.00     0.167 HD
ATOM     61  C   UNL A   1      42.936  28.783  33.889  1.00  0.00     0.074 A 
ATOM     62  C   UNL A   1      43.038  29.339  35.224  1.00  0.00     0.031 C 
ATOM     63  C   UNL A   1      43.813  27.891  33.364  1.00  0.00     0.034 A 
BRANCH  50  64
ATOM     64  C   UNL A   1      42.524  26.251  27.522  1.00  0.00     0.023 A 
ATOM     65  C   UNL A   1      42.150  24.905  27.357  1.00  0.00     0.031 A 
ATOM     66  C   UNL A   1      43.306  26.847  26.518  1.00  0.00     0.131 A 
ATOM     67  C   UNL A   1      42.610  24.183  26.247  1.00  0.00     0.055 A 
ATOM     68  C   UNL A   1      43.702  26.142  25.380  1.00  0.00     0.041 A 
ATOM     69  F   UNL A   1      43.711  28.121  26.634  1.00  0.00    -0.206 F 
ATOM     70  C   UNL A   1      43.365  24.799  25.245  1.00  0.00     0.022 A 
BRANCH  67  71
ATOM     71  S   UNL A   1      42.308  22.395  26.188  1.00  0.00     0.124 S 
ATOM     72  O   UNL A   1      42.896  21.956  27.452  1.00  0.00    -0.237 OA
ATOM     73  O   UNL A   1      40.855  22.323  26.098  1.00  0.00    -0.237 OA
ATOM     74  O   UNL A   1      43.029  21.966  24.990  1.00  0.00    -0.744 OA
ENDBRANCH  67  71
ENDBRANCH  50  64
BRANCH  51  75
ATOM     75  C   UNL A   1      39.715  31.949  35.236  1.00  0.00     0.023 A 
ATOM     76  C   UNL A   1      38.860  31.506  36.254  1.00  0.00     0.031 A 
ATOM     77  C   UNL A   1      40.216  33.260  35.310  1.00  0.00     0.131 A 
ATOM     78  C   UNL A   1      38.521  32.372  37.305  1.00  0.00     0.055 A 
ATOM     79  C   UNL A   1      39.903  34.108  36.373  1.00  0.00     0.041 A 
ATOM     80  F   UNL A   1      41.041  33.726  34.360  1.00  0.00    -0.206 F 
ATOM     81  C   UNL A   1      39.047  33.666  37.378  1.00  0.00     0.022 A 
BRANCH  78  82
ATOM     82  S   UNL A   1      37.375  31.787  38.584  1.00  0.00     0.124 S 
ATOM     83  O   UNL A   1      37.136  30.412  38.161  1.00  0.00    -0.237 OA
ATOM     84  O   UNL A   1      38.160  31.960  39.801  1.00  0.00    -0.237 OA
ATOM     85  O   UNL A   1      36.233  32.691  38.453  1.00  0.00    -0.744 OA
ENDBRANCH  78  82
ENDBRANCH  51  75
BRANCH  63  86
ATOM     86  C   UNL A   1      44.977  27.473  34.223  1.00  0.00     0.023 A 
ATOM     87  C   UNL A   1      44.939  26.300  34.995  1.00  0.00     0.031 A 
ATOM     88  C   UNL A   1      46.156  28.240  34.238  1.00  0.00     0.131 A 
ATOM     89  C   UNL A   1      46.049  25.941  35.774  1.00  0.00     0.055 A 
ATOM     90  C   UNL A   1      47.274  27.854  34.978  1.00  0.00     0.041 A 
ATOM     91  F   UNL A   1      46.245  29.369  33.516  1.00  0.00    -0.206 F 
ATOM     92  C   UNL A   1      47.222  26.701  35.757  1.00  0.00     0.022 A 
BRANCH  89  93
ATOM     93  S   UNL A   1      45.932  24.481  36.844  1.00  0.00     0.124 S 
ATOM     94  O   UNL A   1      46.987  23.627  36.306  1.00  0.00    -0.237 OA
ATOM     95  O   UNL A   1      46.176  25.040  38.169  1.00  0.00    -0.237 OA
ATOM     96  O   UNL A   1      44.570  23.998  36.619  1.00  0.00    -0.744 OA
ENDBRANCH  89  93
ENDBRANCH  63  86
ENDBRANCH  37  38
ENDBRANCH  30  32
ENDBRANCH  29  30
ENDBRANCH  28  29
ENDBRANCH   1  28
TORSDOF 20
ENDMDL
MODEL 3
REMARK VINA RESULT:     -11.5      1.701      2.179
REMARK SMILES Nc1c(N2CCCC2)ncnc1N1CCC(C(=O)OCCOCCOC(=O)c2ccc(-c3c4nc(c(-c5cc(S(=O)(=O)[O-])ccc5F)c5ccc([nH]5)c(-c5cc(S(=O)(=O)[O-])ccc5F)c5nc(c(-c6cc(S(=O)(=O)[O-])ccc6F)c6ccc3[nH]6)C=C5)C=C4)cc2)CC1
REMARK SMILES IDX 23 1 22 2 21 3 20 4 19 5 17 6 18 7 16 8 13 9 14 10 92 11
REMARK SMILES IDX 15 12 91 13 12 14 2 15 3 16 9 17 11 18 10 19 1 20 4 23 5 24
REMARK SMILES IDX 8 25 6 26 7 27 24 28 25 29 26 30 27 31 28 32 29 33 90 34
REMARK SMILES IDX 30 35 89 36 31 37 32 38 33 39 83 40 34 41 88 42 82 43 84 44
REMARK SMILES IDX 35 45 87 46 81 47 80 48 36 50 68 51 48 52 67 53 49 54 52 55
REMARK SMILES IDX 66 56 85 57 50 58 51 59 65 61 86 62 53 63 37 64 38 65 46 66
REMARK SMILES IDX 39 67 45 68 47 69 44 70 40 71 41 72 42 73 43 74 69 75 70 76
REMARK SMILES IDX 78 77 71 78 77 79 79 80 76 81 72 82 73 83 74 84 75 85 54 86
REMARK SMILES IDX 55 87 63 88 56 89 62 90 64 91 61 92 57 93 58 94 59 95 60 96
REMARK H PARENT 1 21 1 22 84 49 52 60
REMARK Flexibility Score: inf
ROOT
ATOM      1  C   UNL A   1      31.946  31.195  26.693  1.00  0.00     0.202 C 
ENDROOT
BRANCH   1   2
ATOM      2  O   UNL A   1      31.383  30.690  25.483  1.00  0.00    -0.374 OA
BRANCH   2   3
ATOM      3  C   UNL A   1      31.964  29.515  24.921  1.00  0.00     0.202 C 
BRANCH   3   4
ATOM      4  C   UNL A   1      31.031  28.323  24.696  1.00  0.00     0.261 C 
BRANCH   4   5
ATOM      5  O   UNL A   1      31.668  27.079  25.026  1.00  0.00    -0.463 OA
BRANCH   5   6
ATOM      6  C   UNL A   1      31.451  26.634  26.287  1.00  0.00     0.309 C 
ATOM      7  O   UNL A   1      31.013  27.308  27.214  1.00  0.00    -0.252 OA
BRANCH   6   8
ATOM      8  C   UNL A   1      31.814  25.182  26.475  1.00  0.00     0.103 C 
ATOM      9  N   UNL A   1      32.449  22.458  25.971  1.00  0.00    -0.355 N 
ATOM     10  C   UNL A   1      31.227  22.760  26.707  1.00  0.00     0.119 C 
ATOM     11  C   UNL A   1      33.497  23.471  25.857  1.00  0.00     0.119 C 
ATOM     12  C   UNL A   1      30.687  24.151  26.370  1.00  0.00     0.037 C 
ATOM     13  C   UNL A   1      32.915  24.822  25.486  1.00  0.00     0.037 C 
BRANCH   9  14
ATOM     14  C   UNL A   1      32.387  21.491  24.964  1.00  0.00     0.157 A 
ATOM     15  C   UNL A   1      32.820  20.179  25.238  1.00  0.00     0.118 A 
ATOM     16  C   UNL A   1      32.815  19.276  24.166  1.00  0.00     0.157 A 
ATOM     17  N   UNL A   1      32.471  19.665  22.925  1.00  0.00    -0.217 NA
ATOM     18  N   UNL A   1      31.960  21.861  23.746  1.00  0.00    -0.217 NA
ATOM     19  C   UNL A   1      32.040  20.928  22.788  1.00  0.00     0.226 A 
BRANCH  15  20
ATOM     20  N   UNL A   1      33.188  19.798  26.544  1.00  0.00    -0.393 N 
ATOM     21  H   UNL A   1      33.805  19.044  26.682  1.00  0.00     0.156 HD
ATOM     22  H   UNL A   1      32.829  20.287  27.320  1.00  0.00     0.156 HD
ENDBRANCH  15  20
BRANCH  16  23
ATOM     23  N   UNL A   1      33.210  17.970  24.318  1.00  0.00    -0.355 N 
ATOM     24  C   UNL A   1      32.381  16.887  24.799  1.00  0.00     0.118 C 
ATOM     25  C   UNL A   1      34.624  17.645  24.310  1.00  0.00     0.118 C 
ATOM     26  C   UNL A   1      33.357  16.099  25.666  1.00  0.00     0.023 C 
ATOM     27  C   UNL A   1      34.668  16.228  24.894  1.00  0.00     0.023 C 
ENDBRANCH  16  23
ENDBRANCH   9  14
ENDBRANCH   6   8
ENDBRANCH   5   6
ENDBRANCH   4   5
ENDBRANCH   3   4
ENDBRANCH   2   3
ENDBRANCH   1   2
BRANCH   1  28
ATOM     28  C   UNL A   1      31.770  32.692  26.984  1.00  0.00     0.261 C 
BRANCH  28  29
ATOM     29  O   UNL A   1      33.010  33.420  26.916  1.00  0.00    -0.460 OA
BRANCH  29  30
ATOM     30  C   UNL A   1      33.518  33.779  28.121  1.00  0.00     0.338 C 
ATOM     31  O   UNL A   1      32.983  34.497  28.957  1.00  0.00    -0.246 OA
BRANCH  30  32
ATOM     32  C   UNL A   1      34.754  33.029  28.403  1.00  0.00     0.060 A 
ATOM     33  C   UNL A   1      34.621  31.748  28.954  1.00  0.00     0.016 A 
ATOM     34  C   UNL A   1      36.017  33.597  28.223  1.00  0.00     0.016 A 
ATOM     35  C   UNL A   1      35.748  31.047  29.373  1.00  0.00     0.010 A 
ATOM     36  C   UNL A   1      37.149  32.896  28.658  1.00  0.00     0.010 A 
ATOM     37  C   UNL A   1      37.015  31.636  29.268  1.00  0.00    -0.014 A 
BRANCH  37  38
ATOM     38  C   UNL A   1      38.165  31.000  29.957  1.00  0.00     0.031 A 
ATOM     39  C   UNL A   1      38.433  31.353  31.395  1.00  0.00     0.074 A 
ATOM     40  C   UNL A   1      38.906  30.062  29.342  1.00  0.00     0.049 A 
ATOM     41  N   UNL A   1      39.376  30.923  32.194  1.00  0.00    -0.248 NA
ATOM     42  C   UNL A   1      37.507  32.313  32.014  1.00  0.00     0.031 C 
ATOM     43  C   UNL A   1      38.687  29.572  27.982  1.00  0.00     0.029 A 
ATOM     44  N   UNL A   1      39.980  29.338  29.793  1.00  0.00    -0.354 N 
ATOM     45  C   UNL A   1      39.146  31.545  33.416  1.00  0.00     0.074 A 
ATOM     46  C   UNL A   1      38.006  32.419  33.236  1.00  0.00     0.031 C 
ATOM     47  C   UNL A   1      39.588  28.610  27.718  1.00  0.00     0.029 A 
ATOM     48  C   UNL A   1      40.469  28.444  28.871  1.00  0.00     0.049 A 
ATOM     49  H   UNL A   1      40.365  29.449  30.693  1.00  0.00     0.167 HD
ATOM     50  C   UNL A   1      39.811  31.387  34.587  1.00  0.00     0.034 A 
ATOM     51  C   UNL A   1      41.514  27.597  28.948  1.00  0.00     0.034 A 
ATOM     52  C   UNL A   1      40.961  30.535  34.750  1.00  0.00     0.049 A 
ATOM     53  C   UNL A   1      42.336  27.549  30.210  1.00  0.00     0.074 A 
ATOM     54  C   UNL A   1      41.737  30.338  35.879  1.00  0.00     0.029 A 
ATOM     55  N   UNL A   1      41.508  29.740  33.751  1.00  0.00    -0.354 N 
ATOM     56  N   UNL A   1      42.154  28.196  31.338  1.00  0.00    -0.248 NA
ATOM     57  C   UNL A   1      43.511  26.666  30.204  1.00  0.00     0.031 C 
ATOM     58  C   UNL A   1      42.783  29.471  35.547  1.00  0.00     0.029 A 
ATOM     59  C   UNL A   1      42.623  29.073  34.230  1.00  0.00     0.049 A 
ATOM     60  H   UNL A   1      41.152  29.661  32.836  1.00  0.00     0.167 HD
ATOM     61  C   UNL A   1      43.178  27.781  32.184  1.00  0.00     0.074 A 
ATOM     62  C   UNL A   1      43.975  26.828  31.437  1.00  0.00     0.031 C 
ATOM     63  C   UNL A   1      43.427  28.145  33.467  1.00  0.00     0.034 A 
BRANCH  50  64
ATOM     64  C   UNL A   1      39.324  32.192  35.764  1.00  0.00     0.023 A 
ATOM     65  C   UNL A   1      38.571  31.600  36.794  1.00  0.00     0.031 A 
ATOM     66  C   UNL A   1      39.587  33.570  35.845  1.00  0.00     0.131 A 
ATOM     67  C   UNL A   1      38.054  32.395  37.827  1.00  0.00     0.055 A 
ATOM     68  C   UNL A   1      39.128  34.343  36.914  1.00  0.00     0.041 A 
ATOM     69  F   UNL A   1      40.281  34.191  34.879  1.00  0.00    -0.206 F 
ATOM     70  C   UNL A   1      38.347  33.759  37.906  1.00  0.00     0.022 A 
BRANCH  67  71
ATOM     71  S   UNL A   1      36.894  31.645  39.002  1.00  0.00     0.124 S 
ATOM     72  O   UNL A   1      35.827  32.642  39.039  1.00  0.00    -0.237 OA
ATOM     73  O   UNL A   1      36.565  30.379  38.358  1.00  0.00    -0.237 OA
ATOM     74  O   UNL A   1      37.677  31.533  40.231  1.00  0.00    -0.744 OA
ENDBRANCH  67  71
ENDBRANCH  50  64
BRANCH  51  75
ATOM     75  C   UNL A   1      41.852  26.731  27.786  1.00  0.00     0.023 A 
ATOM     76  C   UNL A   1      41.611  25.350  27.825  1.00  0.00     0.031 A 
ATOM     77  C   UNL A   1      42.409  27.277  26.617  1.00  0.00     0.131 A 
ATOM     78  C   UNL A   1      41.936  24.555  26.714  1.00  0.00     0.055 A 
ATOM     79  C   UNL A   1      42.701  26.488  25.503  1.00  0.00     0.041 A 
ATOM     80  F   UNL A   1      42.653  28.594  26.533  1.00  0.00    -0.206 F 
ATOM     81  C   UNL A   1      42.467  25.117  25.550  1.00  0.00     0.022 A 
BRANCH  78  82
ATOM     82  S   UNL A   1      41.657  22.766  26.811  1.00  0.00     0.124 S 
ATOM     83  O   UNL A   1      41.701  22.382  25.405  1.00  0.00    -0.237 OA
ATOM     84  O   UNL A   1      42.778  22.325  27.634  1.00  0.00    -0.237 OA
ATOM     85  O   UNL A   1      40.345  22.661  27.449  1.00  0.00    -0.744 OA
ENDBRANCH  78  82
ENDBRANCH  51  75
BRANCH  63  86
ATOM     86  C   UNL A   1      44.598  27.498  34.158  1.00  0.00     0.023 A 
ATOM     87  C   UNL A   1      44.486  26.240  34.774  1.00  0.00     0.031 A 
ATOM     88  C   UNL A   1      45.853  28.132  34.166  1.00  0.00     0.131 A 
ATOM     89  C   UNL A   1      45.605  25.667  35.397  1.00  0.00     0.055 A 
ATOM     90  C   UNL A   1      46.973  27.537  34.748  1.00  0.00     0.041 A 
ATOM     91  F   UNL A   1      46.014  29.335  33.590  1.00  0.00    -0.206 F 
ATOM     92  C   UNL A   1      46.851  26.300  35.374  1.00  0.00     0.022 A 
BRANCH  89  93
ATOM     93  S   UNL A   1      45.405  24.093  36.277  1.00  0.00     0.124 S 
ATOM     94  O   UNL A   1      44.420  23.406  35.447  1.00  0.00    -0.237 OA
ATOM     95  O   UNL A   1      46.756  23.543  36.251  1.00  0.00    -0.237 OA
ATOM     96  O   UNL A   1      44.928  24.496  37.599  1.00  0.00    -0.744 OA
ENDBRANCH  89  93
ENDBRANCH  63  86
ENDBRANCH  37  38
ENDBRANCH  30  32
ENDBRANCH  29  30
ENDBRANCH  28  29
ENDBRANCH   1  28
TORSDOF 20
ENDMDL
