MODEL 1
REMARK VINA RESULT:      -9.7      0.000      0.000
REMARK SMILES CC[NH2+]C(C)(C)C(=O)N[C@@](C)(C(=O)OCCOCCOC(=O)c1ccc(-c2c3nc(c(-c4cc(S(=O)(=O)[O-])ccc4F)c4ccc([nH]4)c(-c4cc(S(=O)(=O)[O-])ccc4F)c4nc(c(-c5cc(S(=O)(=O)[O-])ccc5F)c5ccc2[nH]5)C=C4)C=C3)cc1)C(F)(F)F
REMARK SMILES IDX 16 1 15 2 14 3 12 4 13 5 10 6 11 7 9 8 7 9 8 10 4 12 5 13
REMARK SMILES IDX 6 14 3 15 2 18 1 19 86 20 87 21 88 22 89 23 17 24 18 25
REMARK SMILES IDX 19 26 20 27 21 28 22 29 23 30 24 31 85 32 25 33 84 34 26 35
REMARK SMILES IDX 27 36 28 37 78 38 29 39 83 40 77 41 79 42 30 43 82 44 76 45
REMARK SMILES IDX 75 46 31 48 63 49 43 50 62 51 44 52 47 53 61 54 80 55 45 56
REMARK SMILES IDX 46 57 60 59 81 60 48 61 32 62 33 63 41 64 34 65 40 66 42 67
REMARK SMILES IDX 39 68 35 69 36 70 37 71 38 72 64 73 65 74 73 75 66 76 72 77
REMARK SMILES IDX 74 78 71 79 67 80 68 81 69 82 70 83 49 84 50 85 58 86 51 87
REMARK SMILES IDX 57 88 59 89 56 90 52 91 53 92 54 93 55 94
REMARK H PARENT 9 11 3 16 3 17 79 47 47 58
REMARK Flexibility Score: inf
ROOT
ATOM      1  C   UNL A   1      30.646  29.005  22.974  1.00  0.00     0.202 C 
ENDROOT
BRANCH   1   2
ATOM      2  C   UNL A   1      30.061  27.596  22.798  1.00  0.00     0.261 C 
BRANCH   2   3
ATOM      3  O   UNL A   1      31.038  26.559  22.981  1.00  0.00    -0.461 OA
BRANCH   3   4
ATOM      4  C   UNL A   1      31.152  26.078  24.254  1.00  0.00     0.341 C 
ATOM      5  O   UNL A   1      30.313  26.267  25.128  1.00  0.00    -0.249 OA
BRANCH   4   6
ATOM      6  C   UNL A   1      32.457  25.282  24.472  1.00  0.00     0.231 C 
ATOM      7  C   UNL A   1      33.413  25.721  23.356  1.00  0.00     0.058 C 
BRANCH   6   8
ATOM      8  N   UNL A   1      32.183  23.791  24.278  1.00  0.00    -0.328 N 
ATOM      9  C   UNL A   1      32.775  22.564  24.320  1.00  0.00     0.281 C 
ATOM     10  O   UNL A   1      32.094  21.686  23.773  1.00  0.00    -0.268 OA
ATOM     11  H   UNL A   1      31.237  23.675  24.034  1.00  0.00     0.165 HD
BRANCH   9  12
ATOM     12  C   UNL A   1      34.106  22.219  25.065  1.00  0.00     0.169 C 
ATOM     13  C   UNL A   1      34.501  20.765  24.765  1.00  0.00     0.090 C 
ATOM     14  C   UNL A   1      33.951  22.504  26.569  1.00  0.00     0.090 C 
BRANCH  12  15
ATOM     15  N   UNL A   1      35.269  23.093  24.702  1.00  0.00    -0.334 N 
ATOM     16  H   UNL A   1      35.275  23.176  23.685  1.00  0.00     0.347 HD
ATOM     17  H   UNL A   1      35.103  23.952  25.226  1.00  0.00     0.347 HD
BRANCH  15  18
ATOM     18  C   UNL A   1      36.611  22.685  25.107  1.00  0.00     0.257 C 
ATOM     19  C   UNL A   1      37.252  23.827  25.895  1.00  0.00     0.071 C 
ENDBRANCH  15  18
ENDBRANCH  12  15
ENDBRANCH   9  12
ENDBRANCH   6   8
BRANCH   6  20
ATOM     20  C   UNL A   1      32.909  25.831  25.839  1.00  0.00     0.422 C 
ATOM     21  F   UNL A   1      32.667  27.156  25.965  1.00  0.00    -0.168 F 
ATOM     22  F   UNL A   1      32.284  25.222  26.871  1.00  0.00    -0.168 F 
ATOM     23  F   UNL A   1      34.230  25.641  26.071  1.00  0.00    -0.168 F 
ENDBRANCH   6  20
ENDBRANCH   4   6
ENDBRANCH   3   4
ENDBRANCH   2   3
ENDBRANCH   1   2
BRANCH   1  24
ATOM     24  O   UNL A   1      30.495  29.636  24.242  1.00  0.00    -0.374 OA
BRANCH  24  25
ATOM     25  C   UNL A   1      31.661  29.822  25.045  1.00  0.00     0.202 C 
BRANCH  25  26
ATOM     26  C   UNL A   1      31.625  30.848  26.188  1.00  0.00     0.261 C 
BRANCH  26  27
ATOM     27  O   UNL A   1      32.637  30.637  27.189  1.00  0.00    -0.460 OA
BRANCH  27  28
ATOM     28  C   UNL A   1      33.391  31.736  27.459  1.00  0.00     0.338 C 
ATOM     29  O   UNL A   1      33.009  32.893  27.508  1.00  0.00    -0.246 OA
BRANCH  28  30
ATOM     30  C   UNL A   1      34.743  31.339  27.892  1.00  0.00     0.060 A 
ATOM     31  C   UNL A   1      34.933  30.007  28.283  1.00  0.00     0.016 A 
ATOM     32  C   UNL A   1      35.774  32.272  28.025  1.00  0.00     0.016 A 
ATOM     33  C   UNL A   1      36.143  29.610  28.848  1.00  0.00     0.010 A 
ATOM     34  C   UNL A   1      36.984  31.872  28.605  1.00  0.00     0.010 A 
ATOM     35  C   UNL A   1      37.162  30.548  29.049  1.00  0.00    -0.014 A 
BRANCH  35  36
ATOM     36  C   UNL A   1      38.348  30.173  29.861  1.00  0.00     0.031 A 
ATOM     37  C   UNL A   1      39.322  29.170  29.303  1.00  0.00     0.074 A 
ATOM     38  C   UNL A   1      38.572  30.746  31.058  1.00  0.00     0.049 A 
ATOM     39  N   UNL A   1      40.409  28.681  29.841  1.00  0.00    -0.248 NA
ATOM     40  C   UNL A   1      39.032  28.651  27.957  1.00  0.00     0.031 C 
ATOM     41  C   UNL A   1      37.725  31.768  31.675  1.00  0.00     0.029 A 
ATOM     42  N   UNL A   1      39.578  30.550  31.970  1.00  0.00    -0.354 N 
ATOM     43  C   UNL A   1      40.929  27.790  28.906  1.00  0.00     0.074 A 
ATOM     44  C   UNL A   1      40.024  27.791  27.777  1.00  0.00     0.031 C 
ATOM     45  C   UNL A   1      38.243  32.100  32.870  1.00  0.00     0.029 A 
ATOM     46  C   UNL A   1      39.434  31.291  33.121  1.00  0.00     0.049 A 
ATOM     47  H   UNL A   1      40.332  29.936  31.817  1.00  0.00     0.167 HD
ATOM     48  C   UNL A   1      42.056  27.042  28.985  1.00  0.00     0.034 A 
ATOM     49  C   UNL A   1      40.166  31.294  34.254  1.00  0.00     0.034 A 
ATOM     50  C   UNL A   1      42.949  27.052  30.118  1.00  0.00     0.049 A 
ATOM     51  C   UNL A   1      41.375  30.391  34.345  1.00  0.00     0.074 A 
ATOM     52  C   UNL A   1      44.135  26.358  30.285  1.00  0.00     0.029 A 
ATOM     53  N   UNL A   1      42.748  27.780  31.283  1.00  0.00    -0.354 N 
ATOM     54  N   UNL A   1      41.868  29.574  33.442  1.00  0.00    -0.248 NA
ATOM     55  C   UNL A   1      42.131  30.417  35.605  1.00  0.00     0.031 C 
ATOM     56  C   UNL A   1      44.612  26.610  31.575  1.00  0.00     0.029 A 
ATOM     57  C   UNL A   1      43.766  27.522  32.186  1.00  0.00     0.049 A 
ATOM     58  H   UNL A   1      41.993  28.390  31.443  1.00  0.00     0.167 HD
ATOM     59  C   UNL A   1      43.012  29.021  34.014  1.00  0.00     0.074 A 
ATOM     60  C   UNL A   1      43.142  29.607  35.331  1.00  0.00     0.031 C 
ATOM     61  C   UNL A   1      43.881  28.116  33.497  1.00  0.00     0.034 A 
BRANCH  48  62
ATOM     62  C   UNL A   1      42.358  26.108  27.840  1.00  0.00     0.023 A 
ATOM     63  C   UNL A   1      41.908  24.777  27.824  1.00  0.00     0.031 A 
ATOM     64  C   UNL A   1      43.107  26.566  26.741  1.00  0.00     0.131 A 
ATOM     65  C   UNL A   1      42.251  23.937  26.753  1.00  0.00     0.055 A 
ATOM     66  C   UNL A   1      43.389  25.745  25.649  1.00  0.00     0.041 A 
ATOM     67  F   UNL A   1      43.580  27.822  26.714  1.00  0.00    -0.206 F 
ATOM     68  C   UNL A   1      42.969  24.419  25.655  1.00  0.00     0.022 A 
BRANCH  65  69
ATOM     69  S   UNL A   1      41.832  22.175  26.857  1.00  0.00     0.124 S 
ATOM     70  O   UNL A   1      40.572  22.213  27.593  1.00  0.00    -0.237 OA
ATOM     71  O   UNL A   1      41.742  21.788  25.453  1.00  0.00    -0.237 OA
ATOM     72  O   UNL A   1      42.957  21.597  27.590  1.00  0.00    -0.744 OA
ENDBRANCH  65  69
ENDBRANCH  48  62
BRANCH  49  73
ATOM     73  C   UNL A   1      39.768  32.137  35.421  1.00  0.00     0.023 A 
ATOM     74  C   UNL A   1      38.970  31.619  36.453  1.00  0.00     0.031 A 
ATOM     75  C   UNL A   1      40.106  33.502  35.474  1.00  0.00     0.131 A 
ATOM     76  C   UNL A   1      38.483  32.470  37.457  1.00  0.00     0.055 A 
ATOM     77  C   UNL A   1      39.669  34.331  36.507  1.00  0.00     0.041 A 
ATOM     78  F   UNL A   1      40.864  34.052  34.512  1.00  0.00    -0.206 F 
ATOM     79  C   UNL A   1      38.837  33.821  37.498  1.00  0.00     0.022 A 
BRANCH  76  80
ATOM     80  S   UNL A   1      37.280  31.813  38.646  1.00  0.00     0.124 S 
ATOM     81  O   UNL A   1      36.996  30.497  38.085  1.00  0.00    -0.237 OA
ATOM     82  O   UNL A   1      38.044  31.830  39.888  1.00  0.00    -0.237 OA
ATOM     83  O   UNL A   1      36.178  32.771  38.580  1.00  0.00    -0.744 OA
ENDBRANCH  76  80
ENDBRANCH  49  73
BRANCH  61  84
ATOM     84  C   UNL A   1      45.078  27.752  34.342  1.00  0.00     0.023 A 
ATOM     85  C   UNL A   1      45.059  26.658  35.224  1.00  0.00     0.031 A 
ATOM     86  C   UNL A   1      46.252  28.522  34.267  1.00  0.00     0.131 A 
ATOM     87  C   UNL A   1      46.171  26.397  36.037  1.00  0.00     0.055 A 
ATOM     88  C   UNL A   1      47.378  28.223  35.035  1.00  0.00     0.041 A 
ATOM     89  F   UNL A   1      46.325  29.579  33.441  1.00  0.00    -0.206 F 
ATOM     90  C   UNL A   1      47.336  27.163  35.936  1.00  0.00     0.022 A 
BRANCH  87  91
ATOM     91  S   UNL A   1      46.047  25.096  37.294  1.00  0.00     0.124 S 
ATOM     92  O   UNL A   1      46.473  23.914  36.552  1.00  0.00    -0.237 OA
ATOM     93  O   UNL A   1      46.968  25.569  38.324  1.00  0.00    -0.237 OA
ATOM     94  O   UNL A   1      44.635  25.117  37.672  1.00  0.00    -0.744 OA
ENDBRANCH  87  91
ENDBRANCH  61  84
ENDBRANCH  35  36
ENDBRANCH  28  30
ENDBRANCH  27  28
ENDBRANCH  26  27
ENDBRANCH  25  26
ENDBRANCH  24  25
ENDBRANCH   1  24
TORSDOF 22
ENDMDL
MODEL 2
REMARK VINA RESULT:      -9.7      2.027      7.827
REMARK SMILES CC[NH2+]C(C)(C)C(=O)N[C@@](C)(C(=O)OCCOCCOC(=O)c1ccc(-c2c3nc(c(-c4cc(S(=O)(=O)[O-])ccc4F)c4ccc([nH]4)c(-c4cc(S(=O)(=O)[O-])ccc4F)c4nc(c(-c5cc(S(=O)(=O)[O-])ccc5F)c5ccc2[nH]5)C=C4)C=C3)cc1)C(F)(F)F
REMARK SMILES IDX 16 1 15 2 14 3 12 4 13 5 10 6 11 7 9 8 7 9 8 10 4 12 5 13
REMARK SMILES IDX 6 14 3 15 2 18 1 19 86 20 87 21 88 22 89 23 17 24 18 25
REMARK SMILES IDX 19 26 20 27 21 28 22 29 23 30 24 31 85 32 25 33 84 34 26 35
REMARK SMILES IDX 27 36 28 37 78 38 29 39 83 40 77 41 79 42 30 43 82 44 76 45
REMARK SMILES IDX 75 46 31 48 63 49 43 50 62 51 44 52 47 53 61 54 80 55 45 56
REMARK SMILES IDX 46 57 60 59 81 60 48 61 32 62 33 63 41 64 34 65 40 66 42 67
REMARK SMILES IDX 39 68 35 69 36 70 37 71 38 72 64 73 65 74 73 75 66 76 72 77
REMARK SMILES IDX 74 78 71 79 67 80 68 81 69 82 70 83 49 84 50 85 58 86 51 87
REMARK SMILES IDX 57 88 59 89 56 90 52 91 53 92 54 93 55 94
REMARK H PARENT 9 11 3 16 3 17 79 47 47 58
REMARK Flexibility Score: inf
ROOT
ATOM      1  C   UNL A   1      31.165  28.074  24.012  1.00  0.00     0.202 C 
ENDROOT
BRANCH   1   2
ATOM      2  C   UNL A   1      30.454  26.978  24.819  1.00  0.00     0.261 C 
BRANCH   2   3
ATOM      3  O   UNL A   1      31.363  26.161  25.574  1.00  0.00    -0.461 OA
BRANCH   3   4
ATOM      4  C   UNL A   1      31.589  24.913  25.070  1.00  0.00     0.341 C 
ATOM      5  O   UNL A   1      30.758  24.280  24.428  1.00  0.00    -0.249 OA
BRANCH   4   6
ATOM      6  C   UNL A   1      33.001  24.384  25.406  1.00  0.00     0.231 C 
ATOM      7  C   UNL A   1      33.816  25.606  25.847  1.00  0.00     0.058 C 
BRANCH   6   8
ATOM      8  N   UNL A   1      33.654  23.832  24.140  1.00  0.00    -0.328 N 
ATOM      9  C   UNL A   1      34.792  23.246  23.672  1.00  0.00     0.281 C 
ATOM     10  O   UNL A   1      34.871  23.273  22.436  1.00  0.00    -0.268 OA
ATOM     11  H   UNL A   1      33.025  23.939  23.390  1.00  0.00     0.165 HD
BRANCH   9  12
ATOM     12  C   UNL A   1      35.857  22.501  24.541  1.00  0.00     0.169 C 
ATOM     13  C   UNL A   1      37.034  22.068  23.654  1.00  0.00     0.090 C 
ATOM     14  C   UNL A   1      35.196  21.325  25.282  1.00  0.00     0.090 C 
BRANCH  12  15
ATOM     15  N   UNL A   1      36.412  23.309  25.676  1.00  0.00    -0.334 N 
ATOM     16  H   UNL A   1      35.824  24.137  25.769  1.00  0.00     0.347 HD
ATOM     17  H   UNL A   1      36.412  22.660  26.463  1.00  0.00     0.347 HD
BRANCH  15  18
ATOM     18  C   UNL A   1      37.795  23.773  25.601  1.00  0.00     0.257 C 
ATOM     19  C   UNL A   1      38.179  24.385  26.947  1.00  0.00     0.071 C 
ENDBRANCH  15  18
ENDBRANCH  12  15
ENDBRANCH   9  12
ENDBRANCH   6   8
BRANCH   6  20
ATOM     20  C   UNL A   1      32.690  23.462  26.601  1.00  0.00     0.422 C 
ATOM     21  F   UNL A   1      33.764  23.280  27.403  1.00  0.00    -0.168 F 
ATOM     22  F   UNL A   1      31.698  23.947  27.381  1.00  0.00    -0.168 F 
ATOM     23  F   UNL A   1      32.263  22.234  26.219  1.00  0.00    -0.168 F 
ENDBRANCH   6  20
ENDBRANCH   4   6
ENDBRANCH   3   4
ENDBRANCH   2   3
ENDBRANCH   1   2
BRANCH   1  24
ATOM     24  O   UNL A   1      31.065  29.416  24.478  1.00  0.00    -0.374 OA
BRANCH  24  25
ATOM     25  C   UNL A   1      32.096  29.912  25.332  1.00  0.00     0.202 C 
BRANCH  25  26
ATOM     26  C   UNL A   1      31.809  31.132  26.220  1.00  0.00     0.261 C 
BRANCH  26  27
ATOM     27  O   UNL A   1      32.540  31.134  27.459  1.00  0.00    -0.460 OA
BRANCH  27  28
ATOM     28  C   UNL A   1      33.430  32.155  27.579  1.00  0.00     0.338 C 
ATOM     29  O   UNL A   1      33.184  33.349  27.551  1.00  0.00    -0.246 OA
BRANCH  28  30
ATOM     30  C   UNL A   1      34.759  31.637  27.953  1.00  0.00     0.060 A 
ATOM     31  C   UNL A   1      34.859  30.275  28.266  1.00  0.00     0.016 A 
ATOM     32  C   UNL A   1      35.858  32.484  28.109  1.00  0.00     0.016 A 
ATOM     33  C   UNL A   1      36.050  29.761  28.776  1.00  0.00     0.010 A 
ATOM     34  C   UNL A   1      37.049  31.967  28.634  1.00  0.00     0.010 A 
ATOM     35  C   UNL A   1      37.139  30.611  29.000  1.00  0.00    -0.014 A 
BRANCH  35  36
ATOM     36  C   UNL A   1      38.312  30.106  29.758  1.00  0.00     0.031 A 
ATOM     37  C   UNL A   1      38.544  30.608  31.158  1.00  0.00     0.074 A 
ATOM     38  C   UNL A   1      39.134  29.185  29.221  1.00  0.00     0.049 A 
ATOM     39  N   UNL A   1      39.508  30.321  31.994  1.00  0.00    -0.248 NA
ATOM     40  C   UNL A   1      37.552  31.559  31.687  1.00  0.00     0.031 C 
ATOM     41  C   UNL A   1      38.978  28.588  27.894  1.00  0.00     0.029 A 
ATOM     42  N   UNL A   1      40.265  28.592  29.723  1.00  0.00    -0.354 N 
ATOM     43  C   UNL A   1      39.248  31.063  33.143  1.00  0.00     0.074 A 
ATOM     44  C   UNL A   1      38.047  31.827  32.887  1.00  0.00     0.031 C 
ATOM     45  C   UNL A   1      39.984  27.721  27.685  1.00  0.00     0.029 A 
ATOM     46  C   UNL A   1      40.875  27.728  28.843  1.00  0.00     0.049 A 
ATOM     47  H   UNL A   1      40.608  28.768  30.629  1.00  0.00     0.167 HD
ATOM     48  C   UNL A   1      39.948  31.099  34.303  1.00  0.00     0.034 A 
ATOM     49  C   UNL A   1      42.033  27.043  28.953  1.00  0.00     0.034 A 
ATOM     50  C   UNL A   1      41.144  30.330  34.544  1.00  0.00     0.049 A 
ATOM     51  C   UNL A   1      42.834  27.164  30.229  1.00  0.00     0.074 A 
ATOM     52  C   UNL A   1      41.911  30.269  35.695  1.00  0.00     0.029 A 
ATOM     53  N   UNL A   1      41.758  29.501  33.615  1.00  0.00    -0.354 N 
ATOM     54  N   UNL A   1      42.561  27.849  31.317  1.00  0.00    -0.248 NA
ATOM     55  C   UNL A   1      44.096  26.414  30.295  1.00  0.00     0.031 C 
ATOM     56  C   UNL A   1      43.023  29.460  35.438  1.00  0.00     0.029 A 
ATOM     57  C   UNL A   1      42.912  28.955  34.152  1.00  0.00     0.049 A 
ATOM     58  H   UNL A   1      41.421  29.326  32.706  1.00  0.00     0.167 HD
ATOM     59  C   UNL A   1      43.598  27.577  32.207  1.00  0.00     0.074 A 
ATOM     60  C   UNL A   1      44.493  26.659  31.534  1.00  0.00     0.031 C 
ATOM     61  C   UNL A   1      43.793  28.040  33.468  1.00  0.00     0.034 A 
BRANCH  48  62
ATOM     62  C   UNL A   1      39.471  32.042  35.379  1.00  0.00     0.023 A 
ATOM     63  C   UNL A   1      39.963  33.353  35.494  1.00  0.00     0.031 A 
ATOM     64  C   UNL A   1      38.500  31.617  36.303  1.00  0.00     0.131 A 
ATOM     65  C   UNL A   1      39.516  34.178  36.538  1.00  0.00     0.055 A 
ATOM     66  C   UNL A   1      38.011  32.463  37.299  1.00  0.00     0.041 A 
ATOM     67  F   UNL A   1      38.010  30.368  36.252  1.00  0.00    -0.206 F 
ATOM     68  C   UNL A   1      38.526  33.750  37.427  1.00  0.00     0.022 A 
BRANCH  65  69
ATOM     69  S   UNL A   1      40.317  35.787  36.784  1.00  0.00     0.124 S 
ATOM     70  O   UNL A   1      41.726  35.446  36.611  1.00  0.00    -0.237 OA
ATOM     71  O   UNL A   1      39.722  36.600  35.729  1.00  0.00    -0.237 OA
ATOM     72  O   UNL A   1      39.934  36.157  38.145  1.00  0.00    -0.744 OA
ENDBRANCH  65  69
ENDBRANCH  48  62
BRANCH  49  73
ATOM     73  C   UNL A   1      42.545  26.217  27.819  1.00  0.00     0.023 A 
ATOM     74  C   UNL A   1      42.195  24.863  27.691  1.00  0.00     0.031 A 
ATOM     75  C   UNL A   1      43.468  26.747  26.899  1.00  0.00     0.131 A 
ATOM     76  C   UNL A   1      42.810  24.071  26.709  1.00  0.00     0.055 A 
ATOM     77  C   UNL A   1      44.031  25.970  25.886  1.00  0.00     0.041 A 
ATOM     78  F   UNL A   1      43.841  28.035  26.977  1.00  0.00    -0.206 F 
ATOM     79  C   UNL A   1      43.717  24.618  25.798  1.00  0.00     0.022 A 
BRANCH  76  80
ATOM     80  S   UNL A   1      42.498  22.283  26.714  1.00  0.00     0.124 S 
ATOM     81  O   UNL A   1      41.188  22.209  26.077  1.00  0.00    -0.237 OA
ATOM     82  O   UNL A   1      43.622  21.781  25.931  1.00  0.00    -0.237 OA
ATOM     83  O   UNL A   1      42.524  21.937  28.133  1.00  0.00    -0.744 OA
ENDBRANCH  76  80
ENDBRANCH  49  73
BRANCH  61  84
ATOM     84  C   UNL A   1      44.992  27.509  34.217  1.00  0.00     0.023 A 
ATOM     85  C   UNL A   1      46.236  28.161  34.181  1.00  0.00     0.031 A 
ATOM     86  C   UNL A   1      44.884  26.326  34.969  1.00  0.00     0.131 A 
ATOM     87  C   UNL A   1      47.338  27.596  34.839  1.00  0.00     0.055 A 
ATOM     88  C   UNL A   1      45.970  25.800  35.670  1.00  0.00     0.041 A 
ATOM     89  F   UNL A   1      43.718  25.662  35.037  1.00  0.00    -0.206 F 
ATOM     90  C   UNL A   1      47.209  26.428  35.596  1.00  0.00     0.022 A 
BRANCH  87  91
ATOM     91  S   UNL A   1      48.969  28.359  34.620  1.00  0.00     0.124 S 
ATOM     92  O   UNL A   1      49.583  27.485  33.626  1.00  0.00    -0.237 OA
ATOM     93  O   UNL A   1      48.627  29.703  34.163  1.00  0.00    -0.237 OA
ATOM     94  O   UNL A   1      49.561  28.293  35.955  1.00  0.00    -0.744 OA
ENDBRANCH  87  91
ENDBRANCH  61  84
ENDBRANCH  35  36
ENDBRANCH  28  30
ENDBRANCH  27  28
ENDBRANCH  26  27
ENDBRANCH  25  26
ENDBRANCH  24  25
ENDBRANCH   1  24
TORSDOF 22
ENDMDL
MODEL 3
REMARK VINA RESULT:      -8.4      5.844     11.438
REMARK SMILES CC[NH2+]C(C)(C)C(=O)N[C@@](C)(C(=O)OCCOCCOC(=O)c1ccc(-c2c3nc(c(-c4cc(S(=O)(=O)[O-])ccc4F)c4ccc([nH]4)c(-c4cc(S(=O)(=O)[O-])ccc4F)c4nc(c(-c5cc(S(=O)(=O)[O-])ccc5F)c5ccc2[nH]5)C=C4)C=C3)cc1)C(F)(F)F
REMARK SMILES IDX 16 1 15 2 14 3 12 4 13 5 10 6 11 7 9 8 7 9 8 10 4 12 5 13
REMARK SMILES IDX 6 14 3 15 2 18 1 19 86 20 87 21 88 22 89 23 17 24 18 25
REMARK SMILES IDX 19 26 20 27 21 28 22 29 23 30 24 31 85 32 25 33 84 34 26 35
REMARK SMILES IDX 27 36 28 37 78 38 29 39 83 40 77 41 79 42 30 43 82 44 76 45
REMARK SMILES IDX 75 46 31 48 63 49 43 50 62 51 44 52 47 53 61 54 80 55 45 56
REMARK SMILES IDX 46 57 60 59 81 60 48 61 32 62 33 63 41 64 34 65 40 66 42 67
REMARK SMILES IDX 39 68 35 69 36 70 37 71 38 72 64 73 65 74 73 75 66 76 72 77
REMARK SMILES IDX 74 78 71 79 67 80 68 81 69 82 70 83 49 84 50 85 58 86 51 87
REMARK SMILES IDX 57 88 59 89 56 90 52 91 53 92 54 93 55 94
REMARK H PARENT 9 11 3 16 3 17 79 47 47 58
REMARK Flexibility Score: inf
ROOT
ATOM      1  C   UNL A   1      38.633  33.445  38.659  1.00  0.00     0.202 C 
ENDROOT
BRANCH   1   2
ATOM      2  C   UNL A   1      37.386  32.766  38.073  1.00  0.00     0.261 C 
BRANCH   2   3
ATOM      3  O   UNL A   1      37.419  32.681  36.639  1.00  0.00    -0.461 OA
BRANCH   3   4
ATOM      4  C   UNL A   1      38.005  31.558  36.131  1.00  0.00     0.341 C 
ATOM      5  O   UNL A   1      38.446  30.649  36.825  1.00  0.00    -0.249 OA
BRANCH   4   6
ATOM      6  C   UNL A   1      38.060  31.565  34.587  1.00  0.00     0.231 C 
ATOM      7  C   UNL A   1      36.806  32.314  34.122  1.00  0.00     0.058 C 
BRANCH   6   8
ATOM      8  N   UNL A   1      37.956  30.132  34.066  1.00  0.00    -0.328 N 
ATOM      9  C   UNL A   1      37.759  29.399  32.934  1.00  0.00     0.281 C 
ATOM     10  O   UNL A   1      37.484  28.215  33.172  1.00  0.00    -0.268 OA
ATOM     11  H   UNL A   1      38.074  29.514  34.824  1.00  0.00     0.165 HD
BRANCH   9  12
ATOM     12  C   UNL A   1      37.958  29.913  31.471  1.00  0.00     0.169 C 
ATOM     13  C   UNL A   1      37.650  28.779  30.481  1.00  0.00     0.090 C 
ATOM     14  C   UNL A   1      39.377  30.486  31.308  1.00  0.00     0.090 C 
BRANCH  12  15
ATOM     15  N   UNL A   1      37.105  31.089  31.100  1.00  0.00    -0.334 N 
ATOM     16  H   UNL A   1      36.284  30.722  30.619  1.00  0.00     0.347 HD
ATOM     17  H   UNL A   1      36.938  31.561  31.988  1.00  0.00     0.347 HD
BRANCH  15  18
ATOM     18  C   UNL A   1      37.672  32.130  30.247  1.00  0.00     0.257 C 
ATOM     19  C   UNL A   1      37.014  33.463  30.600  1.00  0.00     0.071 C 
ENDBRANCH  15  18
ENDBRANCH  12  15
ENDBRANCH   9  12
ENDBRANCH   6   8
BRANCH   6  20
ATOM     20  C   UNL A   1      39.330  32.403  34.345  1.00  0.00     0.422 C 
ATOM     21  F   UNL A   1      39.212  33.215  33.269  1.00  0.00    -0.168 F 
ATOM     22  F   UNL A   1      39.635  33.193  35.398  1.00  0.00    -0.168 F 
ATOM     23  F   UNL A   1      40.434  31.641  34.152  1.00  0.00    -0.168 F 
ENDBRANCH   6  20
ENDBRANCH   4   6
ENDBRANCH   3   4
ENDBRANCH   2   3
ENDBRANCH   1   2
BRANCH   1  24
ATOM     24  O   UNL A   1      38.515  34.070  39.933  1.00  0.00    -0.374 OA
BRANCH  24  25
ATOM     25  C   UNL A   1      39.480  33.747  40.935  1.00  0.00     0.202 C 
BRANCH  25  26
ATOM     26  C   UNL A   1      40.838  34.465  40.925  1.00  0.00     0.261 C 
BRANCH  26  27
ATOM     27  O   UNL A   1      41.403  34.618  39.611  1.00  0.00    -0.460 OA
BRANCH  27  28
ATOM     28  C   UNL A   1      42.728  34.320  39.537  1.00  0.00     0.338 C 
ATOM     29  O   UNL A   1      43.609  34.708  40.285  1.00  0.00    -0.246 OA
BRANCH  28  30
ATOM     30  C   UNL A   1      42.965  33.278  38.521  1.00  0.00     0.060 A 
ATOM     31  C   UNL A   1      44.216  33.262  37.889  1.00  0.00     0.016 A 
ATOM     32  C   UNL A   1      41.950  32.412  38.110  1.00  0.00     0.016 A 
ATOM     33  C   UNL A   1      44.445  32.404  36.814  1.00  0.00     0.010 A 
ATOM     34  C   UNL A   1      42.179  31.561  37.021  1.00  0.00     0.010 A 
ATOM     35  C   UNL A   1      43.416  31.577  36.349  1.00  0.00    -0.014 A 
BRANCH  35  36
ATOM     36  C   UNL A   1      43.593  30.848  35.067  1.00  0.00     0.031 A 
ATOM     37  C   UNL A   1      43.446  31.605  33.774  1.00  0.00     0.074 A 
ATOM     38  C   UNL A   1      43.919  29.542  35.058  1.00  0.00     0.049 A 
ATOM     39  N   UNL A   1      43.537  31.171  32.544  1.00  0.00    -0.248 NA
ATOM     40  C   UNL A   1      43.160  33.044  33.885  1.00  0.00     0.031 C 
ATOM     41  C   UNL A   1      44.138  28.720  36.248  1.00  0.00     0.029 A 
ATOM     42  N   UNL A   1      44.118  28.676  34.012  1.00  0.00    -0.354 N 
ATOM     43  C   UNL A   1      43.310  32.279  31.732  1.00  0.00     0.074 A 
ATOM     44  C   UNL A   1      43.056  33.399  32.612  1.00  0.00     0.031 C 
ATOM     45  C   UNL A   1      44.432  27.466  35.863  1.00  0.00     0.029 A 
ATOM     46  C   UNL A   1      44.386  27.385  34.406  1.00  0.00     0.049 A 
ATOM     47  H   UNL A   1      44.075  28.953  33.068  1.00  0.00     0.167 HD
ATOM     48  C   UNL A   1      43.314  32.352  30.379  1.00  0.00     0.034 A 
ATOM     49  C   UNL A   1      44.547  26.265  33.671  1.00  0.00     0.034 A 
ATOM     50  C   UNL A   1      43.570  31.227  29.514  1.00  0.00     0.049 A 
ATOM     51  C   UNL A   1      44.470  26.362  32.164  1.00  0.00     0.074 A 
ATOM     52  C   UNL A   1      43.631  31.199  28.132  1.00  0.00     0.029 A 
ATOM     53  N   UNL A   1      43.792  29.926  29.947  1.00  0.00    -0.354 N 
ATOM     54  N   UNL A   1      44.280  27.422  31.411  1.00  0.00    -0.248 NA
ATOM     55  C   UNL A   1      44.635  25.113  31.408  1.00  0.00     0.031 C 
ATOM     56  C   UNL A   1      43.819  29.874  27.727  1.00  0.00     0.029 A 
ATOM     57  C   UNL A   1      43.952  29.084  28.858  1.00  0.00     0.049 A 
ATOM     58  H   UNL A   1      43.831  29.644  30.889  1.00  0.00     0.167 HD
ATOM     59  C   UNL A   1      44.345  26.970  30.095  1.00  0.00     0.074 A 
ATOM     60  C   UNL A   1      44.601  25.546  30.158  1.00  0.00     0.031 C 
ATOM     61  C   UNL A   1      44.209  27.666  28.938  1.00  0.00     0.034 A 
BRANCH  48  62
ATOM     62  C   UNL A   1      42.979  33.681  29.749  1.00  0.00     0.023 A 
ATOM     63  C   UNL A   1      43.969  34.536  29.238  1.00  0.00     0.031 A 
ATOM     64  C   UNL A   1      41.637  34.093  29.655  1.00  0.00     0.131 A 
ATOM     65  C   UNL A   1      43.608  35.780  28.698  1.00  0.00     0.055 A 
ATOM     66  C   UNL A   1      41.278  35.302  29.058  1.00  0.00     0.041 A 
ATOM     67  F   UNL A   1      40.652  33.325  30.145  1.00  0.00    -0.206 F 
ATOM     68  C   UNL A   1      42.267  36.158  28.583  1.00  0.00     0.022 A 
BRANCH  65  69
ATOM     69  S   UNL A   1      44.918  36.946  28.235  1.00  0.00     0.124 S 
ATOM     70  O   UNL A   1      46.084  36.069  28.166  1.00  0.00    -0.237 OA
ATOM     71  O   UNL A   1      44.438  37.473  26.962  1.00  0.00    -0.237 OA
ATOM     72  O   UNL A   1      44.932  37.903  29.339  1.00  0.00    -0.744 OA
ENDBRANCH  65  69
ENDBRANCH  48  62
BRANCH  49  73
ATOM     73  C   UNL A   1      44.752  24.940  34.329  1.00  0.00     0.023 A 
ATOM     74  C   UNL A   1      46.037  24.398  34.488  1.00  0.00     0.031 A 
ATOM     75  C   UNL A   1      43.653  24.154  34.725  1.00  0.00     0.131 A 
ATOM     76  C   UNL A   1      46.190  23.088  34.967  1.00  0.00     0.055 A 
ATOM     77  C   UNL A   1      43.814  22.875  35.257  1.00  0.00     0.041 A 
ATOM     78  F   UNL A   1      42.401  24.620  34.592  1.00  0.00    -0.206 F 
ATOM     79  C   UNL A   1      45.088  22.326  35.364  1.00  0.00     0.022 A 
BRANCH  76  80
ATOM     80  S   UNL A   1      47.846  22.345  34.952  1.00  0.00     0.124 S 
ATOM     81  O   UNL A   1      48.589  23.293  34.131  1.00  0.00    -0.237 OA
ATOM     82  O   UNL A   1      48.179  22.326  36.372  1.00  0.00    -0.237 OA
ATOM     83  O   UNL A   1      47.625  21.033  34.347  1.00  0.00    -0.744 OA
ENDBRANCH  76  80
ENDBRANCH  49  73
BRANCH  61  84
ATOM     84  C   UNL A   1      44.394  26.901  27.650  1.00  0.00     0.023 A 
ATOM     85  C   UNL A   1      45.612  26.913  26.949  1.00  0.00     0.031 A 
ATOM     86  C   UNL A   1      43.328  26.158  27.114  1.00  0.00     0.131 A 
ATOM     87  C   UNL A   1      45.718  26.241  25.723  1.00  0.00     0.055 A 
ATOM     88  C   UNL A   1      43.457  25.441  25.923  1.00  0.00     0.041 A 
ATOM     89  F   UNL A   1      42.141  26.112  27.742  1.00  0.00    -0.206 F 
ATOM     90  C   UNL A   1      44.653  25.492  25.214  1.00  0.00     0.022 A 
BRANCH  87  91
ATOM     91  S   UNL A   1      47.239  26.428  24.754  1.00  0.00     0.124 S 
ATOM     92  O   UNL A   1      46.863  27.461  23.793  1.00  0.00    -0.237 OA
ATOM     93  O   UNL A   1      48.209  26.826  25.770  1.00  0.00    -0.237 OA
ATOM     94  O   UNL A   1      47.451  25.098  24.185  1.00  0.00    -0.744 OA
ENDBRANCH  87  91
ENDBRANCH  61  84
ENDBRANCH  35  36
ENDBRANCH  28  30
ENDBRANCH  27  28
ENDBRANCH  26  27
ENDBRANCH  25  26
ENDBRANCH  24  25
ENDBRANCH   1  24
TORSDOF 22
ENDMDL
