MODEL 1
REMARK VINA RESULT:     -12.5      0.000      0.000
REMARK SMILES Cc1ccccc1-c1c(Cl)ccc2c1C=C(C(=O)OCCOCCOC(=O)c1ccc(-c3c4nc(c(-c5cc(S(=O)(=O)[O-])ccc5F)c5ccc([nH]5)c(-c5cc(S(=O)(=O)[O-])ccc5F)c5nc(c(-c6cc(S(=O)(=O)[O-])ccc6F)c6ccc3[nH]6)C=C5)C=C4)cc1)[C@@H](C(F)(F)F)O2
REMARK SMILES IDX 23 1 22 2 21 3 20 4 19 5 17 6 18 7 16 8 8 9 9 10 14 11 10 12
REMARK SMILES IDX 11 13 13 14 15 15 12 16 96 17 91 18 7 19 1 20 2 21 3 22 4 23
REMARK SMILES IDX 6 24 5 25 92 26 93 27 94 28 95 29 24 30 25 31 26 32 27 33
REMARK SMILES IDX 28 34 29 35 90 36 30 37 89 38 31 39 32 40 33 41 83 42 34 43
REMARK SMILES IDX 88 44 82 45 84 46 35 47 87 48 81 49 80 50 36 52 68 53 48 54
REMARK SMILES IDX 67 55 49 56 52 57 66 58 85 59 50 60 51 61 65 63 86 64 53 65
REMARK SMILES IDX 37 66 38 67 46 68 39 69 45 70 47 71 44 72 40 73 41 74 42 75
REMARK SMILES IDX 43 76 69 77 70 78 78 79 71 80 77 81 79 82 76 83 72 84 73 85
REMARK SMILES IDX 74 86 75 87 54 88 55 89 63 90 56 91 62 92 64 93 61 94 57 95
REMARK SMILES IDX 58 96 59 97 60 98
REMARK H PARENT 84 51 52 62
REMARK Flexibility Score: inf
ROOT
ATOM      1  C   UNL A   1      33.903  32.432  27.727  1.00  0.00     0.202 C 
ENDROOT
BRANCH   1   2
ATOM      2  O   UNL A   1      33.010  31.354  27.945  1.00  0.00    -0.374 OA
BRANCH   2   3
ATOM      3  C   UNL A   1      32.451  30.773  26.761  1.00  0.00     0.202 C 
BRANCH   3   4
ATOM      4  C   UNL A   1      31.767  29.491  27.186  1.00  0.00     0.261 C 
BRANCH   4   5
ATOM      5  O   UNL A   1      32.676  28.377  27.171  1.00  0.00    -0.460 OA
BRANCH   5   6
ATOM      6  C   UNL A   1      32.182  27.299  26.532  1.00  0.00     0.338 C 
ATOM      7  O   UNL A   1      31.428  26.447  26.986  1.00  0.00    -0.246 OA
BRANCH   6   8
ATOM      8  C   UNL A   1      32.646  27.220  25.132  1.00  0.00     0.087 C 
ATOM      9  C   UNL A   1      33.178  23.711  24.179  1.00  0.00     0.012 A 
ATOM     10  C   UNL A   1      32.251  22.710  23.772  1.00  0.00     0.049 A 
ATOM     11  C   UNL A   1      32.718  25.062  24.157  1.00  0.00     0.027 A 
ATOM     12  Cl  UNL A   1      32.632  21.015  23.831  1.00  0.00    -0.084 Cl
ATOM     13  C   UNL A   1      30.968  23.026  23.312  1.00  0.00     0.025 A 
ATOM     14  C   UNL A   1      31.432  25.358  23.634  1.00  0.00     0.128 A 
ATOM     15  C   UNL A   1      33.423  26.157  24.867  1.00  0.00     0.028 C 
ATOM     16  C   UNL A   1      30.569  24.349  23.219  1.00  0.00     0.049 A 
ATOM     17  O   UNL A   1      30.901  26.618  23.522  1.00  0.00    -0.475 OA
ATOM     18  C   UNL A   1      31.607  27.689  24.168  1.00  0.00     0.316 C 
BRANCH   9  19
ATOM     19  C   UNL A   1      34.593  23.330  24.496  1.00  0.00    -0.013 A 
ATOM     20  C   UNL A   1      34.310  23.021  27.046  1.00  0.00     0.045 C 
ATOM     21  C   UNL A   1      35.109  23.021  25.775  1.00  0.00    -0.043 A 
ATOM     22  C   UNL A   1      36.463  22.650  25.923  1.00  0.00     0.004 A 
ATOM     23  C   UNL A   1      37.305  22.531  24.824  1.00  0.00     0.000 A 
ATOM     24  C   UNL A   1      35.488  23.218  23.403  1.00  0.00     0.009 A 
ATOM     25  C   UNL A   1      36.813  22.805  23.559  1.00  0.00     0.001 A 
ENDBRANCH   9  19
BRANCH  18  26
ATOM     26  C   UNL A   1      32.231  28.646  23.150  1.00  0.00     0.430 C 
ATOM     27  F   UNL A   1      31.287  29.408  22.543  1.00  0.00    -0.167 F 
ATOM     28  F   UNL A   1      33.092  29.514  23.743  1.00  0.00    -0.167 F 
ATOM     29  F   UNL A   1      32.920  28.010  22.174  1.00  0.00    -0.167 F 
ENDBRANCH  18  26
ENDBRANCH   6   8
ENDBRANCH   5   6
ENDBRANCH   4   5
ENDBRANCH   3   4
ENDBRANCH   2   3
ENDBRANCH   1   2
BRANCH   1  30
ATOM     30  C   UNL A   1      35.383  32.072  27.907  1.00  0.00     0.261 C 
BRANCH  30  31
ATOM     31  O   UNL A   1      35.507  30.769  28.507  1.00  0.00    -0.460 OA
BRANCH  31  32
ATOM     32  C   UNL A   1      36.052  29.824  27.697  1.00  0.00     0.338 C 
ATOM     33  O   UNL A   1      35.441  29.203  26.841  1.00  0.00    -0.246 OA
BRANCH  32  34
ATOM     34  C   UNL A   1      37.469  29.590  28.075  1.00  0.00     0.060 A 
ATOM     35  C   UNL A   1      38.477  29.631  27.098  1.00  0.00     0.016 A 
ATOM     36  C   UNL A   1      37.755  29.126  29.359  1.00  0.00     0.016 A 
ATOM     37  C   UNL A   1      39.742  29.100  27.378  1.00  0.00     0.010 A 
ATOM     38  C   UNL A   1      38.967  28.524  29.599  1.00  0.00     0.010 A 
ATOM     39  C   UNL A   1      39.962  28.497  28.616  1.00  0.00    -0.014 A 
BRANCH  39  40
ATOM     40  C   UNL A   1      41.132  27.705  28.981  1.00  0.00     0.031 A 
ATOM     41  C   UNL A   1      41.229  26.279  28.601  1.00  0.00     0.074 A 
ATOM     42  C   UNL A   1      42.243  28.344  29.404  1.00  0.00     0.049 A 
ATOM     43  N   UNL A   1      42.140  25.470  29.026  1.00  0.00    -0.248 NA
ATOM     44  C   UNL A   1      40.278  25.623  27.714  1.00  0.00     0.031 C 
ATOM     45  C   UNL A   1      43.612  27.853  29.365  1.00  0.00     0.029 A 
ATOM     46  N   UNL A   1      42.317  29.508  30.150  1.00  0.00    -0.354 N 
ATOM     47  C   UNL A   1      42.144  24.368  28.203  1.00  0.00     0.074 A 
ATOM     48  C   UNL A   1      40.897  24.461  27.482  1.00  0.00     0.031 C 
ATOM     49  C   UNL A   1      44.339  28.523  30.266  1.00  0.00     0.029 A 
ATOM     50  C   UNL A   1      43.452  29.444  30.953  1.00  0.00     0.049 A 
ATOM     51  H   UNL A   1      41.675  30.255  30.118  1.00  0.00     0.167 HD
ATOM     52  C   UNL A   1      43.280  23.611  28.129  1.00  0.00     0.034 A 
ATOM     53  C   UNL A   1      43.379  29.663  32.290  1.00  0.00     0.034 A 
ATOM     54  C   UNL A   1      44.298  24.095  29.082  1.00  0.00     0.049 A 
ATOM     55  C   UNL A   1      43.824  28.400  32.970  1.00  0.00     0.074 A 
ATOM     56  C   UNL A   1      45.508  24.752  28.921  1.00  0.00     0.029 A 
ATOM     57  N   UNL A   1      43.995  24.177  30.445  1.00  0.00    -0.354 N 
ATOM     58  N   UNL A   1      43.684  27.218  32.423  1.00  0.00    -0.248 NA
ATOM     59  C   UNL A   1      44.645  28.383  34.174  1.00  0.00     0.031 C 
ATOM     60  C   UNL A   1      45.881  25.302  30.179  1.00  0.00     0.029 A 
ATOM     61  C   UNL A   1      44.919  24.954  31.116  1.00  0.00     0.049 A 
ATOM     62  H   UNL A   1      43.224  23.737  30.871  1.00  0.00     0.167 HD
ATOM     63  C   UNL A   1      44.527  26.349  33.053  1.00  0.00     0.074 A 
ATOM     64  C   UNL A   1      45.045  27.100  34.192  1.00  0.00     0.031 C 
ATOM     65  C   UNL A   1      44.878  25.123  32.563  1.00  0.00     0.034 A 
BRANCH  52  66
ATOM     66  C   UNL A   1      43.599  22.621  27.009  1.00  0.00     0.023 A 
ATOM     67  C   UNL A   1      43.000  21.341  27.016  1.00  0.00     0.031 A 
ATOM     68  C   UNL A   1      44.494  22.836  25.940  1.00  0.00     0.131 A 
ATOM     69  C   UNL A   1      43.353  20.343  26.082  1.00  0.00     0.055 A 
ATOM     70  C   UNL A   1      44.878  21.835  25.034  1.00  0.00     0.041 A 
ATOM     71  F   UNL A   1      44.998  24.041  25.661  1.00  0.00    -0.206 F 
ATOM     72  C   UNL A   1      44.314  20.575  25.106  1.00  0.00     0.022 A 
BRANCH  69  73
ATOM     73  S   UNL A   1      42.530  18.726  26.148  1.00  0.00     0.124 S 
ATOM     74  O   UNL A   1      43.272  17.966  25.149  1.00  0.00    -0.237 OA
ATOM     75  O   UNL A   1      42.725  18.333  27.539  1.00  0.00    -0.237 OA
ATOM     76  O   UNL A   1      41.146  19.035  25.786  1.00  0.00    -0.744 OA
ENDBRANCH  69  73
ENDBRANCH  52  66
BRANCH  53  77
ATOM     77  C   UNL A   1      42.327  30.663  32.638  1.00  0.00     0.023 A 
ATOM     78  C   UNL A   1      41.295  30.192  33.492  1.00  0.00     0.031 A 
ATOM     79  C   UNL A   1      42.565  32.044  32.615  1.00  0.00     0.131 A 
ATOM     80  C   UNL A   1      40.656  31.059  34.395  1.00  0.00     0.055 A 
ATOM     81  C   UNL A   1      41.897  32.912  33.497  1.00  0.00     0.041 A 
ATOM     82  F   UNL A   1      43.543  32.558  31.856  1.00  0.00    -0.206 F 
ATOM     83  C   UNL A   1      40.976  32.416  34.423  1.00  0.00     0.022 A 
BRANCH  80  84
ATOM     84  S   UNL A   1      39.604  30.377  35.722  1.00  0.00     0.124 S 
ATOM     85  O   UNL A   1      40.344  29.186  36.122  1.00  0.00    -0.237 OA
ATOM     86  O   UNL A   1      39.563  31.457  36.703  1.00  0.00    -0.237 OA
ATOM     87  O   UNL A   1      38.335  30.142  35.036  1.00  0.00    -0.744 OA
ENDBRANCH  80  84
ENDBRANCH  53  77
BRANCH  65  88
ATOM     88  C   UNL A   1      45.381  24.017  33.448  1.00  0.00     0.023 A 
ATOM     89  C   UNL A   1      46.714  23.980  33.877  1.00  0.00     0.031 A 
ATOM     90  C   UNL A   1      44.516  23.056  34.012  1.00  0.00     0.131 A 
ATOM     91  C   UNL A   1      47.169  22.973  34.733  1.00  0.00     0.055 A 
ATOM     92  C   UNL A   1      44.951  22.108  34.940  1.00  0.00     0.041 A 
ATOM     93  F   UNL A   1      43.209  23.013  33.715  1.00  0.00    -0.206 F 
ATOM     94  C   UNL A   1      46.293  22.050  35.294  1.00  0.00     0.022 A 
BRANCH  91  95
ATOM     95  S   UNL A   1      48.948  22.878  35.038  1.00  0.00     0.124 S 
ATOM     96  O   UNL A   1      49.320  21.704  34.252  1.00  0.00    -0.237 OA
ATOM     97  O   UNL A   1      49.429  24.157  34.527  1.00  0.00    -0.237 OA
ATOM     98  O   UNL A   1      49.040  22.713  36.487  1.00  0.00    -0.744 OA
ENDBRANCH  91  95
ENDBRANCH  65  88
ENDBRANCH  39  40
ENDBRANCH  32  34
ENDBRANCH  31  32
ENDBRANCH  30  31
ENDBRANCH   1  30
TORSDOF 19
ENDMDL
MODEL 2
REMARK VINA RESULT:     -12.5      4.744     10.068
REMARK SMILES Cc1ccccc1-c1c(Cl)ccc2c1C=C(C(=O)OCCOCCOC(=O)c1ccc(-c3c4nc(c(-c5cc(S(=O)(=O)[O-])ccc5F)c5ccc([nH]5)c(-c5cc(S(=O)(=O)[O-])ccc5F)c5nc(c(-c6cc(S(=O)(=O)[O-])ccc6F)c6ccc3[nH]6)C=C5)C=C4)cc1)[C@@H](C(F)(F)F)O2
REMARK SMILES IDX 23 1 22 2 21 3 20 4 19 5 17 6 18 7 16 8 8 9 9 10 14 11 10 12
REMARK SMILES IDX 11 13 13 14 15 15 12 16 96 17 91 18 7 19 1 20 2 21 3 22 4 23
REMARK SMILES IDX 6 24 5 25 92 26 93 27 94 28 95 29 24 30 25 31 26 32 27 33
REMARK SMILES IDX 28 34 29 35 90 36 30 37 89 38 31 39 32 40 33 41 83 42 34 43
REMARK SMILES IDX 88 44 82 45 84 46 35 47 87 48 81 49 80 50 36 52 68 53 48 54
REMARK SMILES IDX 67 55 49 56 52 57 66 58 85 59 50 60 51 61 65 63 86 64 53 65
REMARK SMILES IDX 37 66 38 67 46 68 39 69 45 70 47 71 44 72 40 73 41 74 42 75
REMARK SMILES IDX 43 76 69 77 70 78 78 79 71 80 77 81 79 82 76 83 72 84 73 85
REMARK SMILES IDX 74 86 75 87 54 88 55 89 63 90 56 91 62 92 64 93 61 94 57 95
REMARK SMILES IDX 58 96 59 97 60 98
REMARK H PARENT 84 51 52 62
REMARK Flexibility Score: inf
ROOT
ATOM      1  C   UNL A   1      41.092  19.927  26.719  1.00  0.00     0.202 C 
ENDROOT
BRANCH   1   2
ATOM      2  O   UNL A   1      40.198  20.483  25.772  1.00  0.00    -0.374 OA
BRANCH   2   3
ATOM      3  C   UNL A   1      39.409  21.581  26.244  1.00  0.00     0.202 C 
BRANCH   3   4
ATOM      4  C   UNL A   1      38.199  21.669  25.339  1.00  0.00     0.261 C 
BRANCH   4   5
ATOM      5  O   UNL A   1      36.982  21.794  26.094  1.00  0.00    -0.460 OA
BRANCH   5   6
ATOM      6  C   UNL A   1      36.306  22.928  25.826  1.00  0.00     0.338 C 
ATOM      7  O   UNL A   1      36.774  24.027  25.558  1.00  0.00    -0.246 OA
BRANCH   6   8
ATOM      8  C   UNL A   1      34.843  22.728  25.874  1.00  0.00     0.087 C 
ATOM      9  C   UNL A   1      33.128  25.612  24.376  1.00  0.00     0.012 A 
ATOM     10  C   UNL A   1      32.890  25.943  23.012  1.00  0.00     0.049 A 
ATOM     11  C   UNL A   1      33.519  24.268  24.654  1.00  0.00     0.027 A 
ATOM     12  Cl  UNL A   1      32.496  27.558  22.505  1.00  0.00    -0.084 Cl
ATOM     13  C   UNL A   1      32.970  24.990  21.990  1.00  0.00     0.025 A 
ATOM     14  C   UNL A   1      33.539  23.311  23.606  1.00  0.00     0.128 A 
ATOM     15  C   UNL A   1      34.132  23.865  25.943  1.00  0.00     0.028 C 
ATOM     16  C   UNL A   1      33.269  23.672  22.291  1.00  0.00     0.049 A 
ATOM     17  O   UNL A   1      33.855  21.984  23.759  1.00  0.00    -0.475 OA
ATOM     18  C   UNL A   1      34.404  21.581  25.024  1.00  0.00     0.316 C 
BRANCH   9  19
ATOM     19  C   UNL A   1      32.859  26.627  25.446  1.00  0.00    -0.013 A 
ATOM     20  C   UNL A   1      30.397  25.994  25.917  1.00  0.00     0.045 C 
ATOM     21  C   UNL A   1      31.640  26.807  26.140  1.00  0.00    -0.043 A 
ATOM     22  C   UNL A   1      31.537  27.790  27.147  1.00  0.00     0.004 A 
ATOM     23  C   UNL A   1      32.628  28.566  27.517  1.00  0.00     0.000 A 
ATOM     24  C   UNL A   1      33.942  27.452  25.836  1.00  0.00     0.009 A 
ATOM     25  C   UNL A   1      33.839  28.389  26.867  1.00  0.00     0.001 A 
ENDBRANCH   9  19
BRANCH  18  26
ATOM     26  C   UNL A   1      33.430  20.694  25.803  1.00  0.00     0.430 C 
ATOM     27  F   UNL A   1      33.566  19.389  25.459  1.00  0.00    -0.167 F 
ATOM     28  F   UNL A   1      33.658  20.757  27.141  1.00  0.00    -0.167 F 
ATOM     29  F   UNL A   1      32.133  21.028  25.606  1.00  0.00    -0.167 F 
ENDBRANCH  18  26
ENDBRANCH   6   8
ENDBRANCH   5   6
ENDBRANCH   4   5
ENDBRANCH   3   4
ENDBRANCH   2   3
ENDBRANCH   1   2
BRANCH   1  30
ATOM     30  C   UNL A   1      42.371  19.338  26.110  1.00  0.00     0.261 C 
BRANCH  30  31
ATOM     31  O   UNL A   1      42.879  20.211  25.085  1.00  0.00    -0.460 OA
BRANCH  31  32
ATOM     32  C   UNL A   1      43.887  21.029  25.489  1.00  0.00     0.338 C 
ATOM     33  O   UNL A   1      45.058  20.698  25.583  1.00  0.00    -0.246 OA
BRANCH  32  34
ATOM     34  C   UNL A   1      43.336  22.348  25.893  1.00  0.00     0.060 A 
ATOM     35  C   UNL A   1      43.275  23.402  24.967  1.00  0.00     0.016 A 
ATOM     36  C   UNL A   1      43.080  22.585  27.243  1.00  0.00     0.016 A 
ATOM     37  C   UNL A   1      43.069  24.712  25.414  1.00  0.00     0.010 A 
ATOM     38  C   UNL A   1      42.970  23.882  27.687  1.00  0.00     0.010 A 
ATOM     39  C   UNL A   1      42.972  24.951  26.784  1.00  0.00    -0.014 A 
BRANCH  39  40
ATOM     40  C   UNL A   1      42.985  26.263  27.423  1.00  0.00     0.031 A 
ATOM     41  C   UNL A   1      41.730  27.019  27.627  1.00  0.00     0.074 A 
ATOM     42  C   UNL A   1      44.095  26.653  28.084  1.00  0.00     0.049 A 
ATOM     43  N   UNL A   1      41.671  28.244  28.024  1.00  0.00    -0.248 NA
ATOM     44  C   UNL A   1      40.410  26.456  27.375  1.00  0.00     0.031 C 
ATOM     45  C   UNL A   1      44.187  27.641  29.148  1.00  0.00     0.029 A 
ATOM     46  N   UNL A   1      45.412  26.363  27.769  1.00  0.00    -0.354 N 
ATOM     47  C   UNL A   1      40.386  28.489  28.451  1.00  0.00     0.074 A 
ATOM     48  C   UNL A   1      39.621  27.388  27.919  1.00  0.00     0.031 C 
ATOM     49  C   UNL A   1      45.445  28.089  29.217  1.00  0.00     0.029 A 
ATOM     50  C   UNL A   1      46.204  27.437  28.165  1.00  0.00     0.049 A 
ATOM     51  H   UNL A   1      45.734  25.538  27.339  1.00  0.00     0.167 HD
ATOM     52  C   UNL A   1      40.175  29.511  29.334  1.00  0.00     0.034 A 
ATOM     53  C   UNL A   1      47.074  28.022  27.304  1.00  0.00     0.034 A 
ATOM     54  C   UNL A   1      41.423  30.257  29.586  1.00  0.00     0.049 A 
ATOM     55  C   UNL A   1      46.645  29.452  27.145  1.00  0.00     0.074 A 
ATOM     56  C   UNL A   1      42.264  30.351  30.685  1.00  0.00     0.029 A 
ATOM     57  N   UNL A   1      42.122  30.829  28.518  1.00  0.00    -0.354 N 
ATOM     58  N   UNL A   1      45.400  29.834  27.283  1.00  0.00    -0.248 NA
ATOM     59  C   UNL A   1      47.581  30.565  27.051  1.00  0.00     0.031 C 
ATOM     60  C   UNL A   1      43.500  30.902  30.247  1.00  0.00     0.029 A 
ATOM     61  C   UNL A   1      43.407  31.176  28.890  1.00  0.00     0.049 A 
ATOM     62  H   UNL A   1      41.747  30.967  27.618  1.00  0.00     0.167 HD
ATOM     63  C   UNL A   1      45.384  31.182  27.497  1.00  0.00     0.074 A 
ATOM     64  C   UNL A   1      46.759  31.608  27.260  1.00  0.00     0.031 C 
ATOM     65  C   UNL A   1      44.310  31.872  27.983  1.00  0.00     0.034 A 
BRANCH  52  66
ATOM     66  C   UNL A   1      38.925  29.673  30.200  1.00  0.00     0.023 A 
ATOM     67  C   UNL A   1      38.135  30.839  30.074  1.00  0.00     0.031 A 
ATOM     68  C   UNL A   1      38.471  28.768  31.182  1.00  0.00     0.131 A 
ATOM     69  C   UNL A   1      37.046  31.102  30.933  1.00  0.00     0.055 A 
ATOM     70  C   UNL A   1      37.415  29.044  32.063  1.00  0.00     0.041 A 
ATOM     71  F   UNL A   1      38.972  27.536  31.305  1.00  0.00    -0.206 F 
ATOM     72  C   UNL A   1      36.699  30.221  31.949  1.00  0.00     0.022 A 
BRANCH  69  73
ATOM     73  S   UNL A   1      36.071  32.616  30.701  1.00  0.00     0.124 S 
ATOM     74  O   UNL A   1      36.164  32.819  29.259  1.00  0.00    -0.237 OA
ATOM     75  O   UNL A   1      34.764  32.229  31.219  1.00  0.00    -0.237 OA
ATOM     76  O   UNL A   1      36.783  33.605  31.510  1.00  0.00    -0.744 OA
ENDBRANCH  69  73
ENDBRANCH  52  66
BRANCH  53  77
ATOM     77  C   UNL A   1      47.650  27.042  26.337  1.00  0.00     0.023 A 
ATOM     78  C   UNL A   1      47.468  27.359  24.964  1.00  0.00     0.031 A 
ATOM     79  C   UNL A   1      48.720  26.198  26.667  1.00  0.00     0.131 A 
ATOM     80  C   UNL A   1      48.419  26.975  24.004  1.00  0.00     0.055 A 
ATOM     81  C   UNL A   1      49.650  25.788  25.695  1.00  0.00     0.041 A 
ATOM     82  F   UNL A   1      48.972  25.880  27.944  1.00  0.00    -0.206 F 
ATOM     83  C   UNL A   1      49.530  26.214  24.370  1.00  0.00     0.022 A 
BRANCH  80  84
ATOM     84  S   UNL A   1      48.359  27.692  22.327  1.00  0.00     0.124 S 
ATOM     85  O   UNL A   1      48.362  26.504  21.482  1.00  0.00    -0.237 OA
ATOM     86  O   UNL A   1      47.117  28.460  22.337  1.00  0.00    -0.237 OA
ATOM     87  O   UNL A   1      49.569  28.511  22.284  1.00  0.00    -0.744 OA
ENDBRANCH  80  84
ENDBRANCH  53  77
BRANCH  65  88
ATOM     88  C   UNL A   1      44.132  33.347  27.755  1.00  0.00     0.023 A 
ATOM     89  C   UNL A   1      44.340  34.272  28.788  1.00  0.00     0.031 A 
ATOM     90  C   UNL A   1      43.900  33.886  26.472  1.00  0.00     0.131 A 
ATOM     91  C   UNL A   1      44.214  35.646  28.562  1.00  0.00     0.055 A 
ATOM     92  C   UNL A   1      43.867  35.260  26.230  1.00  0.00     0.041 A 
ATOM     93  F   UNL A   1      43.727  33.106  25.394  1.00  0.00    -0.206 F 
ATOM     94  C   UNL A   1      44.008  36.153  27.284  1.00  0.00     0.022 A 
BRANCH  91  95
ATOM     95  S   UNL A   1      44.270  36.735  30.003  1.00  0.00     0.124 S 
ATOM     96  O   UNL A   1      45.701  36.765  30.295  1.00  0.00    -0.237 OA
ATOM     97  O   UNL A   1      43.706  37.977  29.487  1.00  0.00    -0.237 OA
ATOM     98  O   UNL A   1      43.447  36.040  30.991  1.00  0.00    -0.744 OA
ENDBRANCH  91  95
ENDBRANCH  65  88
ENDBRANCH  39  40
ENDBRANCH  32  34
ENDBRANCH  31  32
ENDBRANCH  30  31
ENDBRANCH   1  30
TORSDOF 19
ENDMDL
MODEL 3
REMARK VINA RESULT:     -12.4      2.827      4.227
REMARK SMILES Cc1ccccc1-c1c(Cl)ccc2c1C=C(C(=O)OCCOCCOC(=O)c1ccc(-c3c4nc(c(-c5cc(S(=O)(=O)[O-])ccc5F)c5ccc([nH]5)c(-c5cc(S(=O)(=O)[O-])ccc5F)c5nc(c(-c6cc(S(=O)(=O)[O-])ccc6F)c6ccc3[nH]6)C=C5)C=C4)cc1)[C@@H](C(F)(F)F)O2
REMARK SMILES IDX 23 1 22 2 21 3 20 4 19 5 17 6 18 7 16 8 8 9 9 10 14 11 10 12
REMARK SMILES IDX 11 13 13 14 15 15 12 16 96 17 91 18 7 19 1 20 2 21 3 22 4 23
REMARK SMILES IDX 6 24 5 25 92 26 93 27 94 28 95 29 24 30 25 31 26 32 27 33
REMARK SMILES IDX 28 34 29 35 90 36 30 37 89 38 31 39 32 40 33 41 83 42 34 43
REMARK SMILES IDX 88 44 82 45 84 46 35 47 87 48 81 49 80 50 36 52 68 53 48 54
REMARK SMILES IDX 67 55 49 56 52 57 66 58 85 59 50 60 51 61 65 63 86 64 53 65
REMARK SMILES IDX 37 66 38 67 46 68 39 69 45 70 47 71 44 72 40 73 41 74 42 75
REMARK SMILES IDX 43 76 69 77 70 78 78 79 71 80 77 81 79 82 76 83 72 84 73 85
REMARK SMILES IDX 74 86 75 87 54 88 55 89 63 90 56 91 62 92 64 93 61 94 57 95
REMARK SMILES IDX 58 96 59 97 60 98
REMARK H PARENT 84 51 52 62
REMARK Flexibility Score: inf
ROOT
ATOM      1  C   UNL A   1      32.946  34.193  28.190  1.00  0.00     0.202 C 
ENDROOT
BRANCH   1   2
ATOM      2  O   UNL A   1      33.547  32.914  28.090  1.00  0.00    -0.374 OA
BRANCH   2   3
ATOM      3  C   UNL A   1      32.848  31.970  27.271  1.00  0.00     0.202 C 
BRANCH   3   4
ATOM      4  C   UNL A   1      33.693  30.714  27.235  1.00  0.00     0.261 C 
BRANCH   4   5
ATOM      5  O   UNL A   1      33.507  29.988  26.008  1.00  0.00    -0.460 OA
BRANCH   5   6
ATOM      6  C   UNL A   1      33.306  28.670  26.198  1.00  0.00     0.338 C 
ATOM      7  O   UNL A   1      33.483  28.031  27.227  1.00  0.00    -0.246 OA
BRANCH   6   8
ATOM      8  C   UNL A   1      32.807  28.002  24.978  1.00  0.00     0.087 C 
ATOM      9  C   UNL A   1      33.034  24.354  25.359  1.00  0.00     0.012 A 
ATOM     10  C   UNL A   1      32.177  23.437  26.032  1.00  0.00     0.049 A 
ATOM     11  C   UNL A   1      32.507  25.655  25.099  1.00  0.00     0.027 A 
ATOM     12  Cl  UNL A   1      32.705  21.848  26.499  1.00  0.00    -0.084 Cl
ATOM     13  C   UNL A   1      30.859  23.762  26.373  1.00  0.00     0.025 A 
ATOM     14  C   UNL A   1      31.151  25.938  25.406  1.00  0.00     0.128 A 
ATOM     15  C   UNL A   1      33.368  26.806  24.735  1.00  0.00     0.028 C 
ATOM     16  C   UNL A   1      30.340  25.002  26.037  1.00  0.00     0.049 A 
ATOM     17  O   UNL A   1      30.523  27.135  25.162  1.00  0.00    -0.475 OA
ATOM     18  C   UNL A   1      31.349  28.240  24.762  1.00  0.00     0.316 C 
BRANCH   9  19
ATOM     19  C   UNL A   1      34.372  23.895  24.864  1.00  0.00    -0.013 A 
ATOM     20  C   UNL A   1      33.649  23.213  22.478  1.00  0.00     0.045 C 
ATOM     21  C   UNL A   1      34.657  23.382  23.577  1.00  0.00    -0.043 A 
ATOM     22  C   UNL A   1      35.976  23.012  23.238  1.00  0.00     0.004 A 
ATOM     23  C   UNL A   1      37.029  23.185  24.129  1.00  0.00     0.000 A 
ATOM     24  C   UNL A   1      35.467  24.037  25.751  1.00  0.00     0.009 A 
ATOM     25  C   UNL A   1      36.775  23.710  25.386  1.00  0.00     0.001 A 
ENDBRANCH   9  19
BRANCH  18  26
ATOM     26  C   UNL A   1      31.093  28.636  23.306  1.00  0.00     0.430 C 
ATOM     27  F   UNL A   1      32.193  29.195  22.745  1.00  0.00    -0.167 F 
ATOM     28  F   UNL A   1      30.788  27.555  22.541  1.00  0.00    -0.167 F 
ATOM     29  F   UNL A   1      30.078  29.520  23.166  1.00  0.00    -0.167 F 
ENDBRANCH  18  26
ENDBRANCH   6   8
ENDBRANCH   5   6
ENDBRANCH   4   5
ENDBRANCH   3   4
ENDBRANCH   2   3
ENDBRANCH   1   2
BRANCH   1  30
ATOM     30  C   UNL A   1      33.649  35.146  29.164  1.00  0.00     0.261 C 
BRANCH  30  31
ATOM     31  O   UNL A   1      33.227  34.877  30.513  1.00  0.00    -0.460 OA
BRANCH  31  32
ATOM     32  C   UNL A   1      34.230  34.884  31.430  1.00  0.00     0.338 C 
ATOM     33  O   UNL A   1      34.417  35.769  32.251  1.00  0.00    -0.246 OA
BRANCH  32  34
ATOM     34  C   UNL A   1      35.117  33.712  31.218  1.00  0.00     0.060 A 
ATOM     35  C   UNL A   1      34.972  32.563  32.012  1.00  0.00     0.016 A 
ATOM     36  C   UNL A   1      36.220  33.847  30.375  1.00  0.00     0.016 A 
ATOM     37  C   UNL A   1      35.989  31.603  32.042  1.00  0.00     0.010 A 
ATOM     38  C   UNL A   1      37.256  32.950  30.478  1.00  0.00     0.010 A 
ATOM     39  C   UNL A   1      37.156  31.831  31.313  1.00  0.00    -0.014 A 
BRANCH  39  40
ATOM     40  C   UNL A   1      38.388  31.055  31.412  1.00  0.00     0.031 A 
ATOM     41  C   UNL A   1      38.587  29.842  30.590  1.00  0.00     0.074 A 
ATOM     42  C   UNL A   1      39.453  31.605  32.032  1.00  0.00     0.049 A 
ATOM     43  N   UNL A   1      39.563  29.011  30.738  1.00  0.00    -0.248 NA
ATOM     44  C   UNL A   1      37.675  29.439  29.528  1.00  0.00     0.031 C 
ATOM     45  C   UNL A   1      40.855  31.259  31.850  1.00  0.00     0.029 A 
ATOM     46  N   UNL A   1      39.449  32.465  33.117  1.00  0.00    -0.354 N 
ATOM     47  C   UNL A   1      39.638  28.241  29.601  1.00  0.00     0.074 A 
ATOM     48  C   UNL A   1      38.377  28.467  28.937  1.00  0.00     0.031 C 
ATOM     49  C   UNL A   1      41.542  31.653  32.928  1.00  0.00     0.029 A 
ATOM     50  C   UNL A   1      40.598  32.230  33.867  1.00  0.00     0.049 A 
ATOM     51  H   UNL A   1      38.752  33.129  33.323  1.00  0.00     0.167 HD
ATOM     52  C   UNL A   1      40.827  27.638  29.297  1.00  0.00     0.034 A 
ATOM     53  C   UNL A   1      40.528  31.996  35.202  1.00  0.00     0.034 A 
ATOM     54  C   UNL A   1      41.820  27.862  30.366  1.00  0.00     0.049 A 
ATOM     55  C   UNL A   1      41.078  30.619  35.439  1.00  0.00     0.074 A 
ATOM     56  C   UNL A   1      42.973  28.627  30.441  1.00  0.00     0.029 A 
ATOM     57  N   UNL A   1      41.532  27.473  31.679  1.00  0.00    -0.354 N 
ATOM     58  N   UNL A   1      41.020  29.671  34.535  1.00  0.00    -0.248 NA
ATOM     59  C   UNL A   1      41.916  30.274  36.581  1.00  0.00     0.031 C 
ATOM     60  C   UNL A   1      43.322  28.764  31.813  1.00  0.00     0.029 A 
ATOM     61  C   UNL A   1      42.404  28.058  32.576  1.00  0.00     0.049 A 
ATOM     62  H   UNL A   1      40.803  26.860  31.930  1.00  0.00     0.167 HD
ATOM     63  C   UNL A   1      41.936  28.713  34.858  1.00  0.00     0.074 A 
ATOM     64  C   UNL A   1      42.412  29.089  36.184  1.00  0.00     0.031 C 
ATOM     65  C   UNL A   1      42.371  27.743  33.999  1.00  0.00     0.034 A 
BRANCH  52  66
ATOM     66  C   UNL A   1      41.204  27.094  27.919  1.00  0.00     0.023 A 
ATOM     67  C   UNL A   1      41.509  25.722  27.770  1.00  0.00     0.031 A 
ATOM     68  C   UNL A   1      41.325  27.847  26.733  1.00  0.00     0.131 A 
ATOM     69  C   UNL A   1      41.985  25.189  26.552  1.00  0.00     0.055 A 
ATOM     70  C   UNL A   1      41.836  27.330  25.532  1.00  0.00     0.041 A 
ATOM     71  F   UNL A   1      40.892  29.107  26.639  1.00  0.00    -0.206 F 
ATOM     72  C   UNL A   1      42.179  25.995  25.438  1.00  0.00     0.022 A 
BRANCH  69  73
ATOM     73  S   UNL A   1      42.344  23.413  26.435  1.00  0.00     0.124 S 
ATOM     74  O   UNL A   1      42.977  23.316  25.124  1.00  0.00    -0.237 OA
ATOM     75  O   UNL A   1      43.205  23.191  27.590  1.00  0.00    -0.237 OA
ATOM     76  O   UNL A   1      41.021  22.793  26.528  1.00  0.00    -0.744 OA
ENDBRANCH  69  73
ENDBRANCH  52  66
BRANCH  53  77
ATOM     77  C   UNL A   1      39.409  32.744  35.845  1.00  0.00     0.023 A 
ATOM     78  C   UNL A   1      38.507  31.957  36.610  1.00  0.00     0.031 A 
ATOM     79  C   UNL A   1      39.496  34.109  36.155  1.00  0.00     0.131 A 
ATOM     80  C   UNL A   1      37.857  32.495  37.735  1.00  0.00     0.055 A 
ATOM     81  C   UNL A   1      38.816  34.649  37.261  1.00  0.00     0.041 A 
ATOM     82  F   UNL A   1      40.347  34.908  35.496  1.00  0.00    -0.206 F 
ATOM     83  C   UNL A   1      38.033  33.835  38.083  1.00  0.00     0.022 A 
BRANCH  80  84
ATOM     84  S   UNL A   1      36.999  31.388  38.904  1.00  0.00     0.124 S 
ATOM     85  O   UNL A   1      35.689  32.017  39.021  1.00  0.00    -0.237 OA
ATOM     86  O   UNL A   1      37.025  30.098  38.222  1.00  0.00    -0.237 OA
ATOM     87  O   UNL A   1      37.848  31.455  40.092  1.00  0.00    -0.744 OA
ENDBRANCH  80  84
ENDBRANCH  53  77
BRANCH  65  88
ATOM     88  C   UNL A   1      42.970  26.452  34.480  1.00  0.00     0.023 A 
ATOM     89  C   UNL A   1      44.359  26.263  34.515  1.00  0.00     0.031 A 
ATOM     90  C   UNL A   1      42.186  25.431  35.060  1.00  0.00     0.131 A 
ATOM     91  C   UNL A   1      44.914  25.076  35.003  1.00  0.00     0.055 A 
ATOM     92  C   UNL A   1      42.747  24.288  35.631  1.00  0.00     0.041 A 
ATOM     93  F   UNL A   1      40.849  25.513  35.126  1.00  0.00    -0.206 F 
ATOM     94  C   UNL A   1      44.122  24.095  35.590  1.00  0.00     0.022 A 
BRANCH  91  95
ATOM     95  S   UNL A   1      46.693  24.838  34.787  1.00  0.00     0.124 S 
ATOM     96  O   UNL A   1      46.967  23.774  35.750  1.00  0.00    -0.237 OA
ATOM     97  O   UNL A   1      46.796  24.459  33.383  1.00  0.00    -0.237 OA
ATOM     98  O   UNL A   1      47.257  26.144  35.123  1.00  0.00    -0.744 OA
ENDBRANCH  91  95
ENDBRANCH  65  88
ENDBRANCH  39  40
ENDBRANCH  32  34
ENDBRANCH  31  32
ENDBRANCH  30  31
ENDBRANCH   1  30
TORSDOF 19
ENDMDL
