MODEL 1
REMARK VINA RESULT:     -12.5      0.000      0.000
REMARK SMILES Cc1ccc(Oc2cc(C(=O)OCCOCCOC(=O)c3ccc(-c4c5nc(c(-c6cc(S(=O)(=O)[O-])ccc6F)c6ccc([nH]6)c(-c6cc(S(=O)(=O)[O-])ccc6F)c6nc(c(-c7cc(S(=O)(=O)[O-])ccc7F)c7ccc4[nH]7)C=C6)C=C5)cc3)nc3ccccc23)cc1
REMARK SMILES IDX 16 1 15 2 14 3 13 4 12 5 10 6 11 7 9 8 7 9 8 10 90 11 85 12
REMARK SMILES IDX 89 13 84 14 86 15 88 16 87 17 6 18 5 19 1 20 2 21 3 22 92 23
REMARK SMILES IDX 4 24 91 25 17 26 18 27 19 28 20 29 21 30 22 31 83 32 23 33
REMARK SMILES IDX 82 34 24 35 25 36 26 37 76 38 27 39 81 40 75 41 77 42 28 43
REMARK SMILES IDX 80 44 74 45 73 46 29 48 61 49 41 50 60 51 42 52 45 53 59 54
REMARK SMILES IDX 78 55 43 56 44 57 58 59 79 60 46 61 30 62 31 63 39 64 32 65
REMARK SMILES IDX 38 66 40 67 37 68 33 69 34 70 35 71 36 72 62 73 63 74 71 75
REMARK SMILES IDX 64 76 70 77 72 78 69 79 65 80 66 81 67 82 68 83 47 84 48 85
REMARK SMILES IDX 56 86 49 87 55 88 57 89 54 90 50 91 51 92 52 93 53 94
REMARK H PARENT 77 47 45 58
REMARK Flexibility Score: inf
ROOT
ATOM      1  C   UNL A   1      33.248  35.565  28.737  1.00  0.00     0.202 C 
ENDROOT
BRANCH   1   2
ATOM      2  O   UNL A   1      32.713  34.269  28.648  1.00  0.00    -0.374 OA
BRANCH   2   3
ATOM      3  C   UNL A   1      33.199  33.456  27.594  1.00  0.00     0.202 C 
BRANCH   3   4
ATOM      4  C   UNL A   1      33.730  32.220  28.250  1.00  0.00     0.261 C 
BRANCH   4   5
ATOM      5  O   UNL A   1      33.295  31.018  27.591  1.00  0.00    -0.459 OA
BRANCH   5   6
ATOM      6  C   UNL A   1      34.139  30.122  27.010  1.00  0.00     0.357 C 
ATOM      7  O   UNL A   1      35.257  29.778  27.312  1.00  0.00    -0.244 OA
BRANCH   6   8
ATOM      8  C   UNL A   1      33.354  29.482  25.939  1.00  0.00     0.152 A 
ATOM      9  C   UNL A   1      32.791  27.641  24.609  1.00  0.00     0.139 A 
ATOM     10  C   UNL A   1      33.675  28.217  25.510  1.00  0.00     0.084 A 
ATOM     11  C   UNL A   1      31.602  28.306  24.202  1.00  0.00     0.043 A 
ATOM     12  C   UNL A   1      31.412  29.599  24.710  1.00  0.00     0.075 A 
ATOM     13  C   UNL A   1      30.633  27.806  23.307  1.00  0.00     0.014 A 
ATOM     14  N   UNL A   1      32.264  30.166  25.537  1.00  0.00    -0.240 NA
ATOM     15  C   UNL A   1      30.317  30.357  24.355  1.00  0.00     0.029 A 
ATOM     16  C   UNL A   1      29.538  28.590  22.931  1.00  0.00     0.001 A 
ATOM     17  C   UNL A   1      29.379  29.867  23.458  1.00  0.00     0.002 A 
BRANCH   9  18
ATOM     18  O   UNL A   1      33.155  26.415  24.103  1.00  0.00    -0.457 OA
BRANCH  18  19
ATOM     19  C   UNL A   1      33.433  25.432  25.032  1.00  0.00     0.127 A 
ATOM     20  C   UNL A   1      33.889  22.002  27.572  1.00  0.00     0.044 C 
ATOM     21  C   UNL A   1      33.741  23.238  26.741  1.00  0.00    -0.051 A 
ATOM     22  C   UNL A   1      32.492  23.855  26.598  1.00  0.00     0.007 A 
ATOM     23  C   UNL A   1      34.851  23.784  26.094  1.00  0.00     0.007 A 
ATOM     24  C   UNL A   1      32.337  24.946  25.743  1.00  0.00     0.047 A 
ATOM     25  C   UNL A   1      34.701  24.885  25.258  1.00  0.00     0.047 A 
ENDBRANCH  18  19
ENDBRANCH   9  18
ENDBRANCH   6   8
ENDBRANCH   5   6
ENDBRANCH   4   5
ENDBRANCH   3   4
ENDBRANCH   2   3
ENDBRANCH   1   2
BRANCH   1  26
ATOM     26  C   UNL A   1      32.890  36.208  30.076  1.00  0.00     0.261 C 
BRANCH  26  27
ATOM     27  O   UNL A   1      32.901  35.223  31.139  1.00  0.00    -0.460 OA
BRANCH  27  28
ATOM     28  C   UNL A   1      34.049  35.148  31.879  1.00  0.00     0.338 C 
ATOM     29  O   UNL A   1      34.424  36.004  32.661  1.00  0.00    -0.246 OA
BRANCH  28  30
ATOM     30  C   UNL A   1      34.841  33.937  31.503  1.00  0.00     0.060 A 
ATOM     31  C   UNL A   1      34.645  32.703  32.159  1.00  0.00     0.016 A 
ATOM     32  C   UNL A   1      35.975  34.132  30.730  1.00  0.00     0.016 A 
ATOM     33  C   UNL A   1      35.672  31.738  32.184  1.00  0.00     0.010 A 
ATOM     34  C   UNL A   1      37.021  33.256  30.890  1.00  0.00     0.010 A 
ATOM     35  C   UNL A   1      36.903  32.060  31.621  1.00  0.00    -0.014 A 
BRANCH  35  36
ATOM     36  C   UNL A   1      38.163  31.312  31.728  1.00  0.00     0.031 A 
ATOM     37  C   UNL A   1      38.297  30.090  30.895  1.00  0.00     0.074 A 
ATOM     38  C   UNL A   1      39.280  31.836  32.300  1.00  0.00     0.049 A 
ATOM     39  N   UNL A   1      39.210  29.200  31.069  1.00  0.00    -0.248 NA
ATOM     40  C   UNL A   1      37.366  29.711  29.829  1.00  0.00     0.031 C 
ATOM     41  C   UNL A   1      40.672  31.568  31.920  1.00  0.00     0.029 A 
ATOM     42  N   UNL A   1      39.417  32.777  33.320  1.00  0.00    -0.354 N 
ATOM     43  C   UNL A   1      39.230  28.409  29.943  1.00  0.00     0.074 A 
ATOM     44  C   UNL A   1      37.970  28.647  29.299  1.00  0.00     0.031 C 
ATOM     45  C   UNL A   1      41.509  32.137  32.805  1.00  0.00     0.029 A 
ATOM     46  C   UNL A   1      40.704  32.690  33.877  1.00  0.00     0.049 A 
ATOM     47  H   UNL A   1      38.717  33.407  33.607  1.00  0.00     0.167 HD
ATOM     48  C   UNL A   1      40.394  27.790  29.602  1.00  0.00     0.034 A 
ATOM     49  C   UNL A   1      40.889  32.553  35.217  1.00  0.00     0.034 A 
ATOM     50  C   UNL A   1      41.443  28.112  30.576  1.00  0.00     0.049 A 
ATOM     51  C   UNL A   1      41.466  31.185  35.461  1.00  0.00     0.074 A 
ATOM     52  C   UNL A   1      42.565  28.922  30.521  1.00  0.00     0.029 A 
ATOM     53  N   UNL A   1      41.258  27.789  31.914  1.00  0.00    -0.354 N 
ATOM     54  N   UNL A   1      41.404  30.246  34.557  1.00  0.00    -0.248 NA
ATOM     55  C   UNL A   1      42.213  30.767  36.641  1.00  0.00     0.031 C 
ATOM     56  C   UNL A   1      43.039  29.098  31.849  1.00  0.00     0.029 A 
ATOM     57  C   UNL A   1      42.223  28.373  32.703  1.00  0.00     0.049 A 
ATOM     58  H   UNL A   1      40.531  27.219  32.254  1.00  0.00     0.167 HD
ATOM     59  C   UNL A   1      42.126  29.168  34.953  1.00  0.00     0.074 A 
ATOM     60  C   UNL A   1      42.583  29.521  36.288  1.00  0.00     0.031 C 
ATOM     61  C   UNL A   1      42.281  28.091  34.129  1.00  0.00     0.034 A 
BRANCH  48  62
ATOM     62  C   UNL A   1      40.716  27.106  28.289  1.00  0.00     0.023 A 
ATOM     63  C   UNL A   1      40.796  25.696  28.296  1.00  0.00     0.031 A 
ATOM     64  C   UNL A   1      40.978  27.702  27.040  1.00  0.00     0.131 A 
ATOM     65  C   UNL A   1      41.175  24.963  27.160  1.00  0.00     0.055 A 
ATOM     66  C   UNL A   1      41.358  26.973  25.904  1.00  0.00     0.041 A 
ATOM     67  F   UNL A   1      40.860  29.013  26.820  1.00  0.00    -0.206 F 
ATOM     68  C   UNL A   1      41.465  25.595  25.960  1.00  0.00     0.022 A 
BRANCH  65  69
ATOM     69  S   UNL A   1      41.280  23.161  27.290  1.00  0.00     0.124 S 
ATOM     70  O   UNL A   1      42.026  22.987  28.532  1.00  0.00    -0.237 OA
ATOM     71  O   UNL A   1      39.876  22.767  27.316  1.00  0.00    -0.237 OA
ATOM     72  O   UNL A   1      42.004  22.779  26.077  1.00  0.00    -0.744 OA
ENDBRANCH  65  69
ENDBRANCH  48  62
BRANCH  49  73
ATOM     73  C   UNL A   1      39.850  33.298  35.997  1.00  0.00     0.023 A 
ATOM     74  C   UNL A   1      38.851  32.522  36.641  1.00  0.00     0.031 A 
ATOM     75  C   UNL A   1      40.147  34.559  36.542  1.00  0.00     0.131 A 
ATOM     76  C   UNL A   1      38.294  32.947  37.863  1.00  0.00     0.055 A 
ATOM     77  C   UNL A   1      39.603  34.967  37.767  1.00  0.00     0.041 A 
ATOM     78  F   UNL A   1      41.101  35.328  35.996  1.00  0.00    -0.206 F 
ATOM     79  C   UNL A   1      38.702  34.149  38.449  1.00  0.00     0.022 A 
BRANCH  76  80
ATOM     80  S   UNL A   1      37.256  31.792  38.830  1.00  0.00     0.124 S 
ATOM     81  O   UNL A   1      37.286  30.588  38.009  1.00  0.00    -0.237 OA
ATOM     82  O   UNL A   1      37.955  31.705  40.107  1.00  0.00    -0.237 OA
ATOM     83  O   UNL A   1      35.964  32.476  38.897  1.00  0.00    -0.744 OA
ENDBRANCH  76  80
ENDBRANCH  49  73
BRANCH  61  84
ATOM     84  C   UNL A   1      42.597  26.700  34.596  1.00  0.00     0.023 A 
ATOM     85  C   UNL A   1      43.690  25.989  34.095  1.00  0.00     0.031 A 
ATOM     86  C   UNL A   1      41.881  26.073  35.644  1.00  0.00     0.131 A 
ATOM     87  C   UNL A   1      43.959  24.685  34.520  1.00  0.00     0.055 A 
ATOM     88  C   UNL A   1      42.220  24.816  36.145  1.00  0.00     0.041 A 
ATOM     89  F   UNL A   1      40.837  26.656  36.249  1.00  0.00    -0.206 F 
ATOM     90  C   UNL A   1      43.250  24.098  35.560  1.00  0.00     0.022 A 
BRANCH  87  91
ATOM     91  S   UNL A   1      45.191  23.757  33.581  1.00  0.00     0.124 S 
ATOM     92  O   UNL A   1      46.209  24.776  33.337  1.00  0.00    -0.237 OA
ATOM     93  O   UNL A   1      45.568  22.700  34.515  1.00  0.00    -0.237 OA
ATOM     94  O   UNL A   1      44.458  23.313  32.399  1.00  0.00    -0.744 OA
ENDBRANCH  87  91
ENDBRANCH  61  84
ENDBRANCH  35  36
ENDBRANCH  28  30
ENDBRANCH  27  28
ENDBRANCH  26  27
ENDBRANCH   1  26
TORSDOF 19
ENDMDL
MODEL 2
REMARK VINA RESULT:     -11.9      3.016      5.064
REMARK SMILES Cc1ccc(Oc2cc(C(=O)OCCOCCOC(=O)c3ccc(-c4c5nc(c(-c6cc(S(=O)(=O)[O-])ccc6F)c6ccc([nH]6)c(-c6cc(S(=O)(=O)[O-])ccc6F)c6nc(c(-c7cc(S(=O)(=O)[O-])ccc7F)c7ccc4[nH]7)C=C6)C=C5)cc3)nc3ccccc23)cc1
REMARK SMILES IDX 16 1 15 2 14 3 13 4 12 5 10 6 11 7 9 8 7 9 8 10 90 11 85 12
REMARK SMILES IDX 89 13 84 14 86 15 88 16 87 17 6 18 5 19 1 20 2 21 3 22 92 23
REMARK SMILES IDX 4 24 91 25 17 26 18 27 19 28 20 29 21 30 22 31 83 32 23 33
REMARK SMILES IDX 82 34 24 35 25 36 26 37 76 38 27 39 81 40 75 41 77 42 28 43
REMARK SMILES IDX 80 44 74 45 73 46 29 48 61 49 41 50 60 51 42 52 45 53 59 54
REMARK SMILES IDX 78 55 43 56 44 57 58 59 79 60 46 61 30 62 31 63 39 64 32 65
REMARK SMILES IDX 38 66 40 67 37 68 33 69 34 70 35 71 36 72 62 73 63 74 71 75
REMARK SMILES IDX 64 76 70 77 72 78 69 79 65 80 66 81 67 82 68 83 47 84 48 85
REMARK SMILES IDX 56 86 49 87 55 88 57 89 54 90 50 91 51 92 52 93 53 94
REMARK H PARENT 77 47 45 58
REMARK Flexibility Score: inf
ROOT
ATOM      1  C   UNL A   1      32.138  29.184  26.482  1.00  0.00     0.202 C 
ENDROOT
BRANCH   1   2
ATOM      2  O   UNL A   1      32.046  27.905  25.907  1.00  0.00    -0.374 OA
BRANCH   2   3
ATOM      3  C   UNL A   1      31.024  27.719  24.944  1.00  0.00     0.202 C 
BRANCH   3   4
ATOM      4  C   UNL A   1      30.420  26.383  25.249  1.00  0.00     0.261 C 
BRANCH   4   5
ATOM      5  O   UNL A   1      31.072  25.724  26.349  1.00  0.00    -0.459 OA
BRANCH   5   6
ATOM      6  C   UNL A   1      30.931  24.401  26.634  1.00  0.00     0.357 C 
ATOM      7  O   UNL A   1      30.076  23.811  27.249  1.00  0.00    -0.244 OA
BRANCH   6   8
ATOM      8  C   UNL A   1      32.010  23.723  25.891  1.00  0.00     0.152 A 
ATOM      9  C   UNL A   1      32.778  22.338  24.170  1.00  0.00     0.139 A 
ATOM     10  C   UNL A   1      31.706  22.808  24.914  1.00  0.00     0.084 A 
ATOM     11  C   UNL A   1      34.099  22.820  24.379  1.00  0.00     0.043 A 
ATOM     12  C   UNL A   1      34.263  23.743  25.421  1.00  0.00     0.075 A 
ATOM     13  C   UNL A   1      35.253  22.421  23.671  1.00  0.00     0.014 A 
ATOM     14  N   UNL A   1      33.256  24.166  26.155  1.00  0.00    -0.240 NA
ATOM     15  C   UNL A   1      35.503  24.250  25.745  1.00  0.00     0.029 A 
ATOM     16  C   UNL A   1      36.511  22.920  24.020  1.00  0.00     0.001 A 
ATOM     17  C   UNL A   1      36.636  23.839  25.058  1.00  0.00     0.002 A 
BRANCH   9  18
ATOM     18  O   UNL A   1      32.494  21.351  23.255  1.00  0.00    -0.457 OA
BRANCH  18  19
ATOM     19  C   UNL A   1      32.498  20.056  23.736  1.00  0.00     0.127 A 
ATOM     20  C   UNL A   1      33.062  15.960  24.885  1.00  0.00     0.044 C 
ATOM     21  C   UNL A   1      32.797  17.379  24.490  1.00  0.00    -0.051 A 
ATOM     22  C   UNL A   1      32.595  17.718  23.146  1.00  0.00     0.007 A 
ATOM     23  C   UNL A   1      32.757  18.381  25.461  1.00  0.00     0.007 A 
ATOM     24  C   UNL A   1      32.450  19.053  22.769  1.00  0.00     0.047 A 
ATOM     25  C   UNL A   1      32.592  19.710  25.088  1.00  0.00     0.047 A 
ENDBRANCH  18  19
ENDBRANCH   9  18
ENDBRANCH   6   8
ENDBRANCH   5   6
ENDBRANCH   4   5
ENDBRANCH   3   4
ENDBRANCH   2   3
ENDBRANCH   1   2
BRANCH   1  26
ATOM     26  C   UNL A   1      33.571  29.477  26.924  1.00  0.00     0.261 C 
BRANCH  26  27
ATOM     27  O   UNL A   1      33.641  30.734  27.641  1.00  0.00    -0.460 OA
BRANCH  27  28
ATOM     28  C   UNL A   1      34.894  31.251  27.830  1.00  0.00     0.338 C 
ATOM     29  O   UNL A   1      35.191  32.420  27.658  1.00  0.00    -0.246 OA
BRANCH  28  30
ATOM     30  C   UNL A   1      35.870  30.165  28.154  1.00  0.00     0.060 A 
ATOM     31  C   UNL A   1      36.102  29.763  29.486  1.00  0.00     0.016 A 
ATOM     32  C   UNL A   1      36.760  29.792  27.158  1.00  0.00     0.016 A 
ATOM     33  C   UNL A   1      37.317  29.145  29.842  1.00  0.00     0.010 A 
ATOM     34  C   UNL A   1      37.997  29.333  27.540  1.00  0.00     0.010 A 
ATOM     35  C   UNL A   1      38.308  29.015  28.874  1.00  0.00    -0.014 A 
BRANCH  35  36
ATOM     36  C   UNL A   1      39.708  28.616  29.070  1.00  0.00     0.031 A 
ATOM     37  C   UNL A   1      40.081  27.235  28.668  1.00  0.00     0.074 A 
ATOM     38  C   UNL A   1      40.701  29.515  29.306  1.00  0.00     0.049 A 
ATOM     39  N   UNL A   1      41.178  26.660  29.013  1.00  0.00    -0.248 NA
ATOM     40  C   UNL A   1      39.215  26.337  27.898  1.00  0.00     0.031 C 
ATOM     41  C   UNL A   1      42.099  29.416  28.874  1.00  0.00     0.029 A 
ATOM     42  N   UNL A   1      40.663  30.755  29.944  1.00  0.00    -0.354 N 
ATOM     43  C   UNL A   1      41.330  25.553  28.208  1.00  0.00     0.074 A 
ATOM     44  C   UNL A   1      40.023  25.300  27.675  1.00  0.00     0.031 C 
ATOM     45  C   UNL A   1      42.822  30.409  29.423  1.00  0.00     0.029 A 
ATOM     46  C   UNL A   1      41.958  31.122  30.344  1.00  0.00     0.049 A 
ATOM     47  H   UNL A   1      39.851  31.292  30.091  1.00  0.00     0.167 HD
ATOM     48  C   UNL A   1      42.588  25.100  27.953  1.00  0.00     0.034 A 
ATOM     49  C   UNL A   1      42.227  31.490  31.626  1.00  0.00     0.034 A 
ATOM     50  C   UNL A   1      43.578  25.937  28.641  1.00  0.00     0.049 A 
ATOM     51  C   UNL A   1      43.109  30.433  32.230  1.00  0.00     0.074 A 
ATOM     52  C   UNL A   1      44.483  26.887  28.196  1.00  0.00     0.029 A 
ATOM     53  N   UNL A   1      43.528  26.061  30.023  1.00  0.00    -0.354 N 
ATOM     54  N   UNL A   1      43.225  29.249  31.692  1.00  0.00    -0.248 NA
ATOM     55  C   UNL A   1      43.982  30.601  33.386  1.00  0.00     0.031 C 
ATOM     56  C   UNL A   1      44.960  27.596  29.331  1.00  0.00     0.029 A 
ATOM     57  C   UNL A   1      44.368  27.059  30.462  1.00  0.00     0.049 A 
ATOM     58  H   UNL A   1      42.965  25.508  30.612  1.00  0.00     0.167 HD
ATOM     59  C   UNL A   1      44.189  28.538  32.329  1.00  0.00     0.074 A 
ATOM     60  C   UNL A   1      44.610  29.410  33.414  1.00  0.00     0.031 C 
ATOM     61  C   UNL A   1      44.549  27.299  31.886  1.00  0.00     0.034 A 
BRANCH  48  62
ATOM     62  C   UNL A   1      43.002  24.087  26.904  1.00  0.00     0.023 A 
ATOM     63  C   UNL A   1      42.410  22.807  26.972  1.00  0.00     0.031 A 
ATOM     64  C   UNL A   1      43.937  24.248  25.863  1.00  0.00     0.131 A 
ATOM     65  C   UNL A   1      42.783  21.764  26.108  1.00  0.00     0.055 A 
ATOM     66  C   UNL A   1      44.313  23.208  25.000  1.00  0.00     0.041 A 
ATOM     67  F   UNL A   1      44.527  25.412  25.588  1.00  0.00    -0.206 F 
ATOM     68  C   UNL A   1      43.741  21.955  25.122  1.00  0.00     0.022 A 
BRANCH  65  69
ATOM     69  S   UNL A   1      41.987  20.151  26.306  1.00  0.00     0.124 S 
ATOM     70  O   UNL A   1      42.497  19.415  25.154  1.00  0.00    -0.237 OA
ATOM     71  O   UNL A   1      42.469  19.724  27.614  1.00  0.00    -0.237 OA
ATOM     72  O   UNL A   1      40.560  20.473  26.251  1.00  0.00    -0.744 OA
ENDBRANCH  65  69
ENDBRANCH  48  62
BRANCH  49  73
ATOM     73  C   UNL A   1      41.081  32.234  32.238  1.00  0.00     0.023 A 
ATOM     74  C   UNL A   1      40.368  31.575  33.273  1.00  0.00     0.031 A 
ATOM     75  C   UNL A   1      41.066  33.639  32.230  1.00  0.00     0.131 A 
ATOM     76  C   UNL A   1      39.798  32.313  34.330  1.00  0.00     0.055 A 
ATOM     77  C   UNL A   1      40.514  34.366  33.293  1.00  0.00     0.041 A 
ATOM     78  F   UNL A   1      41.743  34.321  31.293  1.00  0.00    -0.206 F 
ATOM     79  C   UNL A   1      39.909  33.706  34.363  1.00  0.00     0.022 A 
BRANCH  76  80
ATOM     80  S   UNL A   1      39.169  31.435  35.806  1.00  0.00     0.124 S 
ATOM     81  O   UNL A   1      40.395  30.925  36.409  1.00  0.00    -0.237 OA
ATOM     82  O   UNL A   1      38.486  32.485  36.553  1.00  0.00    -0.237 OA
ATOM     83  O   UNL A   1      38.278  30.421  35.241  1.00  0.00    -0.744 OA
ENDBRANCH  76  80
ENDBRANCH  49  73
BRANCH  61  84
ATOM     84  C   UNL A   1      45.192  26.244  32.737  1.00  0.00     0.023 A 
ATOM     85  C   UNL A   1      44.435  25.377  33.528  1.00  0.00     0.031 A 
ATOM     86  C   UNL A   1      46.585  25.990  32.703  1.00  0.00     0.131 A 
ATOM     87  C   UNL A   1      45.047  24.414  34.334  1.00  0.00     0.055 A 
ATOM     88  C   UNL A   1      47.183  24.955  33.423  1.00  0.00     0.041 A 
ATOM     89  F   UNL A   1      47.429  26.714  31.955  1.00  0.00    -0.206 F 
ATOM     90  C   UNL A   1      46.415  24.175  34.272  1.00  0.00     0.022 A 
BRANCH  87  91
ATOM     91  S   UNL A   1      44.001  23.574  35.543  1.00  0.00     0.124 S 
ATOM     92  O   UNL A   1      44.866  22.477  35.973  1.00  0.00    -0.237 OA
ATOM     93  O   UNL A   1      43.766  24.618  36.536  1.00  0.00    -0.237 OA
ATOM     94  O   UNL A   1      42.831  23.176  34.765  1.00  0.00    -0.744 OA
ENDBRANCH  87  91
ENDBRANCH  61  84
ENDBRANCH  35  36
ENDBRANCH  28  30
ENDBRANCH  27  28
ENDBRANCH  26  27
ENDBRANCH   1  26
TORSDOF 19
ENDMDL
MODEL 3
REMARK VINA RESULT:     -11.8      5.307     11.396
REMARK SMILES Cc1ccc(Oc2cc(C(=O)OCCOCCOC(=O)c3ccc(-c4c5nc(c(-c6cc(S(=O)(=O)[O-])ccc6F)c6ccc([nH]6)c(-c6cc(S(=O)(=O)[O-])ccc6F)c6nc(c(-c7cc(S(=O)(=O)[O-])ccc7F)c7ccc4[nH]7)C=C6)C=C5)cc3)nc3ccccc23)cc1
REMARK SMILES IDX 16 1 15 2 14 3 13 4 12 5 10 6 11 7 9 8 7 9 8 10 90 11 85 12
REMARK SMILES IDX 89 13 84 14 86 15 88 16 87 17 6 18 5 19 1 20 2 21 3 22 92 23
REMARK SMILES IDX 4 24 91 25 17 26 18 27 19 28 20 29 21 30 22 31 83 32 23 33
REMARK SMILES IDX 82 34 24 35 25 36 26 37 76 38 27 39 81 40 75 41 77 42 28 43
REMARK SMILES IDX 80 44 74 45 73 46 29 48 61 49 41 50 60 51 42 52 45 53 59 54
REMARK SMILES IDX 78 55 43 56 44 57 58 59 79 60 46 61 30 62 31 63 39 64 32 65
REMARK SMILES IDX 38 66 40 67 37 68 33 69 34 70 35 71 36 72 62 73 63 74 71 75
REMARK SMILES IDX 64 76 70 77 72 78 69 79 65 80 66 81 67 82 68 83 47 84 48 85
REMARK SMILES IDX 56 86 49 87 55 88 57 89 54 90 50 91 51 92 52 93 53 94
REMARK H PARENT 77 47 45 58
REMARK Flexibility Score: inf
ROOT
ATOM      1  C   UNL A   1      40.329  19.731  26.506  1.00  0.00     0.202 C 
ENDROOT
BRANCH   1   2
ATOM      2  O   UNL A   1      39.336  20.266  25.669  1.00  0.00    -0.374 OA
BRANCH   2   3
ATOM      3  C   UNL A   1      39.103  21.659  25.775  1.00  0.00     0.202 C 
BRANCH   3   4
ATOM      4  C   UNL A   1      37.615  21.822  25.747  1.00  0.00     0.261 C 
BRANCH   4   5
ATOM      5  O   UNL A   1      37.065  21.625  24.433  1.00  0.00    -0.459 OA
BRANCH   5   6
ATOM      6  C   UNL A   1      36.507  22.616  23.686  1.00  0.00     0.357 C 
ATOM      7  O   UNL A   1      36.984  23.330  22.837  1.00  0.00    -0.244 OA
BRANCH   6   8
ATOM      8  C   UNL A   1      35.069  22.588  24.009  1.00  0.00     0.152 A 
ATOM      9  C   UNL A   1      32.997  21.507  24.119  1.00  0.00     0.139 A 
ATOM     10  C   UNL A   1      34.299  21.512  23.641  1.00  0.00     0.084 A 
ATOM     11  C   UNL A   1      32.515  22.530  24.980  1.00  0.00     0.043 A 
ATOM     12  C   UNL A   1      33.407  23.574  25.261  1.00  0.00     0.075 A 
ATOM     13  C   UNL A   1      31.219  22.611  25.533  1.00  0.00     0.014 A 
ATOM     14  N   UNL A   1      34.632  23.604  24.782  1.00  0.00    -0.240 NA
ATOM     15  C   UNL A   1      33.040  24.641  26.050  1.00  0.00     0.029 A 
ATOM     16  C   UNL A   1      30.844  23.709  26.312  1.00  0.00     0.001 A 
ATOM     17  C   UNL A   1      31.758  24.726  26.574  1.00  0.00     0.002 A 
BRANCH   9  18
ATOM     18  O   UNL A   1      32.193  20.482  23.677  1.00  0.00    -0.457 OA
BRANCH  18  19
ATOM     19  C   UNL A   1      32.587  19.205  24.027  1.00  0.00     0.127 A 
ATOM     20  C   UNL A   1      33.213  15.179  25.375  1.00  0.00     0.044 C 
ATOM     21  C   UNL A   1      33.062  16.594  24.913  1.00  0.00    -0.051 A 
ATOM     22  C   UNL A   1      32.807  17.619  25.833  1.00  0.00     0.007 A 
ATOM     23  C   UNL A   1      33.168  16.905  23.556  1.00  0.00     0.007 A 
ATOM     24  C   UNL A   1      32.567  18.921  25.391  1.00  0.00     0.047 A 
ATOM     25  C   UNL A   1      32.948  18.206  23.117  1.00  0.00     0.047 A 
ENDBRANCH  18  19
ENDBRANCH   9  18
ENDBRANCH   6   8
ENDBRANCH   5   6
ENDBRANCH   4   5
ENDBRANCH   3   4
ENDBRANCH   2   3
ENDBRANCH   1   2
BRANCH   1  26
ATOM     26  C   UNL A   1      41.562  19.331  25.697  1.00  0.00     0.261 C 
BRANCH  26  27
ATOM     27  O   UNL A   1      42.778  19.702  26.393  1.00  0.00    -0.460 OA
BRANCH  27  28
ATOM     28  C   UNL A   1      43.540  20.671  25.802  1.00  0.00     0.338 C 
ATOM     29  O   UNL A   1      44.621  20.475  25.276  1.00  0.00    -0.246 OA
BRANCH  28  30
ATOM     30  C   UNL A   1      42.926  22.020  26.001  1.00  0.00     0.060 A 
ATOM     31  C   UNL A   1      43.030  23.024  25.014  1.00  0.00     0.016 A 
ATOM     32  C   UNL A   1      42.535  22.359  27.287  1.00  0.00     0.016 A 
ATOM     33  C   UNL A   1      42.918  24.383  25.367  1.00  0.00     0.010 A 
ATOM     34  C   UNL A   1      42.583  23.684  27.646  1.00  0.00     0.010 A 
ATOM     35  C   UNL A   1      42.786  24.715  26.712  1.00  0.00    -0.014 A 
BRANCH  35  36
ATOM     36  C   UNL A   1      42.878  26.048  27.321  1.00  0.00     0.031 A 
ATOM     37  C   UNL A   1      41.610  26.805  27.488  1.00  0.00     0.074 A 
ATOM     38  C   UNL A   1      43.982  26.474  27.990  1.00  0.00     0.049 A 
ATOM     39  N   UNL A   1      41.555  28.062  27.754  1.00  0.00    -0.248 NA
ATOM     40  C   UNL A   1      40.275  26.232  27.295  1.00  0.00     0.031 C 
ATOM     41  C   UNL A   1      44.018  27.379  29.145  1.00  0.00     0.029 A 
ATOM     42  N   UNL A   1      45.326  26.144  27.817  1.00  0.00    -0.354 N 
ATOM     43  C   UNL A   1      40.267  28.339  28.156  1.00  0.00     0.074 A 
ATOM     44  C   UNL A   1      39.485  27.233  27.685  1.00  0.00     0.031 C 
ATOM     45  C   UNL A   1      45.290  27.699  29.440  1.00  0.00     0.029 A 
ATOM     46  C   UNL A   1      46.136  27.127  28.411  1.00  0.00     0.049 A 
ATOM     47  H   UNL A   1      45.657  25.344  27.349  1.00  0.00     0.167 HD
ATOM     48  C   UNL A   1      40.060  29.387  29.000  1.00  0.00     0.034 A 
ATOM     49  C   UNL A   1      47.137  27.734  27.718  1.00  0.00     0.034 A 
ATOM     50  C   UNL A   1      41.333  30.045  29.315  1.00  0.00     0.049 A 
ATOM     51  C   UNL A   1      46.753  29.177  27.533  1.00  0.00     0.074 A 
ATOM     52  C   UNL A   1      42.126  30.072  30.451  1.00  0.00     0.029 A 
ATOM     53  N   UNL A   1      42.103  30.575  28.288  1.00  0.00    -0.354 N 
ATOM     54  N   UNL A   1      45.524  29.584  27.694  1.00  0.00    -0.248 NA
ATOM     55  C   UNL A   1      47.667  30.278  27.253  1.00  0.00     0.031 C 
ATOM     56  C   UNL A   1      43.389  30.608  30.085  1.00  0.00     0.029 A 
ATOM     57  C   UNL A   1      43.353  30.931  28.738  1.00  0.00     0.049 A 
ATOM     58  H   UNL A   1      41.794  30.682  27.359  1.00  0.00     0.167 HD
ATOM     59  C   UNL A   1      45.467  30.938  27.626  1.00  0.00     0.074 A 
ATOM     60  C   UNL A   1      46.829  31.332  27.305  1.00  0.00     0.031 C 
ATOM     61  C   UNL A   1      44.295  31.599  27.853  1.00  0.00     0.034 A 
BRANCH  48  62
ATOM     62  C   UNL A   1      38.793  29.705  29.770  1.00  0.00     0.023 A 
ATOM     63  C   UNL A   1      38.158  30.934  29.491  1.00  0.00     0.031 A 
ATOM     64  C   UNL A   1      38.166  28.933  30.767  1.00  0.00     0.131 A 
ATOM     65  C   UNL A   1      37.031  31.373  30.205  1.00  0.00     0.055 A 
ATOM     66  C   UNL A   1      37.041  29.368  31.483  1.00  0.00     0.041 A 
ATOM     67  F   UNL A   1      38.570  27.705  31.099  1.00  0.00    -0.206 F 
ATOM     68  C   UNL A   1      36.470  30.597  31.210  1.00  0.00     0.022 A 
BRANCH  65  69
ATOM     69  S   UNL A   1      36.317  32.983  29.789  1.00  0.00     0.124 S 
ATOM     70  O   UNL A   1      36.673  33.120  28.381  1.00  0.00    -0.237 OA
ATOM     71  O   UNL A   1      34.903  32.784  30.085  1.00  0.00    -0.237 OA
ATOM     72  O   UNL A   1      37.011  33.901  30.693  1.00  0.00    -0.744 OA
ENDBRANCH  65  69
ENDBRANCH  48  62
BRANCH  49  73
ATOM     73  C   UNL A   1      47.790  26.794  26.753  1.00  0.00     0.023 A 
ATOM     74  C   UNL A   1      47.656  27.096  25.373  1.00  0.00     0.031 A 
ATOM     75  C   UNL A   1      48.908  26.040  27.150  1.00  0.00     0.131 A 
ATOM     76  C   UNL A   1      48.688  26.775  24.468  1.00  0.00     0.055 A 
ATOM     77  C   UNL A   1      49.938  25.741  26.248  1.00  0.00     0.041 A 
ATOM     78  F   UNL A   1      49.105  25.746  28.443  1.00  0.00    -0.206 F 
ATOM     79  C   UNL A   1      49.848  26.137  24.914  1.00  0.00     0.022 A 
BRANCH  76  80
ATOM     80  S   UNL A   1      48.640  27.452  22.770  1.00  0.00     0.124 S 
ATOM     81  O   UNL A   1      49.848  28.267  22.727  1.00  0.00    -0.237 OA
ATOM     82  O   UNL A   1      48.653  26.256  21.934  1.00  0.00    -0.237 OA
ATOM     83  O   UNL A   1      47.379  28.194  22.738  1.00  0.00    -0.744 OA
ENDBRANCH  76  80
ENDBRANCH  49  73
BRANCH  61  84
ATOM     84  C   UNL A   1      43.978  32.973  27.338  1.00  0.00     0.023 A 
ATOM     85  C   UNL A   1      43.958  34.085  28.181  1.00  0.00     0.031 A 
ATOM     86  C   UNL A   1      43.794  33.239  25.959  1.00  0.00     0.131 A 
ATOM     87  C   UNL A   1      43.638  35.356  27.693  1.00  0.00     0.055 A 
ATOM     88  C   UNL A   1      43.586  34.525  25.459  1.00  0.00     0.041 A 
ATOM     89  F   UNL A   1      43.831  32.274  25.030  1.00  0.00    -0.206 F 
ATOM     90  C   UNL A   1      43.476  35.593  26.333  1.00  0.00     0.022 A 
BRANCH  87  91
ATOM     91  S   UNL A   1      43.332  36.648  28.915  1.00  0.00     0.124 S 
ATOM     92  O   UNL A   1      43.275  35.878  30.155  1.00  0.00    -0.237 OA
ATOM     93  O   UNL A   1      44.500  37.510  28.763  1.00  0.00    -0.237 OA
ATOM     94  O   UNL A   1      42.064  37.232  28.486  1.00  0.00    -0.744 OA
ENDBRANCH  87  91
ENDBRANCH  61  84
ENDBRANCH  35  36
ENDBRANCH  28  30
ENDBRANCH  27  28
ENDBRANCH  26  27
ENDBRANCH   1  26
TORSDOF 19
ENDMDL
