MODEL 1
REMARK VINA RESULT:     -11.1      0.000      0.000
REMARK SMILES CCc1cc2ccccc2c(=O)n1CC(=O)OCCOCCOCCOC(=O)c1ccc(-c2c3nc(c(-c4cc(S(=O)(=O)[O-])ccc4F)c4ccc([nH]4)c(-c4cc(S(=O)(=O)[O-])ccc4F)c4nc(c(-c5cc(S(=O)(=O)[O-])ccc5F)c5ccc2[nH]5)C=C4)C=C3)cc1
REMARK SMILES IDX 22 1 21 2 20 3 19 4 18 5 17 6 15 7 16 8 14 9 13 10 3 11 4 12
REMARK SMILES IDX 5 13 11 14 6 15 10 16 12 17 7 18 9 19 8 20 2 21 1 22 23 23
REMARK SMILES IDX 24 24 25 25 26 26 27 27 28 28 29 29 30 30 91 31 31 32 90 33
REMARK SMILES IDX 32 34 33 35 34 36 84 37 35 38 89 39 83 40 85 41 36 42 88 43
REMARK SMILES IDX 82 44 81 45 37 47 69 48 49 49 68 50 50 51 53 52 67 53 86 54
REMARK SMILES IDX 51 55 52 56 66 58 87 59 54 60 38 61 39 62 47 63 40 64 46 65
REMARK SMILES IDX 48 66 45 67 41 68 42 69 43 70 44 71 70 72 71 73 79 74 72 75
REMARK SMILES IDX 78 76 80 77 77 78 73 79 74 80 75 81 76 82 55 83 56 84 64 85
REMARK SMILES IDX 57 86 63 87 65 88 62 89 58 90 59 91 60 92 61 93
REMARK H PARENT 85 46 53 57
REMARK Flexibility Score: inf
ROOT
ATOM      1  C   UNL A   1      33.694  20.384  25.505  1.00  0.00     0.188 C 
ENDROOT
BRANCH   1   2
ATOM      2  C   UNL A   1      33.017  21.559  24.782  1.00  0.00     0.188 C 
BRANCH   2   3
ATOM      3  O   UNL A   1      32.134  21.281  23.694  1.00  0.00    -0.376 OA
BRANCH   3   4
ATOM      4  C   UNL A   1      32.404  21.883  22.439  1.00  0.00     0.202 C 
BRANCH   4   5
ATOM      5  C   UNL A   1      33.526  22.923  22.433  1.00  0.00     0.261 C 
BRANCH   5   6
ATOM      6  O   UNL A   1      33.332  23.966  21.453  1.00  0.00    -0.462 OA
BRANCH   6   7
ATOM      7  C   UNL A   1      33.158  25.219  21.951  1.00  0.00     0.326 C 
ATOM      8  O   UNL A   1      33.548  26.239  21.389  1.00  0.00    -0.250 OA
BRANCH   7   9
ATOM      9  C   UNL A   1      32.349  25.285  23.252  1.00  0.00     0.248 C 
BRANCH   9  10
ATOM     10  N   UNL A   1      32.239  26.548  24.013  1.00  0.00    -0.301 N 
ATOM     11  C   UNL A   1      31.140  27.400  23.858  1.00  0.00     0.022 A 
ATOM     12  C   UNL A   1      31.067  28.563  24.533  1.00  0.00     0.030 A 
ATOM     13  C   UNL A   1      32.111  28.961  25.468  1.00  0.00    -0.011 A 
ATOM     14  C   UNL A   1      33.246  26.810  24.961  1.00  0.00     0.259 A 
ATOM     15  C   UNL A   1      32.058  30.193  26.136  1.00  0.00     0.009 A 
ATOM     16  C   UNL A   1      33.166  28.087  25.721  1.00  0.00     0.047 A 
ATOM     17  O   UNL A   1      34.189  26.051  25.168  1.00  0.00    -0.269 OA
ATOM     18  C   UNL A   1      33.062  30.552  27.039  1.00  0.00     0.001 A 
ATOM     19  C   UNL A   1      34.149  28.436  26.655  1.00  0.00     0.014 A 
ATOM     20  C   UNL A   1      34.106  29.671  27.301  1.00  0.00     0.001 A 
BRANCH  11  21
ATOM     21  C   UNL A   1      29.979  27.007  22.972  1.00  0.00     0.051 C 
ATOM     22  C   UNL A   1      28.668  27.019  23.753  1.00  0.00     0.010 C 
ENDBRANCH  11  21
ENDBRANCH   9  10
ENDBRANCH   7   9
ENDBRANCH   6   7
ENDBRANCH   5   6
ENDBRANCH   4   5
ENDBRANCH   3   4
ENDBRANCH   2   3
ENDBRANCH   1   2
BRANCH   1  23
ATOM     23  O   UNL A   1      34.950  20.044  24.922  1.00  0.00    -0.376 OA
BRANCH  23  24
ATOM     24  C   UNL A   1      35.805  21.160  24.715  1.00  0.00     0.202 C 
BRANCH  24  25
ATOM     25  C   UNL A   1      37.240  20.787  25.089  1.00  0.00     0.261 C 
BRANCH  25  26
ATOM     26  O   UNL A   1      38.062  21.906  25.463  1.00  0.00    -0.460 OA
BRANCH  26  27
ATOM     27  C   UNL A   1      39.223  21.618  26.095  1.00  0.00     0.338 C 
ATOM     28  O   UNL A   1      39.831  20.565  26.051  1.00  0.00    -0.246 OA
BRANCH  27  29
ATOM     29  C   UNL A   1      39.714  22.852  26.748  1.00  0.00     0.060 A 
ATOM     30  C   UNL A   1      40.727  22.805  27.704  1.00  0.00     0.016 A 
ATOM     31  C   UNL A   1      39.162  24.081  26.379  1.00  0.00     0.016 A 
ATOM     32  C   UNL A   1      41.201  23.997  28.262  1.00  0.00     0.010 A 
ATOM     33  C   UNL A   1      39.637  25.272  26.928  1.00  0.00     0.010 A 
ATOM     34  C   UNL A   1      40.674  25.241  27.862  1.00  0.00    -0.014 A 
BRANCH  34  35
ATOM     35  C   UNL A   1      41.334  26.496  28.302  1.00  0.00     0.031 A 
ATOM     36  C   UNL A   1      42.752  26.822  27.947  1.00  0.00     0.074 A 
ATOM     37  C   UNL A   1      40.615  27.350  29.054  1.00  0.00     0.049 A 
ATOM     38  N   UNL A   1      43.381  27.962  28.076  1.00  0.00    -0.248 NA
ATOM     39  C   UNL A   1      43.576  25.737  27.396  1.00  0.00     0.031 C 
ATOM     40  C   UNL A   1      39.264  27.082  29.550  1.00  0.00     0.029 A 
ATOM     41  N   UNL A   1      40.900  28.609  29.518  1.00  0.00    -0.354 N 
ATOM     42  C   UNL A   1      44.664  27.748  27.587  1.00  0.00     0.074 A 
ATOM     43  C   UNL A   1      44.743  26.348  27.226  1.00  0.00     0.031 C 
ATOM     44  C   UNL A   1      38.817  28.163  30.204  1.00  0.00     0.029 A 
ATOM     45  C   UNL A   1      39.849  29.197  30.184  1.00  0.00     0.049 A 
ATOM     46  H   UNL A   1      41.771  29.049  29.387  1.00  0.00     0.167 HD
ATOM     47  C   UNL A   1      45.663  28.650  27.431  1.00  0.00     0.034 A 
ATOM     48  C   UNL A   1      39.713  30.441  30.689  1.00  0.00     0.034 A 
ATOM     49  C   UNL A   1      45.561  30.036  27.824  1.00  0.00     0.049 A 
ATOM     50  C   UNL A   1      40.824  31.437  30.474  1.00  0.00     0.074 A 
ATOM     51  C   UNL A   1      46.492  31.045  27.647  1.00  0.00     0.029 A 
ATOM     52  N   UNL A   1      44.478  30.605  28.480  1.00  0.00    -0.354 N 
ATOM     53  N   UNL A   1      41.970  31.272  29.856  1.00  0.00    -0.248 NA
ATOM     54  C   UNL A   1      40.615  32.795  30.992  1.00  0.00     0.031 C 
ATOM     55  C   UNL A   1      46.003  32.204  28.255  1.00  0.00     0.029 A 
ATOM     56  C   UNL A   1      44.731  31.943  28.741  1.00  0.00     0.049 A 
ATOM     57  H   UNL A   1      43.652  30.129  28.724  1.00  0.00     0.167 HD
ATOM     58  C   UNL A   1      42.605  32.511  29.885  1.00  0.00     0.074 A 
ATOM     59  C   UNL A   1      41.702  33.420  30.559  1.00  0.00     0.031 C 
ATOM     60  C   UNL A   1      43.825  32.855  29.401  1.00  0.00     0.034 A 
BRANCH  47  61
ATOM     61  C   UNL A   1      46.945  28.209  26.763  1.00  0.00     0.023 A 
ATOM     62  C   UNL A   1      47.069  28.234  25.359  1.00  0.00     0.031 A 
ATOM     63  C   UNL A   1      47.976  27.608  27.508  1.00  0.00     0.131 A 
ATOM     64  C   UNL A   1      48.179  27.635  24.747  1.00  0.00     0.055 A 
ATOM     65  C   UNL A   1      49.100  27.052  26.895  1.00  0.00     0.041 A 
ATOM     66  F   UNL A   1      47.902  27.544  28.847  1.00  0.00    -0.206 F 
ATOM     67  C   UNL A   1      49.197  27.051  25.507  1.00  0.00     0.022 A 
BRANCH  64  68
ATOM     68  S   UNL A   1      48.309  27.519  22.941  1.00  0.00     0.124 S 
ATOM     69  O   UNL A   1      49.600  28.159  22.691  1.00  0.00    -0.237 OA
ATOM     70  O   UNL A   1      48.278  26.076  22.724  1.00  0.00    -0.237 OA
ATOM     71  O   UNL A   1      47.148  28.256  22.455  1.00  0.00    -0.744 OA
ENDBRANCH  64  68
ENDBRANCH  47  61
BRANCH  48  72
ATOM     72  C   UNL A   1      38.418  30.818  31.326  1.00  0.00     0.023 A 
ATOM     73  C   UNL A   1      37.419  31.487  30.595  1.00  0.00     0.031 A 
ATOM     74  C   UNL A   1      38.218  30.634  32.704  1.00  0.00     0.131 A 
ATOM     75  C   UNL A   1      36.300  32.005  31.258  1.00  0.00     0.055 A 
ATOM     76  C   UNL A   1      37.067  31.089  33.349  1.00  0.00     0.041 A 
ATOM     77  F   UNL A   1      39.153  30.023  33.449  1.00  0.00    -0.206 F 
ATOM     78  C   UNL A   1      36.108  31.795  32.628  1.00  0.00     0.022 A 
BRANCH  75  79
ATOM     79  S   UNL A   1      35.127  33.090  30.398  1.00  0.00     0.124 S 
ATOM     80  O   UNL A   1      34.235  33.492  31.481  1.00  0.00    -0.237 OA
ATOM     81  O   UNL A   1      36.009  34.136  29.886  1.00  0.00    -0.237 OA
ATOM     82  O   UNL A   1      34.537  32.224  29.382  1.00  0.00    -0.744 OA
ENDBRANCH  75  79
ENDBRANCH  48  72
BRANCH  60  83
ATOM     83  C   UNL A   1      44.291  34.285  29.564  1.00  0.00     0.023 A 
ATOM     84  C   UNL A   1      43.876  35.270  28.646  1.00  0.00     0.031 A 
ATOM     85  C   UNL A   1      45.256  34.638  30.522  1.00  0.00     0.131 A 
ATOM     86  C   UNL A   1      44.454  36.547  28.682  1.00  0.00     0.055 A 
ATOM     87  C   UNL A   1      45.791  35.926  30.587  1.00  0.00     0.041 A 
ATOM     88  F   UNL A   1      45.697  33.734  31.412  1.00  0.00    -0.206 F 
ATOM     89  C   UNL A   1      45.400  36.882  29.654  1.00  0.00     0.022 A 
BRANCH  86  90
ATOM     90  S   UNL A   1      44.067  37.788  27.415  1.00  0.00     0.124 S 
ATOM     91  O   UNL A   1      45.363  37.969  26.766  1.00  0.00    -0.237 OA
ATOM     92  O   UNL A   1      43.059  37.103  26.611  1.00  0.00    -0.237 OA
ATOM     93  O   UNL A   1      43.588  38.934  28.179  1.00  0.00    -0.744 OA
ENDBRANCH  86  90
ENDBRANCH  60  83
ENDBRANCH  34  35
ENDBRANCH  27  29
ENDBRANCH  26  27
ENDBRANCH  25  26
ENDBRANCH  24  25
ENDBRANCH  23  24
ENDBRANCH   1  23
TORSDOF 22
ENDMDL
MODEL 2
REMARK VINA RESULT:     -10.6      1.921      2.780
REMARK SMILES CCc1cc2ccccc2c(=O)n1CC(=O)OCCOCCOCCOC(=O)c1ccc(-c2c3nc(c(-c4cc(S(=O)(=O)[O-])ccc4F)c4ccc([nH]4)c(-c4cc(S(=O)(=O)[O-])ccc4F)c4nc(c(-c5cc(S(=O)(=O)[O-])ccc5F)c5ccc2[nH]5)C=C4)C=C3)cc1
REMARK SMILES IDX 22 1 21 2 20 3 19 4 18 5 17 6 15 7 16 8 14 9 13 10 3 11 4 12
REMARK SMILES IDX 5 13 11 14 6 15 10 16 12 17 7 18 9 19 8 20 2 21 1 22 23 23
REMARK SMILES IDX 24 24 25 25 26 26 27 27 28 28 29 29 30 30 91 31 31 32 90 33
REMARK SMILES IDX 32 34 33 35 34 36 84 37 35 38 89 39 83 40 85 41 36 42 88 43
REMARK SMILES IDX 82 44 81 45 37 47 69 48 49 49 68 50 50 51 53 52 67 53 86 54
REMARK SMILES IDX 51 55 52 56 66 58 87 59 54 60 38 61 39 62 47 63 40 64 46 65
REMARK SMILES IDX 48 66 45 67 41 68 42 69 43 70 44 71 70 72 71 73 79 74 72 75
REMARK SMILES IDX 78 76 80 77 77 78 73 79 74 80 75 81 76 82 55 83 56 84 64 85
REMARK SMILES IDX 57 86 63 87 65 88 62 89 58 90 59 91 60 92 61 93
REMARK H PARENT 85 46 53 57
REMARK Flexibility Score: inf
ROOT
ATOM      1  C   UNL A   1      33.740  21.010  26.300  1.00  0.00     0.188 C 
ENDROOT
BRANCH   1   2
ATOM      2  C   UNL A   1      32.744  22.026  25.721  1.00  0.00     0.188 C 
BRANCH   2   3
ATOM      3  O   UNL A   1      31.678  22.494  26.548  1.00  0.00    -0.376 OA
BRANCH   3   4
ATOM      4  C   UNL A   1      30.631  23.234  25.941  1.00  0.00     0.202 C 
BRANCH   4   5
ATOM      5  C   UNL A   1      31.002  23.965  24.649  1.00  0.00     0.261 C 
BRANCH   5   6
ATOM      6  O   UNL A   1      31.015  25.402  24.790  1.00  0.00    -0.462 OA
BRANCH   6   7
ATOM      7  C   UNL A   1      32.244  25.976  24.868  1.00  0.00     0.326 C 
ATOM      8  O   UNL A   1      33.144  25.570  25.600  1.00  0.00    -0.250 OA
BRANCH   7   9
ATOM      9  C   UNL A   1      32.470  27.144  23.899  1.00  0.00     0.248 C 
BRANCH   9  10
ATOM     10  N   UNL A   1      31.578  28.322  23.912  1.00  0.00    -0.301 N 
ATOM     11  C   UNL A   1      31.748  29.357  24.840  1.00  0.00     0.022 A 
ATOM     12  C   UNL A   1      30.908  30.409  24.860  1.00  0.00     0.030 A 
ATOM     13  C   UNL A   1      29.816  30.525  23.904  1.00  0.00    -0.011 A 
ATOM     14  C   UNL A   1      30.607  28.397  22.896  1.00  0.00     0.259 A 
ATOM     15  C   UNL A   1      28.914  31.598  23.955  1.00  0.00     0.009 A 
ATOM     16  C   UNL A   1      29.684  29.564  22.904  1.00  0.00     0.047 A 
ATOM     17  O   UNL A   1      30.475  27.538  22.028  1.00  0.00    -0.269 OA
ATOM     18  C   UNL A   1      27.880  31.699  23.021  1.00  0.00     0.001 A 
ATOM     19  C   UNL A   1      28.669  29.691  21.948  1.00  0.00     0.014 A 
ATOM     20  C   UNL A   1      27.761  30.746  22.014  1.00  0.00     0.001 A 
BRANCH  11  21
ATOM     21  C   UNL A   1      32.914  29.344  25.803  1.00  0.00     0.051 C 
ATOM     22  C   UNL A   1      32.500  29.889  27.167  1.00  0.00     0.010 C 
ENDBRANCH  11  21
ENDBRANCH   9  10
ENDBRANCH   7   9
ENDBRANCH   6   7
ENDBRANCH   5   6
ENDBRANCH   4   5
ENDBRANCH   3   4
ENDBRANCH   2   3
ENDBRANCH   1   2
BRANCH   1  23
ATOM     23  O   UNL A   1      34.439  20.300  25.280  1.00  0.00    -0.376 OA
BRANCH  23  24
ATOM     24  C   UNL A   1      35.387  21.092  24.579  1.00  0.00     0.202 C 
BRANCH  24  25
ATOM     25  C   UNL A   1      36.790  20.520  24.783  1.00  0.00     0.261 C 
BRANCH  25  26
ATOM     26  O   UNL A   1      37.799  21.510  25.045  1.00  0.00    -0.460 OA
BRANCH  26  27
ATOM     27  C   UNL A   1      38.856  21.114  25.790  1.00  0.00     0.338 C 
ATOM     28  O   UNL A   1      39.336  19.996  25.832  1.00  0.00    -0.246 OA
BRANCH  27  29
ATOM     29  C   UNL A   1      39.430  22.306  26.453  1.00  0.00     0.060 A 
ATOM     30  C   UNL A   1      40.437  22.183  27.408  1.00  0.00     0.016 A 
ATOM     31  C   UNL A   1      38.963  23.573  26.093  1.00  0.00     0.016 A 
ATOM     32  C   UNL A   1      40.992  23.336  27.975  1.00  0.00     0.010 A 
ATOM     33  C   UNL A   1      39.519  24.725  26.652  1.00  0.00     0.010 A 
ATOM     34  C   UNL A   1      40.551  24.616  27.585  1.00  0.00    -0.014 A 
BRANCH  34  35
ATOM     35  C   UNL A   1      41.295  25.818  28.034  1.00  0.00     0.031 A 
ATOM     36  C   UNL A   1      42.723  26.066  27.654  1.00  0.00     0.074 A 
ATOM     37  C   UNL A   1      40.645  26.699  28.819  1.00  0.00     0.049 A 
ATOM     38  N   UNL A   1      43.423  27.163  27.791  1.00  0.00    -0.248 NA
ATOM     39  C   UNL A   1      43.467  24.945  27.065  1.00  0.00     0.031 C 
ATOM     40  C   UNL A   1      39.291  26.503  29.339  1.00  0.00     0.029 A 
ATOM     41  N   UNL A   1      41.016  27.929  29.300  1.00  0.00    -0.354 N 
ATOM     42  C   UNL A   1      44.679  26.882  27.271  1.00  0.00     0.074 A 
ATOM     43  C   UNL A   1      44.666  25.487  26.881  1.00  0.00     0.031 C 
ATOM     44  C   UNL A   1      38.924  27.596  30.023  1.00  0.00     0.029 A 
ATOM     45  C   UNL A   1      40.017  28.566  30.000  1.00  0.00     0.049 A 
ATOM     46  H   UNL A   1      41.909  28.318  29.158  1.00  0.00     0.167 HD
ATOM     47  C   UNL A   1      45.728  27.724  27.110  1.00  0.00     0.034 A 
ATOM     48  C   UNL A   1      39.967  29.805  30.532  1.00  0.00     0.034 A 
ATOM     49  C   UNL A   1      45.719  29.106  27.531  1.00  0.00     0.049 A 
ATOM     50  C   UNL A   1      41.132  30.735  30.312  1.00  0.00     0.074 A 
ATOM     51  C   UNL A   1      46.705  30.061  27.354  1.00  0.00     0.029 A 
ATOM     52  N   UNL A   1      44.686  29.726  28.222  1.00  0.00    -0.354 N 
ATOM     53  N   UNL A   1      42.253  30.515  29.666  1.00  0.00    -0.248 NA
ATOM     54  C   UNL A   1      41.017  32.093  30.860  1.00  0.00     0.031 C 
ATOM     55  C   UNL A   1      46.301  31.234  27.995  1.00  0.00     0.029 A 
ATOM     56  C   UNL A   1      45.026  31.041  28.503  1.00  0.00     0.049 A 
ATOM     57  H   UNL A   1      43.838  29.296  28.476  1.00  0.00     0.167 HD
ATOM     58  C   UNL A   1      42.963  31.712  29.705  1.00  0.00     0.074 A 
ATOM     59  C   UNL A   1      42.131  32.661  30.416  1.00  0.00     0.031 C 
ATOM     60  C   UNL A   1      44.191  31.992  29.200  1.00  0.00     0.034 A 
BRANCH  47  61
ATOM     61  C   UNL A   1      46.967  27.221  26.405  1.00  0.00     0.023 A 
ATOM     62  C   UNL A   1      48.006  26.607  27.132  1.00  0.00     0.031 A 
ATOM     63  C   UNL A   1      47.186  27.501  25.044  1.00  0.00     0.131 A 
ATOM     64  C   UNL A   1      49.228  26.331  26.502  1.00  0.00     0.055 A 
ATOM     65  C   UNL A   1      48.390  27.184  24.412  1.00  0.00     0.041 A 
ATOM     66  F   UNL A   1      46.235  28.098  24.309  1.00  0.00    -0.206 F 
ATOM     67  C   UNL A   1      49.422  26.610  25.146  1.00  0.00     0.022 A 
BRANCH  64  68
ATOM     68  S   UNL A   1      50.640  25.672  27.433  1.00  0.00     0.124 S 
ATOM     69  O   UNL A   1      50.706  26.590  28.569  1.00  0.00    -0.237 OA
ATOM     70  O   UNL A   1      50.192  24.320  27.752  1.00  0.00    -0.237 OA
ATOM     71  O   UNL A   1      51.754  25.764  26.496  1.00  0.00    -0.744 OA
ENDBRANCH  64  68
ENDBRANCH  47  61
BRANCH  48  72
ATOM     72  C   UNL A   1      38.711  30.246  31.204  1.00  0.00     0.023 A 
ATOM     73  C   UNL A   1      37.682  30.872  30.478  1.00  0.00     0.031 A 
ATOM     74  C   UNL A   1      38.582  30.168  32.601  1.00  0.00     0.131 A 
ATOM     75  C   UNL A   1      36.604  31.453  31.157  1.00  0.00     0.055 A 
ATOM     76  C   UNL A   1      37.470  30.686  33.268  1.00  0.00     0.041 A 
ATOM     77  F   UNL A   1      39.548  29.602  33.341  1.00  0.00    -0.206 F 
ATOM     78  C   UNL A   1      36.482  31.349  32.547  1.00  0.00     0.022 A 
BRANCH  75  79
ATOM     79  S   UNL A   1      35.399  32.487  30.279  1.00  0.00     0.124 S 
ATOM     80  O   UNL A   1      35.033  31.638  29.150  1.00  0.00    -0.237 OA
ATOM     81  O   UNL A   1      34.364  32.667  31.295  1.00  0.00    -0.237 OA
ATOM     82  O   UNL A   1      36.154  33.691  29.945  1.00  0.00    -0.744 OA
ENDBRANCH  75  79
ENDBRANCH  48  72
BRANCH  60  83
ATOM     83  C   UNL A   1      44.746  33.387  29.380  1.00  0.00     0.023 A 
ATOM     84  C   UNL A   1      44.628  34.332  28.342  1.00  0.00     0.031 A 
ATOM     85  C   UNL A   1      45.519  33.731  30.503  1.00  0.00     0.131 A 
ATOM     86  C   UNL A   1      45.303  35.557  28.431  1.00  0.00     0.055 A 
ATOM     87  C   UNL A   1      46.148  34.973  30.609  1.00  0.00     0.041 A 
ATOM     88  F   UNL A   1      45.677  32.862  31.514  1.00  0.00    -0.206 F 
ATOM     89  C   UNL A   1      46.054  35.886  29.563  1.00  0.00     0.022 A 
BRANCH  86  90
ATOM     90  S   UNL A   1      45.309  36.728  27.045  1.00  0.00     0.124 S 
ATOM     91  O   UNL A   1      43.884  37.013  26.884  1.00  0.00    -0.237 OA
ATOM     92  O   UNL A   1      46.106  37.830  27.576  1.00  0.00    -0.237 OA
ATOM     93  O   UNL A   1      45.920  35.981  25.952  1.00  0.00    -0.744 OA
ENDBRANCH  86  90
ENDBRANCH  60  83
ENDBRANCH  34  35
ENDBRANCH  27  29
ENDBRANCH  26  27
ENDBRANCH  25  26
ENDBRANCH  24  25
ENDBRANCH  23  24
ENDBRANCH   1  23
TORSDOF 22
ENDMDL
MODEL 3
REMARK VINA RESULT:     -10.2      2.520      7.719
REMARK SMILES CCc1cc2ccccc2c(=O)n1CC(=O)OCCOCCOCCOC(=O)c1ccc(-c2c3nc(c(-c4cc(S(=O)(=O)[O-])ccc4F)c4ccc([nH]4)c(-c4cc(S(=O)(=O)[O-])ccc4F)c4nc(c(-c5cc(S(=O)(=O)[O-])ccc5F)c5ccc2[nH]5)C=C4)C=C3)cc1
REMARK SMILES IDX 22 1 21 2 20 3 19 4 18 5 17 6 15 7 16 8 14 9 13 10 3 11 4 12
REMARK SMILES IDX 5 13 11 14 6 15 10 16 12 17 7 18 9 19 8 20 2 21 1 22 23 23
REMARK SMILES IDX 24 24 25 25 26 26 27 27 28 28 29 29 30 30 91 31 31 32 90 33
REMARK SMILES IDX 32 34 33 35 34 36 84 37 35 38 89 39 83 40 85 41 36 42 88 43
REMARK SMILES IDX 82 44 81 45 37 47 69 48 49 49 68 50 50 51 53 52 67 53 86 54
REMARK SMILES IDX 51 55 52 56 66 58 87 59 54 60 38 61 39 62 47 63 40 64 46 65
REMARK SMILES IDX 48 66 45 67 41 68 42 69 43 70 44 71 70 72 71 73 79 74 72 75
REMARK SMILES IDX 78 76 80 77 77 78 73 79 74 80 75 81 76 82 55 83 56 84 64 85
REMARK SMILES IDX 57 86 63 87 65 88 62 89 58 90 59 91 60 92 61 93
REMARK H PARENT 85 46 53 57
REMARK Flexibility Score: inf
ROOT
ATOM      1  C   UNL A   1      33.766  21.178  26.662  1.00  0.00     0.188 C 
ENDROOT
BRANCH   1   2
ATOM      2  C   UNL A   1      33.922  20.515  25.285  1.00  0.00     0.188 C 
BRANCH   2   3
ATOM      3  O   UNL A   1      32.823  20.553  24.374  1.00  0.00    -0.376 OA
BRANCH   3   4
ATOM      4  C   UNL A   1      32.800  21.577  23.392  1.00  0.00     0.202 C 
BRANCH   4   5
ATOM      5  C   UNL A   1      32.150  22.892  23.825  1.00  0.00     0.261 C 
BRANCH   5   6
ATOM      6  O   UNL A   1      32.529  24.014  22.999  1.00  0.00    -0.462 OA
BRANCH   6   7
ATOM      7  C   UNL A   1      31.601  25.001  22.882  1.00  0.00     0.326 C 
ATOM      8  O   UNL A   1      30.400  24.839  23.085  1.00  0.00    -0.250 OA
BRANCH   7   9
ATOM      9  C   UNL A   1      32.175  26.384  22.552  1.00  0.00     0.248 C 
BRANCH   9  10
ATOM     10  N   UNL A   1      32.176  27.465  23.561  1.00  0.00    -0.301 N 
ATOM     11  C   UNL A   1      31.180  28.448  23.580  1.00  0.00     0.022 A 
ATOM     12  C   UNL A   1      31.212  29.444  24.486  1.00  0.00     0.030 A 
ATOM     13  C   UNL A   1      32.261  29.519  25.493  1.00  0.00    -0.011 A 
ATOM     14  C   UNL A   1      33.174  27.408  24.551  1.00  0.00     0.259 A 
ATOM     15  C   UNL A   1      32.320  30.582  26.405  1.00  0.00     0.009 A 
ATOM     16  C   UNL A   1      33.207  28.499  25.564  1.00  0.00     0.047 A 
ATOM     17  O   UNL A   1      34.023  26.522  24.602  1.00  0.00    -0.269 OA
ATOM     18  C   UNL A   1      33.327  30.629  27.373  1.00  0.00     0.001 A 
ATOM     19  C   UNL A   1      34.192  28.532  26.560  1.00  0.00     0.014 A 
ATOM     20  C   UNL A   1      34.261  29.601  27.452  1.00  0.00     0.001 A 
BRANCH  11  21
ATOM     21  C   UNL A   1      30.013  28.381  22.621  1.00  0.00     0.051 C 
ATOM     22  C   UNL A   1      28.801  29.117  23.184  1.00  0.00     0.010 C 
ENDBRANCH  11  21
ENDBRANCH   9  10
ENDBRANCH   7   9
ENDBRANCH   6   7
ENDBRANCH   5   6
ENDBRANCH   4   5
ENDBRANCH   3   4
ENDBRANCH   2   3
ENDBRANCH   1   2
BRANCH   1  23
ATOM     23  O   UNL A   1      34.811  22.110  26.933  1.00  0.00    -0.376 OA
BRANCH  23  24
ATOM     24  C   UNL A   1      35.675  22.336  25.828  1.00  0.00     0.202 C 
BRANCH  24  25
ATOM     25  C   UNL A   1      36.402  23.670  26.006  1.00  0.00     0.261 C 
BRANCH  25  26
ATOM     26  O   UNL A   1      37.730  23.696  25.455  1.00  0.00    -0.460 OA
BRANCH  26  27
ATOM     27  C   UNL A   1      38.734  23.315  26.278  1.00  0.00     0.338 C 
ATOM     28  O   UNL A   1      39.157  22.184  26.430  1.00  0.00    -0.246 OA
BRANCH  27  29
ATOM     29  C   UNL A   1      39.333  24.530  26.872  1.00  0.00     0.060 A 
ATOM     30  C   UNL A   1      40.035  25.443  26.086  1.00  0.00     0.016 A 
ATOM     31  C   UNL A   1      39.170  24.770  28.238  1.00  0.00     0.016 A 
ATOM     32  C   UNL A   1      40.544  26.607  26.673  1.00  0.00     0.010 A 
ATOM     33  C   UNL A   1      39.669  25.934  28.825  1.00  0.00     0.010 A 
ATOM     34  C   UNL A   1      40.346  26.871  28.043  1.00  0.00    -0.014 A 
BRANCH  34  35
ATOM     35  C   UNL A   1      40.701  28.202  28.594  1.00  0.00     0.031 A 
ATOM     36  C   UNL A   1      39.664  29.211  28.981  1.00  0.00     0.074 A 
ATOM     37  C   UNL A   1      42.008  28.493  28.733  1.00  0.00     0.049 A 
ATOM     38  N   UNL A   1      39.819  30.314  29.669  1.00  0.00    -0.248 NA
ATOM     39  C   UNL A   1      38.287  28.970  28.530  1.00  0.00     0.031 C 
ATOM     40  C   UNL A   1      43.101  27.627  28.286  1.00  0.00     0.029 A 
ATOM     41  N   UNL A   1      42.641  29.571  29.297  1.00  0.00    -0.354 N 
ATOM     42  C   UNL A   1      38.556  30.882  29.769  1.00  0.00     0.074 A 
ATOM     43  C   UNL A   1      37.658  30.037  29.009  1.00  0.00     0.031 C 
ATOM     44  C   UNL A   1      44.269  28.183  28.638  1.00  0.00     0.029 A 
ATOM     45  C   UNL A   1      44.012  29.446  29.326  1.00  0.00     0.049 A 
ATOM     46  H   UNL A   1      42.162  30.357  29.646  1.00  0.00     0.167 HD
ATOM     47  C   UNL A   1      38.186  31.989  30.459  1.00  0.00     0.034 A 
ATOM     48  C   UNL A   1      44.955  30.237  29.877  1.00  0.00     0.034 A 
ATOM     49  C   UNL A   1      39.111  32.825  31.187  1.00  0.00     0.049 A 
ATOM     50  C   UNL A   1      44.519  31.444  30.668  1.00  0.00     0.074 A 
ATOM     51  C   UNL A   1      38.829  33.930  31.973  1.00  0.00     0.029 A 
ATOM     52  N   UNL A   1      40.490  32.663  31.213  1.00  0.00    -0.354 N 
ATOM     53  N   UNL A   1      43.304  31.880  30.903  1.00  0.00    -0.248 NA
ATOM     54  C   UNL A   1      45.574  32.249  31.297  1.00  0.00     0.031 C 
ATOM     55  C   UNL A   1      40.036  34.474  32.415  1.00  0.00     0.029 A 
ATOM     56  C   UNL A   1      41.072  33.665  31.975  1.00  0.00     0.049 A 
ATOM     57  H   UNL A   1      40.982  31.944  30.756  1.00  0.00     0.167 HD
ATOM     58  C   UNL A   1      43.446  32.991  31.729  1.00  0.00     0.074 A 
ATOM     59  C   UNL A   1      44.865  33.143  31.974  1.00  0.00     0.031 C 
ATOM     60  C   UNL A   1      42.486  33.809  32.232  1.00  0.00     0.034 A 
BRANCH  47  61
ATOM     61  C   UNL A   1      36.721  32.354  30.521  1.00  0.00     0.023 A 
ATOM     62  C   UNL A   1      36.116  33.073  29.471  1.00  0.00     0.031 A 
ATOM     63  C   UNL A   1      35.973  32.135  31.692  1.00  0.00     0.131 A 
ATOM     64  C   UNL A   1      34.818  33.579  29.632  1.00  0.00     0.055 A 
ATOM     65  C   UNL A   1      34.665  32.603  31.828  1.00  0.00     0.041 A 
ATOM     66  F   UNL A   1      36.506  31.467  32.727  1.00  0.00    -0.206 F 
ATOM     67  C   UNL A   1      34.088  33.342  30.801  1.00  0.00     0.022 A 
BRANCH  64  68
ATOM     68  S   UNL A   1      34.054  34.630  28.365  1.00  0.00     0.124 S 
ATOM     69  O   UNL A   1      34.952  34.434  27.229  1.00  0.00    -0.237 OA
ATOM     70  O   UNL A   1      32.732  34.026  28.224  1.00  0.00    -0.237 OA
ATOM     71  O   UNL A   1      34.078  35.965  28.952  1.00  0.00    -0.744 OA
ENDBRANCH  64  68
ENDBRANCH  47  61
BRANCH  48  72
ATOM     72  C   UNL A   1      46.383  29.815  29.792  1.00  0.00     0.023 A 
ATOM     73  C   UNL A   1      47.205  30.249  28.736  1.00  0.00     0.031 A 
ATOM     74  C   UNL A   1      46.905  28.869  30.691  1.00  0.00     0.131 A 
ATOM     75  C   UNL A   1      48.477  29.687  28.567  1.00  0.00     0.055 A 
ATOM     76  C   UNL A   1      48.200  28.366  30.560  1.00  0.00     0.041 A 
ATOM     77  F   UNL A   1      46.152  28.407  31.701  1.00  0.00    -0.206 F 
ATOM     78  C   UNL A   1      48.987  28.761  29.483  1.00  0.00     0.022 A 
BRANCH  75  79
ATOM     79  S   UNL A   1      49.455  30.029  27.077  1.00  0.00     0.124 S 
ATOM     80  O   UNL A   1      49.037  31.387  26.744  1.00  0.00    -0.237 OA
ATOM     81  O   UNL A   1      50.821  29.895  27.580  1.00  0.00    -0.237 OA
ATOM     82  O   UNL A   1      49.034  28.991  26.142  1.00  0.00    -0.744 OA
ENDBRANCH  75  79
ENDBRANCH  48  72
BRANCH  60  83
ATOM     83  C   UNL A   1      42.908  34.963  33.114  1.00  0.00     0.023 A 
ATOM     84  C   UNL A   1      43.175  36.224  32.545  1.00  0.00     0.031 A 
ATOM     85  C   UNL A   1      43.191  34.779  34.479  1.00  0.00     0.131 A 
ATOM     86  C   UNL A   1      43.744  37.237  33.327  1.00  0.00     0.055 A 
ATOM     87  C   UNL A   1      43.710  35.809  35.266  1.00  0.00     0.041 A 
ATOM     88  F   UNL A   1      42.968  33.594  35.068  1.00  0.00    -0.206 F 
ATOM     89  C   UNL A   1      44.003  37.039  34.686  1.00  0.00     0.022 A 
BRANCH  86  90
ATOM     90  S   UNL A   1      44.254  38.816  32.591  1.00  0.00     0.124 S 
ATOM     91  O   UNL A   1      44.657  38.406  31.248  1.00  0.00    -0.237 OA
ATOM     92  O   UNL A   1      43.023  39.599  32.659  1.00  0.00    -0.237 OA
ATOM     93  O   UNL A   1      45.338  39.274  33.453  1.00  0.00    -0.744 OA
ENDBRANCH  86  90
ENDBRANCH  60  83
ENDBRANCH  34  35
ENDBRANCH  27  29
ENDBRANCH  26  27
ENDBRANCH  25  26
ENDBRANCH  24  25
ENDBRANCH  23  24
ENDBRANCH   1  23
TORSDOF 22
ENDMDL
