MODEL 1
REMARK VINA RESULT:     -10.2      0.000      0.000
REMARK SMILES COc1cccc(N(CC(=O)OCCOCCOCCOC(=O)c2ccc(-c3c4nc(c(-c5cc(S(=O)(=O)[O-])ccc5F)c5ccc([nH]5)c(-c5cc(S(=O)(=O)[O-])ccc5F)c5nc(c(-c6cc(S(=O)(=O)[O-])ccc6F)c6ccc3[nH]6)C=C5)C=C4)cc2)S(=O)(=O)c2ccc(C)cc2)c1
REMARK SMILES IDX 16 1 15 2 14 3 13 4 12 5 10 6 11 7 9 8 8 9 7 10 3 11 4 12
REMARK SMILES IDX 97 13 5 14 6 15 2 16 1 17 87 18 88 19 89 20 90 21 91 22
REMARK SMILES IDX 96 23 92 24 95 25 93 26 94 27 17 28 18 29 19 30 20 31 21 32
REMARK SMILES IDX 22 33 23 34 24 35 25 36 86 37 26 38 85 39 27 40 28 41 29 42
REMARK SMILES IDX 79 43 30 44 84 45 78 46 80 47 31 48 83 49 77 50 76 51 32 53
REMARK SMILES IDX 64 54 44 55 63 56 45 57 48 58 62 59 81 60 46 61 47 62 61 64
REMARK SMILES IDX 82 65 49 66 33 67 34 68 42 69 35 70 41 71 43 72 40 73 36 74
REMARK SMILES IDX 37 75 38 76 39 77 65 78 66 79 74 80 67 81 73 82 75 83 72 84
REMARK SMILES IDX 68 85 69 86 70 87 71 88 50 89 51 90 59 91 52 92 58 93 60 94
REMARK SMILES IDX 57 95 53 96 54 97 55 98 56 99
REMARK H PARENT 80 52 48 63
REMARK Flexibility Score: inf
ROOT
ATOM      1  C   UNL A   1      35.206  20.794  25.719  1.00  0.00     0.188 C 
ENDROOT
BRANCH   1   2
ATOM      2  O   UNL A   1      34.327  21.710  26.298  1.00  0.00    -0.376 OA
BRANCH   2   3
ATOM      3  C   UNL A   1      32.981  21.418  25.990  1.00  0.00     0.202 C 
BRANCH   3   4
ATOM      4  C   UNL A   1      31.853  22.456  26.353  1.00  0.00     0.261 C 
BRANCH   4   5
ATOM      5  O   UNL A   1      30.777  22.762  25.372  1.00  0.00    -0.462 OA
BRANCH   5   6
ATOM      6  C   UNL A   1      31.089  23.220  24.113  1.00  0.00     0.326 C 
ATOM      7  O   UNL A   1      31.632  22.484  23.288  1.00  0.00    -0.250 OA
BRANCH   6   8
ATOM      8  C   UNL A   1      30.661  24.692  23.693  1.00  0.00     0.258 C 
BRANCH   8   9
ATOM      9  N   UNL A   1      31.553  25.926  23.939  1.00  0.00    -0.255 N 
BRANCH   9  10
ATOM     10  C   UNL A   1      30.982  27.192  23.322  1.00  0.00     0.056 A 
ATOM     11  C   UNL A   1      29.105  28.742  22.953  1.00  0.00     0.120 A 
ATOM     12  C   UNL A   1      29.924  29.623  22.258  1.00  0.00     0.046 A 
ATOM     13  C   UNL A   1      29.636  27.550  23.476  1.00  0.00     0.073 A 
ATOM     14  C   UNL A   1      31.275  29.345  22.147  1.00  0.00     0.006 A 
ATOM     15  C   UNL A   1      31.796  28.169  22.706  1.00  0.00     0.027 A 
BRANCH  11  16
ATOM     16  O   UNL A   1      27.793  29.127  23.045  1.00  0.00    -0.497 OA
ATOM     17  C   UNL A   1      27.575  30.524  23.224  1.00  0.00     0.278 C 
ENDBRANCH  11  16
ENDBRANCH   9  10
BRANCH   9  18
ATOM     18  S   UNL A   1      32.125  26.291  25.777  1.00  0.00     0.264 S 
ATOM     19  O   UNL A   1      30.961  26.062  26.609  1.00  0.00    -0.201 OA
ATOM     20  O   UNL A   1      33.352  25.547  25.954  1.00  0.00    -0.201 OA
BRANCH  18  21
ATOM     21  C   UNL A   1      32.520  28.025  26.035  1.00  0.00     0.088 A 
ATOM     22  C   UNL A   1      34.134  28.275  26.680  1.00  0.00     0.022 A 
ATOM     23  C   UNL A   1      31.429  29.516  26.025  1.00  0.00     0.022 A 
ATOM     24  C   UNL A   1      34.781  29.766  27.343  1.00  0.00     0.005 A 
ATOM     25  C   UNL A   1      32.257  31.185  26.850  1.00  0.00     0.005 A 
ATOM     26  C   UNL A   1      33.919  31.194  27.419  1.00  0.00    -0.051 A 
ATOM     27  C   UNL A   1      34.500  32.436  28.011  1.00  0.00     0.044 C 
ENDBRANCH  18  21
ENDBRANCH   9  18
ENDBRANCH   8   9
ENDBRANCH   6   8
ENDBRANCH   5   6
ENDBRANCH   4   5
ENDBRANCH   3   4
ENDBRANCH   2   3
ENDBRANCH   1   2
BRANCH   1  28
ATOM     28  C   UNL A   1      36.381  21.351  24.857  1.00  0.00     0.188 C 
BRANCH  28  29
ATOM     29  O   UNL A   1      36.173  22.547  24.176  1.00  0.00    -0.376 OA
BRANCH  29  30
ATOM     30  C   UNL A   1      36.675  23.691  24.824  1.00  0.00     0.202 C 
BRANCH  30  31
ATOM     31  C   UNL A   1      37.770  23.649  25.933  1.00  0.00     0.261 C 
BRANCH  31  32
ATOM     32  O   UNL A   1      38.998  24.426  25.790  1.00  0.00    -0.460 OA
BRANCH  32  33
ATOM     33  C   UNL A   1      39.977  24.141  26.701  1.00  0.00     0.338 C 
ATOM     34  O   UNL A   1      40.514  23.035  26.724  1.00  0.00    -0.246 OA
BRANCH  33  35
ATOM     35  C   UNL A   1      40.240  25.209  27.872  1.00  0.00     0.060 A 
ATOM     36  C   UNL A   1      39.335  25.951  29.549  1.00  0.00     0.016 A 
ATOM     37  C   UNL A   1      40.633  26.448  26.602  1.00  0.00     0.016 A 
ATOM     38  C   UNL A   1      38.850  27.647  29.624  1.00  0.00     0.010 A 
ATOM     39  C   UNL A   1      40.215  28.124  26.898  1.00  0.00     0.010 A 
ATOM     40  C   UNL A   1      39.435  28.692  28.410  1.00  0.00    -0.014 A 
BRANCH  40  41
ATOM     41  C   UNL A   1      40.021  29.910  29.145  1.00  0.00     0.031 A 
ATOM     42  C   UNL A   1      39.045  30.821  29.779  1.00  0.00     0.074 A 
ATOM     43  C   UNL A   1      41.372  30.180  29.200  1.00  0.00     0.049 A 
ATOM     44  N   UNL A   1      39.285  31.846  30.539  1.00  0.00    -0.248 NA
ATOM     45  C   UNL A   1      37.621  30.572  29.511  1.00  0.00     0.031 C 
ATOM     46  C   UNL A   1      42.466  29.454  28.524  1.00  0.00     0.029 A 
ATOM     47  N   UNL A   1      42.109  31.117  29.902  1.00  0.00    -0.354 N 
ATOM     48  C   UNL A   1      38.035  32.310  30.892  1.00  0.00     0.074 A 
ATOM     49  C   UNL A   1      37.058  31.610  30.098  1.00  0.00     0.031 C 
ATOM     50  C   UNL A   1      43.673  29.852  28.920  1.00  0.00     0.029 A 
ATOM     51  C   UNL A   1      43.490  30.943  29.829  1.00  0.00     0.049 A 
ATOM     52  H   UNL A   1      41.690  31.849  30.411  1.00  0.00     0.167 HD
ATOM     53  C   UNL A   1      37.731  33.151  31.898  1.00  0.00     0.034 A 
ATOM     54  C   UNL A   1      44.528  31.554  30.432  1.00  0.00     0.034 A 
ATOM     55  C   UNL A   1      38.730  33.838  32.656  1.00  0.00     0.049 A 
ATOM     56  C   UNL A   1      44.155  32.613  31.413  1.00  0.00     0.074 A 
ATOM     57  C   UNL A   1      38.551  34.780  33.645  1.00  0.00     0.029 A 
ATOM     58  N   UNL A   1      40.101  33.676  32.484  1.00  0.00    -0.354 N 
ATOM     59  N   UNL A   1      42.952  32.987  31.777  1.00  0.00    -0.248 NA
ATOM     60  C   UNL A   1      45.251  33.317  32.078  1.00  0.00     0.031 C 
ATOM     61  C   UNL A   1      39.810  35.270  33.992  1.00  0.00     0.029 A 
ATOM     62  C   UNL A   1      40.782  34.545  33.313  1.00  0.00     0.049 A 
ATOM     63  H   UNL A   1      40.523  33.037  31.863  1.00  0.00     0.167 HD
ATOM     64  C   UNL A   1      43.143  33.946  32.753  1.00  0.00     0.074 A 
ATOM     65  C   UNL A   1      44.579  34.079  32.926  1.00  0.00     0.031 C 
ATOM     66  C   UNL A   1      42.215  34.649  33.446  1.00  0.00     0.034 A 
BRANCH  53  67
ATOM     67  C   UNL A   1      36.270  33.357  32.147  1.00  0.00     0.023 A 
ATOM     68  C   UNL A   1      35.479  34.118  31.262  1.00  0.00     0.031 A 
ATOM     69  C   UNL A   1      35.710  32.946  33.364  1.00  0.00     0.131 A 
ATOM     70  C   UNL A   1      34.204  34.532  31.662  1.00  0.00     0.055 A 
ATOM     71  C   UNL A   1      34.402  33.274  33.707  1.00  0.00     0.041 A 
ATOM     72  F   UNL A   1      36.450  32.277  34.262  1.00  0.00    -0.206 F 
ATOM     73  C   UNL A   1      33.647  34.086  32.863  1.00  0.00     0.022 A 
BRANCH  70  74
ATOM     74  S   UNL A   1      33.377  35.833  30.704  1.00  0.00     0.124 S 
ATOM     75  O   UNL A   1      33.675  37.019  31.504  1.00  0.00    -0.237 OA
ATOM     76  O   UNL A   1      34.044  35.750  29.410  1.00  0.00    -0.237 OA
ATOM     77  O   UNL A   1      31.975  35.420  30.712  1.00  0.00    -0.744 OA
ENDBRANCH  70  74
ENDBRANCH  53  67
BRANCH  54  78
ATOM     78  C   UNL A   1      45.966  31.194  30.162  1.00  0.00     0.023 A 
ATOM     79  C   UNL A   1      46.692  31.785  29.111  1.00  0.00     0.031 A 
ATOM     80  C   UNL A   1      46.616  30.185  30.901  1.00  0.00     0.131 A 
ATOM     81  C   UNL A   1      47.978  31.314  28.780  1.00  0.00     0.055 A 
ATOM     82  C   UNL A   1      47.919  29.765  30.610  1.00  0.00     0.041 A 
ATOM     83  F   UNL A   1      45.992  29.583  31.925  1.00  0.00    -0.206 F 
ATOM     84  C   UNL A   1      48.600  30.315  29.530  1.00  0.00     0.022 A 
BRANCH  81  85
ATOM     85  S   UNL A   1      48.776  31.924  27.264  1.00  0.00     0.124 S 
ATOM     86  O   UNL A   1      49.103  33.295  27.636  1.00  0.00    -0.237 OA
ATOM     87  O   UNL A   1      49.903  31.008  27.124  1.00  0.00    -0.237 OA
ATOM     88  O   UNL A   1      47.733  31.784  26.249  1.00  0.00    -0.744 OA
ENDBRANCH  81  85
ENDBRANCH  54  78
BRANCH  66  89
ATOM     89  C   UNL A   1      42.737  35.588  34.488  1.00  0.00     0.023 A 
ATOM     90  C   UNL A   1      43.017  36.929  34.191  1.00  0.00     0.031 A 
ATOM     91  C   UNL A   1      42.932  35.131  35.801  1.00  0.00     0.131 A 
ATOM     92  C   UNL A   1      43.536  37.758  35.188  1.00  0.00     0.055 A 
ATOM     93  C   UNL A   1      43.354  35.988  36.812  1.00  0.00     0.041 A 
ATOM     94  F   UNL A   1      42.691  33.850  36.124  1.00  0.00    -0.206 F 
ATOM     95  C   UNL A   1      43.673  37.306  36.503  1.00  0.00     0.022 A 
BRANCH  92  96
ATOM     96  S   UNL A   1      44.150  39.391  34.708  1.00  0.00     0.124 S 
ATOM     97  O   UNL A   1      43.010  39.936  33.975  1.00  0.00    -0.237 OA
ATOM     98  O   UNL A   1      44.431  40.011  35.998  1.00  0.00    -0.237 OA
ATOM     99  O   UNL A   1      45.324  39.086  33.894  1.00  0.00    -0.744 OA
ENDBRANCH  92  96
ENDBRANCH  66  89
ENDBRANCH  40  41
ENDBRANCH  33  35
ENDBRANCH  32  33
ENDBRANCH  31  32
ENDBRANCH  30  31
ENDBRANCH  29  30
ENDBRANCH  28  29
ENDBRANCH   1  28
TORSDOF 25
ENDMDL
MODEL 2
REMARK VINA RESULT:      -8.7      4.840      9.384
REMARK SMILES COc1cccc(N(CC(=O)OCCOCCOCCOC(=O)c2ccc(-c3c4nc(c(-c5cc(S(=O)(=O)[O-])ccc5F)c5ccc([nH]5)c(-c5cc(S(=O)(=O)[O-])ccc5F)c5nc(c(-c6cc(S(=O)(=O)[O-])ccc6F)c6ccc3[nH]6)C=C5)C=C4)cc2)S(=O)(=O)c2ccc(C)cc2)c1
REMARK SMILES IDX 16 1 15 2 14 3 13 4 12 5 10 6 11 7 9 8 8 9 7 10 3 11 4 12
REMARK SMILES IDX 97 13 5 14 6 15 2 16 1 17 87 18 88 19 89 20 90 21 91 22
REMARK SMILES IDX 96 23 92 24 95 25 93 26 94 27 17 28 18 29 19 30 20 31 21 32
REMARK SMILES IDX 22 33 23 34 24 35 25 36 86 37 26 38 85 39 27 40 28 41 29 42
REMARK SMILES IDX 79 43 30 44 84 45 78 46 80 47 31 48 83 49 77 50 76 51 32 53
REMARK SMILES IDX 64 54 44 55 63 56 45 57 48 58 62 59 81 60 46 61 47 62 61 64
REMARK SMILES IDX 82 65 49 66 33 67 34 68 42 69 35 70 41 71 43 72 40 73 36 74
REMARK SMILES IDX 37 75 38 76 39 77 65 78 66 79 74 80 67 81 73 82 75 83 72 84
REMARK SMILES IDX 68 85 69 86 70 87 71 88 50 89 51 90 59 91 52 92 58 93 60 94
REMARK SMILES IDX 57 95 53 96 54 97 55 98 56 99
REMARK H PARENT 80 52 48 63
REMARK Flexibility Score: inf
ROOT
ATOM      1  C   UNL A   1      34.161  31.073  27.291  1.00  0.00     0.188 C 
ENDROOT
BRANCH   1   2
ATOM      2  O   UNL A   1      32.856  30.820  27.715  1.00  0.00    -0.376 OA
BRANCH   2   3
ATOM      3  C   UNL A   1      32.089  30.189  26.712  1.00  0.00     0.202 C 
BRANCH   3   4
ATOM      4  C   UNL A   1      32.632  28.884  26.017  1.00  0.00     0.261 C 
BRANCH   4   5
ATOM      5  O   UNL A   1      31.683  27.847  25.528  1.00  0.00    -0.462 OA
BRANCH   5   6
ATOM      6  C   UNL A   1      31.536  26.660  26.207  1.00  0.00     0.326 C 
ATOM      7  O   UNL A   1      30.600  26.489  26.988  1.00  0.00    -0.250 OA
BRANCH   6   8
ATOM      8  C   UNL A   1      32.538  25.464  25.907  1.00  0.00     0.258 C 
BRANCH   8   9
ATOM      9  N   UNL A   1      32.988  25.085  24.481  1.00  0.00    -0.255 N 
BRANCH   9  10
ATOM     10  C   UNL A   1      33.994  23.947  24.468  1.00  0.00     0.056 A 
ATOM     11  C   UNL A   1      34.607  21.618  24.980  1.00  0.00     0.120 A 
ATOM     12  C   UNL A   1      35.838  21.768  24.354  1.00  0.00     0.046 A 
ATOM     13  C   UNL A   1      33.705  22.695  25.028  1.00  0.00     0.073 A 
ATOM     14  C   UNL A   1      36.135  22.963  23.724  1.00  0.00     0.006 A 
ATOM     15  C   UNL A   1      35.208  24.016  23.749  1.00  0.00     0.027 A 
BRANCH  11  16
ATOM     16  O   UNL A   1      34.393  20.384  25.538  1.00  0.00    -0.497 OA
ATOM     17  C   UNL A   1      33.094  19.836  25.331  1.00  0.00     0.278 C 
ENDBRANCH  11  16
ENDBRANCH   9  10
BRANCH   9  18
ATOM     18  S   UNL A   1      31.597  24.747  23.142  1.00  0.00     0.264 S 
ATOM     19  O   UNL A   1      32.284  24.647  21.870  1.00  0.00    -0.201 OA
ATOM     20  O   UNL A   1      30.806  23.659  23.673  1.00  0.00    -0.201 OA
BRANCH  18  21
ATOM     21  C   UNL A   1      30.492  26.149  22.941  1.00  0.00     0.088 A 
ATOM     22  C   UNL A   1      31.292  27.568  22.282  1.00  0.00     0.022 A 
ATOM     23  C   UNL A   1      28.783  26.429  23.583  1.00  0.00     0.022 A 
ATOM     24  C   UNL A   1      30.651  29.201  22.219  1.00  0.00     0.005 A 
ATOM     25  C   UNL A   1      28.145  28.362  23.501  1.00  0.00     0.005 A 
ATOM     26  C   UNL A   1      29.131  29.619  22.770  1.00  0.00    -0.051 A 
ATOM     27  C   UNL A   1      28.632  31.025  22.717  1.00  0.00     0.044 C 
ENDBRANCH  18  21
ENDBRANCH   9  18
ENDBRANCH   8   9
ENDBRANCH   6   8
ENDBRANCH   5   6
ENDBRANCH   4   5
ENDBRANCH   3   4
ENDBRANCH   2   3
ENDBRANCH   1   2
BRANCH   1  28
ATOM     28  C   UNL A   1      34.935  32.250  27.963  1.00  0.00     0.188 C 
BRANCH  28  29
ATOM     29  O   UNL A   1      34.466  32.715  29.188  1.00  0.00    -0.376 OA
BRANCH  29  30
ATOM     30  C   UNL A   1      35.288  32.413  30.289  1.00  0.00     0.202 C 
BRANCH  30  31
ATOM     31  C   UNL A   1      36.601  31.580  30.189  1.00  0.00     0.261 C 
BRANCH  31  32
ATOM     32  O   UNL A   1      37.594  31.630  31.258  1.00  0.00    -0.460 OA
BRANCH  32  33
ATOM     33  C   UNL A   1      38.182  32.848  31.452  1.00  0.00     0.338 C 
ATOM     34  O   UNL A   1      37.501  33.858  31.615  1.00  0.00    -0.246 OA
BRANCH  33  35
ATOM     35  C   UNL A   1      39.771  32.953  31.235  1.00  0.00     0.060 A 
ATOM     36  C   UNL A   1      41.451  33.567  32.228  1.00  0.00     0.016 A 
ATOM     37  C   UNL A   1      39.462  33.799  29.657  1.00  0.00     0.016 A 
ATOM     38  C   UNL A   1      42.394  34.931  31.624  1.00  0.00     0.010 A 
ATOM     39  C   UNL A   1      40.584  35.037  29.127  1.00  0.00     0.010 A 
ATOM     40  C   UNL A   1      42.047  35.501  30.055  1.00  0.00    -0.014 A 
BRANCH  40  41
ATOM     41  C   UNL A   1      43.399  35.591  29.328  1.00  0.00     0.031 A 
ATOM     42  C   UNL A   1      43.921  36.953  29.084  1.00  0.00     0.074 A 
ATOM     43  C   UNL A   1      44.096  34.485  28.889  1.00  0.00     0.049 A 
ATOM     44  N   UNL A   1      45.074  37.292  28.592  1.00  0.00    -0.248 NA
ATOM     45  C   UNL A   1      43.033  38.080  29.405  1.00  0.00     0.031 C 
ATOM     46  C   UNL A   1      43.667  33.072  28.936  1.00  0.00     0.029 A 
ATOM     47  N   UNL A   1      45.360  34.330  28.350  1.00  0.00    -0.354 N 
ATOM     48  C   UNL A   1      45.065  38.671  28.620  1.00  0.00     0.074 A 
ATOM     49  C   UNL A   1      43.732  39.103  28.957  1.00  0.00     0.031 C 
ATOM     50  C   UNL A   1      44.638  32.226  28.598  1.00  0.00     0.029 A 
ATOM     51  C   UNL A   1      45.773  33.006  28.206  1.00  0.00     0.049 A 
ATOM     52  H   UNL A   1      45.923  35.095  28.088  1.00  0.00     0.167 HD
ATOM     53  C   UNL A   1      46.123  39.496  28.510  1.00  0.00     0.034 A 
ATOM     54  C   UNL A   1      46.936  32.440  27.831  1.00  0.00     0.034 A 
ATOM     55  C   UNL A   1      47.429  39.030  28.161  1.00  0.00     0.049 A 
ATOM     56  C   UNL A   1      48.041  33.398  27.539  1.00  0.00     0.074 A 
ATOM     57  C   UNL A   1      48.567  39.774  27.935  1.00  0.00     0.029 A 
ATOM     58  N   UNL A   1      47.762  37.695  27.956  1.00  0.00    -0.354 N 
ATOM     59  N   UNL A   1      48.021  34.706  27.639  1.00  0.00    -0.248 NA
ATOM     60  C   UNL A   1      49.316  32.828  27.110  1.00  0.00     0.031 C 
ATOM     61  C   UNL A   1      49.557  38.901  27.485  1.00  0.00     0.029 A 
ATOM     62  C   UNL A   1      49.079  37.599  27.551  1.00  0.00     0.049 A 
ATOM     63  H   UNL A   1      47.151  36.933  28.082  1.00  0.00     0.167 HD
ATOM     64  C   UNL A   1      49.300  35.120  27.326  1.00  0.00     0.074 A 
ATOM     65  C   UNL A   1      50.066  33.917  27.048  1.00  0.00     0.031 C 
ATOM     66  C   UNL A   1      49.799  36.379  27.277  1.00  0.00     0.034 A 
BRANCH  53  67
ATOM     67  C   UNL A   1      45.836  40.947  28.735  1.00  0.00     0.023 A 
ATOM     68  C   UNL A   1      45.535  41.440  30.021  1.00  0.00     0.031 A 
ATOM     69  C   UNL A   1      45.683  41.801  27.636  1.00  0.00     0.131 A 
ATOM     70  C   UNL A   1      44.994  42.723  30.157  1.00  0.00     0.055 A 
ATOM     71  C   UNL A   1      45.244  43.112  27.793  1.00  0.00     0.041 A 
ATOM     72  F   UNL A   1      45.894  41.351  26.389  1.00  0.00    -0.206 F 
ATOM     73  C   UNL A   1      44.880  43.575  29.056  1.00  0.00     0.022 A 
BRANCH  70  74
ATOM     74  S   UNL A   1      44.238  43.180  31.742  1.00  0.00     0.124 S 
ATOM     75  O   UNL A   1      44.765  42.144  32.627  1.00  0.00    -0.237 OA
ATOM     76  O   UNL A   1      44.748  44.529  31.962  1.00  0.00    -0.237 OA
ATOM     77  O   UNL A   1      42.805  43.090  31.472  1.00  0.00    -0.744 OA
ENDBRANCH  70  74
ENDBRANCH  53  67
BRANCH  54  78
ATOM     78  C   UNL A   1      47.131  30.950  27.728  1.00  0.00     0.023 A 
ATOM     79  C   UNL A   1      46.804  30.241  26.556  1.00  0.00     0.031 A 
ATOM     80  C   UNL A   1      47.569  30.193  28.833  1.00  0.00     0.131 A 
ATOM     81  C   UNL A   1      46.843  28.832  26.542  1.00  0.00     0.055 A 
ATOM     82  C   UNL A   1      47.668  28.797  28.793  1.00  0.00     0.041 A 
ATOM     83  F   UNL A   1      47.909  30.800  29.981  1.00  0.00    -0.206 F 
ATOM     84  C   UNL A   1      47.283  28.107  27.650  1.00  0.00     0.022 A 
BRANCH  81  85
ATOM     85  S   UNL A   1      46.173  27.948  25.101  1.00  0.00     0.124 S 
ATOM     86  O   UNL A   1      44.738  28.045  25.337  1.00  0.00    -0.237 OA
ATOM     87  O   UNL A   1      46.699  28.734  23.990  1.00  0.00    -0.237 OA
ATOM     88  O   UNL A   1      46.738  26.605  25.233  1.00  0.00    -0.744 OA
ENDBRANCH  81  85
ENDBRANCH  54  78
BRANCH  66  89
ATOM     89  C   UNL A   1      51.255  36.503  26.955  1.00  0.00     0.023 A 
ATOM     90  C   UNL A   1      51.710  36.561  25.630  1.00  0.00     0.031 A 
ATOM     91  C   UNL A   1      52.193  36.590  27.997  1.00  0.00     0.131 A 
ATOM     92  C   UNL A   1      53.081  36.641  25.380  1.00  0.00     0.055 A 
ATOM     93  C   UNL A   1      53.547  36.771  27.739  1.00  0.00     0.041 A 
ATOM     94  F   UNL A   1      51.800  36.523  29.279  1.00  0.00    -0.206 F 
ATOM     95  C   UNL A   1      53.999  36.782  26.424  1.00  0.00     0.022 A 
BRANCH  92  96
ATOM     96  S   UNL A   1      53.653  36.428  23.676  1.00  0.00     0.124 S 
ATOM     97  O   UNL A   1      52.464  35.881  23.027  1.00  0.00    -0.237 OA
ATOM     98  O   UNL A   1      54.016  37.789  23.295  1.00  0.00    -0.237 OA
ATOM     99  O   UNL A   1      54.772  35.499  23.807  1.00  0.00    -0.744 OA
ENDBRANCH  92  96
ENDBRANCH  66  89
ENDBRANCH  40  41
ENDBRANCH  33  35
ENDBRANCH  32  33
ENDBRANCH  31  32
ENDBRANCH  30  31
ENDBRANCH  29  30
ENDBRANCH  28  29
ENDBRANCH   1  28
TORSDOF 25
ENDMDL
MODEL 3
REMARK VINA RESULT:      -8.5      6.437     10.261
REMARK SMILES COc1cccc(N(CC(=O)OCCOCCOCCOC(=O)c2ccc(-c3c4nc(c(-c5cc(S(=O)(=O)[O-])ccc5F)c5ccc([nH]5)c(-c5cc(S(=O)(=O)[O-])ccc5F)c5nc(c(-c6cc(S(=O)(=O)[O-])ccc6F)c6ccc3[nH]6)C=C5)C=C4)cc2)S(=O)(=O)c2ccc(C)cc2)c1
REMARK SMILES IDX 16 1 15 2 14 3 13 4 12 5 10 6 11 7 9 8 8 9 7 10 3 11 4 12
REMARK SMILES IDX 97 13 5 14 6 15 2 16 1 17 87 18 88 19 89 20 90 21 91 22
REMARK SMILES IDX 96 23 92 24 95 25 93 26 94 27 17 28 18 29 19 30 20 31 21 32
REMARK SMILES IDX 22 33 23 34 24 35 25 36 86 37 26 38 85 39 27 40 28 41 29 42
REMARK SMILES IDX 79 43 30 44 84 45 78 46 80 47 31 48 83 49 77 50 76 51 32 53
REMARK SMILES IDX 64 54 44 55 63 56 45 57 48 58 62 59 81 60 46 61 47 62 61 64
REMARK SMILES IDX 82 65 49 66 33 67 34 68 42 69 35 70 41 71 43 72 40 73 36 74
REMARK SMILES IDX 37 75 38 76 39 77 65 78 66 79 74 80 67 81 73 82 75 83 72 84
REMARK SMILES IDX 68 85 69 86 70 87 71 88 50 89 51 90 59 91 52 92 58 93 60 94
REMARK SMILES IDX 57 95 53 96 54 97 55 98 56 99
REMARK H PARENT 80 52 48 63
REMARK Flexibility Score: inf
ROOT
ATOM      1  C   UNL A   1      41.976  23.855  27.439  1.00  0.00     0.188 C 
ENDROOT
BRANCH   1   2
ATOM      2  O   UNL A   1      41.287  22.780  26.875  1.00  0.00    -0.376 OA
BRANCH   2   3
ATOM      3  C   UNL A   1      39.895  22.874  27.090  1.00  0.00     0.202 C 
BRANCH   3   4
ATOM      4  C   UNL A   1      38.898  22.232  26.053  1.00  0.00     0.261 C 
BRANCH   4   5
ATOM      5  O   UNL A   1      37.598  22.893  25.759  1.00  0.00    -0.462 OA
BRANCH   5   6
ATOM      6  C   UNL A   1      36.709  22.323  24.877  1.00  0.00     0.326 C 
ATOM      7  O   UNL A   1      36.829  22.485  23.663  1.00  0.00    -0.250 OA
BRANCH   6   8
ATOM      8  C   UNL A   1      35.565  21.371  25.434  1.00  0.00     0.258 C 
BRANCH   8   9
ATOM      9  N   UNL A   1      34.113  21.413  24.915  1.00  0.00    -0.255 N 
BRANCH   9  10
ATOM     10  C   UNL A   1      33.585  20.038  24.541  1.00  0.00     0.056 A 
ATOM     11  C   UNL A   1      33.241  17.657  25.061  1.00  0.00     0.120 A 
ATOM     12  C   UNL A   1      32.505  17.473  23.898  1.00  0.00     0.046 A 
ATOM     13  C   UNL A   1      33.766  18.924  25.371  1.00  0.00     0.073 A 
ATOM     14  C   UNL A   1      32.239  18.562  23.087  1.00  0.00     0.006 A 
ATOM     15  C   UNL A   1      32.739  19.828  23.429  1.00  0.00     0.027 A 
BRANCH  11  16
ATOM     16  O   UNL A   1      33.413  16.527  25.817  1.00  0.00    -0.497 OA
ATOM     17  C   UNL A   1      32.617  15.408  25.438  1.00  0.00     0.278 C 
ENDBRANCH  11  16
ENDBRANCH   9  10
BRANCH   9  18
ATOM     18  S   UNL A   1      32.779  22.356  25.998  1.00  0.00     0.264 S 
ATOM     19  O   UNL A   1      31.500  22.098  25.368  1.00  0.00    -0.201 OA
ATOM     20  O   UNL A   1      33.052  21.971  27.365  1.00  0.00    -0.201 OA
BRANCH  18  21
ATOM     21  C   UNL A   1      32.968  24.141  25.907  1.00  0.00     0.088 A 
ATOM     22  C   UNL A   1      31.576  25.013  26.528  1.00  0.00     0.022 A 
ATOM     23  C   UNL A   1      34.214  25.168  25.011  1.00  0.00     0.022 A 
ATOM     24  C   UNL A   1      31.241  26.726  26.343  1.00  0.00     0.005 A 
ATOM     25  C   UNL A   1      33.717  27.135  24.816  1.00  0.00     0.005 A 
ATOM     26  C   UNL A   1      32.259  27.785  25.549  1.00  0.00    -0.051 A 
ATOM     27  C   UNL A   1      31.927  29.233  25.396  1.00  0.00     0.044 C 
ENDBRANCH  18  21
ENDBRANCH   9  18
ENDBRANCH   8   9
ENDBRANCH   6   8
ENDBRANCH   5   6
ENDBRANCH   4   5
ENDBRANCH   3   4
ENDBRANCH   2   3
ENDBRANCH   1   2
BRANCH   1  28
ATOM     28  C   UNL A   1      42.303  25.075  26.525  1.00  0.00     0.188 C 
BRANCH  28  29
ATOM     29  O   UNL A   1      41.637  26.271  26.779  1.00  0.00    -0.376 OA
BRANCH  29  30
ATOM     30  C   UNL A   1      41.088  26.379  28.070  1.00  0.00     0.202 C 
BRANCH  30  31
ATOM     31  C   UNL A   1      39.557  26.407  28.362  1.00  0.00     0.261 C 
BRANCH  31  32
ATOM     32  O   UNL A   1      39.057  26.879  29.650  1.00  0.00    -0.460 OA
BRANCH  32  33
ATOM     33  C   UNL A   1      39.140  28.229  29.848  1.00  0.00     0.338 C 
ATOM     34  O   UNL A   1      38.545  29.012  29.110  1.00  0.00    -0.246 OA
BRANCH  33  35
ATOM     35  C   UNL A   1      40.208  28.761  30.924  1.00  0.00     0.060 A 
ATOM     36  C   UNL A   1      42.214  28.673  31.317  1.00  0.00     0.016 A 
ATOM     37  C   UNL A   1      39.141  28.117  32.246  1.00  0.00     0.016 A 
ATOM     38  C   UNL A   1      42.803  27.871  32.775  1.00  0.00     0.010 A 
ATOM     39  C   UNL A   1      39.885  27.486  33.702  1.00  0.00     0.010 A 
ATOM     40  C   UNL A   1      41.658  27.464  33.971  1.00  0.00    -0.014 A 
BRANCH  40  41
ATOM     41  C   UNL A   1      42.222  28.000  35.298  1.00  0.00     0.031 A 
ATOM     42  C   UNL A   1      42.985  27.037  36.120  1.00  0.00     0.074 A 
ATOM     43  C   UNL A   1      42.020  29.291  35.737  1.00  0.00     0.049 A 
ATOM     44  N   UNL A   1      43.645  27.266  37.215  1.00  0.00    -0.248 NA
ATOM     45  C   UNL A   1      42.991  25.634  35.679  1.00  0.00     0.031 C 
ATOM     46  C   UNL A   1      41.186  30.338  35.111  1.00  0.00     0.029 A 
ATOM     47  N   UNL A   1      42.536  30.007  36.803  1.00  0.00    -0.354 N 
ATOM     48  C   UNL A   1      44.200  26.046  37.541  1.00  0.00     0.074 A 
ATOM     49  C   UNL A   1      43.626  25.048  36.674  1.00  0.00     0.031 C 
ATOM     50  C   UNL A   1      41.340  31.530  35.682  1.00  0.00     0.029 A 
ATOM     51  C   UNL A   1      42.220  31.365  36.798  1.00  0.00     0.049 A 
ATOM     52  H   UNL A   1      43.082  29.589  37.509  1.00  0.00     0.167 HD
ATOM     53  C   UNL A   1      45.208  25.812  38.401  1.00  0.00     0.034 A 
ATOM     54  C   UNL A   1      42.598  32.401  37.572  1.00  0.00     0.034 A 
ATOM     55  C   UNL A   1      45.743  26.827  39.255  1.00  0.00     0.049 A 
ATOM     56  C   UNL A   1      43.586  32.066  38.638  1.00  0.00     0.074 A 
ATOM     57  C   UNL A   1      46.708  26.699  40.230  1.00  0.00     0.029 A 
ATOM     58  N   UNL A   1      45.331  28.156  39.254  1.00  0.00    -0.354 N 
ATOM     59  N   UNL A   1      44.147  30.906  38.882  1.00  0.00    -0.248 NA
ATOM     60  C   UNL A   1      44.010  33.156  39.514  1.00  0.00     0.031 C 
ATOM     61  C   UNL A   1      46.799  27.922  40.894  1.00  0.00     0.029 A 
ATOM     62  C   UNL A   1      45.985  28.848  40.254  1.00  0.00     0.049 A 
ATOM     63  H   UNL A   1      44.671  28.545  38.634  1.00  0.00     0.167 HD
ATOM     64  C   UNL A   1      45.031  31.134  39.918  1.00  0.00     0.074 A 
ATOM     65  C   UNL A   1      44.934  32.547  40.240  1.00  0.00     0.031 C 
ATOM     66  C   UNL A   1      45.851  30.256  40.544  1.00  0.00     0.034 A 
BRANCH  53  67
ATOM     67  C   UNL A   1      45.711  24.403  38.439  1.00  0.00     0.023 A 
ATOM     68  C   UNL A   1      46.300  23.808  37.304  1.00  0.00     0.031 A 
ATOM     69  C   UNL A   1      45.434  23.599  39.551  1.00  0.00     0.131 A 
ATOM     70  C   UNL A   1      46.492  22.423  37.276  1.00  0.00     0.055 A 
ATOM     71  C   UNL A   1      45.727  22.239  39.553  1.00  0.00     0.041 A 
ATOM     72  F   UNL A   1      44.813  24.112  40.625  1.00  0.00    -0.206 F 
ATOM     73  C   UNL A   1      46.243  21.640  38.405  1.00  0.00     0.022 A 
BRANCH  70  74
ATOM     74  S   UNL A   1      46.857  21.632  35.684  1.00  0.00     0.124 S 
ATOM     75  O   UNL A   1      47.943  20.726  36.049  1.00  0.00    -0.237 OA
ATOM     76  O   UNL A   1      45.586  21.004  35.341  1.00  0.00    -0.237 OA
ATOM     77  O   UNL A   1      47.250  22.753  34.831  1.00  0.00    -0.744 OA
ENDBRANCH  70  74
ENDBRANCH  53  67
BRANCH  54  78
ATOM     78  C   UNL A   1      42.087  33.804  37.377  1.00  0.00     0.023 A 
ATOM     79  C   UNL A   1      42.729  34.712  36.514  1.00  0.00     0.031 A 
ATOM     80  C   UNL A   1      40.991  34.291  38.118  1.00  0.00     0.131 A 
ATOM     81  C   UNL A   1      42.328  36.062  36.474  1.00  0.00     0.055 A 
ATOM     82  C   UNL A   1      40.555  35.618  38.026  1.00  0.00     0.041 A 
ATOM     83  F   UNL A   1      40.322  33.481  38.953  1.00  0.00    -0.206 F 
ATOM     84  C   UNL A   1      41.238  36.518  37.217  1.00  0.00     0.022 A 
BRANCH  81  85
ATOM     85  S   UNL A   1      43.340  37.253  35.544  1.00  0.00     0.124 S 
ATOM     86  O   UNL A   1      42.382  37.751  34.564  1.00  0.00    -0.237 OA
ATOM     87  O   UNL A   1      43.741  38.191  36.587  1.00  0.00    -0.237 OA
ATOM     88  O   UNL A   1      44.420  36.432  35.000  1.00  0.00    -0.744 OA
ENDBRANCH  81  85
ENDBRANCH  54  78
BRANCH  66  89
ATOM     89  C   UNL A   1      46.740  30.821  41.607  1.00  0.00     0.023 A 
ATOM     90  C   UNL A   1      48.014  31.323  41.306  1.00  0.00     0.031 A 
ATOM     91  C   UNL A   1      46.287  30.876  42.935  1.00  0.00     0.131 A 
ATOM     92  C   UNL A   1      48.820  31.808  42.338  1.00  0.00     0.055 A 
ATOM     93  C   UNL A   1      47.057  31.452  43.940  1.00  0.00     0.041 A 
ATOM     94  F   UNL A   1      45.079  30.392  43.268  1.00  0.00    -0.206 F 
ATOM     95  C   UNL A   1      48.337  31.909  43.646  1.00  0.00     0.022 A 
BRANCH  92  96
ATOM     96  S   UNL A   1      50.551  32.183  41.966  1.00  0.00     0.124 S 
ATOM     97  O   UNL A   1      50.431  33.412  41.187  1.00  0.00    -0.237 OA
ATOM     98  O   UNL A   1      51.133  32.327  43.297  1.00  0.00    -0.237 OA
ATOM     99  O   UNL A   1      50.997  31.012  41.215  1.00  0.00    -0.744 OA
ENDBRANCH  92  96
ENDBRANCH  66  89
ENDBRANCH  40  41
ENDBRANCH  33  35
ENDBRANCH  32  33
ENDBRANCH  31  32
ENDBRANCH  30  31
ENDBRANCH  29  30
ENDBRANCH  28  29
ENDBRANCH   1  28
TORSDOF 25
ENDMDL
