MODEL 1
REMARK VINA RESULT:     -10.0      0.000      0.000
REMARK SMILES COc1ccc(-c2nc3ccc(C)cc3[nH]2)c(C(=O)OCCOCCOCCOC(=O)c2ccc(-c3c4nc(c(-c5cc(S(=O)(=O)[O-])ccc5F)c5ccc([nH]5)c(-c5cc(S(=O)(=O)[O-])ccc5F)c5nc(c(-c6cc(S(=O)(=O)[O-])ccc6F)c6ccc3[nH]6)C=C5)C=C4)cc2)c1OC
REMARK SMILES IDX 25 1 24 2 23 3 22 4 21 5 20 6 18 7 19 8 17 9 3 10 4 11 95 12
REMARK SMILES IDX 5 13 6 14 2 15 1 16 96 17 97 18 7 19 8 20 16 21 9 22 15 23
REMARK SMILES IDX 10 25 14 26 11 27 12 28 13 29 26 30 27 31 28 32 29 33 30 34
REMARK SMILES IDX 31 35 32 36 33 37 94 38 34 39 93 40 35 41 36 42 37 43 87 44
REMARK SMILES IDX 38 45 92 46 86 47 88 48 39 49 91 50 85 51 84 52 40 54 72 55
REMARK SMILES IDX 52 56 71 57 53 58 56 59 70 60 89 61 54 62 55 63 69 65 90 66
REMARK SMILES IDX 57 67 41 68 42 69 50 70 43 71 49 72 51 73 48 74 44 75 45 76
REMARK SMILES IDX 46 77 47 78 73 79 74 80 82 81 75 82 81 83 83 84 80 85 76 86
REMARK SMILES IDX 77 87 78 88 79 89 58 90 59 91 67 92 60 93 66 94 68 95 65 96
REMARK SMILES IDX 61 97 62 98 63 99 64 100
REMARK H PARENT 16 24 88 53 56 64
REMARK Flexibility Score: inf
ROOT
ATOM      1  C   UNL A   1      34.006  22.320  25.960  1.00  0.00     0.188 C 
ENDROOT
BRANCH   1   2
ATOM      2  C   UNL A   1      32.490  22.477  26.139  1.00  0.00     0.188 C 
BRANCH   2   3
ATOM      3  O   UNL A   1      32.087  23.760  26.617  1.00  0.00    -0.376 OA
BRANCH   3   4
ATOM      4  C   UNL A   1      31.650  24.623  25.566  1.00  0.00     0.202 C 
BRANCH   4   5
ATOM      5  C   UNL A   1      30.428  25.422  26.017  1.00  0.00     0.261 C 
BRANCH   5   6
ATOM      6  O   UNL A   1      30.253  26.620  25.238  1.00  0.00    -0.460 OA
BRANCH   6   7
ATOM      7  C   UNL A   1      29.572  26.521  24.075  1.00  0.00     0.342 C 
ATOM      8  O   UNL A   1      28.931  25.558  23.684  1.00  0.00    -0.246 OA
BRANCH   7   9
ATOM      9  C   UNL A   1      29.658  27.815  23.350  1.00  0.00     0.116 A 
ATOM     10  C   UNL A   1      28.666  29.898  22.617  1.00  0.00     0.161 A 
ATOM     11  C   UNL A   1      29.849  30.231  21.955  1.00  0.00     0.051 A 
ATOM     12  C   UNL A   1      28.552  28.685  23.311  1.00  0.00     0.176 A 
ATOM     13  C   UNL A   1      30.943  29.363  21.984  1.00  0.00     0.017 A 
ATOM     14  C   UNL A   1      30.853  28.144  22.667  1.00  0.00     0.036 A 
BRANCH  10  15
ATOM     15  O   UNL A   1      27.626  30.777  22.464  1.00  0.00    -0.493 OA
ATOM     16  C   UNL A   1      28.060  32.060  22.020  1.00  0.00     0.278 C 
ENDBRANCH  10  15
BRANCH  12  17
ATOM     17  O   UNL A   1      27.420  28.361  24.017  1.00  0.00    -0.492 OA
ATOM     18  C   UNL A   1      26.259  28.207  23.196  1.00  0.00     0.278 C 
ENDBRANCH  12  17
BRANCH  14  19
ATOM     19  C   UNL A   1      31.882  27.134  22.454  1.00  0.00     0.139 A 
ATOM     20  N   UNL A   1      31.686  26.071  21.705  1.00  0.00    -0.228 NA
ATOM     21  N   UNL A   1      33.108  27.066  23.073  1.00  0.00    -0.338 N 
ATOM     22  C   UNL A   1      32.678  25.195  22.035  1.00  0.00     0.089 A 
ATOM     23  C   UNL A   1      33.607  25.797  22.871  1.00  0.00     0.066 A 
ATOM     24  H   UNL A   1      33.550  27.791  23.571  1.00  0.00     0.168 HD
ATOM     25  C   UNL A   1      32.835  23.858  21.650  1.00  0.00     0.031 A 
ATOM     26  C   UNL A   1      34.750  25.134  23.326  1.00  0.00     0.031 A 
ATOM     27  C   UNL A   1      33.962  23.169  22.097  1.00  0.00     0.006 A 
ATOM     28  C   UNL A   1      34.921  23.800  22.904  1.00  0.00    -0.049 A 
ATOM     29  C   UNL A   1      36.171  23.043  23.250  1.00  0.00     0.044 C 
ENDBRANCH  14  19
ENDBRANCH   7   9
ENDBRANCH   6   7
ENDBRANCH   5   6
ENDBRANCH   4   5
ENDBRANCH   3   4
ENDBRANCH   2   3
ENDBRANCH   1   2
BRANCH   1  30
ATOM     30  O   UNL A   1      34.622  21.061  26.218  1.00  0.00    -0.376 OA
BRANCH  30  31
ATOM     31  C   UNL A   1      35.140  20.336  25.116  1.00  0.00     0.202 C 
BRANCH  31  32
ATOM     32  C   UNL A   1      36.665  20.217  25.026  1.00  0.00     0.261 C 
BRANCH  32  33
ATOM     33  O   UNL A   1      37.399  21.354  25.521  1.00  0.00    -0.460 OA
BRANCH  33  34
ATOM     34  C   UNL A   1      38.685  21.105  25.878  1.00  0.00     0.338 C 
ATOM     35  O   UNL A   1      39.328  20.099  25.628  1.00  0.00    -0.246 OA
BRANCH  34  36
ATOM     36  C   UNL A   1      39.274  22.268  26.580  1.00  0.00     0.060 A 
ATOM     37  C   UNL A   1      38.764  23.544  26.310  1.00  0.00     0.016 A 
ATOM     38  C   UNL A   1      40.403  22.131  27.391  1.00  0.00     0.016 A 
ATOM     39  C   UNL A   1      39.393  24.684  26.826  1.00  0.00     0.010 A 
ATOM     40  C   UNL A   1      41.039  23.278  27.898  1.00  0.00     0.010 A 
ATOM     41  C   UNL A   1      40.556  24.568  27.601  1.00  0.00    -0.014 A 
BRANCH  41  42
ATOM     42  C   UNL A   1      41.314  25.782  28.033  1.00  0.00     0.031 A 
ATOM     43  C   UNL A   1      40.609  26.888  28.765  1.00  0.00     0.074 A 
ATOM     44  C   UNL A   1      42.630  25.922  27.779  1.00  0.00     0.049 A 
ATOM     45  N   UNL A   1      41.064  28.065  29.113  1.00  0.00    -0.248 NA
ATOM     46  C   UNL A   1      39.217  26.635  29.162  1.00  0.00     0.031 C 
ATOM     47  C   UNL A   1      43.460  24.915  27.135  1.00  0.00     0.029 A 
ATOM     48  N   UNL A   1      43.497  26.966  28.006  1.00  0.00    -0.354 N 
ATOM     49  C   UNL A   1      40.016  28.702  29.763  1.00  0.00     0.074 A 
ATOM     50  C   UNL A   1      38.895  27.782  29.746  1.00  0.00     0.031 C 
ATOM     51  C   UNL A   1      44.700  25.401  26.973  1.00  0.00     0.029 A 
ATOM     52  C   UNL A   1      44.749  26.767  27.468  1.00  0.00     0.049 A 
ATOM     53  H   UNL A   1      43.247  27.777  28.505  1.00  0.00     0.167 HD
ATOM     54  C   UNL A   1      39.994  29.937  30.321  1.00  0.00     0.034 A 
ATOM     55  C   UNL A   1      45.808  27.589  27.335  1.00  0.00     0.034 A 
ATOM     56  C   UNL A   1      41.113  30.850  30.342  1.00  0.00     0.049 A 
ATOM     57  C   UNL A   1      45.718  28.992  27.859  1.00  0.00     0.074 A 
ATOM     58  C   UNL A   1      41.196  32.089  30.957  1.00  0.00     0.029 A 
ATOM     59  N   UNL A   1      42.329  30.644  29.709  1.00  0.00    -0.354 N 
ATOM     60  N   UNL A   1      44.716  29.578  28.466  1.00  0.00    -0.248 NA
ATOM     61  C   UNL A   1      46.901  29.843  27.673  1.00  0.00     0.031 C 
ATOM     62  C   UNL A   1      42.428  32.666  30.626  1.00  0.00     0.029 A 
ATOM     63  C   UNL A   1      43.145  31.757  29.869  1.00  0.00     0.049 A 
ATOM     64  H   UNL A   1      42.577  29.828  29.216  1.00  0.00     0.167 HD
ATOM     65  C   UNL A   1      45.149  30.870  28.731  1.00  0.00     0.074 A 
ATOM     66  C   UNL A   1      46.509  30.970  28.247  1.00  0.00     0.031 C 
ATOM     67  C   UNL A   1      44.475  31.883  29.329  1.00  0.00     0.034 A 
BRANCH  54  68
ATOM     68  C   UNL A   1      38.694  30.409  30.913  1.00  0.00     0.023 A 
ATOM     69  C   UNL A   1      37.729  31.084  30.149  1.00  0.00     0.031 A 
ATOM     70  C   UNL A   1      38.409  30.144  32.265  1.00  0.00     0.131 A 
ATOM     71  C   UNL A   1      36.533  31.502  30.754  1.00  0.00     0.055 A 
ATOM     72  C   UNL A   1      37.195  30.509  32.843  1.00  0.00     0.041 A 
ATOM     73  F   UNL A   1      39.308  29.518  33.041  1.00  0.00    -0.206 F 
ATOM     74  C   UNL A   1      36.251  31.199  32.089  1.00  0.00     0.022 A 
BRANCH  71  75
ATOM     75  S   UNL A   1      35.380  32.519  29.792  1.00  0.00     0.124 S 
ATOM     76  O   UNL A   1      35.054  31.627  28.682  1.00  0.00    -0.237 OA
ATOM     77  O   UNL A   1      34.306  32.766  30.747  1.00  0.00    -0.237 OA
ATOM     78  O   UNL A   1      36.175  33.690  29.431  1.00  0.00    -0.744 OA
ENDBRANCH  71  75
ENDBRANCH  54  68
BRANCH  55  79
ATOM     79  C   UNL A   1      47.014  27.182  26.562  1.00  0.00     0.023 A 
ATOM     80  C   UNL A   1      47.215  27.599  25.238  1.00  0.00     0.031 A 
ATOM     81  C   UNL A   1      47.905  26.242  27.106  1.00  0.00     0.131 A 
ATOM     82  C   UNL A   1      48.258  27.036  24.485  1.00  0.00     0.055 A 
ATOM     83  C   UNL A   1      48.969  25.721  26.368  1.00  0.00     0.041 A 
ATOM     84  F   UNL A   1      47.742  25.803  28.365  1.00  0.00    -0.206 F 
ATOM     85  C   UNL A   1      49.144  26.111  25.045  1.00  0.00     0.022 A 
BRANCH  82  86
ATOM     86  S   UNL A   1      48.385  27.455  22.724  1.00  0.00     0.124 S 
ATOM     87  O   UNL A   1      48.405  26.133  22.108  1.00  0.00    -0.237 OA
ATOM     88  O   UNL A   1      47.176  28.244  22.512  1.00  0.00    -0.237 OA
ATOM     89  O   UNL A   1      49.637  28.204  22.642  1.00  0.00    -0.744 OA
ENDBRANCH  82  86
ENDBRANCH  55  79
BRANCH  67  90
ATOM     90  C   UNL A   1      45.219  33.182  29.480  1.00  0.00     0.023 A 
ATOM     91  C   UNL A   1      46.026  33.434  30.604  1.00  0.00     0.031 A 
ATOM     92  C   UNL A   1      45.064  34.206  28.531  1.00  0.00     0.131 A 
ATOM     93  C   UNL A   1      46.596  34.701  30.784  1.00  0.00     0.055 A 
ATOM     94  C   UNL A   1      45.684  35.446  28.685  1.00  0.00     0.041 A 
ATOM     95  F   UNL A   1      44.293  34.023  27.447  1.00  0.00    -0.206 F 
ATOM     96  C   UNL A   1      46.444  35.705  29.823  1.00  0.00     0.022 A 
BRANCH  93  97
ATOM     97  S   UNL A   1      47.460  35.056  32.339  1.00  0.00     0.124 S 
ATOM     98  O   UNL A   1      47.070  33.918  33.166  1.00  0.00    -0.237 OA
ATOM     99  O   UNL A   1      48.858  35.091  31.921  1.00  0.00    -0.237 OA
ATOM    100  O   UNL A   1      46.906  36.343  32.753  1.00  0.00    -0.744 OA
ENDBRANCH  93  97
ENDBRANCH  67  90
ENDBRANCH  41  42
ENDBRANCH  34  36
ENDBRANCH  33  34
ENDBRANCH  32  33
ENDBRANCH  31  32
ENDBRANCH  30  31
ENDBRANCH   1  30
TORSDOF 23
ENDMDL
MODEL 2
REMARK VINA RESULT:      -9.7      5.436      8.876
REMARK SMILES COc1ccc(-c2nc3ccc(C)cc3[nH]2)c(C(=O)OCCOCCOCCOC(=O)c2ccc(-c3c4nc(c(-c5cc(S(=O)(=O)[O-])ccc5F)c5ccc([nH]5)c(-c5cc(S(=O)(=O)[O-])ccc5F)c5nc(c(-c6cc(S(=O)(=O)[O-])ccc6F)c6ccc3[nH]6)C=C5)C=C4)cc2)c1OC
REMARK SMILES IDX 25 1 24 2 23 3 22 4 21 5 20 6 18 7 19 8 17 9 3 10 4 11 95 12
REMARK SMILES IDX 5 13 6 14 2 15 1 16 96 17 97 18 7 19 8 20 16 21 9 22 15 23
REMARK SMILES IDX 10 25 14 26 11 27 12 28 13 29 26 30 27 31 28 32 29 33 30 34
REMARK SMILES IDX 31 35 32 36 33 37 94 38 34 39 93 40 35 41 36 42 37 43 87 44
REMARK SMILES IDX 38 45 92 46 86 47 88 48 39 49 91 50 85 51 84 52 40 54 72 55
REMARK SMILES IDX 52 56 71 57 53 58 56 59 70 60 89 61 54 62 55 63 69 65 90 66
REMARK SMILES IDX 57 67 41 68 42 69 50 70 43 71 49 72 51 73 48 74 44 75 45 76
REMARK SMILES IDX 46 77 47 78 73 79 74 80 82 81 75 82 81 83 83 84 80 85 76 86
REMARK SMILES IDX 77 87 78 88 79 89 58 90 59 91 67 92 60 93 66 94 68 95 65 96
REMARK SMILES IDX 61 97 62 98 63 99 64 100
REMARK H PARENT 16 24 88 53 56 64
REMARK Flexibility Score: inf
ROOT
ATOM      1  C   UNL A   1      35.076  32.074  28.112  1.00  0.00     0.188 C 
ENDROOT
BRANCH   1   2
ATOM      2  C   UNL A   1      34.649  30.608  27.965  1.00  0.00     0.188 C 
BRANCH   2   3
ATOM      3  O   UNL A   1      33.840  30.346  26.818  1.00  0.00    -0.376 OA
BRANCH   3   4
ATOM      4  C   UNL A   1      34.042  29.032  26.295  1.00  0.00     0.202 C 
BRANCH   4   5
ATOM      5  C   UNL A   1      33.888  29.044  24.775  1.00  0.00     0.261 C 
BRANCH   5   6
ATOM      6  O   UNL A   1      34.094  27.739  24.205  1.00  0.00    -0.460 OA
BRANCH   6   7
ATOM      7  C   UNL A   1      33.189  27.293  23.305  1.00  0.00     0.342 C 
ATOM      8  O   UNL A   1      33.218  27.462  22.096  1.00  0.00    -0.246 OA
BRANCH   7   9
ATOM      9  C   UNL A   1      32.163  26.483  24.008  1.00  0.00     0.116 A 
ATOM     10  C   UNL A   1      31.435  24.407  25.022  1.00  0.00     0.161 A 
ATOM     11  C   UNL A   1      30.195  24.981  25.311  1.00  0.00     0.051 A 
ATOM     12  C   UNL A   1      32.427  25.145  24.358  1.00  0.00     0.176 A 
ATOM     13  C   UNL A   1      29.929  26.304  24.954  1.00  0.00     0.017 A 
ATOM     14  C   UNL A   1      30.901  27.060  24.288  1.00  0.00     0.036 A 
BRANCH  10  15
ATOM     15  O   UNL A   1      31.570  23.082  25.341  1.00  0.00    -0.493 OA
ATOM     16  C   UNL A   1      31.837  22.881  26.726  1.00  0.00     0.278 C 
ENDBRANCH  10  15
BRANCH  12  17
ATOM     17  O   UNL A   1      33.672  24.623  24.114  1.00  0.00    -0.492 OA
ATOM     18  C   UNL A   1      34.534  24.645  25.256  1.00  0.00     0.278 C 
ENDBRANCH  12  17
BRANCH  14  19
ATOM     19  C   UNL A   1      30.518  28.326  23.674  1.00  0.00     0.139 A 
ATOM     20  N   UNL A   1      30.401  29.440  24.362  1.00  0.00    -0.228 NA
ATOM     21  N   UNL A   1      30.114  28.520  22.374  1.00  0.00    -0.338 N 
ATOM     22  C   UNL A   1      29.685  30.291  23.574  1.00  0.00     0.089 A 
ATOM     23  C   UNL A   1      29.511  29.758  22.306  1.00  0.00     0.066 A 
ATOM     24  H   UNL A   1      30.233  27.890  21.627  1.00  0.00     0.168 HD
ATOM     25  C   UNL A   1      29.147  31.544  23.894  1.00  0.00     0.031 A 
ATOM     26  C   UNL A   1      28.847  30.443  21.285  1.00  0.00     0.031 A 
ATOM     27  C   UNL A   1      28.471  32.248  22.897  1.00  0.00     0.006 A 
ATOM     28  C   UNL A   1      28.340  31.720  21.603  1.00  0.00    -0.049 A 
ATOM     29  C   UNL A   1      27.710  32.578  20.544  1.00  0.00     0.044 C 
ENDBRANCH  14  19
ENDBRANCH   7   9
ENDBRANCH   6   7
ENDBRANCH   5   6
ENDBRANCH   4   5
ENDBRANCH   3   4
ENDBRANCH   2   3
ENDBRANCH   1   2
BRANCH   1  30
ATOM     30  O   UNL A   1      34.543  32.863  29.173  1.00  0.00    -0.376 OA
BRANCH  30  31
ATOM     31  C   UNL A   1      35.279  32.934  30.383  1.00  0.00     0.202 C 
BRANCH  31  32
ATOM     32  C   UNL A   1      36.756  32.529  30.315  1.00  0.00     0.261 C 
BRANCH  32  33
ATOM     33  O   UNL A   1      37.306  32.013  31.543  1.00  0.00    -0.460 OA
BRANCH  33  34
ATOM     34  C   UNL A   1      37.156  30.677  31.730  1.00  0.00     0.338 C 
ATOM     35  O   UNL A   1      36.133  30.030  31.579  1.00  0.00    -0.246 OA
BRANCH  34  36
ATOM     36  C   UNL A   1      38.447  30.045  32.089  1.00  0.00     0.060 A 
ATOM     37  C   UNL A   1      39.624  30.785  31.929  1.00  0.00     0.016 A 
ATOM     38  C   UNL A   1      38.520  28.697  32.449  1.00  0.00     0.016 A 
ATOM     39  C   UNL A   1      40.874  30.177  32.103  1.00  0.00     0.010 A 
ATOM     40  C   UNL A   1      39.776  28.087  32.611  1.00  0.00     0.010 A 
ATOM     41  C   UNL A   1      40.967  28.813  32.416  1.00  0.00    -0.014 A 
BRANCH  41  42
ATOM     42  C   UNL A   1      42.293  28.125  32.459  1.00  0.00     0.031 A 
ATOM     43  C   UNL A   1      43.063  28.057  33.748  1.00  0.00     0.074 A 
ATOM     44  C   UNL A   1      42.833  27.559  31.362  1.00  0.00     0.049 A 
ATOM     45  N   UNL A   1      44.276  27.613  33.959  1.00  0.00    -0.248 NA
ATOM     46  C   UNL A   1      42.379  28.544  34.953  1.00  0.00     0.031 C 
ATOM     47  C   UNL A   1      42.184  27.491  30.062  1.00  0.00     0.029 A 
ATOM     48  N   UNL A   1      44.051  26.954  31.153  1.00  0.00    -0.354 N 
ATOM     49  C   UNL A   1      44.510  27.772  35.317  1.00  0.00     0.074 A 
ATOM     50  C   UNL A   1      43.315  28.371  35.878  1.00  0.00     0.031 C 
ATOM     51  C   UNL A   1      43.021  26.926  29.178  1.00  0.00     0.029 A 
ATOM     52  C   UNL A   1      44.280  26.622  29.836  1.00  0.00     0.049 A 
ATOM     53  H   UNL A   1      44.697  26.776  31.875  1.00  0.00     0.167 HD
ATOM     54  C   UNL A   1      45.619  27.449  36.027  1.00  0.00     0.034 A 
ATOM     55  C   UNL A   1      45.382  26.172  29.205  1.00  0.00     0.034 A 
ATOM     56  C   UNL A   1      46.807  26.848  35.469  1.00  0.00     0.049 A 
ATOM     57  C   UNL A   1      46.634  25.931  29.995  1.00  0.00     0.074 A 
ATOM     58  C   UNL A   1      47.943  26.417  36.134  1.00  0.00     0.029 A 
ATOM     59  N   UNL A   1      47.030  26.613  34.120  1.00  0.00    -0.354 N 
ATOM     60  N   UNL A   1      46.838  26.094  31.279  1.00  0.00    -0.248 NA
ATOM     61  C   UNL A   1      47.805  25.453  29.248  1.00  0.00     0.031 C 
ATOM     62  C   UNL A   1      48.882  25.999  35.183  1.00  0.00     0.029 A 
ATOM     63  C   UNL A   1      48.306  26.098  33.930  1.00  0.00     0.049 A 
ATOM     64  H   UNL A   1      46.379  26.787  33.402  1.00  0.00     0.167 HD
ATOM     65  C   UNL A   1      48.163  25.739  31.491  1.00  0.00     0.074 A 
ATOM     66  C   UNL A   1      48.702  25.327  30.213  1.00  0.00     0.031 C 
ATOM     67  C   UNL A   1      48.868  25.751  32.649  1.00  0.00     0.034 A 
BRANCH  54  68
ATOM     68  C   UNL A   1      45.629  27.789  37.493  1.00  0.00     0.023 A 
ATOM     69  C   UNL A   1      45.985  29.066  37.958  1.00  0.00     0.031 A 
ATOM     70  C   UNL A   1      45.242  26.819  38.434  1.00  0.00     0.131 A 
ATOM     71  C   UNL A   1      45.977  29.328  39.336  1.00  0.00     0.055 A 
ATOM     72  C   UNL A   1      45.179  27.105  39.797  1.00  0.00     0.041 A 
ATOM     73  F   UNL A   1      44.912  25.580  38.040  1.00  0.00    -0.206 F 
ATOM     74  C   UNL A   1      45.555  28.364  40.256  1.00  0.00     0.022 A 
BRANCH  71  75
ATOM     75  S   UNL A   1      46.602  30.927  39.923  1.00  0.00     0.124 S 
ATOM     76  O   UNL A   1      46.577  30.740  41.371  1.00  0.00    -0.237 OA
ATOM     77  O   UNL A   1      47.924  30.992  39.310  1.00  0.00    -0.237 OA
ATOM     78  O   UNL A   1      45.628  31.885  39.406  1.00  0.00    -0.744 OA
ENDBRANCH  71  75
ENDBRANCH  54  68
BRANCH  55  79
ATOM     79  C   UNL A   1      45.426  26.038  27.722  1.00  0.00     0.023 A 
ATOM     80  C   UNL A   1      45.190  24.810  27.087  1.00  0.00     0.031 A 
ATOM     81  C   UNL A   1      45.858  27.121  26.938  1.00  0.00     0.131 A 
ATOM     82  C   UNL A   1      45.435  24.684  25.710  1.00  0.00     0.055 A 
ATOM     83  C   UNL A   1      46.054  27.002  25.561  1.00  0.00     0.041 A 
ATOM     84  F   UNL A   1      46.111  28.311  27.506  1.00  0.00    -0.206 F 
ATOM     85  C   UNL A   1      45.851  25.775  24.941  1.00  0.00     0.022 A 
BRANCH  82  86
ATOM     86  S   UNL A   1      45.297  23.044  24.947  1.00  0.00     0.124 S 
ATOM     87  O   UNL A   1      46.699  22.671  24.795  1.00  0.00    -0.237 OA
ATOM     88  O   UNL A   1      44.542  22.304  25.954  1.00  0.00    -0.237 OA
ATOM     89  O   UNL A   1      44.578  23.306  23.703  1.00  0.00    -0.744 OA
ENDBRANCH  82  86
ENDBRANCH  55  79
BRANCH  67  90
ATOM     90  C   UNL A   1      50.302  25.303  32.562  1.00  0.00     0.023 A 
ATOM     91  C   UNL A   1      50.651  23.947  32.689  1.00  0.00     0.031 A 
ATOM     92  C   UNL A   1      51.335  26.245  32.426  1.00  0.00     0.131 A 
ATOM     93  C   UNL A   1      52.001  23.576  32.741  1.00  0.00     0.055 A 
ATOM     94  C   UNL A   1      52.676  25.863  32.416  1.00  0.00     0.041 A 
ATOM     95  F   UNL A   1      51.057  27.554  32.316  1.00  0.00    -0.206 F 
ATOM     96  C   UNL A   1      53.017  24.523  32.589  1.00  0.00     0.022 A 
BRANCH  93  97
ATOM     97  S   UNL A   1      52.418  21.849  33.108  1.00  0.00     0.124 S 
ATOM     98  O   UNL A   1      53.155  21.978  34.361  1.00  0.00    -0.237 OA
ATOM     99  O   UNL A   1      51.104  21.222  33.203  1.00  0.00    -0.237 OA
ATOM    100  O   UNL A   1      53.218  21.437  31.957  1.00  0.00    -0.744 OA
ENDBRANCH  93  97
ENDBRANCH  67  90
ENDBRANCH  41  42
ENDBRANCH  34  36
ENDBRANCH  33  34
ENDBRANCH  32  33
ENDBRANCH  31  32
ENDBRANCH  30  31
ENDBRANCH   1  30
TORSDOF 23
ENDMDL
MODEL 3
REMARK VINA RESULT:      -9.6      5.689      9.436
REMARK SMILES COc1ccc(-c2nc3ccc(C)cc3[nH]2)c(C(=O)OCCOCCOCCOC(=O)c2ccc(-c3c4nc(c(-c5cc(S(=O)(=O)[O-])ccc5F)c5ccc([nH]5)c(-c5cc(S(=O)(=O)[O-])ccc5F)c5nc(c(-c6cc(S(=O)(=O)[O-])ccc6F)c6ccc3[nH]6)C=C5)C=C4)cc2)c1OC
REMARK SMILES IDX 25 1 24 2 23 3 22 4 21 5 20 6 18 7 19 8 17 9 3 10 4 11 95 12
REMARK SMILES IDX 5 13 6 14 2 15 1 16 96 17 97 18 7 19 8 20 16 21 9 22 15 23
REMARK SMILES IDX 10 25 14 26 11 27 12 28 13 29 26 30 27 31 28 32 29 33 30 34
REMARK SMILES IDX 31 35 32 36 33 37 94 38 34 39 93 40 35 41 36 42 37 43 87 44
REMARK SMILES IDX 38 45 92 46 86 47 88 48 39 49 91 50 85 51 84 52 40 54 72 55
REMARK SMILES IDX 52 56 71 57 53 58 56 59 70 60 89 61 54 62 55 63 69 65 90 66
REMARK SMILES IDX 57 67 41 68 42 69 50 70 43 71 49 72 51 73 48 74 44 75 45 76
REMARK SMILES IDX 46 77 47 78 73 79 74 80 82 81 75 82 81 83 83 84 80 85 76 86
REMARK SMILES IDX 77 87 78 88 79 89 58 90 59 91 67 92 60 93 66 94 68 95 65 96
REMARK SMILES IDX 61 97 62 98 63 99 64 100
REMARK H PARENT 16 24 88 53 56 64
REMARK Flexibility Score: inf
ROOT
ATOM      1  C   UNL A   1      45.304  19.327  25.283  1.00  0.00     0.188 C 
ENDROOT
BRANCH   1   2
ATOM      2  C   UNL A   1      43.949  18.612  25.369  1.00  0.00     0.188 C 
BRANCH   2   3
ATOM      3  O   UNL A   1      42.822  19.471  25.191  1.00  0.00    -0.376 OA
BRANCH   3   4
ATOM      4  C   UNL A   1      41.834  19.295  26.207  1.00  0.00     0.202 C 
BRANCH   4   5
ATOM      5  C   UNL A   1      41.963  20.395  27.259  1.00  0.00     0.261 C 
BRANCH   5   6
ATOM      6  O   UNL A   1      40.943  21.400  27.112  1.00  0.00    -0.460 OA
BRANCH   6   7
ATOM      7  C   UNL A   1      41.185  22.426  26.266  1.00  0.00     0.342 C 
ATOM      8  O   UNL A   1      41.672  22.349  25.148  1.00  0.00    -0.246 OA
BRANCH   7   9
ATOM      9  C   UNL A   1      40.694  23.687  26.876  1.00  0.00     0.116 A 
ATOM     10  C   UNL A   1      41.011  25.599  28.329  1.00  0.00     0.161 A 
ATOM     11  C   UNL A   1      39.723  26.045  28.025  1.00  0.00     0.051 A 
ATOM     12  C   UNL A   1      41.506  24.411  27.769  1.00  0.00     0.176 A 
ATOM     13  C   UNL A   1      38.913  25.321  27.148  1.00  0.00     0.017 A 
ATOM     14  C   UNL A   1      39.383  24.131  26.579  1.00  0.00     0.036 A 
BRANCH  10  15
ATOM     15  O   UNL A   1      41.697  26.335  29.258  1.00  0.00    -0.493 OA
ATOM     16  C   UNL A   1      41.042  27.561  29.571  1.00  0.00     0.278 C 
ENDBRANCH  10  15
BRANCH  12  17
ATOM     17  O   UNL A   1      42.788  23.982  28.006  1.00  0.00    -0.492 OA
ATOM     18  C   UNL A   1      43.009  23.565  29.356  1.00  0.00     0.278 C 
ENDBRANCH  12  17
BRANCH  14  19
ATOM     19  C   UNL A   1      38.441  23.247  25.903  1.00  0.00     0.139 A 
ATOM     20  N   UNL A   1      37.382  23.695  25.265  1.00  0.00    -0.228 NA
ATOM     21  N   UNL A   1      38.436  21.872  25.934  1.00  0.00    -0.338 N 
ATOM     22  C   UNL A   1      36.563  22.618  25.100  1.00  0.00     0.089 A 
ATOM     23  C   UNL A   1      37.204  21.449  25.484  1.00  0.00     0.066 A 
ATOM     24  H   UNL A   1      39.178  21.294  26.226  1.00  0.00     0.168 HD
ATOM     25  C   UNL A   1      35.246  22.578  24.628  1.00  0.00     0.031 A 
ATOM     26  C   UNL A   1      36.605  20.192  25.377  1.00  0.00     0.031 A 
ATOM     27  C   UNL A   1      34.618  21.338  24.520  1.00  0.00     0.006 A 
ATOM     28  C   UNL A   1      35.292  20.156  24.865  1.00  0.00    -0.049 A 
ATOM     29  C   UNL A   1      34.606  18.844  24.610  1.00  0.00     0.044 C 
ENDBRANCH  14  19
ENDBRANCH   7   9
ENDBRANCH   6   7
ENDBRANCH   5   6
ENDBRANCH   4   5
ENDBRANCH   3   4
ENDBRANCH   2   3
ENDBRANCH   1   2
BRANCH   1  30
ATOM     30  O   UNL A   1      45.454  20.457  24.429  1.00  0.00    -0.376 OA
BRANCH  30  31
ATOM     31  C   UNL A   1      45.558  21.736  25.031  1.00  0.00     0.202 C 
BRANCH  31  32
ATOM     32  C   UNL A   1      45.091  22.931  24.192  1.00  0.00     0.261 C 
BRANCH  32  33
ATOM     33  O   UNL A   1      44.843  24.141  24.935  1.00  0.00    -0.460 OA
BRANCH  33  34
ATOM     34  C   UNL A   1      45.907  24.976  25.057  1.00  0.00     0.338 C 
ATOM     35  O   UNL A   1      46.985  24.867  24.497  1.00  0.00    -0.246 OA
BRANCH  34  36
ATOM     36  C   UNL A   1      45.580  26.126  25.931  1.00  0.00     0.060 A 
ATOM     37  C   UNL A   1      46.586  26.654  26.750  1.00  0.00     0.016 A 
ATOM     38  C   UNL A   1      44.271  26.596  26.053  1.00  0.00     0.016 A 
ATOM     39  C   UNL A   1      46.282  27.632  27.705  1.00  0.00     0.010 A 
ATOM     40  C   UNL A   1      43.968  27.569  27.021  1.00  0.00     0.010 A 
ATOM     41  C   UNL A   1      44.965  28.080  27.875  1.00  0.00    -0.014 A 
BRANCH  41  42
ATOM     42  C   UNL A   1      44.609  29.013  28.987  1.00  0.00     0.031 A 
ATOM     43  C   UNL A   1      44.285  28.471  30.350  1.00  0.00     0.074 A 
ATOM     44  C   UNL A   1      44.564  30.347  28.803  1.00  0.00     0.049 A 
ATOM     45  N   UNL A   1      43.839  29.106  31.404  1.00  0.00    -0.248 NA
ATOM     46  C   UNL A   1      44.495  27.031  30.555  1.00  0.00     0.031 C 
ATOM     47  C   UNL A   1      44.909  31.024  27.563  1.00  0.00     0.029 A 
ATOM     48  N   UNL A   1      44.191  31.372  29.644  1.00  0.00    -0.354 N 
ATOM     49  C   UNL A   1      43.705  28.148  32.398  1.00  0.00     0.074 A 
ATOM     50  C   UNL A   1      44.104  26.882  31.814  1.00  0.00     0.031 C 
ATOM     51  C   UNL A   1      44.689  32.341  27.700  1.00  0.00     0.029 A 
ATOM     52  C   UNL A   1      44.153  32.602  29.026  1.00  0.00     0.049 A 
ATOM     53  H   UNL A   1      43.973  31.238  30.595  1.00  0.00     0.167 HD
ATOM     54  C   UNL A   1      43.289  28.312  33.679  1.00  0.00     0.034 A 
ATOM     55  C   UNL A   1      43.699  33.800  29.443  1.00  0.00     0.034 A 
ATOM     56  C   UNL A   1      42.898  29.573  34.261  1.00  0.00     0.049 A 
ATOM     57  C   UNL A   1      43.135  33.929  30.827  1.00  0.00     0.074 A 
ATOM     58  C   UNL A   1      42.540  29.837  35.574  1.00  0.00     0.029 A 
ATOM     59  N   UNL A   1      42.789  30.774  33.576  1.00  0.00    -0.354 N 
ATOM     60  N   UNL A   1      43.012  33.010  31.752  1.00  0.00    -0.248 NA
ATOM     61  C   UNL A   1      42.645  35.258  31.218  1.00  0.00     0.031 C 
ATOM     62  C   UNL A   1      42.135  31.174  35.663  1.00  0.00     0.029 A 
ATOM     63  C   UNL A   1      42.313  31.766  34.425  1.00  0.00     0.049 A 
ATOM     64  H   UNL A   1      43.014  30.905  32.627  1.00  0.00     0.167 HD
ATOM     65  C   UNL A   1      42.425  33.651  32.835  1.00  0.00     0.074 A 
ATOM     66  C   UNL A   1      42.247  35.038  32.462  1.00  0.00     0.031 C 
ATOM     67  C   UNL A   1      42.071  33.132  34.036  1.00  0.00     0.034 A 
BRANCH  54  68
ATOM     68  C   UNL A   1      43.178  27.080  34.536  1.00  0.00     0.023 A 
ATOM     69  C   UNL A   1      44.303  26.475  35.120  1.00  0.00     0.031 A 
ATOM     70  C   UNL A   1      41.912  26.526  34.795  1.00  0.00     0.131 A 
ATOM     71  C   UNL A   1      44.141  25.328  35.911  1.00  0.00     0.055 A 
ATOM     72  C   UNL A   1      41.753  25.421  35.630  1.00  0.00     0.041 A 
ATOM     73  F   UNL A   1      40.810  27.057  34.244  1.00  0.00    -0.206 F 
ATOM     74  C   UNL A   1      42.872  24.810  36.188  1.00  0.00     0.022 A 
BRANCH  71  75
ATOM     75  S   UNL A   1      45.620  24.468  36.512  1.00  0.00     0.124 S 
ATOM     76  O   UNL A   1      45.216  23.069  36.397  1.00  0.00    -0.237 OA
ATOM     77  O   UNL A   1      46.647  24.914  35.578  1.00  0.00    -0.237 OA
ATOM     78  O   UNL A   1      45.768  24.957  37.881  1.00  0.00    -0.744 OA
ENDBRANCH  71  75
ENDBRANCH  54  68
BRANCH  55  79
ATOM     79  C   UNL A   1      43.618  34.964  28.518  1.00  0.00     0.023 A 
ATOM     80  C   UNL A   1      44.740  35.757  28.233  1.00  0.00     0.031 A 
ATOM     81  C   UNL A   1      42.368  35.378  28.028  1.00  0.00     0.131 A 
ATOM     82  C   UNL A   1      44.578  36.954  27.516  1.00  0.00     0.055 A 
ATOM     83  C   UNL A   1      42.221  36.545  27.276  1.00  0.00     0.041 A 
ATOM     84  F   UNL A   1      41.265  34.658  28.289  1.00  0.00    -0.206 F 
ATOM     85  C   UNL A   1      43.329  37.346  27.024  1.00  0.00     0.022 A 
BRANCH  82  86
ATOM     86  S   UNL A   1      46.009  38.051  27.318  1.00  0.00     0.124 S 
ATOM     87  O   UNL A   1      45.486  39.056  26.401  1.00  0.00    -0.237 OA
ATOM     88  O   UNL A   1      46.245  38.493  28.689  1.00  0.00    -0.237 OA
ATOM     89  O   UNL A   1      47.038  37.172  26.766  1.00  0.00    -0.744 OA
ENDBRANCH  82  86
ENDBRANCH  55  79
BRANCH  67  90
ATOM     90  C   UNL A   1      41.452  34.088  35.020  1.00  0.00     0.023 A 
ATOM     91  C   UNL A   1      42.246  34.837  35.906  1.00  0.00     0.031 A 
ATOM     92  C   UNL A   1      40.056  34.197  35.124  1.00  0.00     0.131 A 
ATOM     93  C   UNL A   1      41.638  35.614  36.901  1.00  0.00     0.055 A 
ATOM     94  C   UNL A   1      39.456  35.020  36.077  1.00  0.00     0.041 A 
ATOM     95  F   UNL A   1      39.252  33.492  34.312  1.00  0.00    -0.206 F 
ATOM     96  C   UNL A   1      40.247  35.724  36.982  1.00  0.00     0.022 A 
BRANCH  93  97
ATOM     97  S   UNL A   1      42.685  36.405  38.152  1.00  0.00     0.124 S 
ATOM     98  O   UNL A   1      43.037  35.276  39.007  1.00  0.00    -0.237 OA
ATOM     99  O   UNL A   1      43.770  36.959  37.349  1.00  0.00    -0.237 OA
ATOM    100  O   UNL A   1      41.801  37.395  38.764  1.00  0.00    -0.744 OA
ENDBRANCH  93  97
ENDBRANCH  67  90
ENDBRANCH  41  42
ENDBRANCH  34  36
ENDBRANCH  33  34
ENDBRANCH  32  33
ENDBRANCH  31  32
ENDBRANCH  30  31
ENDBRANCH   1  30
TORSDOF 23
ENDMDL
