MODEL 1
REMARK VINA RESULT:     -10.9      0.000      0.000
REMARK SMILES CC(C)(C)OC(=O)N[C@@H](Cc1c[nH]c2cccc(Cl)c12)C(=O)OCCOCCOCCOC(=O)c1ccc(-c2c3nc(c(-c4cc(S(=O)(=O)[O-])ccc4F)c4ccc([nH]4)c(-c4cc(S(=O)(=O)[O-])ccc4F)c4nc(c(-c5cc(S(=O)(=O)[O-])ccc5F)c5ccc2[nH]5)C=C4)C=C3)cc1
REMARK SMILES IDX 27 1 26 2 25 3 24 4 23 5 21 6 22 7 9 8 8 9 6 10 7 11 5 13
REMARK SMILES IDX 2 14 1 15 3 16 4 17 10 18 11 19 12 20 20 21 13 22 14 23
REMARK SMILES IDX 18 24 15 26 17 27 19 28 16 29 28 30 29 31 30 32 31 33 32 34
REMARK SMILES IDX 33 35 34 36 35 37 36 38 97 39 37 40 96 41 38 42 39 43 40 44
REMARK SMILES IDX 90 45 41 46 95 47 89 48 91 49 42 50 94 51 88 52 87 53 43 55
REMARK SMILES IDX 75 56 55 57 74 58 56 59 59 60 73 61 92 62 57 63 58 64 72 66
REMARK SMILES IDX 93 67 60 68 44 69 45 70 53 71 46 72 52 73 54 74 51 75 47 76
REMARK SMILES IDX 48 77 49 78 50 79 76 80 77 81 85 82 78 83 84 84 86 85 83 86
REMARK SMILES IDX 79 87 80 88 81 89 82 90 61 91 62 92 70 93 63 94 69 95 71 96
REMARK SMILES IDX 68 97 64 98 65 99 66 100 67 101
REMARK H PARENT 8 12 13 25 91 54 59 65
REMARK Flexibility Score: inf
ROOT
ATOM      1  C   UNL A   1      33.761  30.090  26.840  1.00  0.00     0.188 C 
ENDROOT
BRANCH   1   2
ATOM      2  O   UNL A   1      33.474  28.841  27.437  1.00  0.00    -0.376 OA
BRANCH   2   3
ATOM      3  C   UNL A   1      33.457  27.676  26.632  1.00  0.00     0.202 C 
BRANCH   3   4
ATOM      4  C   UNL A   1      32.229  26.748  26.566  1.00  0.00     0.261 C 
BRANCH   4   5
ATOM      5  O   UNL A   1      32.452  25.338  26.360  1.00  0.00    -0.462 OA
BRANCH   5   6
ATOM      6  C   UNL A   1      31.989  24.790  25.205  1.00  0.00     0.329 C 
ATOM      7  O   UNL A   1      31.304  23.772  25.158  1.00  0.00    -0.250 OA
BRANCH   6   8
ATOM      8  C   UNL A   1      32.526  25.472  23.927  1.00  0.00     0.200 C 
BRANCH   8   9
ATOM      9  N   UNL A   1      33.555  24.786  23.125  1.00  0.00    -0.308 N 
ATOM     10  C   UNL A   1      34.305  23.679  23.435  1.00  0.00     0.408 C 
ATOM     11  O   UNL A   1      35.198  23.311  22.689  1.00  0.00    -0.225 OA
ATOM     12  H   UNL A   1      33.731  25.179  22.240  1.00  0.00     0.168 HD
BRANCH  10  13
ATOM     13  O   UNL A   1      33.940  23.062  24.590  1.00  0.00    -0.444 OA
BRANCH  13  14
ATOM     14  C   UNL A   1      34.949  22.501  25.492  1.00  0.00     0.106 C 
ATOM     15  C   UNL A   1      34.383  22.701  26.910  1.00  0.00     0.056 C 
ATOM     16  C   UNL A   1      36.280  23.249  25.384  1.00  0.00     0.056 C 
ATOM     17  C   UNL A   1      35.158  20.995  25.300  1.00  0.00     0.056 C 
ENDBRANCH  13  14
ENDBRANCH  10  13
ENDBRANCH   8   9
BRANCH   8  18
ATOM     18  C   UNL A   1      31.297  25.811  23.044  1.00  0.00     0.075 C 
BRANCH  18  19
ATOM     19  C   UNL A   1      31.078  27.297  22.847  1.00  0.00    -0.018 A 
ATOM     20  C   UNL A   1      32.083  28.180  22.489  1.00  0.00     0.087 A 
ATOM     21  C   UNL A   1      29.849  28.062  22.878  1.00  0.00     0.021 A 
ATOM     22  N   UNL A   1      31.520  29.386  22.193  1.00  0.00    -0.361 N 
ATOM     23  C   UNL A   1      30.155  29.320  22.338  1.00  0.00     0.047 A 
ATOM     24  C   UNL A   1      28.492  27.853  23.220  1.00  0.00     0.050 A 
ATOM     25  H   UNL A   1      32.019  30.188  21.915  1.00  0.00     0.166 HD
ATOM     26  C   UNL A   1      29.183  30.284  22.028  1.00  0.00     0.027 A 
ATOM     27  C   UNL A   1      27.497  28.780  22.892  1.00  0.00     0.021 A 
ATOM     28  Cl  UNL A   1      28.087  26.455  24.114  1.00  0.00    -0.084 Cl
ATOM     29  C   UNL A   1      27.843  29.975  22.276  1.00  0.00     0.004 A 
ENDBRANCH  18  19
ENDBRANCH   8  18
ENDBRANCH   6   8
ENDBRANCH   5   6
ENDBRANCH   4   5
ENDBRANCH   3   4
ENDBRANCH   2   3
ENDBRANCH   1   2
BRANCH   1  30
ATOM     30  C   UNL A   1      33.015  31.357  27.306  1.00  0.00     0.188 C 
BRANCH  30  31
ATOM     31  O   UNL A   1      33.698  32.590  27.229  1.00  0.00    -0.376 OA
BRANCH  31  32
ATOM     32  C   UNL A   1      33.921  33.442  28.340  1.00  0.00     0.202 C 
BRANCH  32  33
ATOM     33  C   UNL A   1      34.492  33.000  29.689  1.00  0.00     0.261 C 
BRANCH  33  34
ATOM     34  O   UNL A   1      34.925  31.663  29.756  1.00  0.00    -0.460 OA
BRANCH  34  35
ATOM     35  C   UNL A   1      36.106  31.564  30.390  1.00  0.00     0.338 C 
ATOM     36  O   UNL A   1      36.316  31.596  31.590  1.00  0.00    -0.246 OA
BRANCH  35  37
ATOM     37  C   UNL A   1      37.145  31.363  29.389  1.00  0.00     0.060 A 
ATOM     38  C   UNL A   1      37.124  30.111  28.773  1.00  0.00     0.016 A 
ATOM     39  C   UNL A   1      38.305  32.093  29.625  1.00  0.00     0.016 A 
ATOM     40  C   UNL A   1      38.299  29.419  28.722  1.00  0.00     0.010 A 
ATOM     41  C   UNL A   1      39.466  31.379  29.640  1.00  0.00     0.010 A 
ATOM     42  C   UNL A   1      39.419  30.029  29.284  1.00  0.00    -0.014 A 
BRANCH  42  43
ATOM     43  C   UNL A   1      40.620  29.244  29.393  1.00  0.00     0.031 A 
ATOM     44  C   UNL A   1      40.905  28.937  30.807  1.00  0.00     0.074 A 
ATOM     45  C   UNL A   1      41.258  28.781  28.304  1.00  0.00     0.049 A 
ATOM     46  N   UNL A   1      41.810  29.467  31.561  1.00  0.00    -0.248 NA
ATOM     47  C   UNL A   1      39.868  28.187  31.542  1.00  0.00     0.031 C 
ATOM     48  C   UNL A   1      40.823  28.832  26.905  1.00  0.00     0.029 A 
ATOM     49  N   UNL A   1      42.391  28.044  28.238  1.00  0.00    -0.354 N 
ATOM     50  C   UNL A   1      41.595  28.890  32.807  1.00  0.00     0.074 A 
ATOM     51  C   UNL A   1      40.241  28.411  32.799  1.00  0.00     0.031 C 
ATOM     52  C   UNL A   1      41.542  27.938  26.187  1.00  0.00     0.029 A 
ATOM     53  C   UNL A   1      42.559  27.355  27.045  1.00  0.00     0.049 A 
ATOM     54  H   UNL A   1      43.042  28.000  28.975  1.00  0.00     0.167 HD
ATOM     55  C   UNL A   1      42.638  28.505  33.593  1.00  0.00     0.034 A 
ATOM     56  C   UNL A   1      43.400  26.305  26.859  1.00  0.00     0.034 A 
ATOM     57  C   UNL A   1      43.864  29.119  33.157  1.00  0.00     0.049 A 
ATOM     58  C   UNL A   1      44.354  26.291  27.999  1.00  0.00     0.074 A 
ATOM     59  C   UNL A   1      44.311  30.420  33.045  1.00  0.00     0.029 A 
ATOM     60  N   UNL A   1      44.689  28.354  32.368  1.00  0.00    -0.354 N 
ATOM     61  N   UNL A   1      45.277  27.192  28.188  1.00  0.00    -0.248 NA
ATOM     62  C   UNL A   1      43.976  25.527  29.180  1.00  0.00     0.031 C 
ATOM     63  C   UNL A   1      45.129  30.437  31.880  1.00  0.00     0.029 A 
ATOM     64  C   UNL A   1      45.195  29.140  31.366  1.00  0.00     0.049 A 
ATOM     65  H   UNL A   1      44.883  27.399  32.501  1.00  0.00     0.167 HD
ATOM     66  C   UNL A   1      45.267  27.418  29.557  1.00  0.00     0.074 A 
ATOM     67  C   UNL A   1      44.523  26.296  30.125  1.00  0.00     0.031 C 
ATOM     68  C   UNL A   1      45.592  28.643  30.064  1.00  0.00     0.034 A 
BRANCH  55  69
ATOM     69  C   UNL A   1      42.598  27.255  34.444  1.00  0.00     0.023 A 
ATOM     70  C   UNL A   1      43.311  26.080  34.132  1.00  0.00     0.031 A 
ATOM     71  C   UNL A   1      42.015  27.288  35.722  1.00  0.00     0.131 A 
ATOM     72  C   UNL A   1      43.405  25.003  35.018  1.00  0.00     0.055 A 
ATOM     73  C   UNL A   1      42.167  26.243  36.643  1.00  0.00     0.041 A 
ATOM     74  F   UNL A   1      41.331  28.365  36.139  1.00  0.00    -0.206 F 
ATOM     75  C   UNL A   1      42.862  25.090  36.292  1.00  0.00     0.022 A 
BRANCH  72  76
ATOM     76  S   UNL A   1      44.273  23.489  34.520  1.00  0.00     0.124 S 
ATOM     77  O   UNL A   1      44.394  22.778  35.787  1.00  0.00    -0.237 OA
ATOM     78  O   UNL A   1      43.336  22.918  33.557  1.00  0.00    -0.237 OA
ATOM     79  O   UNL A   1      45.523  23.980  33.947  1.00  0.00    -0.744 OA
ENDBRANCH  72  76
ENDBRANCH  55  69
BRANCH  56  80
ATOM     80  C   UNL A   1      43.132  25.072  26.078  1.00  0.00     0.023 A 
ATOM     81  C   UNL A   1      42.155  24.155  26.504  1.00  0.00     0.031 A 
ATOM     82  C   UNL A   1      44.057  24.625  25.114  1.00  0.00     0.131 A 
ATOM     83  C   UNL A   1      42.167  22.832  26.038  1.00  0.00     0.055 A 
ATOM     84  C   UNL A   1      44.060  23.309  24.640  1.00  0.00     0.041 A 
ATOM     85  F   UNL A   1      45.030  25.439  24.677  1.00  0.00    -0.206 F 
ATOM     86  C   UNL A   1      43.121  22.398  25.116  1.00  0.00     0.022 A 
BRANCH  83  87
ATOM     87  S   UNL A   1      40.973  21.633  26.691  1.00  0.00     0.124 S 
ATOM     88  O   UNL A   1      41.718  20.377  26.625  1.00  0.00    -0.237 OA
ATOM     89  O   UNL A   1      40.733  22.153  28.031  1.00  0.00    -0.237 OA
ATOM     90  O   UNL A   1      39.853  21.732  25.759  1.00  0.00    -0.744 OA
ENDBRANCH  83  87
ENDBRANCH  56  80
BRANCH  68  91
ATOM     91  C   UNL A   1      46.223  29.655  29.136  1.00  0.00     0.023 A 
ATOM     92  C   UNL A   1      45.361  30.579  28.528  1.00  0.00     0.031 A 
ATOM     93  C   UNL A   1      47.554  29.602  28.677  1.00  0.00     0.131 A 
ATOM     94  C   UNL A   1      45.812  31.378  27.473  1.00  0.00     0.055 A 
ATOM     95  C   UNL A   1      48.019  30.449  27.666  1.00  0.00     0.041 A 
ATOM     96  F   UNL A   1      48.414  28.682  29.130  1.00  0.00    -0.206 F 
ATOM     97  C   UNL A   1      47.142  31.332  27.046  1.00  0.00     0.022 A 
BRANCH  94  98
ATOM     98  S   UNL A   1      44.640  32.396  26.545  1.00  0.00     0.124 S 
ATOM     99  O   UNL A   1      44.034  33.208  27.597  1.00  0.00    -0.237 OA
ATOM    100  O   UNL A   1      45.519  33.115  25.625  1.00  0.00    -0.237 OA
ATOM    101  O   UNL A   1      43.748  31.426  25.915  1.00  0.00    -0.744 OA
ENDBRANCH  94  98
ENDBRANCH  68  91
ENDBRANCH  42  43
ENDBRANCH  35  37
ENDBRANCH  34  35
ENDBRANCH  33  34
ENDBRANCH  32  33
ENDBRANCH  31  32
ENDBRANCH  30  31
ENDBRANCH   1  30
TORSDOF 25
ENDMDL
MODEL 2
REMARK VINA RESULT:     -10.6      2.931      7.844
REMARK SMILES CC(C)(C)OC(=O)N[C@@H](Cc1c[nH]c2cccc(Cl)c12)C(=O)OCCOCCOCCOC(=O)c1ccc(-c2c3nc(c(-c4cc(S(=O)(=O)[O-])ccc4F)c4ccc([nH]4)c(-c4cc(S(=O)(=O)[O-])ccc4F)c4nc(c(-c5cc(S(=O)(=O)[O-])ccc5F)c5ccc2[nH]5)C=C4)C=C3)cc1
REMARK SMILES IDX 27 1 26 2 25 3 24 4 23 5 21 6 22 7 9 8 8 9 6 10 7 11 5 13
REMARK SMILES IDX 2 14 1 15 3 16 4 17 10 18 11 19 12 20 20 21 13 22 14 23
REMARK SMILES IDX 18 24 15 26 17 27 19 28 16 29 28 30 29 31 30 32 31 33 32 34
REMARK SMILES IDX 33 35 34 36 35 37 36 38 97 39 37 40 96 41 38 42 39 43 40 44
REMARK SMILES IDX 90 45 41 46 95 47 89 48 91 49 42 50 94 51 88 52 87 53 43 55
REMARK SMILES IDX 75 56 55 57 74 58 56 59 59 60 73 61 92 62 57 63 58 64 72 66
REMARK SMILES IDX 93 67 60 68 44 69 45 70 53 71 46 72 52 73 54 74 51 75 47 76
REMARK SMILES IDX 48 77 49 78 50 79 76 80 77 81 85 82 78 83 84 84 86 85 83 86
REMARK SMILES IDX 79 87 80 88 81 89 82 90 61 91 62 92 70 93 63 94 69 95 71 96
REMARK SMILES IDX 68 97 64 98 65 99 66 100 67 101
REMARK H PARENT 8 12 13 25 91 54 59 65
REMARK Flexibility Score: inf
ROOT
ATOM      1  C   UNL A   1      31.939  28.961  25.742  1.00  0.00     0.188 C 
ENDROOT
BRANCH   1   2
ATOM      2  O   UNL A   1      32.913  29.064  24.722  1.00  0.00    -0.376 OA
BRANCH   2   3
ATOM      3  C   UNL A   1      33.116  27.972  23.846  1.00  0.00     0.202 C 
BRANCH   3   4
ATOM      4  C   UNL A   1      33.130  26.515  24.348  1.00  0.00     0.261 C 
BRANCH   4   5
ATOM      5  O   UNL A   1      32.215  25.578  23.741  1.00  0.00    -0.462 OA
BRANCH   5   6
ATOM      6  C   UNL A   1      31.593  24.686  24.558  1.00  0.00     0.329 C 
ATOM      7  O   UNL A   1      30.483  24.869  25.050  1.00  0.00    -0.250 OA
BRANCH   6   8
ATOM      8  C   UNL A   1      32.469  23.474  24.947  1.00  0.00     0.200 C 
BRANCH   8   9
ATOM      9  N   UNL A   1      33.312  23.556  26.153  1.00  0.00    -0.308 N 
ATOM     10  C   UNL A   1      34.680  23.591  26.259  1.00  0.00     0.408 C 
ATOM     11  O   UNL A   1      35.215  23.546  27.355  1.00  0.00    -0.225 OA
ATOM     12  H   UNL A   1      32.823  23.589  27.007  1.00  0.00     0.168 HD
BRANCH  10  13
ATOM     13  O   UNL A   1      35.330  23.702  25.070  1.00  0.00    -0.444 OA
BRANCH  13  14
ATOM     14  C   UNL A   1      36.423  22.790  24.725  1.00  0.00     0.106 C 
ATOM     15  C   UNL A   1      37.689  23.424  25.331  1.00  0.00     0.056 C 
ATOM     16  C   UNL A   1      36.607  22.678  23.209  1.00  0.00     0.056 C 
ATOM     17  C   UNL A   1      36.271  21.401  25.355  1.00  0.00     0.056 C 
ENDBRANCH  13  14
ENDBRANCH  10  13
ENDBRANCH   8   9
BRANCH   8  18
ATOM     18  C   UNL A   1      31.529  22.244  25.031  1.00  0.00     0.075 C 
BRANCH  18  19
ATOM     19  C   UNL A   1      32.261  20.925  25.172  1.00  0.00    -0.018 A 
ATOM     20  C   UNL A   1      32.778  20.458  26.369  1.00  0.00     0.087 A 
ATOM     21  C   UNL A   1      32.478  19.880  24.193  1.00  0.00     0.021 A 
ATOM     22  N   UNL A   1      33.180  19.167  26.195  1.00  0.00    -0.361 N 
ATOM     23  C   UNL A   1      32.932  18.762  24.907  1.00  0.00     0.047 A 
ATOM     24  C   UNL A   1      32.289  19.690  22.803  1.00  0.00     0.050 A 
ATOM     25  H   UNL A   1      33.590  18.606  26.893  1.00  0.00     0.166 HD
ATOM     26  C   UNL A   1      33.080  17.489  24.333  1.00  0.00     0.027 A 
ATOM     27  C   UNL A   1      32.394  18.427  22.212  1.00  0.00     0.021 A 
ATOM     28  Cl  UNL A   1      31.988  21.060  21.830  1.00  0.00    -0.084 Cl
ATOM     29  C   UNL A   1      32.762  17.331  22.981  1.00  0.00     0.004 A 
ENDBRANCH  18  19
ENDBRANCH   8  18
ENDBRANCH   6   8
ENDBRANCH   5   6
ENDBRANCH   4   5
ENDBRANCH   3   4
ENDBRANCH   2   3
ENDBRANCH   1   2
BRANCH   1  30
ATOM     30  C   UNL A   1      32.077  29.802  27.028  1.00  0.00     0.188 C 
BRANCH  30  31
ATOM     31  O   UNL A   1      32.920  30.934  26.988  1.00  0.00    -0.376 OA
BRANCH  31  32
ATOM     32  C   UNL A   1      34.003  31.144  27.878  1.00  0.00     0.202 C 
BRANCH  32  33
ATOM     33  C   UNL A   1      35.441  30.674  27.645  1.00  0.00     0.261 C 
BRANCH  33  34
ATOM     34  O   UNL A   1      36.002  29.903  28.680  1.00  0.00    -0.460 OA
BRANCH  34  35
ATOM     35  C   UNL A   1      37.323  30.130  28.795  1.00  0.00     0.338 C 
ATOM     36  O   UNL A   1      37.875  31.097  29.287  1.00  0.00    -0.246 OA
BRANCH  35  37
ATOM     37  C   UNL A   1      38.031  28.977  28.256  1.00  0.00     0.060 A 
ATOM     38  C   UNL A   1      38.334  27.990  29.195  1.00  0.00     0.016 A 
ATOM     39  C   UNL A   1      38.823  29.267  27.150  1.00  0.00     0.016 A 
ATOM     40  C   UNL A   1      39.622  27.539  29.234  1.00  0.00     0.010 A 
ATOM     41  C   UNL A   1      40.126  28.872  27.230  1.00  0.00     0.010 A 
ATOM     42  C   UNL A   1      40.518  28.099  28.326  1.00  0.00    -0.014 A 
BRANCH  42  43
ATOM     43  C   UNL A   1      41.910  27.762  28.470  1.00  0.00     0.031 A 
ATOM     44  C   UNL A   1      42.178  26.432  27.892  1.00  0.00     0.074 A 
ATOM     45  C   UNL A   1      42.800  28.647  28.952  1.00  0.00     0.049 A 
ATOM     46  N   UNL A   1      42.386  25.326  28.526  1.00  0.00    -0.248 NA
ATOM     47  C   UNL A   1      41.872  26.261  26.459  1.00  0.00     0.031 C 
ATOM     48  C   UNL A   1      42.597  30.067  29.255  1.00  0.00     0.029 A 
ATOM     49  N   UNL A   1      44.127  28.484  29.156  1.00  0.00    -0.354 N 
ATOM     50  C   UNL A   1      42.499  24.374  27.519  1.00  0.00     0.074 A 
ATOM     51  C   UNL A   1      41.855  24.934  26.363  1.00  0.00     0.031 C 
ATOM     52  C   UNL A   1      43.803  30.675  29.345  1.00  0.00     0.029 A 
ATOM     53  C   UNL A   1      44.846  29.669  29.234  1.00  0.00     0.049 A 
ATOM     54  H   UNL A   1      44.549  27.599  29.241  1.00  0.00     0.167 HD
ATOM     55  C   UNL A   1      43.431  23.385  27.588  1.00  0.00     0.034 A 
ATOM     56  C   UNL A   1      46.191  29.780  29.086  1.00  0.00     0.034 A 
ATOM     57  C   UNL A   1      43.935  23.246  28.928  1.00  0.00     0.049 A 
ATOM     58  C   UNL A   1      46.768  28.417  29.225  1.00  0.00     0.074 A 
ATOM     59  C   UNL A   1      43.375  22.927  30.148  1.00  0.00     0.029 A 
ATOM     60  N   UNL A   1      45.136  23.857  29.200  1.00  0.00    -0.354 N 
ATOM     61  N   UNL A   1      46.793  27.745  30.342  1.00  0.00    -0.248 NA
ATOM     62  C   UNL A   1      46.899  27.618  28.014  1.00  0.00     0.031 C 
ATOM     63  C   UNL A   1      44.072  23.720  31.102  1.00  0.00     0.029 A 
ATOM     64  C   UNL A   1      45.065  24.443  30.436  1.00  0.00     0.049 A 
ATOM     65  H   UNL A   1      45.919  23.871  28.604  1.00  0.00     0.167 HD
ATOM     66  C   UNL A   1      46.488  26.443  29.971  1.00  0.00     0.074 A 
ATOM     67  C   UNL A   1      46.665  26.406  28.522  1.00  0.00     0.031 C 
ATOM     68  C   UNL A   1      45.827  25.612  30.828  1.00  0.00     0.034 A 
BRANCH  55  69
ATOM     69  C   UNL A   1      44.173  22.879  26.371  1.00  0.00     0.023 A 
ATOM     70  C   UNL A   1      44.074  21.556  25.894  1.00  0.00     0.031 A 
ATOM     71  C   UNL A   1      44.833  23.781  25.519  1.00  0.00     0.131 A 
ATOM     72  C   UNL A   1      44.622  21.157  24.672  1.00  0.00     0.055 A 
ATOM     73  C   UNL A   1      45.321  23.404  24.261  1.00  0.00     0.041 A 
ATOM     74  F   UNL A   1      44.969  25.073  25.858  1.00  0.00    -0.206 F 
ATOM     75  C   UNL A   1      45.221  22.085  23.832  1.00  0.00     0.022 A 
BRANCH  72  76
ATOM     76  S   UNL A   1      44.524  19.419  24.156  1.00  0.00     0.124 S 
ATOM     77  O   UNL A   1      44.472  19.538  22.703  1.00  0.00    -0.237 OA
ATOM     78  O   UNL A   1      45.765  18.881  24.706  1.00  0.00    -0.237 OA
ATOM     79  O   UNL A   1      43.304  18.937  24.797  1.00  0.00    -0.744 OA
ENDBRANCH  72  76
ENDBRANCH  55  69
BRANCH  56  80
ATOM     80  C   UNL A   1      46.928  30.846  28.364  1.00  0.00     0.023 A 
ATOM     81  C   UNL A   1      47.750  31.746  29.065  1.00  0.00     0.031 A 
ATOM     82  C   UNL A   1      46.566  31.197  27.049  1.00  0.00     0.131 A 
ATOM     83  C   UNL A   1      48.117  32.972  28.492  1.00  0.00     0.055 A 
ATOM     84  C   UNL A   1      46.943  32.415  26.473  1.00  0.00     0.041 A 
ATOM     85  F   UNL A   1      45.766  30.396  26.327  1.00  0.00    -0.206 F 
ATOM     86  C   UNL A   1      47.709  33.319  27.203  1.00  0.00     0.022 A 
BRANCH  83  87
ATOM     87  S   UNL A   1      49.077  34.171  29.458  1.00  0.00     0.124 S 
ATOM     88  O   UNL A   1      48.676  35.446  28.867  1.00  0.00    -0.237 OA
ATOM     89  O   UNL A   1      48.589  33.921  30.809  1.00  0.00    -0.237 OA
ATOM     90  O   UNL A   1      50.461  33.781  29.197  1.00  0.00    -0.744 OA
ENDBRANCH  83  87
ENDBRANCH  56  80
BRANCH  68  91
ATOM     91  C   UNL A   1      45.682  26.041  32.270  1.00  0.00     0.023 A 
ATOM     92  C   UNL A   1      46.435  25.334  33.219  1.00  0.00     0.031 A 
ATOM     93  C   UNL A   1      44.703  26.935  32.747  1.00  0.00     0.131 A 
ATOM     94  C   UNL A   1      46.177  25.489  34.583  1.00  0.00     0.055 A 
ATOM     95  C   UNL A   1      44.492  27.136  34.115  1.00  0.00     0.041 A 
ATOM     96  F   UNL A   1      43.872  27.572  31.913  1.00  0.00    -0.206 F 
ATOM     97  C   UNL A   1      45.220  26.398  35.042  1.00  0.00     0.022 A 
BRANCH  94  98
ATOM     98  S   UNL A   1      46.989  24.408  35.785  1.00  0.00     0.124 S 
ATOM     99  O   UNL A   1      47.738  25.359  36.601  1.00  0.00    -0.237 OA
ATOM    100  O   UNL A   1      45.850  23.773  36.447  1.00  0.00    -0.237 OA
ATOM    101  O   UNL A   1      47.803  23.514  34.966  1.00  0.00    -0.744 OA
ENDBRANCH  94  98
ENDBRANCH  68  91
ENDBRANCH  42  43
ENDBRANCH  35  37
ENDBRANCH  34  35
ENDBRANCH  33  34
ENDBRANCH  32  33
ENDBRANCH  31  32
ENDBRANCH  30  31
ENDBRANCH   1  30
TORSDOF 25
ENDMDL
MODEL 3
REMARK VINA RESULT:     -10.4      3.148      8.276
REMARK SMILES CC(C)(C)OC(=O)N[C@@H](Cc1c[nH]c2cccc(Cl)c12)C(=O)OCCOCCOCCOC(=O)c1ccc(-c2c3nc(c(-c4cc(S(=O)(=O)[O-])ccc4F)c4ccc([nH]4)c(-c4cc(S(=O)(=O)[O-])ccc4F)c4nc(c(-c5cc(S(=O)(=O)[O-])ccc5F)c5ccc2[nH]5)C=C4)C=C3)cc1
REMARK SMILES IDX 27 1 26 2 25 3 24 4 23 5 21 6 22 7 9 8 8 9 6 10 7 11 5 13
REMARK SMILES IDX 2 14 1 15 3 16 4 17 10 18 11 19 12 20 20 21 13 22 14 23
REMARK SMILES IDX 18 24 15 26 17 27 19 28 16 29 28 30 29 31 30 32 31 33 32 34
REMARK SMILES IDX 33 35 34 36 35 37 36 38 97 39 37 40 96 41 38 42 39 43 40 44
REMARK SMILES IDX 90 45 41 46 95 47 89 48 91 49 42 50 94 51 88 52 87 53 43 55
REMARK SMILES IDX 75 56 55 57 74 58 56 59 59 60 73 61 92 62 57 63 58 64 72 66
REMARK SMILES IDX 93 67 60 68 44 69 45 70 53 71 46 72 52 73 54 74 51 75 47 76
REMARK SMILES IDX 48 77 49 78 50 79 76 80 77 81 85 82 78 83 84 84 86 85 83 86
REMARK SMILES IDX 79 87 80 88 81 89 82 90 61 91 62 92 70 93 63 94 69 95 71 96
REMARK SMILES IDX 68 97 64 98 65 99 66 100 67 101
REMARK H PARENT 8 12 13 25 91 54 59 65
REMARK Flexibility Score: inf
ROOT
ATOM      1  C   UNL A   1      32.913  29.451  24.683  1.00  0.00     0.188 C 
ENDROOT
BRANCH   1   2
ATOM      2  O   UNL A   1      32.655  28.393  23.781  1.00  0.00    -0.376 OA
BRANCH   2   3
ATOM      3  C   UNL A   1      32.596  27.066  24.269  1.00  0.00     0.202 C 
BRANCH   3   4
ATOM      4  C   UNL A   1      33.849  26.174  24.361  1.00  0.00     0.261 C 
BRANCH   4   5
ATOM      5  O   UNL A   1      34.192  25.362  23.218  1.00  0.00    -0.462 OA
BRANCH   5   6
ATOM      6  C   UNL A   1      34.703  24.124  23.456  1.00  0.00     0.329 C 
ATOM      7  O   UNL A   1      34.615  23.186  22.669  1.00  0.00    -0.250 OA
BRANCH   6   8
ATOM      8  C   UNL A   1      35.281  23.947  24.878  1.00  0.00     0.200 C 
BRANCH   8   9
ATOM      9  N   UNL A   1      34.771  22.856  25.728  1.00  0.00    -0.308 N 
ATOM     10  C   UNL A   1      33.627  22.804  26.485  1.00  0.00     0.408 C 
ATOM     11  O   UNL A   1      33.418  21.853  27.221  1.00  0.00    -0.225 OA
ATOM     12  H   UNL A   1      35.333  22.049  25.759  1.00  0.00     0.168 HD
BRANCH  10  13
ATOM     13  O   UNL A   1      32.792  23.861  26.307  1.00  0.00    -0.444 OA
BRANCH  13  14
ATOM     14  C   UNL A   1      31.387  23.655  25.946  1.00  0.00     0.106 C 
ATOM     15  C   UNL A   1      31.409  23.175  24.483  1.00  0.00     0.056 C 
ATOM     16  C   UNL A   1      30.588  24.959  26.024  1.00  0.00     0.056 C 
ATOM     17  C   UNL A   1      30.708  22.555  26.770  1.00  0.00     0.056 C 
ENDBRANCH  13  14
ENDBRANCH  10  13
ENDBRANCH   8   9
BRANCH   8  18
ATOM     18  C   UNL A   1      36.821  23.837  24.730  1.00  0.00     0.075 C 
BRANCH  18  19
ATOM     19  C   UNL A   1      37.370  22.466  25.068  1.00  0.00    -0.018 A 
ATOM     20  C   UNL A   1      36.910  21.293  24.493  1.00  0.00     0.087 A 
ATOM     21  C   UNL A   1      38.484  22.100  25.917  1.00  0.00     0.021 A 
ATOM     22  N   UNL A   1      37.744  20.275  24.851  1.00  0.00    -0.361 N 
ATOM     23  C   UNL A   1      38.758  20.751  25.646  1.00  0.00     0.047 A 
ATOM     24  C   UNL A   1      39.356  22.734  26.833  1.00  0.00     0.050 A 
ATOM     25  H   UNL A   1      37.635  19.335  24.580  1.00  0.00     0.166 HD
ATOM     26  C   UNL A   1      39.889  20.080  26.139  1.00  0.00     0.027 A 
ATOM     27  C   UNL A   1      40.509  22.102  27.311  1.00  0.00     0.021 A 
ATOM     28  Cl  UNL A   1      38.939  24.288  27.407  1.00  0.00    -0.084 Cl
ATOM     29  C   UNL A   1      40.783  20.793  26.942  1.00  0.00     0.004 A 
ENDBRANCH  18  19
ENDBRANCH   8  18
ENDBRANCH   6   8
ENDBRANCH   5   6
ENDBRANCH   4   5
ENDBRANCH   3   4
ENDBRANCH   2   3
ENDBRANCH   1   2
BRANCH   1  30
ATOM     30  C   UNL A   1      32.303  29.421  26.100  1.00  0.00     0.188 C 
BRANCH  30  31
ATOM     31  O   UNL A   1      33.185  29.508  27.199  1.00  0.00    -0.376 OA
BRANCH  31  32
ATOM     32  C   UNL A   1      33.898  30.682  27.551  1.00  0.00     0.202 C 
BRANCH  32  33
ATOM     33  C   UNL A   1      35.422  30.815  27.571  1.00  0.00     0.261 C 
BRANCH  33  34
ATOM     34  O   UNL A   1      36.103  29.869  28.359  1.00  0.00    -0.460 OA
BRANCH  34  35
ATOM     35  C   UNL A   1      37.406  30.179  28.477  1.00  0.00     0.338 C 
ATOM     36  O   UNL A   1      37.893  31.202  28.924  1.00  0.00    -0.246 OA
BRANCH  35  37
ATOM     37  C   UNL A   1      38.189  29.045  28.007  1.00  0.00     0.060 A 
ATOM     38  C   UNL A   1      38.465  28.086  28.983  1.00  0.00     0.016 A 
ATOM     39  C   UNL A   1      39.041  29.346  26.951  1.00  0.00     0.016 A 
ATOM     40  C   UNL A   1      39.763  27.683  29.115  1.00  0.00     0.010 A 
ATOM     41  C   UNL A   1      40.349  29.000  27.123  1.00  0.00     0.010 A 
ATOM     42  C   UNL A   1      40.696  28.261  28.256  1.00  0.00    -0.014 A 
BRANCH  42  43
ATOM     43  C   UNL A   1      42.086  27.979  28.497  1.00  0.00     0.031 A 
ATOM     44  C   UNL A   1      42.445  26.660  27.943  1.00  0.00     0.074 A 
ATOM     45  C   UNL A   1      42.906  28.897  29.038  1.00  0.00     0.049 A 
ATOM     46  N   UNL A   1      42.652  25.562  28.592  1.00  0.00    -0.248 NA
ATOM     47  C   UNL A   1      42.246  26.478  26.492  1.00  0.00     0.031 C 
ATOM     48  C   UNL A   1      42.628  30.308  29.323  1.00  0.00     0.029 A 
ATOM     49  N   UNL A   1      44.221  28.786  29.333  1.00  0.00    -0.354 N 
ATOM     50  C   UNL A   1      42.871  24.616  27.597  1.00  0.00     0.074 A 
ATOM     51  C   UNL A   1      42.288  25.151  26.398  1.00  0.00     0.031 C 
ATOM     52  C   UNL A   1      43.800  30.962  29.495  1.00  0.00     0.029 A 
ATOM     53  C   UNL A   1      44.886  29.997  29.458  1.00  0.00     0.049 A 
ATOM     54  H   UNL A   1      44.670  27.917  29.450  1.00  0.00     0.167 HD
ATOM     55  C   UNL A   1      43.834  23.664  27.733  1.00  0.00     0.034 A 
ATOM     56  C   UNL A   1      46.234  30.161  29.404  1.00  0.00     0.034 A 
ATOM     57  C   UNL A   1      44.249  23.545  29.105  1.00  0.00     0.049 A 
ATOM     58  C   UNL A   1      46.852  28.821  29.586  1.00  0.00     0.074 A 
ATOM     59  C   UNL A   1      43.618  23.203  30.284  1.00  0.00     0.029 A 
ATOM     60  N   UNL A   1      45.404  24.201  29.458  1.00  0.00    -0.354 N 
ATOM     61  N   UNL A   1      46.825  28.150  30.704  1.00  0.00    -0.248 NA
ATOM     62  C   UNL A   1      47.097  28.029  28.389  1.00  0.00     0.031 C 
ATOM     63  C   UNL A   1      44.216  24.023  31.282  1.00  0.00     0.029 A 
ATOM     64  C   UNL A   1      45.224  24.784  30.685  1.00  0.00     0.049 A 
ATOM     65  H   UNL A   1      46.225  24.246  28.918  1.00  0.00     0.167 HD
ATOM     66  C   UNL A   1      46.597  26.838  30.316  1.00  0.00     0.074 A 
ATOM     67  C   UNL A   1      46.876  26.808  28.882  1.00  0.00     0.031 C 
ATOM     68  C   UNL A   1      45.911  25.981  31.127  1.00  0.00     0.034 A 
BRANCH  55  69
ATOM     69  C   UNL A   1      44.678  23.188  26.572  1.00  0.00     0.023 A 
ATOM     70  C   UNL A   1      44.635  21.872  26.067  1.00  0.00     0.031 A 
ATOM     71  C   UNL A   1      45.392  24.112  25.790  1.00  0.00     0.131 A 
ATOM     72  C   UNL A   1      45.284  21.500  24.887  1.00  0.00     0.055 A 
ATOM     73  C   UNL A   1      45.984  23.762  24.569  1.00  0.00     0.041 A 
ATOM     74  F   UNL A   1      45.482  25.399  26.159  1.00  0.00    -0.206 F 
ATOM     75  C   UNL A   1      45.936  22.449  24.112  1.00  0.00     0.022 A 
BRANCH  72  76
ATOM     76  S   UNL A   1      45.251  19.770  24.337  1.00  0.00     0.124 S 
ATOM     77  O   UNL A   1      46.663  19.505  24.089  1.00  0.00    -0.237 OA
ATOM     78  O   UNL A   1      44.674  19.105  25.502  1.00  0.00    -0.237 OA
ATOM     79  O   UNL A   1      44.394  19.800  23.156  1.00  0.00    -0.744 OA
ENDBRANCH  72  76
ENDBRANCH  55  69
BRANCH  56  80
ATOM     80  C   UNL A   1      46.977  31.255  28.732  1.00  0.00     0.023 A 
ATOM     81  C   UNL A   1      47.532  32.307  29.483  1.00  0.00     0.031 A 
ATOM     82  C   UNL A   1      46.853  31.452  27.344  1.00  0.00     0.131 A 
ATOM     83  C   UNL A   1      47.867  33.522  28.869  1.00  0.00     0.055 A 
ATOM     84  C   UNL A   1      47.200  32.661  26.730  1.00  0.00     0.041 A 
ATOM     85  F   UNL A   1      46.313  30.500  26.567  1.00  0.00    -0.206 F 
ATOM     86  C   UNL A   1      47.694  33.711  27.497  1.00  0.00     0.022 A 
BRANCH  83  87
ATOM     87  S   UNL A   1      48.468  34.907  29.874  1.00  0.00     0.124 S 
ATOM     88  O   UNL A   1      49.710  34.378  30.432  1.00  0.00    -0.237 OA
ATOM     89  O   UNL A   1      48.624  35.955  28.872  1.00  0.00    -0.237 OA
ATOM     90  O   UNL A   1      47.395  35.109  30.845  1.00  0.00    -0.744 OA
ENDBRANCH  83  87
ENDBRANCH  56  80
BRANCH  68  91
ATOM     91  C   UNL A   1      45.649  26.404  32.554  1.00  0.00     0.023 A 
ATOM     92  C   UNL A   1      46.505  25.881  33.534  1.00  0.00     0.031 A 
ATOM     93  C   UNL A   1      44.502  27.095  32.989  1.00  0.00     0.131 A 
ATOM     94  C   UNL A   1      46.189  26.011  34.890  1.00  0.00     0.055 A 
ATOM     95  C   UNL A   1      44.223  27.280  34.347  1.00  0.00     0.041 A 
ATOM     96  F   UNL A   1      43.581  27.536  32.123  1.00  0.00    -0.206 F 
ATOM     97  C   UNL A   1      45.061  26.721  35.306  1.00  0.00     0.022 A 
BRANCH  94  98
ATOM     98  S   UNL A   1      47.171  25.139  36.134  1.00  0.00     0.124 S 
ATOM     99  O   UNL A   1      48.332  26.011  36.280  1.00  0.00    -0.237 OA
ATOM    100  O   UNL A   1      46.261  25.108  37.277  1.00  0.00    -0.237 OA
ATOM    101  O   UNL A   1      47.441  23.839  35.526  1.00  0.00    -0.744 OA
ENDBRANCH  94  98
ENDBRANCH  68  91
ENDBRANCH  42  43
ENDBRANCH  35  37
ENDBRANCH  34  35
ENDBRANCH  33  34
ENDBRANCH  32  33
ENDBRANCH  31  32
ENDBRANCH  30  31
ENDBRANCH   1  30
TORSDOF 25
ENDMDL
