MODEL 1
REMARK VINA RESULT:     -10.3      0.000      0.000
REMARK SMILES CN1C(=O)/C(=C/c2ccc(OCC(=O)OCCOCCOCCOC(=O)c3ccc(-c4c5nc(c(-c6cc(S(=O)(=O)[O-])ccc6F)c6ccc([nH]6)c(-c6cc(S(=O)(=O)[O-])ccc6F)c6nc(c(-c7cc(S(=O)(=O)[O-])ccc7F)c7ccc4[nH]7)C=C6)C=C5)cc3)c(Br)c2)C(=O)NC1=S
REMARK SMILES IDX 19 1 18 2 17 3 16 4 15 5 13 6 14 7 12 8 11 9 10 10 7 11 8 12
REMARK SMILES IDX 92 13 9 14 90 15 91 16 6 17 1 18 2 19 3 20 96 21 4 22 5 23
REMARK SMILES IDX 95 24 97 25 93 26 94 28 20 29 21 30 22 31 23 32 24 33 25 34
REMARK SMILES IDX 26 35 27 36 28 37 89 38 29 39 88 40 30 41 31 42 32 43 82 44
REMARK SMILES IDX 33 45 87 46 81 47 83 48 34 49 86 50 80 51 79 52 35 54 67 55
REMARK SMILES IDX 47 56 66 57 48 58 51 59 65 60 84 61 49 62 50 63 64 65 85 66
REMARK SMILES IDX 52 67 36 68 37 69 45 70 38 71 44 72 46 73 43 74 39 75 40 76
REMARK SMILES IDX 41 77 42 78 68 79 69 80 77 81 70 82 76 83 78 84 75 85 71 86
REMARK SMILES IDX 72 87 73 88 74 89 53 90 54 91 62 92 55 93 61 94 63 95 60 96
REMARK SMILES IDX 56 97 57 98 58 99 59 100
REMARK H PARENT 95 27 83 53 51 64
REMARK Flexibility Score: inf
ROOT
ATOM      1  C   UNL A   1      36.642  22.197  24.298  1.00  0.00     0.188 C 
ENDROOT
BRANCH   1   2
ATOM      2  O   UNL A   1      35.637  21.207  24.112  1.00  0.00    -0.376 OA
BRANCH   2   3
ATOM      3  C   UNL A   1      35.504  20.168  25.067  1.00  0.00     0.202 C 
BRANCH   3   4
ATOM      4  C   UNL A   1      35.730  18.741  24.565  1.00  0.00     0.261 C 
BRANCH   4   5
ATOM      5  O   UNL A   1      34.688  17.800  24.898  1.00  0.00    -0.461 OA
BRANCH   5   6
ATOM      6  C   UNL A   1      33.679  17.664  23.989  1.00  0.00     0.344 C 
ATOM      7  O   UNL A   1      33.844  17.349  22.816  1.00  0.00    -0.248 OA
BRANCH   6   8
ATOM      8  C   UNL A   1      32.311  18.081  24.551  1.00  0.00     0.352 C 
BRANCH   8   9
ATOM      9  O   UNL A   1      32.152  19.234  25.349  1.00  0.00    -0.481 OA
BRANCH   9  10
ATOM     10  C   UNL A   1      32.254  20.522  24.910  1.00  0.00     0.134 A 
ATOM     11  C   UNL A   1      32.572  22.940  23.438  1.00  0.00    -0.023 A 
ATOM     12  C   UNL A   1      32.227  21.769  22.781  1.00  0.00     0.012 A 
ATOM     13  C   UNL A   1      32.674  22.911  24.836  1.00  0.00     0.027 A 
ATOM     14  C   UNL A   1      32.049  20.589  23.515  1.00  0.00     0.048 A 
ATOM     15  C   UNL A   1      32.530  21.719  25.575  1.00  0.00     0.060 A 
ATOM     16  Br  UNL A   1      32.763  21.945  27.444  1.00  0.00    -0.047 Br
BRANCH  11  17
ATOM     17  C   UNL A   1      32.938  24.155  22.693  1.00  0.00     0.027 C 
ATOM     18  C   UNL A   1      33.443  28.902  22.485  1.00  0.00     0.156 C 
ATOM     19  N   UNL A   1      32.650  27.737  22.886  1.00  0.00    -0.288 N 
ATOM     20  C   UNL A   1      32.994  26.547  22.239  1.00  0.00     0.265 C 
ATOM     21  C   UNL A   1      31.611  27.835  23.806  1.00  0.00     0.182 C 
ATOM     22  O   UNL A   1      33.849  26.458  21.360  1.00  0.00    -0.268 OA
ATOM     23  C   UNL A   1      32.295  25.338  22.748  1.00  0.00     0.106 C 
ATOM     24  N   UNL A   1      30.820  26.731  23.962  1.00  0.00    -0.298 N 
ATOM     25  S   UNL A   1      31.178  29.123  24.766  1.00  0.00    -0.040 S 
ATOM     26  C   UNL A   1      30.999  25.496  23.423  1.00  0.00     0.263 C 
ATOM     27  H   UNL A   1      30.027  26.842  24.535  1.00  0.00     0.172 HD
ATOM     28  O   UNL A   1      30.154  24.616  23.512  1.00  0.00    -0.269 OA
ENDBRANCH  11  17
ENDBRANCH   9  10
ENDBRANCH   8   9
ENDBRANCH   6   8
ENDBRANCH   5   6
ENDBRANCH   4   5
ENDBRANCH   3   4
ENDBRANCH   2   3
ENDBRANCH   1   2
BRANCH   1  29
ATOM     29  C   UNL A   1      37.515  22.160  25.564  1.00  0.00     0.188 C 
BRANCH  29  30
ATOM     30  O   UNL A   1      37.968  20.858  25.913  1.00  0.00    -0.376 OA
BRANCH  30  31
ATOM     31  C   UNL A   1      38.989  20.340  25.074  1.00  0.00     0.202 C 
BRANCH  31  32
ATOM     32  C   UNL A   1      39.926  19.413  25.845  1.00  0.00     0.261 C 
BRANCH  32  33
ATOM     33  O   UNL A   1      40.192  19.904  27.175  1.00  0.00    -0.460 OA
BRANCH  33  34
ATOM     34  C   UNL A   1      41.442  20.323  27.431  1.00  0.00     0.338 C 
ATOM     35  O   UNL A   1      42.444  19.617  27.516  1.00  0.00    -0.246 OA
BRANCH  34  36
ATOM     36  C   UNL A   1      41.447  21.783  27.634  1.00  0.00     0.060 A 
ATOM     37  C   UNL A   1      40.764  22.637  26.763  1.00  0.00     0.016 A 
ATOM     38  C   UNL A   1      42.221  22.322  28.660  1.00  0.00     0.016 A 
ATOM     39  C   UNL A   1      40.922  24.024  26.860  1.00  0.00     0.010 A 
ATOM     40  C   UNL A   1      42.319  23.711  28.799  1.00  0.00     0.010 A 
ATOM     41  C   UNL A   1      41.712  24.581  27.872  1.00  0.00    -0.014 A 
BRANCH  41  42
ATOM     42  C   UNL A   1      41.993  26.048  27.929  1.00  0.00     0.031 A 
ATOM     43  C   UNL A   1      43.278  26.579  27.334  1.00  0.00     0.074 A 
ATOM     44  C   UNL A   1      41.134  26.908  28.511  1.00  0.00     0.049 A 
ATOM     45  N   UNL A   1      43.820  27.765  27.430  1.00  0.00    -0.248 NA
ATOM     46  C   UNL A   1      44.060  25.629  26.526  1.00  0.00     0.031 C 
ATOM     47  C   UNL A   1      39.822  26.561  29.059  1.00  0.00     0.029 A 
ATOM     48  N   UNL A   1      41.247  28.256  28.759  1.00  0.00    -0.354 N 
ATOM     49  C   UNL A   1      45.018  27.697  26.722  1.00  0.00     0.074 A 
ATOM     50  C   UNL A   1      45.136  26.343  26.234  1.00  0.00     0.031 C 
ATOM     51  C   UNL A   1      39.260  27.661  29.585  1.00  0.00     0.029 A 
ATOM     52  C   UNL A   1      40.202  28.772  29.493  1.00  0.00     0.049 A 
ATOM     53  H   UNL A   1      42.004  28.801  28.442  1.00  0.00     0.167 HD
ATOM     54  C   UNL A   1      45.941  28.667  26.501  1.00  0.00     0.034 A 
ATOM     55  C   UNL A   1      40.048  29.976  30.084  1.00  0.00     0.034 A 
ATOM     56  C   UNL A   1      45.829  30.006  27.023  1.00  0.00     0.049 A 
ATOM     57  C   UNL A   1      41.153  30.998  29.959  1.00  0.00     0.074 A 
ATOM     58  C   UNL A   1      46.710  31.064  26.883  1.00  0.00     0.029 A 
ATOM     59  N   UNL A   1      44.781  30.464  27.811  1.00  0.00    -0.354 N 
ATOM     60  N   UNL A   1      42.288  30.915  29.303  1.00  0.00    -0.248 NA
ATOM     61  C   UNL A   1      40.960  32.271  30.666  1.00  0.00     0.031 C 
ATOM     62  C   UNL A   1      46.239  32.131  27.655  1.00  0.00     0.029 A 
ATOM     63  C   UNL A   1      45.019  31.770  28.209  1.00  0.00     0.049 A 
ATOM     64  H   UNL A   1      43.985  29.937  28.052  1.00  0.00     0.167 HD
ATOM     65  C   UNL A   1      42.931  32.136  29.499  1.00  0.00     0.074 A 
ATOM     66  C   UNL A   1      42.051  32.940  30.322  1.00  0.00     0.031 C 
ATOM     67  C   UNL A   1      44.137  32.556  29.040  1.00  0.00     0.034 A 
BRANCH  54  68
ATOM     68  C   UNL A   1      47.199  28.279  25.753  1.00  0.00     0.023 A 
ATOM     69  C   UNL A   1      47.296  28.326  24.348  1.00  0.00     0.031 A 
ATOM     70  C   UNL A   1      48.316  27.814  26.471  1.00  0.00     0.131 A 
ATOM     71  C   UNL A   1      48.448  27.837  23.708  1.00  0.00     0.055 A 
ATOM     72  C   UNL A   1      49.490  27.413  25.832  1.00  0.00     0.041 A 
ATOM     73  F   UNL A   1      48.279  27.731  27.810  1.00  0.00    -0.206 F 
ATOM     74  C   UNL A   1      49.555  27.409  24.443  1.00  0.00     0.022 A 
BRANCH  71  75
ATOM     75  S   UNL A   1      48.488  27.677  21.896  1.00  0.00     0.124 S 
ATOM     76  O   UNL A   1      48.748  26.248  21.734  1.00  0.00    -0.237 OA
ATOM     77  O   UNL A   1      47.168  28.143  21.490  1.00  0.00    -0.237 OA
ATOM     78  O   UNL A   1      49.596  28.547  21.504  1.00  0.00    -0.744 OA
ENDBRANCH  71  75
ENDBRANCH  54  68
BRANCH  55  79
ATOM     79  C   UNL A   1      38.850  30.256  30.931  1.00  0.00     0.023 A 
ATOM     80  C   UNL A   1      37.746  30.963  30.430  1.00  0.00     0.031 A 
ATOM     81  C   UNL A   1      38.819  29.867  32.285  1.00  0.00     0.131 A 
ATOM     82  C   UNL A   1      36.678  31.291  31.281  1.00  0.00     0.055 A 
ATOM     83  C   UNL A   1      37.728  30.142  33.111  1.00  0.00     0.041 A 
ATOM     84  F   UNL A   1      39.853  29.200  32.823  1.00  0.00    -0.206 F 
ATOM     85  C   UNL A   1      36.654  30.870  32.613  1.00  0.00     0.022 A 
BRANCH  82  86
ATOM     86  S   UNL A   1      35.353  32.358  30.648  1.00  0.00     0.124 S 
ATOM     87  O   UNL A   1      36.045  33.633  30.503  1.00  0.00    -0.237 OA
ATOM     88  O   UNL A   1      34.986  31.682  29.408  1.00  0.00    -0.237 OA
ATOM     89  O   UNL A   1      34.344  32.311  31.704  1.00  0.00    -0.744 OA
ENDBRANCH  82  86
ENDBRANCH  55  79
BRANCH  67  90
ATOM     90  C   UNL A   1      44.550  33.967  29.381  1.00  0.00     0.023 A 
ATOM     91  C   UNL A   1      44.197  35.061  28.572  1.00  0.00     0.031 A 
ATOM     92  C   UNL A   1      45.316  34.219  30.534  1.00  0.00     0.131 A 
ATOM     93  C   UNL A   1      44.652  36.347  28.897  1.00  0.00     0.055 A 
ATOM     94  C   UNL A   1      45.715  35.508  30.886  1.00  0.00     0.041 A 
ATOM     95  F   UNL A   1      45.685  33.212  31.342  1.00  0.00    -0.206 F 
ATOM     96  C   UNL A   1      45.394  36.580  30.058  1.00  0.00     0.022 A 
BRANCH  93  97
ATOM     97  S   UNL A   1      44.340  37.705  27.735  1.00  0.00     0.124 S 
ATOM     98  O   UNL A   1      43.698  38.696  28.592  1.00  0.00    -0.237 OA
ATOM     99  O   UNL A   1      45.684  38.036  27.272  1.00  0.00    -0.237 OA
ATOM    100  O   UNL A   1      43.470  37.101  26.727  1.00  0.00    -0.744 OA
ENDBRANCH  93  97
ENDBRANCH  67  90
ENDBRANCH  41  42
ENDBRANCH  34  36
ENDBRANCH  33  34
ENDBRANCH  32  33
ENDBRANCH  31  32
ENDBRANCH  30  31
ENDBRANCH  29  30
ENDBRANCH   1  29
TORSDOF 23
ENDMDL
MODEL 2
REMARK VINA RESULT:     -10.0      3.828      5.667
REMARK SMILES CN1C(=O)/C(=C/c2ccc(OCC(=O)OCCOCCOCCOC(=O)c3ccc(-c4c5nc(c(-c6cc(S(=O)(=O)[O-])ccc6F)c6ccc([nH]6)c(-c6cc(S(=O)(=O)[O-])ccc6F)c6nc(c(-c7cc(S(=O)(=O)[O-])ccc7F)c7ccc4[nH]7)C=C6)C=C5)cc3)c(Br)c2)C(=O)NC1=S
REMARK SMILES IDX 19 1 18 2 17 3 16 4 15 5 13 6 14 7 12 8 11 9 10 10 7 11 8 12
REMARK SMILES IDX 92 13 9 14 90 15 91 16 6 17 1 18 2 19 3 20 96 21 4 22 5 23
REMARK SMILES IDX 95 24 97 25 93 26 94 28 20 29 21 30 22 31 23 32 24 33 25 34
REMARK SMILES IDX 26 35 27 36 28 37 89 38 29 39 88 40 30 41 31 42 32 43 82 44
REMARK SMILES IDX 33 45 87 46 81 47 83 48 34 49 86 50 80 51 79 52 35 54 67 55
REMARK SMILES IDX 47 56 66 57 48 58 51 59 65 60 84 61 49 62 50 63 64 65 85 66
REMARK SMILES IDX 52 67 36 68 37 69 45 70 38 71 44 72 46 73 43 74 39 75 40 76
REMARK SMILES IDX 41 77 42 78 68 79 69 80 77 81 70 82 76 83 78 84 75 85 71 86
REMARK SMILES IDX 72 87 73 88 74 89 53 90 54 91 62 92 55 93 61 94 63 95 60 96
REMARK SMILES IDX 56 97 57 98 58 99 59 100
REMARK H PARENT 95 27 83 53 51 64
REMARK Flexibility Score: inf
ROOT
ATOM      1  C   UNL A   1      39.694  21.780  26.060  1.00  0.00     0.188 C 
ENDROOT
BRANCH   1   2
ATOM      2  O   UNL A   1      38.280  21.935  26.097  1.00  0.00    -0.376 OA
BRANCH   2   3
ATOM      3  C   UNL A   1      37.713  23.199  25.794  1.00  0.00     0.202 C 
BRANCH   3   4
ATOM      4  C   UNL A   1      36.187  23.263  25.703  1.00  0.00     0.261 C 
BRANCH   4   5
ATOM      5  O   UNL A   1      35.670  24.128  24.671  1.00  0.00    -0.461 OA
BRANCH   5   6
ATOM      6  C   UNL A   1      35.419  23.549  23.462  1.00  0.00     0.344 C 
ATOM      7  O   UNL A   1      36.247  22.920  22.813  1.00  0.00    -0.248 OA
BRANCH   6   8
ATOM      8  C   UNL A   1      34.021  23.883  22.920  1.00  0.00     0.352 C 
BRANCH   8   9
ATOM      9  O   UNL A   1      33.716  25.145  22.367  1.00  0.00    -0.481 OA
BRANCH   9  10
ATOM     10  C   UNL A   1      33.072  26.159  23.014  1.00  0.00     0.134 A 
ATOM     11  C   UNL A   1      32.298  28.542  24.370  1.00  0.00    -0.023 A 
ATOM     12  C   UNL A   1      33.445  28.529  23.593  1.00  0.00     0.012 A 
ATOM     13  C   UNL A   1      31.501  27.389  24.397  1.00  0.00     0.027 A 
ATOM     14  C   UNL A   1      33.807  27.360  22.910  1.00  0.00     0.048 A 
ATOM     15  C   UNL A   1      31.879  26.200  23.739  1.00  0.00     0.060 A 
ATOM     16  Br  UNL A   1      30.651  24.773  23.974  1.00  0.00    -0.047 Br
BRANCH  11  17
ATOM     17  C   UNL A   1      31.975  29.686  25.238  1.00  0.00     0.027 C 
ATOM     18  C   UNL A   1      33.374  33.284  28.053  1.00  0.00     0.156 C 
ATOM     19  N   UNL A   1      33.511  31.887  27.636  1.00  0.00    -0.288 N 
ATOM     20  C   UNL A   1      32.415  31.378  26.933  1.00  0.00     0.265 C 
ATOM     21  C   UNL A   1      34.630  31.128  27.961  1.00  0.00     0.182 C 
ATOM     22  O   UNL A   1      31.381  32.006  26.714  1.00  0.00    -0.268 OA
ATOM     23  C   UNL A   1      32.610  30.012  26.381  1.00  0.00     0.106 C 
ATOM     24  N   UNL A   1      34.569  29.789  27.686  1.00  0.00    -0.298 N 
ATOM     25  S   UNL A   1      36.065  31.616  28.648  1.00  0.00    -0.040 S 
ATOM     26  C   UNL A   1      33.595  29.122  27.013  1.00  0.00     0.263 C 
ATOM     27  H   UNL A   1      35.320  29.244  28.014  1.00  0.00     0.172 HD
ATOM     28  O   UNL A   1      33.566  27.902  26.946  1.00  0.00    -0.269 OA
ENDBRANCH  11  17
ENDBRANCH   9  10
ENDBRANCH   8   9
ENDBRANCH   6   8
ENDBRANCH   5   6
ENDBRANCH   4   5
ENDBRANCH   3   4
ENDBRANCH   2   3
ENDBRANCH   1   2
BRANCH   1  29
ATOM     29  C   UNL A   1      40.493  21.825  27.373  1.00  0.00     0.188 C 
BRANCH  29  30
ATOM     30  O   UNL A   1      41.873  22.121  27.197  1.00  0.00    -0.376 OA
BRANCH  30  31
ATOM     31  C   UNL A   1      42.293  22.216  25.845  1.00  0.00     0.202 C 
BRANCH  31  32
ATOM     32  C   UNL A   1      42.764  23.628  25.506  1.00  0.00     0.261 C 
BRANCH  32  33
ATOM     33  O   UNL A   1      42.589  24.533  26.615  1.00  0.00    -0.460 OA
BRANCH  33  34
ATOM     34  C   UNL A   1      41.563  25.396  26.541  1.00  0.00     0.338 C 
ATOM     35  O   UNL A   1      40.442  25.160  26.096  1.00  0.00    -0.246 OA
BRANCH  34  36
ATOM     36  C   UNL A   1      41.981  26.715  27.052  1.00  0.00     0.060 A 
ATOM     37  C   UNL A   1      42.704  26.833  28.242  1.00  0.00     0.016 A 
ATOM     38  C   UNL A   1      41.570  27.863  26.380  1.00  0.00     0.016 A 
ATOM     39  C   UNL A   1      42.940  28.091  28.808  1.00  0.00     0.010 A 
ATOM     40  C   UNL A   1      41.872  29.123  26.910  1.00  0.00     0.010 A 
ATOM     41  C   UNL A   1      42.516  29.254  28.156  1.00  0.00    -0.014 A 
BRANCH  41  42
ATOM     42  C   UNL A   1      42.650  30.601  28.790  1.00  0.00     0.031 A 
ATOM     43  C   UNL A   1      43.766  31.520  28.346  1.00  0.00     0.074 A 
ATOM     44  C   UNL A   1      41.806  31.012  29.757  1.00  0.00     0.049 A 
ATOM     45  N   UNL A   1      44.192  32.639  28.873  1.00  0.00    -0.248 NA
ATOM     46  C   UNL A   1      44.509  31.106  27.145  1.00  0.00     0.031 C 
ATOM     47  C   UNL A   1      40.637  30.274  30.237  1.00  0.00     0.029 A 
ATOM     48  N   UNL A   1      41.816  32.149  30.530  1.00  0.00    -0.354 N 
ATOM     49  C   UNL A   1      45.267  33.048  28.087  1.00  0.00     0.074 A 
ATOM     50  C   UNL A   1      45.448  32.036  27.072  1.00  0.00     0.031 C 
ATOM     51  C   UNL A   1      40.052  30.970  31.224  1.00  0.00     0.029 A 
ATOM     52  C   UNL A   1      40.849  32.159  31.511  1.00  0.00     0.049 A 
ATOM     53  H   UNL A   1      42.455  32.887  30.396  1.00  0.00     0.167 HD
ATOM     54  C   UNL A   1      46.041  34.157  28.200  1.00  0.00     0.034 A 
ATOM     55  C   UNL A   1      40.664  32.988  32.560  1.00  0.00     0.034 A 
ATOM     56  C   UNL A   1      45.873  35.141  29.239  1.00  0.00     0.049 A 
ATOM     57  C   UNL A   1      41.626  34.135  32.764  1.00  0.00     0.074 A 
ATOM     58  C   UNL A   1      46.608  36.291  29.467  1.00  0.00     0.029 A 
ATOM     59  N   UNL A   1      44.917  35.077  30.245  1.00  0.00    -0.354 N 
ATOM     60  N   UNL A   1      42.649  34.499  32.026  1.00  0.00    -0.248 NA
ATOM     61  C   UNL A   1      41.414  34.974  33.951  1.00  0.00     0.031 C 
ATOM     62  C   UNL A   1      46.154  36.874  30.654  1.00  0.00     0.029 A 
ATOM     63  C   UNL A   1      45.078  36.136  31.124  1.00  0.00     0.049 A 
ATOM     64  H   UNL A   1      44.226  34.380  30.322  1.00  0.00     0.167 HD
ATOM     65  C   UNL A   1      43.186  35.625  32.647  1.00  0.00     0.074 A 
ATOM     66  C   UNL A   1      42.365  35.886  33.812  1.00  0.00     0.031 C 
ATOM     67  C   UNL A   1      44.257  36.377  32.288  1.00  0.00     0.034 A 
BRANCH  54  68
ATOM     68  C   UNL A   1      47.202  34.301  27.239  1.00  0.00     0.023 A 
ATOM     69  C   UNL A   1      48.483  33.781  27.507  1.00  0.00     0.031 A 
ATOM     70  C   UNL A   1      47.021  35.013  26.038  1.00  0.00     0.131 A 
ATOM     71  C   UNL A   1      49.548  34.054  26.631  1.00  0.00     0.055 A 
ATOM     72  C   UNL A   1      48.063  35.205  25.131  1.00  0.00     0.041 A 
ATOM     73  F   UNL A   1      45.828  35.546  25.735  1.00  0.00    -0.206 F 
ATOM     74  C   UNL A   1      49.338  34.737  25.431  1.00  0.00     0.022 A 
BRANCH  71  75
ATOM     75  S   UNL A   1      51.247  33.589  27.084  1.00  0.00     0.124 S 
ATOM     76  O   UNL A   1      51.409  32.329  26.361  1.00  0.00    -0.237 OA
ATOM     77  O   UNL A   1      52.041  34.714  26.605  1.00  0.00    -0.237 OA
ATOM     78  O   UNL A   1      51.184  33.455  28.539  1.00  0.00    -0.744 OA
ENDBRANCH  71  75
ENDBRANCH  54  68
BRANCH  55  79
ATOM     79  C   UNL A   1      39.589  32.715  33.560  1.00  0.00     0.023 A 
ATOM     80  C   UNL A   1      38.303  33.260  33.420  1.00  0.00     0.031 A 
ATOM     81  C   UNL A   1      39.853  31.946  34.711  1.00  0.00     0.131 A 
ATOM     82  C   UNL A   1      37.344  33.062  34.428  1.00  0.00     0.055 A 
ATOM     83  C   UNL A   1      38.879  31.701  35.679  1.00  0.00     0.041 A 
ATOM     84  F   UNL A   1      41.069  31.411  34.905  1.00  0.00    -0.206 F 
ATOM     85  C   UNL A   1      37.617  32.271  35.547  1.00  0.00     0.022 A 
BRANCH  82  86
ATOM     86  S   UNL A   1      35.754  33.927  34.302  1.00  0.00     0.124 S 
ATOM     87  O   UNL A   1      35.381  34.067  35.705  1.00  0.00    -0.237 OA
ATOM     88  O   UNL A   1      36.131  35.156  33.613  1.00  0.00    -0.237 OA
ATOM     89  O   UNL A   1      34.925  33.008  33.524  1.00  0.00    -0.744 OA
ENDBRANCH  82  86
ENDBRANCH  55  79
BRANCH  67  90
ATOM     90  C   UNL A   1      44.570  37.582  33.143  1.00  0.00     0.023 A 
ATOM     91  C   UNL A   1      43.868  38.792  33.007  1.00  0.00     0.031 A 
ATOM     92  C   UNL A   1      45.594  37.516  34.105  1.00  0.00     0.131 A 
ATOM     93  C   UNL A   1      44.233  39.902  33.783  1.00  0.00     0.055 A 
ATOM     94  C   UNL A   1      45.912  38.606  34.917  1.00  0.00     0.041 A 
ATOM     95  F   UNL A   1      46.300  36.387  34.276  1.00  0.00    -0.206 F 
ATOM     96  C   UNL A   1      45.238  39.812  34.749  1.00  0.00     0.022 A 
BRANCH  93  97
ATOM     97  S   UNL A   1      43.436  41.498  33.452  1.00  0.00     0.124 S 
ATOM     98  O   UNL A   1      42.271  41.099  32.669  1.00  0.00    -0.237 OA
ATOM     99  O   UNL A   1      43.161  41.995  34.797  1.00  0.00    -0.237 OA
ATOM    100  O   UNL A   1      44.454  42.243  32.713  1.00  0.00    -0.744 OA
ENDBRANCH  93  97
ENDBRANCH  67  90
ENDBRANCH  41  42
ENDBRANCH  34  36
ENDBRANCH  33  34
ENDBRANCH  32  33
ENDBRANCH  31  32
ENDBRANCH  30  31
ENDBRANCH  29  30
ENDBRANCH   1  29
TORSDOF 23
ENDMDL
MODEL 3
REMARK VINA RESULT:      -9.8      3.620      9.708
REMARK SMILES CN1C(=O)/C(=C/c2ccc(OCC(=O)OCCOCCOCCOC(=O)c3ccc(-c4c5nc(c(-c6cc(S(=O)(=O)[O-])ccc6F)c6ccc([nH]6)c(-c6cc(S(=O)(=O)[O-])ccc6F)c6nc(c(-c7cc(S(=O)(=O)[O-])ccc7F)c7ccc4[nH]7)C=C6)C=C5)cc3)c(Br)c2)C(=O)NC1=S
REMARK SMILES IDX 19 1 18 2 17 3 16 4 15 5 13 6 14 7 12 8 11 9 10 10 7 11 8 12
REMARK SMILES IDX 92 13 9 14 90 15 91 16 6 17 1 18 2 19 3 20 96 21 4 22 5 23
REMARK SMILES IDX 95 24 97 25 93 26 94 28 20 29 21 30 22 31 23 32 24 33 25 34
REMARK SMILES IDX 26 35 27 36 28 37 89 38 29 39 88 40 30 41 31 42 32 43 82 44
REMARK SMILES IDX 33 45 87 46 81 47 83 48 34 49 86 50 80 51 79 52 35 54 67 55
REMARK SMILES IDX 47 56 66 57 48 58 51 59 65 60 84 61 49 62 50 63 64 65 85 66
REMARK SMILES IDX 52 67 36 68 37 69 45 70 38 71 44 72 46 73 43 74 39 75 40 76
REMARK SMILES IDX 41 77 42 78 68 79 69 80 77 81 70 82 76 83 78 84 75 85 71 86
REMARK SMILES IDX 72 87 73 88 74 89 53 90 54 91 62 92 55 93 61 94 63 95 60 96
REMARK SMILES IDX 56 97 57 98 58 99 59 100
REMARK H PARENT 95 27 83 53 51 64
REMARK Flexibility Score: inf
ROOT
ATOM      1  C   UNL A   1      35.426  33.354  28.023  1.00  0.00     0.188 C 
ENDROOT
BRANCH   1   2
ATOM      2  O   UNL A   1      34.727  32.297  27.375  1.00  0.00    -0.376 OA
BRANCH   2   3
ATOM      3  C   UNL A   1      35.083  30.955  27.660  1.00  0.00     0.202 C 
BRANCH   3   4
ATOM      4  C   UNL A   1      34.053  29.882  27.302  1.00  0.00     0.261 C 
BRANCH   4   5
ATOM      5  O   UNL A   1      33.215  30.189  26.168  1.00  0.00    -0.461 OA
BRANCH   5   6
ATOM      6  C   UNL A   1      32.391  29.192  25.733  1.00  0.00     0.344 C 
ATOM      7  O   UNL A   1      31.633  29.292  24.775  1.00  0.00    -0.248 OA
BRANCH   6   8
ATOM      8  C   UNL A   1      32.403  27.964  26.655  1.00  0.00     0.352 C 
BRANCH   8   9
ATOM      9  O   UNL A   1      31.276  27.127  26.798  1.00  0.00    -0.481 OA
BRANCH   9  10
ATOM     10  C   UNL A   1      31.155  25.867  26.287  1.00  0.00     0.134 A 
ATOM     11  C   UNL A   1      31.405  23.120  25.577  1.00  0.00    -0.023 A 
ATOM     12  C   UNL A   1      31.963  23.584  26.758  1.00  0.00     0.012 A 
ATOM     13  C   UNL A   1      30.655  24.015  24.801  1.00  0.00     0.027 A 
ATOM     14  C   UNL A   1      31.815  24.931  27.112  1.00  0.00     0.048 A 
ATOM     15  C   UNL A   1      30.533  25.379  25.136  1.00  0.00     0.060 A 
ATOM     16  Br  UNL A   1      29.506  26.382  23.895  1.00  0.00    -0.047 Br
BRANCH  11  17
ATOM     17  C   UNL A   1      31.682  21.762  25.082  1.00  0.00     0.027 C 
ATOM     18  C   UNL A   1      34.621  18.019  24.653  1.00  0.00     0.156 C 
ATOM     19  N   UNL A   1      34.416  19.469  24.611  1.00  0.00    -0.288 N 
ATOM     20  C   UNL A   1      33.082  19.866  24.473  1.00  0.00     0.265 C 
ATOM     21  C   UNL A   1      35.479  20.365  24.661  1.00  0.00     0.182 C 
ATOM     22  O   UNL A   1      32.139  19.088  24.338  1.00  0.00    -0.268 OA
ATOM     23  C   UNL A   1      32.855  21.330  24.578  1.00  0.00     0.106 C 
ATOM     24  N   UNL A   1      35.188  21.680  24.423  1.00  0.00    -0.298 N 
ATOM     25  S   UNL A   1      37.086  20.070  24.973  1.00  0.00    -0.040 S 
ATOM     26  C   UNL A   1      33.962  22.247  24.271  1.00  0.00     0.263 C 
ATOM     27  H   UNL A   1      35.958  22.290  24.357  1.00  0.00     0.172 HD
ATOM     28  O   UNL A   1      33.820  23.410  23.920  1.00  0.00    -0.269 OA
ENDBRANCH  11  17
ENDBRANCH   9  10
ENDBRANCH   8   9
ENDBRANCH   6   8
ENDBRANCH   5   6
ENDBRANCH   4   5
ENDBRANCH   3   4
ENDBRANCH   2   3
ENDBRANCH   1   2
BRANCH   1  29
ATOM     29  C   UNL A   1      34.639  34.557  28.570  1.00  0.00     0.188 C 
BRANCH  29  30
ATOM     30  O   UNL A   1      33.588  34.201  29.459  1.00  0.00    -0.376 OA
BRANCH  30  31
ATOM     31  C   UNL A   1      33.493  35.010  30.622  1.00  0.00     0.202 C 
BRANCH  31  32
ATOM     32  C   UNL A   1      34.524  34.601  31.670  1.00  0.00     0.261 C 
BRANCH  32  33
ATOM     33  O   UNL A   1      34.628  33.167  31.789  1.00  0.00    -0.460 OA
BRANCH  33  34
ATOM     34  C   UNL A   1      35.325  32.692  32.835  1.00  0.00     0.338 C 
ATOM     35  O   UNL A   1      35.117  32.934  34.021  1.00  0.00    -0.246 OA
BRANCH  34  36
ATOM     36  C   UNL A   1      36.428  31.839  32.354  1.00  0.00     0.060 A 
ATOM     37  C   UNL A   1      37.229  31.121  33.246  1.00  0.00     0.016 A 
ATOM     38  C   UNL A   1      36.729  31.824  30.994  1.00  0.00     0.016 A 
ATOM     39  C   UNL A   1      38.378  30.460  32.796  1.00  0.00     0.010 A 
ATOM     40  C   UNL A   1      37.837  31.102  30.536  1.00  0.00     0.010 A 
ATOM     41  C   UNL A   1      38.706  30.452  31.435  1.00  0.00    -0.014 A 
BRANCH  41  42
ATOM     42  C   UNL A   1      39.984  29.857  30.941  1.00  0.00     0.031 A 
ATOM     43  C   UNL A   1      41.272  30.635  31.098  1.00  0.00     0.074 A 
ATOM     44  C   UNL A   1      40.015  28.648  30.345  1.00  0.00     0.049 A 
ATOM     45  N   UNL A   1      42.455  30.412  30.587  1.00  0.00    -0.248 NA
ATOM     46  C   UNL A   1      41.205  31.836  31.945  1.00  0.00     0.031 C 
ATOM     47  C   UNL A   1      38.873  27.746  30.190  1.00  0.00     0.029 A 
ATOM     48  N   UNL A   1      41.050  27.976  29.737  1.00  0.00    -0.354 N 
ATOM     49  C   UNL A   1      43.265  31.458  31.024  1.00  0.00     0.074 A 
ATOM     50  C   UNL A   1      42.426  32.330  31.813  1.00  0.00     0.031 C 
ATOM     51  C   UNL A   1      39.267  26.649  29.524  1.00  0.00     0.029 A 
ATOM     52  C   UNL A   1      40.663  26.804  29.126  1.00  0.00     0.049 A 
ATOM     53  H   UNL A   1      41.979  28.303  29.738  1.00  0.00     0.167 HD
ATOM     54  C   UNL A   1      44.582  31.680  30.788  1.00  0.00     0.034 A 
ATOM     55  C   UNL A   1      41.330  25.984  28.287  1.00  0.00     0.034 A 
ATOM     56  C   UNL A   1      45.400  30.820  29.971  1.00  0.00     0.049 A 
ATOM     57  C   UNL A   1      42.753  26.324  27.910  1.00  0.00     0.074 A 
ATOM     58  C   UNL A   1      46.738  30.956  29.645  1.00  0.00     0.029 A 
ATOM     59  N   UNL A   1      44.949  29.677  29.325  1.00  0.00    -0.354 N 
ATOM     60  N   UNL A   1      43.500  27.325  28.316  1.00  0.00    -0.248 NA
ATOM     61  C   UNL A   1      43.416  25.430  26.952  1.00  0.00     0.031 C 
ATOM     62  C   UNL A   1      47.072  29.946  28.736  1.00  0.00     0.029 A 
ATOM     63  C   UNL A   1      45.966  29.128  28.560  1.00  0.00     0.049 A 
ATOM     64  H   UNL A   1      44.038  29.309  29.399  1.00  0.00     0.167 HD
ATOM     65  C   UNL A   1      44.730  27.164  27.680  1.00  0.00     0.074 A 
ATOM     66  C   UNL A   1      44.626  25.963  26.876  1.00  0.00     0.031 C 
ATOM     67  C   UNL A   1      45.844  27.935  27.754  1.00  0.00     0.034 A 
BRANCH  54  68
ATOM     68  C   UNL A   1      45.186  32.957  31.336  1.00  0.00     0.023 A 
ATOM     69  C   UNL A   1      45.741  33.045  32.627  1.00  0.00     0.031 A 
ATOM     70  C   UNL A   1      45.168  34.123  30.549  1.00  0.00     0.131 A 
ATOM     71  C   UNL A   1      46.174  34.288  33.121  1.00  0.00     0.055 A 
ATOM     72  C   UNL A   1      45.680  35.334  31.013  1.00  0.00     0.041 A 
ATOM     73  F   UNL A   1      44.638  34.105  29.316  1.00  0.00    -0.206 F 
ATOM     74  C   UNL A   1      46.173  35.426  32.310  1.00  0.00     0.022 A 
BRANCH  71  75
ATOM     75  S   UNL A   1      46.672  34.457  34.862  1.00  0.00     0.124 S 
ATOM     76  O   UNL A   1      46.306  33.148  35.400  1.00  0.00    -0.237 OA
ATOM     77  O   UNL A   1      48.098  34.743  34.775  1.00  0.00    -0.237 OA
ATOM     78  O   UNL A   1      45.849  35.566  35.343  1.00  0.00    -0.744 OA
ENDBRANCH  71  75
ENDBRANCH  54  68
BRANCH  55  79
ATOM     79  C   UNL A   1      40.641  24.815  27.663  1.00  0.00     0.023 A 
ATOM     80  C   UNL A   1      41.242  23.548  27.617  1.00  0.00     0.031 A 
ATOM     81  C   UNL A   1      39.383  24.966  27.045  1.00  0.00     0.131 A 
ATOM     82  C   UNL A   1      40.607  22.494  26.938  1.00  0.00     0.055 A 
ATOM     83  C   UNL A   1      38.729  23.901  26.425  1.00  0.00     0.041 A 
ATOM     84  F   UNL A   1      38.767  26.159  27.045  1.00  0.00    -0.206 F 
ATOM     85  C   UNL A   1      39.347  22.658  26.358  1.00  0.00     0.022 A 
BRANCH  82  86
ATOM     86  S   UNL A   1      41.492  20.922  26.745  1.00  0.00     0.124 S 
ATOM     87  O   UNL A   1      42.123  20.775  28.051  1.00  0.00    -0.237 OA
ATOM     88  O   UNL A   1      40.404  19.996  26.450  1.00  0.00    -0.237 OA
ATOM     89  O   UNL A   1      42.407  21.180  25.634  1.00  0.00    -0.744 OA
ENDBRANCH  82  86
ENDBRANCH  55  79
BRANCH  67  90
ATOM     90  C   UNL A   1      47.055  27.473  26.979  1.00  0.00     0.023 A 
ATOM     91  C   UNL A   1      48.104  26.767  27.592  1.00  0.00     0.031 A 
ATOM     92  C   UNL A   1      47.160  27.751  25.604  1.00  0.00     0.131 A 
ATOM     93  C   UNL A   1      49.235  26.408  26.844  1.00  0.00     0.055 A 
ATOM     94  C   UNL A   1      48.260  27.339  24.851  1.00  0.00     0.041 A 
ATOM     95  F   UNL A   1      46.189  28.425  24.967  1.00  0.00    -0.206 F 
ATOM     96  C   UNL A   1      49.312  26.674  25.475  1.00  0.00     0.022 A 
BRANCH  93  97
ATOM     97  S   UNL A   1      50.651  25.668  27.703  1.00  0.00     0.124 S 
ATOM     98  O   UNL A   1      50.013  25.048  28.860  1.00  0.00    -0.237 OA
ATOM     99  O   UNL A   1      51.181  24.750  26.699  1.00  0.00    -0.237 OA
ATOM    100  O   UNL A   1      51.507  26.813  28.007  1.00  0.00    -0.744 OA
ENDBRANCH  93  97
ENDBRANCH  67  90
ENDBRANCH  41  42
ENDBRANCH  34  36
ENDBRANCH  33  34
ENDBRANCH  32  33
ENDBRANCH  31  32
ENDBRANCH  30  31
ENDBRANCH  29  30
ENDBRANCH   1  29
TORSDOF 23
ENDMDL
