MODEL 1
REMARK VINA RESULT:      -9.5      0.000      0.000
REMARK SMILES Cc1cccc(C(=O)NCc2ccc(C(=O)OCCOCCOCCOC(=O)c3ccc(-c4c5nc(c(-c6cc(S(=O)(=O)[O-])ccc6F)c6ccc([nH]6)c(-c6cc(S(=O)(=O)[O-])ccc6F)c6nc(c(-c7cc(S(=O)(=O)[O-])ccc7F)c7ccc4[nH]7)C=C6)C=C5)cc3)o2)c1O
REMARK SMILES IDX 21 1 20 2 19 3 18 4 17 5 15 6 16 7 14 8 11 9 12 10 92 11
REMARK SMILES IDX 13 12 10 13 9 14 7 15 8 16 6 18 1 19 2 20 3 21 93 22 4 23
REMARK SMILES IDX 5 24 94 25 22 27 23 28 24 29 25 30 26 31 27 32 28 33 29 34
REMARK SMILES IDX 30 35 91 36 31 37 90 38 32 39 33 40 34 41 84 42 35 43 89 44
REMARK SMILES IDX 83 45 85 46 36 47 88 48 82 49 81 50 37 52 69 53 49 54 68 55
REMARK SMILES IDX 50 56 53 57 67 58 86 59 51 60 52 61 66 63 87 64 54 65 38 66
REMARK SMILES IDX 39 67 47 68 40 69 46 70 48 71 45 72 41 73 42 74 43 75 44 76
REMARK SMILES IDX 70 77 71 78 79 79 72 80 78 81 80 82 77 83 73 84 74 85 75 86
REMARK SMILES IDX 76 87 55 88 56 89 64 90 57 91 63 92 65 93 62 94 58 95 59 96
REMARK SMILES IDX 60 97 61 98
REMARK H PARENT 9 17 94 26 85 51 53 62
REMARK Flexibility Score: inf
ROOT
ATOM      1  C   UNL A   1      42.472  19.655  26.327  1.00  0.00     0.188 C 
ENDROOT
BRANCH   1   2
ATOM      2  O   UNL A   1      41.728  20.771  25.850  1.00  0.00    -0.376 OA
BRANCH   2   3
ATOM      3  C   UNL A   1      41.603  21.931  26.661  1.00  0.00     0.202 C 
BRANCH   3   4
ATOM      4  C   UNL A   1      40.184  22.352  27.048  1.00  0.00     0.261 C 
BRANCH   4   5
ATOM      5  O   UNL A   1      39.452  22.866  25.922  1.00  0.00    -0.457 OA
BRANCH   5   6
ATOM      6  C   UNL A   1      38.217  23.384  26.200  1.00  0.00     0.374 C 
ATOM      7  O   UNL A   1      38.025  24.452  26.769  1.00  0.00    -0.242 OA
BRANCH   6   8
ATOM      8  C   UNL A   1      37.201  22.538  25.621  1.00  0.00     0.211 A 
ATOM      9  C   UNL A   1      35.332  22.165  24.505  1.00  0.00     0.124 A 
ATOM     10  C   UNL A   1      35.911  20.931  24.717  1.00  0.00     0.048 A 
ATOM     11  O   UNL A   1      36.103  23.141  25.062  1.00  0.00    -0.452 OA
ATOM     12  C   UNL A   1      37.113  21.169  25.427  1.00  0.00     0.058 A 
BRANCH   9  13
ATOM     13  C   UNL A   1      34.081  22.596  23.828  1.00  0.00     0.191 C 
BRANCH  13  14
ATOM     14  N   UNL A   1      32.968  22.199  24.658  1.00  0.00    -0.345 N 
ATOM     15  C   UNL A   1      32.209  21.083  24.896  1.00  0.00     0.255 C 
ATOM     16  O   UNL A   1      31.292  21.314  25.691  1.00  0.00    -0.269 OA
ATOM     17  H   UNL A   1      32.663  22.950  25.217  1.00  0.00     0.164 HD
BRANCH  15  18
ATOM     18  C   UNL A   1      32.423  19.700  24.328  1.00  0.00     0.081 A 
ATOM     19  C   UNL A   1      33.437  16.192  25.611  1.00  0.00     0.048 C 
ATOM     20  C   UNL A   1      33.068  17.336  24.706  1.00  0.00    -0.008 A 
ATOM     21  C   UNL A   1      33.002  17.102  23.332  1.00  0.00     0.007 A 
ATOM     22  C   UNL A   1      32.802  18.637  25.188  1.00  0.00     0.131 A 
ATOM     23  C   UNL A   1      32.611  18.118  22.471  1.00  0.00     0.001 A 
ATOM     24  C   UNL A   1      32.300  19.390  22.969  1.00  0.00     0.018 A 
BRANCH  22  25
ATOM     25  O   UNL A   1      32.913  18.848  26.541  1.00  0.00    -0.507 OA
ATOM     26  H   UNL A   1      32.158  18.771  27.091  1.00  0.00     0.293 HD
ENDBRANCH  22  25
ENDBRANCH  15  18
ENDBRANCH  13  14
ENDBRANCH   9  13
ENDBRANCH   6   8
ENDBRANCH   5   6
ENDBRANCH   4   5
ENDBRANCH   3   4
ENDBRANCH   2   3
ENDBRANCH   1   2
BRANCH   1  27
ATOM     27  C   UNL A   1      43.442  18.934  25.371  1.00  0.00     0.188 C 
BRANCH  27  28
ATOM     28  O   UNL A   1      43.820  19.692  24.229  1.00  0.00    -0.376 OA
BRANCH  28  29
ATOM     29  C   UNL A   1      45.045  20.403  24.345  1.00  0.00     0.202 C 
BRANCH  29  30
ATOM     30  C   UNL A   1      44.914  21.873  23.933  1.00  0.00     0.261 C 
BRANCH  30  31
ATOM     31  O   UNL A   1      44.417  22.733  24.970  1.00  0.00    -0.460 OA
BRANCH  31  32
ATOM     32  C   UNL A   1      45.313  23.099  25.915  1.00  0.00     0.338 C 
ATOM     33  O   UNL A   1      46.356  22.534  26.191  1.00  0.00    -0.246 OA
BRANCH  32  34
ATOM     34  C   UNL A   1      44.907  24.408  26.459  1.00  0.00     0.060 A 
ATOM     35  C   UNL A   1      44.447  25.383  25.569  1.00  0.00     0.016 A 
ATOM     36  C   UNL A   1      45.019  24.682  27.826  1.00  0.00     0.016 A 
ATOM     37  C   UNL A   1      44.145  26.660  26.041  1.00  0.00     0.010 A 
ATOM     38  C   UNL A   1      44.725  25.964  28.295  1.00  0.00     0.010 A 
ATOM     39  C   UNL A   1      44.324  26.968  27.397  1.00  0.00    -0.014 A 
BRANCH  39  40
ATOM     40  C   UNL A   1      44.291  28.387  27.824  1.00  0.00     0.031 A 
ATOM     41  C   UNL A   1      43.000  28.940  28.363  1.00  0.00     0.074 A 
ATOM     42  C   UNL A   1      45.391  29.159  27.768  1.00  0.00     0.049 A 
ATOM     43  N   UNL A   1      42.741  30.125  28.854  1.00  0.00    -0.248 NA
ATOM     44  C   UNL A   1      41.843  28.032  28.337  1.00  0.00     0.031 C 
ATOM     45  C   UNL A   1      46.694  28.739  27.258  1.00  0.00     0.029 A 
ATOM     46  N   UNL A   1      45.579  30.464  28.147  1.00  0.00    -0.354 N 
ATOM     47  C   UNL A   1      41.396  30.100  29.210  1.00  0.00     0.074 A 
ATOM     48  C   UNL A   1      40.885  28.800  28.829  1.00  0.00     0.031 C 
ATOM     49  C   UNL A   1      47.549  29.774  27.350  1.00  0.00     0.029 A 
ATOM     50  C   UNL A   1      46.853  30.925  27.921  1.00  0.00     0.049 A 
ATOM     51  H   UNL A   1      44.868  31.018  28.543  1.00  0.00     0.167 HD
ATOM     52  C   UNL A   1      40.658  31.065  29.810  1.00  0.00     0.034 A 
ATOM     53  C   UNL A   1      47.392  32.140  28.149  1.00  0.00     0.034 A 
ATOM     54  C   UNL A   1      41.166  32.371  30.151  1.00  0.00     0.049 A 
ATOM     55  C   UNL A   1      46.542  33.216  28.782  1.00  0.00     0.074 A 
ATOM     56  C   UNL A   1      40.506  33.426  30.757  1.00  0.00     0.029 A 
ATOM     57  N   UNL A   1      42.460  32.808  29.899  1.00  0.00    -0.354 N 
ATOM     58  N   UNL A   1      45.282  33.167  29.151  1.00  0.00    -0.248 NA
ATOM     59  C   UNL A   1      47.197  34.504  29.046  1.00  0.00     0.031 C 
ATOM     60  C   UNL A   1      41.383  34.516  30.818  1.00  0.00     0.029 A 
ATOM     61  C   UNL A   1      42.612  34.121  30.315  1.00  0.00     0.049 A 
ATOM     62  H   UNL A   1      43.169  32.263  29.485  1.00  0.00     0.167 HD
ATOM     63  C   UNL A   1      45.002  34.412  29.711  1.00  0.00     0.074 A 
ATOM     64  C   UNL A   1      46.230  35.178  29.650  1.00  0.00     0.031 C 
ATOM     65  C   UNL A   1      43.839  34.880  30.233  1.00  0.00     0.034 A 
BRANCH  52  66
ATOM     66  C   UNL A   1      39.210  30.742  30.083  1.00  0.00     0.023 A 
ATOM     67  C   UNL A   1      38.190  31.135  29.197  1.00  0.00     0.031 A 
ATOM     68  C   UNL A   1      38.835  30.091  31.271  1.00  0.00     0.131 A 
ATOM     69  C   UNL A   1      36.845  30.945  29.549  1.00  0.00     0.055 A 
ATOM     70  C   UNL A   1      37.498  29.835  31.578  1.00  0.00     0.041 A 
ATOM     71  F   UNL A   1      39.763  29.716  32.166  1.00  0.00    -0.206 F 
ATOM     72  C   UNL A   1      36.492  30.277  30.722  1.00  0.00     0.022 A 
BRANCH  69  73
ATOM     73  S   UNL A   1      35.564  31.718  28.523  1.00  0.00     0.124 S 
ATOM     74  O   UNL A   1      36.280  32.866  27.970  1.00  0.00    -0.237 OA
ATOM     75  O   UNL A   1      35.233  30.656  27.578  1.00  0.00    -0.237 OA
ATOM     76  O   UNL A   1      34.513  32.051  29.481  1.00  0.00    -0.744 OA
ENDBRANCH  69  73
ENDBRANCH  52  66
BRANCH  53  77
ATOM     77  C   UNL A   1      48.805  32.422  27.769  1.00  0.00     0.023 A 
ATOM     78  C   UNL A   1      49.872  32.044  28.598  1.00  0.00     0.031 A 
ATOM     79  C   UNL A   1      49.100  33.131  26.590  1.00  0.00     0.131 A 
ATOM     80  C   UNL A   1      51.183  32.419  28.262  1.00  0.00     0.055 A 
ATOM     81  C   UNL A   1      50.409  33.458  26.237  1.00  0.00     0.041 A 
ATOM     82  F   UNL A   1      48.113  33.512  25.763  1.00  0.00    -0.206 F 
ATOM     83  C   UNL A   1      51.459  33.113  27.081  1.00  0.00     0.022 A 
BRANCH  80  84
ATOM     84  S   UNL A   1      52.520  32.047  29.430  1.00  0.00     0.124 S 
ATOM     85  O   UNL A   1      51.992  32.592  30.674  1.00  0.00    -0.237 OA
ATOM     86  O   UNL A   1      52.594  30.593  29.348  1.00  0.00    -0.237 OA
ATOM     87  O   UNL A   1      53.669  32.755  28.869  1.00  0.00    -0.744 OA
ENDBRANCH  80  84
ENDBRANCH  53  77
BRANCH  65  88
ATOM     88  C   UNL A   1      43.861  36.274  30.813  1.00  0.00     0.023 A 
ATOM     89  C   UNL A   1      43.964  36.500  32.196  1.00  0.00     0.031 A 
ATOM     90  C   UNL A   1      43.747  37.392  29.968  1.00  0.00     0.131 A 
ATOM     91  C   UNL A   1      43.886  37.808  32.699  1.00  0.00     0.055 A 
ATOM     92  C   UNL A   1      43.729  38.695  30.469  1.00  0.00     0.041 A 
ATOM     93  F   UNL A   1      43.644  37.237  28.638  1.00  0.00    -0.206 F 
ATOM     94  C   UNL A   1      43.782  38.907  31.843  1.00  0.00     0.022 A 
BRANCH  91  95
ATOM     95  S   UNL A   1      43.808  38.048  34.496  1.00  0.00     0.124 S 
ATOM     96  O   UNL A   1      42.602  37.306  34.852  1.00  0.00    -0.237 OA
ATOM     97  O   UNL A   1      45.069  37.464  34.942  1.00  0.00    -0.237 OA
ATOM     98  O   UNL A   1      43.710  39.498  34.645  1.00  0.00    -0.744 OA
ENDBRANCH  91  95
ENDBRANCH  65  88
ENDBRANCH  39  40
ENDBRANCH  32  34
ENDBRANCH  31  32
ENDBRANCH  30  31
ENDBRANCH  29  30
ENDBRANCH  28  29
ENDBRANCH  27  28
ENDBRANCH   1  27
TORSDOF 24
ENDMDL
MODEL 2
REMARK VINA RESULT:      -9.3      3.105      8.240
REMARK SMILES Cc1cccc(C(=O)NCc2ccc(C(=O)OCCOCCOCCOC(=O)c3ccc(-c4c5nc(c(-c6cc(S(=O)(=O)[O-])ccc6F)c6ccc([nH]6)c(-c6cc(S(=O)(=O)[O-])ccc6F)c6nc(c(-c7cc(S(=O)(=O)[O-])ccc7F)c7ccc4[nH]7)C=C6)C=C5)cc3)o2)c1O
REMARK SMILES IDX 21 1 20 2 19 3 18 4 17 5 15 6 16 7 14 8 11 9 12 10 92 11
REMARK SMILES IDX 13 12 10 13 9 14 7 15 8 16 6 18 1 19 2 20 3 21 93 22 4 23
REMARK SMILES IDX 5 24 94 25 22 27 23 28 24 29 25 30 26 31 27 32 28 33 29 34
REMARK SMILES IDX 30 35 91 36 31 37 90 38 32 39 33 40 34 41 84 42 35 43 89 44
REMARK SMILES IDX 83 45 85 46 36 47 88 48 82 49 81 50 37 52 69 53 49 54 68 55
REMARK SMILES IDX 50 56 53 57 67 58 86 59 51 60 52 61 66 63 87 64 54 65 38 66
REMARK SMILES IDX 39 67 47 68 40 69 46 70 48 71 45 72 41 73 42 74 43 75 44 76
REMARK SMILES IDX 70 77 71 78 79 79 72 80 78 81 80 82 77 83 73 84 74 85 75 86
REMARK SMILES IDX 76 87 55 88 56 89 64 90 57 91 63 92 65 93 62 94 58 95 59 96
REMARK SMILES IDX 60 97 61 98
REMARK H PARENT 9 17 94 26 85 51 53 62
REMARK Flexibility Score: inf
ROOT
ATOM      1  C   UNL A   1      40.628  22.650  27.516  1.00  0.00     0.188 C 
ENDROOT
BRANCH   1   2
ATOM      2  O   UNL A   1      39.239  22.715  27.209  1.00  0.00    -0.376 OA
BRANCH   2   3
ATOM      3  C   UNL A   1      38.732  23.825  26.481  1.00  0.00     0.202 C 
BRANCH   3   4
ATOM      4  C   UNL A   1      37.271  23.745  26.032  1.00  0.00     0.261 C 
BRANCH   4   5
ATOM      5  O   UNL A   1      37.152  23.277  24.678  1.00  0.00    -0.457 OA
BRANCH   5   6
ATOM      6  C   UNL A   1      36.182  22.340  24.453  1.00  0.00     0.374 C 
ATOM      7  O   UNL A   1      36.290  21.151  24.724  1.00  0.00    -0.242 OA
BRANCH   6   8
ATOM      8  C   UNL A   1      34.991  22.991  23.959  1.00  0.00     0.211 A 
ATOM      9  C   UNL A   1      32.807  23.215  23.728  1.00  0.00     0.124 A 
ATOM     10  C   UNL A   1      33.374  24.339  23.165  1.00  0.00     0.048 A 
ATOM     11  O   UNL A   1      33.782  22.389  24.199  1.00  0.00    -0.452 OA
ATOM     12  C   UNL A   1      34.776  24.200  23.319  1.00  0.00     0.058 A 
BRANCH   9  13
ATOM     13  C   UNL A   1      31.400  22.762  23.892  1.00  0.00     0.191 C 
BRANCH  13  14
ATOM     14  N   UNL A   1      30.990  23.066  25.243  1.00  0.00    -0.345 N 
ATOM     15  C   UNL A   1      30.886  24.156  26.066  1.00  0.00     0.255 C 
ATOM     16  O   UNL A   1      30.528  23.838  27.205  1.00  0.00    -0.269 OA
ATOM     17  H   UNL A   1      30.700  22.249  25.711  1.00  0.00     0.164 HD
BRANCH  15  18
ATOM     18  C   UNL A   1      31.124  25.601  25.695  1.00  0.00     0.081 A 
ATOM     19  C   UNL A   1      29.579  28.255  23.340  1.00  0.00     0.048 C 
ATOM     20  C   UNL A   1      30.487  27.563  24.321  1.00  0.00    -0.008 A 
ATOM     21  C   UNL A   1      31.587  28.263  24.817  1.00  0.00     0.007 A 
ATOM     22  C   UNL A   1      30.280  26.232  24.745  1.00  0.00     0.131 A 
ATOM     23  C   UNL A   1      32.414  27.678  25.764  1.00  0.00     0.001 A 
ATOM     24  C   UNL A   1      32.167  26.375  26.216  1.00  0.00     0.018 A 
BRANCH  22  25
ATOM     25  O   UNL A   1      29.212  25.553  24.211  1.00  0.00    -0.507 OA
ATOM     26  H   UNL A   1      28.392  25.990  24.088  1.00  0.00     0.293 HD
ENDBRANCH  22  25
ENDBRANCH  15  18
ENDBRANCH  13  14
ENDBRANCH   9  13
ENDBRANCH   6   8
ENDBRANCH   5   6
ENDBRANCH   4   5
ENDBRANCH   3   4
ENDBRANCH   2   3
ENDBRANCH   1   2
BRANCH   1  27
ATOM     27  C   UNL A   1      41.559  23.777  27.031  1.00  0.00     0.188 C 
BRANCH  27  28
ATOM     28  O   UNL A   1      42.662  23.338  26.249  1.00  0.00    -0.376 OA
BRANCH  28  29
ATOM     29  C   UNL A   1      42.434  22.170  25.470  1.00  0.00     0.202 C 
BRANCH  29  30
ATOM     30  C   UNL A   1      43.653  21.241  25.433  1.00  0.00     0.261 C 
BRANCH  30  31
ATOM     31  O   UNL A   1      44.739  21.661  26.275  1.00  0.00    -0.460 OA
BRANCH  31  32
ATOM     32  C   UNL A   1      45.792  22.225  25.642  1.00  0.00     0.338 C 
ATOM     33  O   UNL A   1      46.478  21.721  24.771  1.00  0.00    -0.246 OA
BRANCH  32  34
ATOM     34  C   UNL A   1      45.885  23.636  26.060  1.00  0.00     0.060 A 
ATOM     35  C   UNL A   1      46.104  23.915  27.413  1.00  0.00     0.016 A 
ATOM     36  C   UNL A   1      45.716  24.671  25.135  1.00  0.00     0.016 A 
ATOM     37  C   UNL A   1      46.102  25.238  27.854  1.00  0.00     0.010 A 
ATOM     38  C   UNL A   1      45.706  25.995  25.580  1.00  0.00     0.010 A 
ATOM     39  C   UNL A   1      45.859  26.279  26.947  1.00  0.00    -0.014 A 
BRANCH  39  40
ATOM     40  C   UNL A   1      45.563  27.635  27.470  1.00  0.00     0.031 A 
ATOM     41  C   UNL A   1      46.678  28.644  27.509  1.00  0.00     0.074 A 
ATOM     42  C   UNL A   1      44.324  27.974  27.867  1.00  0.00     0.049 A 
ATOM     43  N   UNL A   1      46.651  29.903  27.862  1.00  0.00    -0.248 NA
ATOM     44  C   UNL A   1      48.007  28.161  27.099  1.00  0.00     0.031 C 
ATOM     45  C   UNL A   1      43.167  27.083  27.884  1.00  0.00     0.029 A 
ATOM     46  N   UNL A   1      43.839  29.169  28.336  1.00  0.00    -0.354 N 
ATOM     47  C   UNL A   1      47.952  30.368  27.703  1.00  0.00     0.074 A 
ATOM     48  C   UNL A   1      48.751  29.241  27.271  1.00  0.00     0.031 C 
ATOM     49  C   UNL A   1      42.103  27.762  28.349  1.00  0.00     0.029 A 
ATOM     50  C   UNL A   1      42.505  29.132  28.663  1.00  0.00     0.049 A 
ATOM     51  H   UNL A   1      44.395  29.977  28.431  1.00  0.00     0.167 HD
ATOM     52  C   UNL A   1      48.436  31.621  27.886  1.00  0.00     0.034 A 
ATOM     53  C   UNL A   1      41.705  30.096  29.161  1.00  0.00     0.034 A 
ATOM     54  C   UNL A   1      47.640  32.729  28.353  1.00  0.00     0.049 A 
ATOM     55  C   UNL A   1      42.272  31.475  29.397  1.00  0.00     0.074 A 
ATOM     56  C   UNL A   1      48.028  34.039  28.578  1.00  0.00     0.029 A 
ATOM     57  N   UNL A   1      46.293  32.654  28.683  1.00  0.00    -0.354 N 
ATOM     58  N   UNL A   1      43.495  31.913  29.205  1.00  0.00    -0.248 NA
ATOM     59  C   UNL A   1      41.340  32.494  29.899  1.00  0.00     0.031 C 
ATOM     60  C   UNL A   1      46.932  34.738  29.098  1.00  0.00     0.029 A 
ATOM     61  C   UNL A   1      45.840  33.885  29.132  1.00  0.00     0.049 A 
ATOM     62  H   UNL A   1      45.739  31.843  28.610  1.00  0.00     0.167 HD
ATOM     63  C   UNL A   1      43.472  33.265  29.541  1.00  0.00     0.074 A 
ATOM     64  C   UNL A   1      42.110  33.572  29.926  1.00  0.00     0.031 C 
ATOM     65  C   UNL A   1      44.482  34.174  29.530  1.00  0.00     0.034 A 
BRANCH  52  66
ATOM     66  C   UNL A   1      49.907  31.828  27.623  1.00  0.00     0.023 A 
ATOM     67  C   UNL A   1      50.379  32.211  26.355  1.00  0.00     0.031 A 
ATOM     68  C   UNL A   1      50.854  31.579  28.631  1.00  0.00     0.131 A 
ATOM     69  C   UNL A   1      51.759  32.257  26.106  1.00  0.00     0.055 A 
ATOM     70  C   UNL A   1      52.225  31.702  28.397  1.00  0.00     0.041 A 
ATOM     71  F   UNL A   1      50.464  31.186  29.854  1.00  0.00    -0.206 F 
ATOM     72  C   UNL A   1      52.686  32.027  27.124  1.00  0.00     0.022 A 
BRANCH  69  73
ATOM     73  S   UNL A   1      52.324  32.471  24.395  1.00  0.00     0.124 S 
ATOM     74  O   UNL A   1      51.734  31.305  23.740  1.00  0.00    -0.237 OA
ATOM     75  O   UNL A   1      51.752  33.763  24.033  1.00  0.00    -0.237 OA
ATOM     76  O   UNL A   1      53.780  32.442  24.509  1.00  0.00    -0.744 OA
ENDBRANCH  69  73
ENDBRANCH  52  66
BRANCH  53  77
ATOM     77  C   UNL A   1      40.282  29.800  29.488  1.00  0.00     0.023 A 
ATOM     78  C   UNL A   1      39.829  29.776  30.817  1.00  0.00     0.031 A 
ATOM     79  C   UNL A   1      39.367  29.477  28.471  1.00  0.00     0.131 A 
ATOM     80  C   UNL A   1      38.509  29.389  31.097  1.00  0.00     0.055 A 
ATOM     81  C   UNL A   1      38.042  29.141  28.752  1.00  0.00     0.041 A 
ATOM     82  F   UNL A   1      39.751  29.488  27.184  1.00  0.00    -0.206 F 
ATOM     83  C   UNL A   1      37.609  29.083  30.073  1.00  0.00     0.022 A 
BRANCH  80  84
ATOM     84  S   UNL A   1      38.001  29.223  32.830  1.00  0.00     0.124 S 
ATOM     85  O   UNL A   1      39.122  29.833  33.532  1.00  0.00    -0.237 OA
ATOM     86  O   UNL A   1      36.749  29.972  32.850  1.00  0.00    -0.237 OA
ATOM     87  O   UNL A   1      37.856  27.779  33.006  1.00  0.00    -0.744 OA
ENDBRANCH  80  84
ENDBRANCH  53  77
BRANCH  65  88
ATOM     88  C   UNL A   1      44.131  35.592  29.911  1.00  0.00     0.023 A 
ATOM     89  C   UNL A   1      43.679  36.524  28.961  1.00  0.00     0.031 A 
ATOM     90  C   UNL A   1      44.280  36.023  31.241  1.00  0.00     0.131 A 
ATOM     91  C   UNL A   1      43.454  37.856  29.340  1.00  0.00     0.055 A 
ATOM     92  C   UNL A   1      43.999  37.336  31.625  1.00  0.00     0.041 A 
ATOM     93  F   UNL A   1      44.709  35.176  32.190  1.00  0.00    -0.206 F 
ATOM     94  C   UNL A   1      43.599  38.265  30.668  1.00  0.00     0.022 A 
BRANCH  91  95
ATOM     95  S   UNL A   1      43.079  39.078  28.052  1.00  0.00     0.124 S 
ATOM     96  O   UNL A   1      41.631  39.212  28.169  1.00  0.00    -0.237 OA
ATOM     97  O   UNL A   1      43.862  40.232  28.483  1.00  0.00    -0.237 OA
ATOM     98  O   UNL A   1      43.545  38.437  26.824  1.00  0.00    -0.744 OA
ENDBRANCH  91  95
ENDBRANCH  65  88
ENDBRANCH  39  40
ENDBRANCH  32  34
ENDBRANCH  31  32
ENDBRANCH  30  31
ENDBRANCH  29  30
ENDBRANCH  28  29
ENDBRANCH  27  28
ENDBRANCH   1  27
TORSDOF 24
ENDMDL
MODEL 3
REMARK VINA RESULT:      -9.1      2.454      3.848
REMARK SMILES Cc1cccc(C(=O)NCc2ccc(C(=O)OCCOCCOCCOC(=O)c3ccc(-c4c5nc(c(-c6cc(S(=O)(=O)[O-])ccc6F)c6ccc([nH]6)c(-c6cc(S(=O)(=O)[O-])ccc6F)c6nc(c(-c7cc(S(=O)(=O)[O-])ccc7F)c7ccc4[nH]7)C=C6)C=C5)cc3)o2)c1O
REMARK SMILES IDX 21 1 20 2 19 3 18 4 17 5 15 6 16 7 14 8 11 9 12 10 92 11
REMARK SMILES IDX 13 12 10 13 9 14 7 15 8 16 6 18 1 19 2 20 3 21 93 22 4 23
REMARK SMILES IDX 5 24 94 25 22 27 23 28 24 29 25 30 26 31 27 32 28 33 29 34
REMARK SMILES IDX 30 35 91 36 31 37 90 38 32 39 33 40 34 41 84 42 35 43 89 44
REMARK SMILES IDX 83 45 85 46 36 47 88 48 82 49 81 50 37 52 69 53 49 54 68 55
REMARK SMILES IDX 50 56 53 57 67 58 86 59 51 60 52 61 66 63 87 64 54 65 38 66
REMARK SMILES IDX 39 67 47 68 40 69 46 70 48 71 45 72 41 73 42 74 43 75 44 76
REMARK SMILES IDX 70 77 71 78 79 79 72 80 78 81 80 82 77 83 73 84 74 85 75 86
REMARK SMILES IDX 76 87 55 88 56 89 64 90 57 91 63 92 65 93 62 94 58 95 59 96
REMARK SMILES IDX 60 97 61 98
REMARK H PARENT 9 17 94 26 85 51 53 62
REMARK Flexibility Score: inf
ROOT
ATOM      1  C   UNL A   1      39.813  21.541  26.136  1.00  0.00     0.188 C 
ENDROOT
BRANCH   1   2
ATOM      2  O   UNL A   1      38.589  22.089  25.658  1.00  0.00    -0.376 OA
BRANCH   2   3
ATOM      3  C   UNL A   1      37.685  21.264  24.935  1.00  0.00     0.202 C 
BRANCH   3   4
ATOM      4  C   UNL A   1      36.309  21.037  25.564  1.00  0.00     0.261 C 
BRANCH   4   5
ATOM      5  O   UNL A   1      35.583  22.267  25.727  1.00  0.00    -0.457 OA
BRANCH   5   6
ATOM      6  C   UNL A   1      34.321  22.153  26.238  1.00  0.00     0.374 C 
ATOM      7  O   UNL A   1      34.043  22.238  27.428  1.00  0.00    -0.242 OA
BRANCH   6   8
ATOM      8  C   UNL A   1      33.373  22.032  25.155  1.00  0.00     0.211 A 
ATOM      9  C   UNL A   1      31.768  22.777  23.834  1.00  0.00     0.124 A 
ATOM     10  C   UNL A   1      32.153  21.554  23.326  1.00  0.00     0.048 A 
ATOM     11  O   UNL A   1      32.496  23.066  24.949  1.00  0.00    -0.452 OA
ATOM     12  C   UNL A   1      33.188  21.078  24.169  1.00  0.00     0.058 A 
BRANCH   9  13
ATOM     13  C   UNL A   1      30.750  23.775  23.414  1.00  0.00     0.191 C 
BRANCH  13  14
ATOM     14  N   UNL A   1      31.334  24.598  22.381  1.00  0.00    -0.345 N 
ATOM     15  C   UNL A   1      31.710  25.903  22.194  1.00  0.00     0.255 C 
ATOM     16  O   UNL A   1      32.111  26.103  21.043  1.00  0.00    -0.269 OA
ATOM     17  H   UNL A   1      31.515  24.066  21.573  1.00  0.00     0.164 HD
BRANCH  15  18
ATOM     18  C   UNL A   1      31.701  27.007  23.224  1.00  0.00     0.081 A 
ATOM     19  C   UNL A   1      33.464  27.829  26.571  1.00  0.00     0.048 C 
ATOM     20  C   UNL A   1      32.546  27.894  25.380  1.00  0.00    -0.008 A 
ATOM     21  C   UNL A   1      31.643  28.955  25.293  1.00  0.00     0.007 A 
ATOM     22  C   UNL A   1      32.549  26.918  24.359  1.00  0.00     0.131 A 
ATOM     23  C   UNL A   1      30.820  29.078  24.183  1.00  0.00     0.001 A 
ATOM     24  C   UNL A   1      30.871  28.132  23.152  1.00  0.00     0.018 A 
BRANCH  22  25
ATOM     25  O   UNL A   1      33.420  25.863  24.490  1.00  0.00    -0.507 OA
ATOM     26  H   UNL A   1      34.294  25.933  24.158  1.00  0.00     0.293 HD
ENDBRANCH  22  25
ENDBRANCH  15  18
ENDBRANCH  13  14
ENDBRANCH   9  13
ENDBRANCH   6   8
ENDBRANCH   5   6
ENDBRANCH   4   5
ENDBRANCH   3   4
ENDBRANCH   2   3
ENDBRANCH   1   2
BRANCH   1  27
ATOM     27  C   UNL A   1      40.549  22.241  27.294  1.00  0.00     0.188 C 
BRANCH  27  28
ATOM     28  O   UNL A   1      41.966  22.140  27.242  1.00  0.00    -0.376 OA
BRANCH  28  29
ATOM     29  C   UNL A   1      42.474  20.970  26.615  1.00  0.00     0.202 C 
BRANCH  29  30
ATOM     30  C   UNL A   1      43.492  21.286  25.514  1.00  0.00     0.261 C 
BRANCH  30  31
ATOM     31  O   UNL A   1      44.503  22.230  25.902  1.00  0.00    -0.460 OA
BRANCH  31  32
ATOM     32  C   UNL A   1      44.685  23.278  25.067  1.00  0.00     0.338 C 
ATOM     33  O   UNL A   1      44.938  23.229  23.876  1.00  0.00    -0.246 OA
BRANCH  32  34
ATOM     34  C   UNL A   1      44.359  24.517  25.797  1.00  0.00     0.060 A 
ATOM     35  C   UNL A   1      44.012  25.652  25.059  1.00  0.00     0.016 A 
ATOM     36  C   UNL A   1      44.436  24.567  27.193  1.00  0.00     0.016 A 
ATOM     37  C   UNL A   1      43.791  26.862  25.716  1.00  0.00     0.010 A 
ATOM     38  C   UNL A   1      44.223  25.782  27.848  1.00  0.00     0.010 A 
ATOM     39  C   UNL A   1      43.939  26.942  27.108  1.00  0.00    -0.014 A 
BRANCH  39  40
ATOM     40  C   UNL A   1      43.998  28.276  27.751  1.00  0.00     0.031 A 
ATOM     41  C   UNL A   1      42.731  28.847  28.329  1.00  0.00     0.074 A 
ATOM     42  C   UNL A   1      45.156  28.952  27.852  1.00  0.00     0.049 A 
ATOM     43  N   UNL A   1      42.545  29.959  28.991  1.00  0.00    -0.248 NA
ATOM     44  C   UNL A   1      41.509  28.054  28.124  1.00  0.00     0.031 C 
ATOM     45  C   UNL A   1      46.443  28.507  27.323  1.00  0.00     0.029 A 
ATOM     46  N   UNL A   1      45.429  30.162  28.436  1.00  0.00    -0.354 N 
ATOM     47  C   UNL A   1      41.188  29.994  29.296  1.00  0.00     0.074 A 
ATOM     48  C   UNL A   1      40.594  28.816  28.701  1.00  0.00     0.031 C 
ATOM     49  C   UNL A   1      47.372  29.439  27.603  1.00  0.00     0.029 A 
ATOM     50  C   UNL A   1      46.745  30.544  28.325  1.00  0.00     0.049 A 
ATOM     51  H   UNL A   1      44.747  30.708  28.891  1.00  0.00     0.167 HD
ATOM     52  C   UNL A   1      40.502  30.914  30.016  1.00  0.00     0.034 A 
ATOM     53  C   UNL A   1      47.366  31.659  28.758  1.00  0.00     0.034 A 
ATOM     54  C   UNL A   1      41.095  32.104  30.574  1.00  0.00     0.049 A 
ATOM     55  C   UNL A   1      46.576  32.693  29.524  1.00  0.00     0.074 A 
ATOM     56  C   UNL A   1      40.493  33.106  31.316  1.00  0.00     0.029 A 
ATOM     57  N   UNL A   1      42.430  32.464  30.435  1.00  0.00    -0.354 N 
ATOM     58  N   UNL A   1      45.301  32.695  29.841  1.00  0.00    -0.248 NA
ATOM     59  C   UNL A   1      47.318  33.865  30.007  1.00  0.00     0.031 C 
ATOM     60  C   UNL A   1      41.450  34.096  31.575  1.00  0.00     0.029 A 
ATOM     61  C   UNL A   1      42.665  33.681  31.056  1.00  0.00     0.049 A 
ATOM     62  H   UNL A   1      43.111  31.931  29.962  1.00  0.00     0.167 HD
ATOM     63  C   UNL A   1      45.095  33.858  30.581  1.00  0.00     0.074 A 
ATOM     64  C   UNL A   1      46.381  34.518  30.679  1.00  0.00     0.031 C 
ATOM     65  C   UNL A   1      43.950  34.337  31.132  1.00  0.00     0.034 A 
BRANCH  52  66
ATOM     66  C   UNL A   1      39.022  30.677  30.190  1.00  0.00     0.023 A 
ATOM     67  C   UNL A   1      38.080  31.244  29.312  1.00  0.00     0.031 A 
ATOM     68  C   UNL A   1      38.542  29.929  31.278  1.00  0.00     0.131 A 
ATOM     69  C   UNL A   1      36.708  31.121  29.583  1.00  0.00     0.055 A 
ATOM     70  C   UNL A   1      37.176  29.745  31.498  1.00  0.00     0.041 A 
ATOM     71  F   UNL A   1      39.393  29.385  32.163  1.00  0.00    -0.206 F 
ATOM     72  C   UNL A   1      36.249  30.356  30.657  1.00  0.00     0.022 A 
BRANCH  69  73
ATOM     73  S   UNL A   1      35.540  32.100  28.600  1.00  0.00     0.124 S 
ATOM     74  O   UNL A   1      35.116  31.130  27.592  1.00  0.00    -0.237 OA
ATOM     75  O   UNL A   1      34.534  32.475  29.587  1.00  0.00    -0.237 OA
ATOM     76  O   UNL A   1      36.356  33.199  28.092  1.00  0.00    -0.744 OA
ENDBRANCH  69  73
ENDBRANCH  52  66
BRANCH  53  77
ATOM     77  C   UNL A   1      48.812  31.876  28.471  1.00  0.00     0.023 A 
ATOM     78  C   UNL A   1      49.233  32.540  27.308  1.00  0.00     0.031 A 
ATOM     79  C   UNL A   1      49.797  31.366  29.336  1.00  0.00     0.131 A 
ATOM     80  C   UNL A   1      50.603  32.634  27.015  1.00  0.00     0.055 A 
ATOM     81  C   UNL A   1      51.158  31.506  29.064  1.00  0.00     0.041 A 
ATOM     82  F   UNL A   1      49.444  30.726  30.462  1.00  0.00    -0.206 F 
ATOM     83  C   UNL A   1      51.568  32.131  27.891  1.00  0.00     0.022 A 
BRANCH  80  84
ATOM     84  S   UNL A   1      51.106  33.362  25.432  1.00  0.00     0.124 S 
ATOM     85  O   UNL A   1      52.289  34.121  25.812  1.00  0.00    -0.237 OA
ATOM     86  O   UNL A   1      51.341  32.175  24.617  1.00  0.00    -0.237 OA
ATOM     87  O   UNL A   1      49.945  34.158  25.039  1.00  0.00    -0.744 OA
ENDBRANCH  80  84
ENDBRANCH  53  77
BRANCH  65  88
ATOM     88  C   UNL A   1      44.056  35.618  31.923  1.00  0.00     0.023 A 
ATOM     89  C   UNL A   1      44.307  35.617  33.307  1.00  0.00     0.031 A 
ATOM     90  C   UNL A   1      43.873  36.858  31.287  1.00  0.00     0.131 A 
ATOM     91  C   UNL A   1      44.304  36.826  34.019  1.00  0.00     0.055 A 
ATOM     92  C   UNL A   1      43.929  38.063  31.991  1.00  0.00     0.041 A 
ATOM     93  F   UNL A   1      43.629  36.921  29.968  1.00  0.00    -0.206 F 
ATOM     94  C   UNL A   1      44.129  38.049  33.368  1.00  0.00     0.022 A 
BRANCH  91  95
ATOM     95  S   UNL A   1      44.419  36.771  35.829  1.00  0.00     0.124 S 
ATOM     96  O   UNL A   1      45.649  37.515  36.082  1.00  0.00    -0.237 OA
ATOM     97  O   UNL A   1      43.182  37.429  36.238  1.00  0.00    -0.237 OA
ATOM     98  O   UNL A   1      44.487  35.341  36.126  1.00  0.00    -0.744 OA
ENDBRANCH  91  95
ENDBRANCH  65  88
ENDBRANCH  39  40
ENDBRANCH  32  34
ENDBRANCH  31  32
ENDBRANCH  30  31
ENDBRANCH  29  30
ENDBRANCH  28  29
ENDBRANCH  27  28
ENDBRANCH   1  27
TORSDOF 24
ENDMDL
