MODEL 1
REMARK VINA RESULT:     -11.6      0.000      0.000
REMARK SMILES O=C(OCCOCCOCCOC(=O)c1cn([C@H]2CCc3ccccc3C2)c(=O)[nH]c1=O)c1ccc(-c2c3nc(c(-c4cc(S(=O)(=O)[O-])ccc4F)c4ccc([nH]4)c(-c4cc(S(=O)(=O)[O-])ccc4F)c4nc(c(-c5cc(S(=O)(=O)[O-])ccc5F)c5ccc2[nH]5)C=C4)C=C3)cc1
REMARK SMILES IDX 7 1 6 2 5 3 4 4 3 5 2 6 1 7 33 8 34 9 95 10 35 11 94 12
REMARK SMILES IDX 36 13 37 14 38 15 88 16 39 17 93 18 87 19 89 20 40 21 92 22
REMARK SMILES IDX 86 23 85 24 41 26 73 27 53 28 72 29 54 30 57 31 71 32 90 33
REMARK SMILES IDX 55 34 56 35 70 37 91 38 58 39 42 40 43 41 51 42 44 43 50 44
REMARK SMILES IDX 52 45 49 46 45 47 46 48 47 49 48 50 74 51 75 52 83 53 76 54
REMARK SMILES IDX 82 55 84 56 81 57 77 58 78 59 79 60 80 61 59 62 60 63 68 64
REMARK SMILES IDX 61 65 67 66 69 67 66 68 62 69 63 70 64 71 65 72 8 73 9 74
REMARK SMILES IDX 10 75 11 76 12 77 13 78 14 79 15 80 16 81 31 82 17 83 30 84
REMARK SMILES IDX 32 85 28 86 29 88 18 89 19 90 27 91 20 92 26 93 21 94 25 95
REMARK SMILES IDX 22 96 24 97 23 98
REMARK H PARENT 89 25 57 36 30 87
REMARK Flexibility Score: inf
ROOT
ATOM      1  C   UNL A   1      34.963  22.072  26.337  1.00  0.00     0.188 C 
ENDROOT
BRANCH   1   2
ATOM      2  O   UNL A   1      35.423  21.004  25.500  1.00  0.00    -0.376 OA
BRANCH   2   3
ATOM      3  C   UNL A   1      36.670  21.287  24.862  1.00  0.00     0.202 C 
BRANCH   3   4
ATOM      4  C   UNL A   1      37.561  22.328  25.556  1.00  0.00     0.261 C 
BRANCH   4   5
ATOM      5  O   UNL A   1      38.737  21.799  26.187  1.00  0.00    -0.460 OA
BRANCH   5   6
ATOM      6  C   UNL A   1      39.888  22.414  26.553  1.00  0.00     0.338 C 
ATOM      7  O   UNL A   1      40.884  21.703  26.698  1.00  0.00    -0.246 OA
BRANCH   6   8
ATOM      8  C   UNL A   1      40.027  23.882  26.856  1.00  0.00     0.060 A 
ATOM      9  C   UNL A   1      39.687  24.299  28.158  1.00  0.00     0.016 A 
ATOM     10  C   UNL A   1      40.477  24.867  25.977  1.00  0.00     0.016 A 
ATOM     11  C   UNL A   1      39.794  25.644  28.553  1.00  0.00     0.010 A 
ATOM     12  C   UNL A   1      40.593  26.207  26.363  1.00  0.00     0.010 A 
ATOM     13  C   UNL A   1      40.263  26.614  27.654  1.00  0.00    -0.014 A 
BRANCH  13  14
ATOM     14  C   UNL A   1      40.707  27.955  28.111  1.00  0.00     0.031 A 
ATOM     15  C   UNL A   1      42.137  28.313  28.415  1.00  0.00     0.074 A 
ATOM     16  C   UNL A   1      39.737  28.814  28.479  1.00  0.00     0.049 A 
ATOM     17  N   UNL A   1      42.674  29.502  28.524  1.00  0.00    -0.248 NA
ATOM     18  C   UNL A   1      43.088  27.223  28.676  1.00  0.00     0.031 C 
ATOM     19  C   UNL A   1      38.302  28.509  28.491  1.00  0.00     0.029 A 
ATOM     20  N   UNL A   1      39.813  30.079  28.992  1.00  0.00    -0.354 N 
ATOM     21  C   UNL A   1      44.044  29.303  28.696  1.00  0.00     0.074 A 
ATOM     22  C   UNL A   1      44.225  27.887  28.884  1.00  0.00     0.031 C 
ATOM     23  C   UNL A   1      37.643  29.538  29.042  1.00  0.00     0.029 A 
ATOM     24  C   UNL A   1      38.600  30.584  29.386  1.00  0.00     0.049 A 
ATOM     25  H   UNL A   1      40.657  30.579  29.071  1.00  0.00     0.167 HD
ATOM     26  C   UNL A   1      45.019  30.243  28.607  1.00  0.00     0.034 A 
ATOM     27  C   UNL A   1      38.296  31.766  29.954  1.00  0.00     0.034 A 
ATOM     28  C   UNL A   1      44.718  31.643  28.720  1.00  0.00     0.049 A 
ATOM     29  C   UNL A   1      39.389  32.793  30.066  1.00  0.00     0.074 A 
ATOM     30  C   UNL A   1      45.597  32.706  28.671  1.00  0.00     0.029 A 
ATOM     31  N   UNL A   1      43.468  32.152  29.016  1.00  0.00    -0.354 N 
ATOM     32  N   UNL A   1      40.651  32.685  29.721  1.00  0.00    -0.248 NA
ATOM     33  C   UNL A   1      39.024  34.112  30.594  1.00  0.00     0.031 C 
ATOM     34  C   UNL A   1      44.894  33.848  29.033  1.00  0.00     0.029 A 
ATOM     35  C   UNL A   1      43.570  33.502  29.266  1.00  0.00     0.049 A 
ATOM     36  H   UNL A   1      42.633  31.630  29.044  1.00  0.00     0.167 HD
ATOM     37  C   UNL A   1      41.219  33.933  29.944  1.00  0.00     0.074 A 
ATOM     38  C   UNL A   1      40.164  34.781  30.456  1.00  0.00     0.031 C 
ATOM     39  C   UNL A   1      42.496  34.339  29.739  1.00  0.00     0.034 A 
BRANCH  26  40
ATOM     40  C   UNL A   1      46.462  29.918  28.280  1.00  0.00     0.023 A 
ATOM     41  C   UNL A   1      46.908  29.383  27.067  1.00  0.00     0.031 A 
ATOM     42  C   UNL A   1      47.373  29.886  29.366  1.00  0.00     0.131 A 
ATOM     43  C   UNL A   1      48.238  28.913  26.966  1.00  0.00     0.055 A 
ATOM     44  C   UNL A   1      48.709  29.510  29.239  1.00  0.00     0.041 A 
ATOM     45  F   UNL A   1      46.945  30.165  30.609  1.00  0.00    -0.206 F 
ATOM     46  C   UNL A   1      49.150  29.021  28.025  1.00  0.00     0.022 A 
BRANCH  43  47
ATOM     47  S   UNL A   1      48.778  27.937  25.530  1.00  0.00     0.124 S 
ATOM     48  O   UNL A   1      47.728  28.234  24.561  1.00  0.00    -0.237 OA
ATOM     49  O   UNL A   1      50.088  28.510  25.228  1.00  0.00    -0.237 OA
ATOM     50  O   UNL A   1      48.800  26.570  26.039  1.00  0.00    -0.744 OA
ENDBRANCH  43  47
ENDBRANCH  26  40
BRANCH  27  51
ATOM     51  C   UNL A   1      36.877  32.029  30.319  1.00  0.00     0.023 A 
ATOM     52  C   UNL A   1      36.023  32.705  29.425  1.00  0.00     0.031 A 
ATOM     53  C   UNL A   1      36.415  31.781  31.619  1.00  0.00     0.131 A 
ATOM     54  C   UNL A   1      34.782  33.178  29.872  1.00  0.00     0.055 A 
ATOM     55  C   UNL A   1      35.151  32.197  32.041  1.00  0.00     0.041 A 
ATOM     56  F   UNL A   1      37.205  31.164  32.511  1.00  0.00    -0.206 F 
ATOM     57  C   UNL A   1      34.336  32.916  31.172  1.00  0.00     0.022 A 
BRANCH  54  58
ATOM     58  S   UNL A   1      33.779  34.282  28.837  1.00  0.00     0.124 S 
ATOM     59  O   UNL A   1      32.841  34.840  29.806  1.00  0.00    -0.237 OA
ATOM     60  O   UNL A   1      34.787  35.209  28.327  1.00  0.00    -0.237 OA
ATOM     61  O   UNL A   1      33.199  33.389  27.839  1.00  0.00    -0.744 OA
ENDBRANCH  54  58
ENDBRANCH  27  51
BRANCH  39  62
ATOM     62  C   UNL A   1      42.883  35.752  30.075  1.00  0.00     0.023 A 
ATOM     63  C   UNL A   1      42.884  36.723  29.057  1.00  0.00     0.031 A 
ATOM     64  C   UNL A   1      43.505  36.051  31.296  1.00  0.00     0.131 A 
ATOM     65  C   UNL A   1      43.584  37.918  29.246  1.00  0.00     0.055 A 
ATOM     66  C   UNL A   1      44.137  37.275  31.507  1.00  0.00     0.041 A 
ATOM     67  F   UNL A   1      43.550  35.139  32.281  1.00  0.00    -0.206 F 
ATOM     68  C   UNL A   1      44.202  38.203  30.468  1.00  0.00     0.022 A 
BRANCH  65  69
ATOM     69  S   UNL A   1      43.876  39.047  27.857  1.00  0.00     0.124 S 
ATOM     70  O   UNL A   1      45.014  38.416  27.194  1.00  0.00    -0.237 OA
ATOM     71  O   UNL A   1      42.610  38.977  27.131  1.00  0.00    -0.237 OA
ATOM     72  O   UNL A   1      44.158  40.328  28.497  1.00  0.00    -0.744 OA
ENDBRANCH  65  69
ENDBRANCH  39  62
ENDBRANCH  13  14
ENDBRANCH   6   8
ENDBRANCH   5   6
ENDBRANCH   4   5
ENDBRANCH   3   4
ENDBRANCH   2   3
ENDBRANCH   1   2
BRANCH   1  73
ATOM     73  C   UNL A   1      33.463  22.364  26.211  1.00  0.00     0.188 C 
BRANCH  73  74
ATOM     74  O   UNL A   1      32.595  21.254  25.992  1.00  0.00    -0.376 OA
BRANCH  74  75
ATOM     75  C   UNL A   1      31.979  21.143  24.712  1.00  0.00     0.202 C 
BRANCH  75  76
ATOM     76  C   UNL A   1      32.845  21.283  23.451  1.00  0.00     0.261 C 
BRANCH  76  77
ATOM     77  O   UNL A   1      32.386  22.286  22.534  1.00  0.00    -0.459 OA
BRANCH  77  78
ATOM     78  C   UNL A   1      33.224  23.340  22.364  1.00  0.00     0.345 C 
ATOM     79  O   UNL A   1      34.444  23.313  22.374  1.00  0.00    -0.246 OA
BRANCH  78  80
ATOM     80  C   UNL A   1      32.458  24.577  22.235  1.00  0.00     0.141 A 
ATOM     81  C   UNL A   1      31.808  24.971  23.330  1.00  0.00     0.112 A 
ATOM     82  C   UNL A   1      32.525  25.501  21.099  1.00  0.00     0.268 A 
ATOM     83  N   UNL A   1      31.211  26.218  23.437  1.00  0.00    -0.296 N 
ATOM     84  N   UNL A   1      31.683  26.569  21.174  1.00  0.00    -0.273 N 
ATOM     85  O   UNL A   1      33.292  25.365  20.150  1.00  0.00    -0.268 OA
ATOM     86  C   UNL A   1      31.034  27.007  22.297  1.00  0.00     0.328 A 
ATOM     87  H   UNL A   1      31.528  27.074  20.343  1.00  0.00     0.175 HD
ATOM     88  O   UNL A   1      30.389  28.043  22.196  1.00  0.00    -0.248 OA
BRANCH  83  89
ATOM     89  C   UNL A   1      30.713  26.616  24.780  1.00  0.00     0.096 C 
ATOM     90  C   UNL A   1      31.325  25.810  25.950  1.00  0.00     0.031 C 
ATOM     91  C   UNL A   1      30.791  28.099  25.141  1.00  0.00     0.061 C 
ATOM     92  C   UNL A   1      32.804  26.136  26.108  1.00  0.00     0.038 C 
ATOM     93  C   UNL A   1      32.106  28.544  25.715  1.00  0.00    -0.043 A 
ATOM     94  C   UNL A   1      33.040  27.619  26.212  1.00  0.00    -0.045 A 
ATOM     95  C   UNL A   1      32.316  29.917  25.896  1.00  0.00     0.004 A 
ATOM     96  C   UNL A   1      34.207  28.089  26.821  1.00  0.00     0.004 A 
ATOM     97  C   UNL A   1      33.465  30.372  26.532  1.00  0.00     0.000 A 
ATOM     98  C   UNL A   1      34.415  29.458  26.985  1.00  0.00     0.000 A 
ENDBRANCH  83  89
ENDBRANCH  78  80
ENDBRANCH  77  78
ENDBRANCH  76  77
ENDBRANCH  75  76
ENDBRANCH  74  75
ENDBRANCH  73  74
ENDBRANCH   1  73
TORSDOF 21
ENDMDL
MODEL 2
REMARK VINA RESULT:     -10.9      5.007      8.572
REMARK SMILES O=C(OCCOCCOCCOC(=O)c1cn([C@H]2CCc3ccccc3C2)c(=O)[nH]c1=O)c1ccc(-c2c3nc(c(-c4cc(S(=O)(=O)[O-])ccc4F)c4ccc([nH]4)c(-c4cc(S(=O)(=O)[O-])ccc4F)c4nc(c(-c5cc(S(=O)(=O)[O-])ccc5F)c5ccc2[nH]5)C=C4)C=C3)cc1
REMARK SMILES IDX 7 1 6 2 5 3 4 4 3 5 2 6 1 7 33 8 34 9 95 10 35 11 94 12
REMARK SMILES IDX 36 13 37 14 38 15 88 16 39 17 93 18 87 19 89 20 40 21 92 22
REMARK SMILES IDX 86 23 85 24 41 26 73 27 53 28 72 29 54 30 57 31 71 32 90 33
REMARK SMILES IDX 55 34 56 35 70 37 91 38 58 39 42 40 43 41 51 42 44 43 50 44
REMARK SMILES IDX 52 45 49 46 45 47 46 48 47 49 48 50 74 51 75 52 83 53 76 54
REMARK SMILES IDX 82 55 84 56 81 57 77 58 78 59 79 60 80 61 59 62 60 63 68 64
REMARK SMILES IDX 61 65 67 66 69 67 66 68 62 69 63 70 64 71 65 72 8 73 9 74
REMARK SMILES IDX 10 75 11 76 12 77 13 78 14 79 15 80 16 81 31 82 17 83 30 84
REMARK SMILES IDX 32 85 28 86 29 88 18 89 19 90 27 91 20 92 26 93 21 94 25 95
REMARK SMILES IDX 22 96 24 97 23 98
REMARK H PARENT 89 25 57 36 30 87
REMARK Flexibility Score: inf
ROOT
ATOM      1  C   UNL A   1      33.944  28.882  27.251  1.00  0.00     0.188 C 
ENDROOT
BRANCH   1   2
ATOM      2  O   UNL A   1      32.774  29.709  27.305  1.00  0.00    -0.376 OA
BRANCH   2   3
ATOM      3  C   UNL A   1      33.045  31.085  27.032  1.00  0.00     0.202 C 
BRANCH   3   4
ATOM      4  C   UNL A   1      31.845  32.039  27.118  1.00  0.00     0.261 C 
BRANCH   4   5
ATOM      5  O   UNL A   1      32.176  33.435  27.136  1.00  0.00    -0.460 OA
BRANCH   5   6
ATOM      6  C   UNL A   1      32.823  34.171  28.072  1.00  0.00     0.338 C 
ATOM      7  O   UNL A   1      32.395  35.305  28.291  1.00  0.00    -0.246 OA
BRANCH   6   8
ATOM      8  C   UNL A   1      34.058  33.735  28.814  1.00  0.00     0.060 A 
ATOM      9  C   UNL A   1      33.880  33.277  30.135  1.00  0.00     0.016 A 
ATOM     10  C   UNL A   1      35.360  33.724  28.315  1.00  0.00     0.016 A 
ATOM     11  C   UNL A   1      34.963  32.831  30.913  1.00  0.00     0.010 A 
ATOM     12  C   UNL A   1      36.443  33.276  29.079  1.00  0.00     0.010 A 
ATOM     13  C   UNL A   1      36.261  32.816  30.382  1.00  0.00    -0.014 A 
BRANCH  13  14
ATOM     14  C   UNL A   1      37.362  32.056  31.025  1.00  0.00     0.031 A 
ATOM     15  C   UNL A   1      37.904  30.750  30.507  1.00  0.00     0.074 A 
ATOM     16  C   UNL A   1      37.728  32.459  32.258  1.00  0.00     0.049 A 
ATOM     17  N   UNL A   1      39.036  30.163  30.801  1.00  0.00    -0.248 NA
ATOM     18  C   UNL A   1      37.072  29.972  29.577  1.00  0.00     0.031 C 
ATOM     19  C   UNL A   1      37.103  33.555  33.005  1.00  0.00     0.029 A 
ATOM     20  N   UNL A   1      38.648  31.945  33.128  1.00  0.00    -0.354 N 
ATOM     21  C   UNL A   1      39.126  29.043  29.975  1.00  0.00     0.074 A 
ATOM     22  C   UNL A   1      37.850  28.920  29.320  1.00  0.00     0.031 C 
ATOM     23  C   UNL A   1      37.619  33.590  34.241  1.00  0.00     0.029 A 
ATOM     24  C   UNL A   1      38.632  32.547  34.361  1.00  0.00     0.049 A 
ATOM     25  H   UNL A   1      39.262  31.213  32.892  1.00  0.00     0.167 HD
ATOM     26  C   UNL A   1      40.229  28.281  29.758  1.00  0.00     0.034 A 
ATOM     27  C   UNL A   1      39.364  32.289  35.461  1.00  0.00     0.034 A 
ATOM     28  C   UNL A   1      41.338  28.298  30.670  1.00  0.00     0.049 A 
ATOM     29  C   UNL A   1      40.489  31.298  35.340  1.00  0.00     0.074 A 
ATOM     30  C   UNL A   1      42.508  27.569  30.595  1.00  0.00     0.029 A 
ATOM     31  N   UNL A   1      41.357  28.992  31.865  1.00  0.00    -0.354 N 
ATOM     32  N   UNL A   1      40.845  30.589  34.294  1.00  0.00    -0.248 NA
ATOM     33  C   UNL A   1      41.342  31.099  36.517  1.00  0.00     0.031 C 
ATOM     34  C   UNL A   1      43.191  27.750  31.791  1.00  0.00     0.029 A 
ATOM     35  C   UNL A   1      42.467  28.622  32.592  1.00  0.00     0.049 A 
ATOM     36  H   UNL A   1      40.682  29.649  32.152  1.00  0.00     0.167 HD
ATOM     37  C   UNL A   1      41.990  29.898  34.670  1.00  0.00     0.074 A 
ATOM     38  C   UNL A   1      42.266  30.272  36.040  1.00  0.00     0.031 C 
ATOM     39  C   UNL A   1      42.745  29.036  33.944  1.00  0.00     0.034 A 
BRANCH  26  40
ATOM     40  C   UNL A   1      40.431  27.444  28.511  1.00  0.00     0.023 A 
ATOM     41  C   UNL A   1      40.419  26.046  28.475  1.00  0.00     0.031 A 
ATOM     42  C   UNL A   1      40.946  28.109  27.370  1.00  0.00     0.131 A 
ATOM     43  C   UNL A   1      40.843  25.382  27.301  1.00  0.00     0.055 A 
ATOM     44  C   UNL A   1      41.274  27.458  26.183  1.00  0.00     0.041 A 
ATOM     45  F   UNL A   1      41.202  29.428  27.421  1.00  0.00    -0.206 F 
ATOM     46  C   UNL A   1      41.219  26.078  26.144  1.00  0.00     0.022 A 
BRANCH  43  47
ATOM     47  S   UNL A   1      41.140  23.588  27.297  1.00  0.00     0.124 S 
ATOM     48  O   UNL A   1      41.900  23.418  26.062  1.00  0.00    -0.237 OA
ATOM     49  O   UNL A   1      41.897  23.386  28.530  1.00  0.00    -0.237 OA
ATOM     50  O   UNL A   1      39.796  23.022  27.294  1.00  0.00    -0.744 OA
ENDBRANCH  43  47
ENDBRANCH  26  40
BRANCH  27  51
ATOM     51  C   UNL A   1      39.098  33.088  36.688  1.00  0.00     0.023 A 
ATOM     52  C   UNL A   1      39.727  34.333  36.881  1.00  0.00     0.031 A 
ATOM     53  C   UNL A   1      38.369  32.541  37.754  1.00  0.00     0.131 A 
ATOM     54  C   UNL A   1      39.680  34.949  38.138  1.00  0.00     0.055 A 
ATOM     55  C   UNL A   1      38.270  33.189  38.985  1.00  0.00     0.041 A 
ATOM     56  F   UNL A   1      37.776  31.344  37.623  1.00  0.00    -0.206 F 
ATOM     57  C   UNL A   1      38.944  34.391  39.188  1.00  0.00     0.022 A 
BRANCH  54  58
ATOM     58  S   UNL A   1      40.700  36.408  38.499  1.00  0.00     0.124 S 
ATOM     59  O   UNL A   1      39.697  37.463  38.605  1.00  0.00    -0.237 OA
ATOM     60  O   UNL A   1      41.342  36.020  39.753  1.00  0.00    -0.237 OA
ATOM     61  O   UNL A   1      41.593  36.499  37.349  1.00  0.00    -0.744 OA
ENDBRANCH  54  58
ENDBRANCH  27  51
BRANCH  39  62
ATOM     62  C   UNL A   1      43.943  28.390  34.580  1.00  0.00     0.023 A 
ATOM     63  C   UNL A   1      43.755  27.298  35.447  1.00  0.00     0.031 A 
ATOM     64  C   UNL A   1      45.195  29.022  34.551  1.00  0.00     0.131 A 
ATOM     65  C   UNL A   1      44.778  26.930  36.325  1.00  0.00     0.055 A 
ATOM     66  C   UNL A   1      46.237  28.603  35.375  1.00  0.00     0.041 A 
ATOM     67  F   UNL A   1      45.405  30.085  33.758  1.00  0.00    -0.206 F 
ATOM     68  C   UNL A   1      46.021  27.570  36.287  1.00  0.00     0.022 A 
BRANCH  65  69
ATOM     69  S   UNL A   1      44.466  25.748  37.665  1.00  0.00     0.124 S 
ATOM     70  O   UNL A   1      45.720  25.001  37.701  1.00  0.00    -0.237 OA
ATOM     71  O   UNL A   1      44.228  26.630  38.805  1.00  0.00    -0.237 OA
ATOM     72  O   UNL A   1      43.303  24.995  37.207  1.00  0.00    -0.744 OA
ENDBRANCH  65  69
ENDBRANCH  39  62
ENDBRANCH  13  14
ENDBRANCH   6   8
ENDBRANCH   5   6
ENDBRANCH   4   5
ENDBRANCH   3   4
ENDBRANCH   2   3
ENDBRANCH   1   2
BRANCH   1  73
ATOM     73  C   UNL A   1      33.965  27.905  26.070  1.00  0.00     0.188 C 
BRANCH  73  74
ATOM     74  O   UNL A   1      32.903  27.996  25.123  1.00  0.00    -0.376 OA
BRANCH  74  75
ATOM     75  C   UNL A   1      33.188  28.622  23.875  1.00  0.00     0.202 C 
BRANCH  75  76
ATOM     76  C   UNL A   1      33.417  27.745  22.633  1.00  0.00     0.261 C 
BRANCH  76  77
ATOM     77  O   UNL A   1      32.400  26.755  22.422  1.00  0.00    -0.459 OA
BRANCH  77  78
ATOM     78  C   UNL A   1      32.797  25.471  22.617  1.00  0.00     0.345 C 
ATOM     79  O   UNL A   1      33.543  24.820  21.904  1.00  0.00    -0.246 OA
BRANCH  78  80
ATOM     80  C   UNL A   1      32.137  24.914  23.795  1.00  0.00     0.141 A 
ATOM     81  C   UNL A   1      32.944  24.384  24.712  1.00  0.00     0.112 A 
ATOM     82  C   UNL A   1      30.720  25.083  24.132  1.00  0.00     0.268 A 
ATOM     83  N   UNL A   1      32.499  24.005  25.971  1.00  0.00    -0.296 N 
ATOM     84  N   UNL A   1      30.314  24.432  25.257  1.00  0.00    -0.273 N 
ATOM     85  O   UNL A   1      29.940  25.776  23.486  1.00  0.00    -0.268 OA
ATOM     86  C   UNL A   1      31.128  23.912  26.227  1.00  0.00     0.328 A 
ATOM     87  H   UNL A   1      29.344  24.326  25.386  1.00  0.00     0.175 HD
ATOM     88  O   UNL A   1      30.582  23.442  27.217  1.00  0.00    -0.248 OA
BRANCH  83  89
ATOM     89  C   UNL A   1      33.535  23.637  26.971  1.00  0.00     0.096 C 
ATOM     90  C   UNL A   1      33.393  22.205  27.537  1.00  0.00     0.031 C 
ATOM     91  C   UNL A   1      34.995  23.840  26.569  1.00  0.00     0.061 C 
ATOM     92  C   UNL A   1      33.688  21.172  26.458  1.00  0.00     0.038 C 
ATOM     93  C   UNL A   1      35.608  22.699  25.809  1.00  0.00    -0.043 A 
ATOM     94  C   UNL A   1      35.013  21.425  25.791  1.00  0.00    -0.045 A 
ATOM     95  C   UNL A   1      36.878  22.886  25.248  1.00  0.00     0.004 A 
ATOM     96  C   UNL A   1      35.672  20.374  25.147  1.00  0.00     0.004 A 
ATOM     97  C   UNL A   1      37.537  21.825  24.638  1.00  0.00     0.000 A 
ATOM     98  C   UNL A   1      36.930  20.573  24.578  1.00  0.00     0.000 A 
ENDBRANCH  83  89
ENDBRANCH  78  80
ENDBRANCH  77  78
ENDBRANCH  76  77
ENDBRANCH  75  76
ENDBRANCH  74  75
ENDBRANCH  73  74
ENDBRANCH   1  73
TORSDOF 21
ENDMDL
MODEL 3
REMARK VINA RESULT:     -10.8      1.032      7.369
REMARK SMILES O=C(OCCOCCOCCOC(=O)c1cn([C@H]2CCc3ccccc3C2)c(=O)[nH]c1=O)c1ccc(-c2c3nc(c(-c4cc(S(=O)(=O)[O-])ccc4F)c4ccc([nH]4)c(-c4cc(S(=O)(=O)[O-])ccc4F)c4nc(c(-c5cc(S(=O)(=O)[O-])ccc5F)c5ccc2[nH]5)C=C4)C=C3)cc1
REMARK SMILES IDX 7 1 6 2 5 3 4 4 3 5 2 6 1 7 33 8 34 9 95 10 35 11 94 12
REMARK SMILES IDX 36 13 37 14 38 15 88 16 39 17 93 18 87 19 89 20 40 21 92 22
REMARK SMILES IDX 86 23 85 24 41 26 73 27 53 28 72 29 54 30 57 31 71 32 90 33
REMARK SMILES IDX 55 34 56 35 70 37 91 38 58 39 42 40 43 41 51 42 44 43 50 44
REMARK SMILES IDX 52 45 49 46 45 47 46 48 47 49 48 50 74 51 75 52 83 53 76 54
REMARK SMILES IDX 82 55 84 56 81 57 77 58 78 59 79 60 80 61 59 62 60 63 68 64
REMARK SMILES IDX 61 65 67 66 69 67 66 68 62 69 63 70 64 71 65 72 8 73 9 74
REMARK SMILES IDX 10 75 11 76 12 77 13 78 14 79 15 80 16 81 31 82 17 83 30 84
REMARK SMILES IDX 32 85 28 86 29 88 18 89 19 90 27 91 20 92 26 93 21 94 25 95
REMARK SMILES IDX 22 96 24 97 23 98
REMARK H PARENT 89 25 57 36 30 87
REMARK Flexibility Score: inf
ROOT
ATOM      1  C   UNL A   1      35.223  21.567  26.000  1.00  0.00     0.188 C 
ENDROOT
BRANCH   1   2
ATOM      2  O   UNL A   1      35.627  20.616  25.007  1.00  0.00    -0.376 OA
BRANCH   2   3
ATOM      3  C   UNL A   1      37.029  20.649  24.733  1.00  0.00     0.202 C 
BRANCH   3   4
ATOM      4  C   UNL A   1      37.867  21.582  25.619  1.00  0.00     0.261 C 
BRANCH   4   5
ATOM      5  O   UNL A   1      39.200  21.127  25.894  1.00  0.00    -0.460 OA
BRANCH   5   6
ATOM      6  C   UNL A   1      40.162  21.656  26.689  1.00  0.00     0.338 C 
ATOM      7  O   UNL A   1      41.002  20.880  27.148  1.00  0.00    -0.246 OA
BRANCH   6   8
ATOM      8  C   UNL A   1      40.244  23.100  27.104  1.00  0.00     0.060 A 
ATOM      9  C   UNL A   1      40.995  23.390  28.261  1.00  0.00     0.016 A 
ATOM     10  C   UNL A   1      39.663  24.182  26.444  1.00  0.00     0.016 A 
ATOM     11  C   UNL A   1      41.150  24.707  28.728  1.00  0.00     0.010 A 
ATOM     12  C   UNL A   1      39.818  25.496  26.898  1.00  0.00     0.010 A 
ATOM     13  C   UNL A   1      40.567  25.780  28.038  1.00  0.00    -0.014 A 
BRANCH  13  14
ATOM     14  C   UNL A   1      40.973  27.185  28.289  1.00  0.00     0.031 A 
ATOM     15  C   UNL A   1      40.007  28.325  28.474  1.00  0.00     0.074 A 
ATOM     16  C   UNL A   1      42.279  27.471  28.116  1.00  0.00     0.049 A 
ATOM     17  N   UNL A   1      40.230  29.507  28.989  1.00  0.00    -0.248 NA
ATOM     18  C   UNL A   1      38.629  28.154  27.991  1.00  0.00     0.031 C 
ATOM     19  C   UNL A   1      43.299  26.515  27.674  1.00  0.00     0.029 A 
ATOM     20  N   UNL A   1      42.952  28.658  28.207  1.00  0.00    -0.354 N 
ATOM     21  C   UNL A   1      38.995  30.153  29.045  1.00  0.00     0.074 A 
ATOM     22  C   UNL A   1      38.069  29.316  28.326  1.00  0.00     0.031 C 
ATOM     23  C   UNL A   1      44.452  27.168  27.476  1.00  0.00     0.029 A 
ATOM     24  C   UNL A   1      44.263  28.576  27.812  1.00  0.00     0.049 A 
ATOM     25  H   UNL A   1      42.535  29.491  28.526  1.00  0.00     0.167 HD
ATOM     26  C   UNL A   1      38.705  31.292  29.724  1.00  0.00     0.034 A 
ATOM     27  C   UNL A   1      45.208  29.532  27.740  1.00  0.00     0.034 A 
ATOM     28  C   UNL A   1      39.739  32.195  30.144  1.00  0.00     0.049 A 
ATOM     29  C   UNL A   1      44.880  30.888  28.302  1.00  0.00     0.074 A 
ATOM     30  C   UNL A   1      39.599  33.391  30.818  1.00  0.00     0.029 A 
ATOM     31  N   UNL A   1      41.077  32.051  29.829  1.00  0.00    -0.354 N 
ATOM     32  N   UNL A   1      43.752  31.303  28.830  1.00  0.00    -0.248 NA
ATOM     33  C   UNL A   1      45.950  31.891  28.308  1.00  0.00     0.031 C 
ATOM     34  C   UNL A   1      40.840  34.016  30.826  1.00  0.00     0.029 A 
ATOM     35  C   UNL A   1      41.759  33.190  30.194  1.00  0.00     0.049 A 
ATOM     36  H   UNL A   1      41.481  31.257  29.409  1.00  0.00     0.167 HD
ATOM     37  C   UNL A   1      43.990  32.597  29.275  1.00  0.00     0.074 A 
ATOM     38  C   UNL A   1      45.368  32.898  28.952  1.00  0.00     0.031 C 
ATOM     39  C   UNL A   1      43.144  33.455  29.897  1.00  0.00     0.034 A 
BRANCH  26  40
ATOM     40  C   UNL A   1      37.307  31.654  30.183  1.00  0.00     0.023 A 
ATOM     41  C   UNL A   1      36.457  32.552  29.529  1.00  0.00     0.031 A 
ATOM     42  C   UNL A   1      36.950  31.282  31.504  1.00  0.00     0.131 A 
ATOM     43  C   UNL A   1      35.273  32.977  30.174  1.00  0.00     0.055 A 
ATOM     44  C   UNL A   1      35.738  31.628  32.100  1.00  0.00     0.041 A 
ATOM     45  F   UNL A   1      37.827  30.613  32.273  1.00  0.00    -0.206 F 
ATOM     46  C   UNL A   1      34.886  32.482  31.427  1.00  0.00     0.022 A 
BRANCH  43  47
ATOM     47  S   UNL A   1      34.294  34.362  29.515  1.00  0.00     0.124 S 
ATOM     48  O   UNL A   1      35.227  34.952  28.559  1.00  0.00    -0.237 OA
ATOM     49  O   UNL A   1      33.140  33.687  28.927  1.00  0.00    -0.237 OA
ATOM     50  O   UNL A   1      34.008  35.167  30.697  1.00  0.00    -0.744 OA
ENDBRANCH  43  47
ENDBRANCH  26  40
BRANCH  27  51
ATOM     51  C   UNL A   1      46.553  29.156  27.225  1.00  0.00     0.023 A 
ATOM     52  C   UNL A   1      46.737  28.844  25.864  1.00  0.00     0.031 A 
ATOM     53  C   UNL A   1      47.617  28.922  28.108  1.00  0.00     0.131 A 
ATOM     54  C   UNL A   1      47.929  28.243  25.442  1.00  0.00     0.055 A 
ATOM     55  C   UNL A   1      48.828  28.384  27.673  1.00  0.00     0.041 A 
ATOM     56  F   UNL A   1      47.477  29.180  29.418  1.00  0.00    -0.206 F 
ATOM     57  C   UNL A   1      48.982  28.022  26.337  1.00  0.00     0.022 A 
BRANCH  54  58
ATOM     58  S   UNL A   1      48.094  27.582  23.759  1.00  0.00     0.124 S 
ATOM     59  O   UNL A   1      49.426  28.043  23.379  1.00  0.00    -0.237 OA
ATOM     60  O   UNL A   1      47.966  26.144  23.989  1.00  0.00    -0.237 OA
ATOM     61  O   UNL A   1      46.985  28.194  23.036  1.00  0.00    -0.744 OA
ENDBRANCH  54  58
ENDBRANCH  27  51
BRANCH  39  62
ATOM     62  C   UNL A   1      43.630  34.827  30.272  1.00  0.00     0.023 A 
ATOM     63  C   UNL A   1      43.548  35.866  29.327  1.00  0.00     0.031 A 
ATOM     64  C   UNL A   1      44.409  35.020  31.422  1.00  0.00     0.131 A 
ATOM     65  C   UNL A   1      44.316  37.020  29.503  1.00  0.00     0.055 A 
ATOM     66  C   UNL A   1      45.114  36.203  31.630  1.00  0.00     0.041 A 
ATOM     67  F   UNL A   1      44.535  34.041  32.333  1.00  0.00    -0.206 F 
ATOM     68  C   UNL A   1      45.091  37.198  30.653  1.00  0.00     0.022 A 
BRANCH  65  69
ATOM     69  S   UNL A   1      44.484  38.232  28.163  1.00  0.00     0.124 S 
ATOM     70  O   UNL A   1      45.900  38.110  27.826  1.00  0.00    -0.237 OA
ATOM     71  O   UNL A   1      43.554  37.716  27.161  1.00  0.00    -0.237 OA
ATOM     72  O   UNL A   1      44.095  39.496  28.781  1.00  0.00    -0.744 OA
ENDBRANCH  65  69
ENDBRANCH  39  62
ENDBRANCH  13  14
ENDBRANCH   6   8
ENDBRANCH   5   6
ENDBRANCH   4   5
ENDBRANCH   3   4
ENDBRANCH   2   3
ENDBRANCH   1   2
BRANCH   1  73
ATOM     73  C   UNL A   1      33.794  21.366  26.514  1.00  0.00     0.188 C 
BRANCH  73  74
ATOM     74  O   UNL A   1      32.891  20.643  25.679  1.00  0.00    -0.376 OA
BRANCH  74  75
ATOM     75  C   UNL A   1      32.016  21.400  24.848  1.00  0.00     0.202 C 
BRANCH  75  76
ATOM     76  C   UNL A   1      32.425  21.685  23.395  1.00  0.00     0.261 C 
BRANCH  76  77
ATOM     77  O   UNL A   1      33.281  22.827  23.242  1.00  0.00    -0.459 OA
BRANCH  77  78
ATOM     78  C   UNL A   1      33.143  23.498  22.070  1.00  0.00     0.345 C 
ATOM     79  O   UNL A   1      33.546  23.146  20.974  1.00  0.00    -0.246 OA
BRANCH  78  80
ATOM     80  C   UNL A   1      32.488  24.783  22.301  1.00  0.00     0.141 A 
ATOM     81  C   UNL A   1      32.023  24.981  23.534  1.00  0.00     0.112 A 
ATOM     82  C   UNL A   1      32.496  25.918  21.373  1.00  0.00     0.268 A 
ATOM     83  N   UNL A   1      31.566  26.216  23.971  1.00  0.00    -0.296 N 
ATOM     84  N   UNL A   1      31.777  27.000  21.779  1.00  0.00    -0.273 N 
ATOM     85  O   UNL A   1      33.120  25.933  20.315  1.00  0.00    -0.268 OA
ATOM     86  C   UNL A   1      31.320  27.236  23.047  1.00  0.00     0.328 A 
ATOM     87  H   UNL A   1      31.565  27.677  21.095  1.00  0.00     0.175 HD
ATOM     88  O   UNL A   1      30.769  28.311  23.248  1.00  0.00    -0.248 OA
BRANCH  83  89
ATOM     89  C   UNL A   1      31.283  26.356  25.423  1.00  0.00     0.096 C 
ATOM     90  C   UNL A   1      32.340  25.700  26.343  1.00  0.00     0.031 C 
ATOM     91  C   UNL A   1      31.015  27.766  25.948  1.00  0.00     0.061 C 
ATOM     92  C   UNL A   1      33.662  26.448  26.258  1.00  0.00     0.038 C 
ATOM     93  C   UNL A   1      32.243  28.551  26.313  1.00  0.00    -0.043 A 
ATOM     94  C   UNL A   1      33.486  27.923  26.502  1.00  0.00    -0.045 A 
ATOM     95  C   UNL A   1      32.090  29.908  26.624  1.00  0.00     0.004 A 
ATOM     96  C   UNL A   1      34.575  28.685  26.933  1.00  0.00     0.004 A 
ATOM     97  C   UNL A   1      33.173  30.648  27.082  1.00  0.00     0.000 A 
ATOM     98  C   UNL A   1      34.418  30.039  27.226  1.00  0.00     0.000 A 
ENDBRANCH  83  89
ENDBRANCH  78  80
ENDBRANCH  77  78
ENDBRANCH  76  77
ENDBRANCH  75  76
ENDBRANCH  74  75
ENDBRANCH  73  74
ENDBRANCH   1  73
TORSDOF 21
ENDMDL
