MODEL 1
REMARK VINA RESULT:      -9.0      0.000      0.000
REMARK SMILES COC(=O)c1ccc([C@H]([NH3+])CC(=O)OCCOCCOCCOC(=O)c2ccc(-c3c4nc(c(-c5cc(S(=O)(=O)[O-])ccc5F)c5ccc([nH]5)c(-c5cc(S(=O)(=O)[O-])ccc5F)c5nc(c(-c6cc(S(=O)(=O)[O-])ccc6F)c6ccc3[nH]6)C=C5)C=C4)cc2)cc1
REMARK SMILES IDX 18 1 17 2 16 3 15 4 14 5 12 6 13 7 11 8 9 9 8 10 5 11 6 12
REMARK SMILES IDX 90 13 7 14 89 15 3 16 4 17 2 18 1 19 10 20 19 24 20 25 21 26
REMARK SMILES IDX 22 27 23 28 24 29 25 30 26 31 27 32 88 33 28 34 87 35 29 36
REMARK SMILES IDX 30 37 31 38 81 39 32 40 86 41 80 42 82 43 33 44 85 45 79 46
REMARK SMILES IDX 78 47 34 49 66 50 46 51 65 52 47 53 50 54 64 55 83 56 48 57
REMARK SMILES IDX 49 58 63 60 84 61 51 62 35 63 36 64 44 65 37 66 43 67 45 68
REMARK SMILES IDX 42 69 38 70 39 71 40 72 41 73 67 74 68 75 76 76 69 77 75 78
REMARK SMILES IDX 77 79 74 80 70 81 71 82 72 83 73 84 52 85 53 86 61 87 54 88
REMARK SMILES IDX 60 89 62 90 59 91 55 92 56 93 57 94 58 95
REMARK H PARENT 10 21 10 22 10 23 82 48 50 59
REMARK Flexibility Score: inf
ROOT
ATOM      1  C   UNL A   1      34.584  32.120  28.885  1.00  0.00     0.188 C 
ENDROOT
BRANCH   1   2
ATOM      2  O   UNL A   1      34.386  31.120  27.891  1.00  0.00    -0.376 OA
BRANCH   2   3
ATOM      3  C   UNL A   1      33.105  31.034  27.262  1.00  0.00     0.202 C 
BRANCH   3   4
ATOM      4  C   UNL A   1      32.964  30.107  26.042  1.00  0.00     0.261 C 
BRANCH   4   5
ATOM      5  O   UNL A   1      31.845  29.208  26.166  1.00  0.00    -0.463 OA
BRANCH   5   6
ATOM      6  C   UNL A   1      31.295  28.760  25.009  1.00  0.00     0.312 C 
ATOM      7  O   UNL A   1      30.953  29.485  24.083  1.00  0.00    -0.252 OA
BRANCH   6   8
ATOM      8  C   UNL A   1      31.311  27.249  24.912  1.00  0.00     0.192 C 
BRANCH   8   9
ATOM      9  C   UNL A   1      31.536  26.566  23.536  1.00  0.00     0.223 C 
BRANCH   9  10
ATOM     10  C   UNL A   1      32.604  25.489  23.648  1.00  0.00     0.010 A 
ATOM     11  C   UNL A   1      34.801  23.756  23.627  1.00  0.00     0.060 A 
ATOM     12  C   UNL A   1      34.646  24.655  24.685  1.00  0.00     0.016 A 
ATOM     13  C   UNL A   1      33.816  23.654  22.637  1.00  0.00     0.016 A 
ATOM     14  C   UNL A   1      33.551  25.524  24.690  1.00  0.00     0.011 A 
ATOM     15  C   UNL A   1      32.714  24.499  22.663  1.00  0.00     0.011 A 
BRANCH  11  16
ATOM     16  C   UNL A   1      36.015  22.926  23.531  1.00  0.00     0.337 C 
ATOM     17  O   UNL A   1      36.722  22.830  22.533  1.00  0.00    -0.246 OA
BRANCH  16  18
ATOM     18  O   UNL A   1      36.185  22.299  24.718  1.00  0.00    -0.465 OA
ATOM     19  C   UNL A   1      35.530  21.042  24.853  1.00  0.00     0.282 C 
ENDBRANCH  16  18
ENDBRANCH  11  16
ENDBRANCH   9  10
BRANCH   9  20
ATOM     20  N   UNL A   1      31.783  27.415  22.375  1.00  0.00    -0.351 N 
ATOM     21  H   UNL A   1      31.398  26.972  21.541  1.00  0.00     0.345 HD
ATOM     22  H   UNL A   1      32.788  27.547  22.257  1.00  0.00     0.345 HD
ATOM     23  H   UNL A   1      31.337  28.321  22.514  1.00  0.00     0.345 HD
ENDBRANCH   9  20
ENDBRANCH   8   9
ENDBRANCH   6   8
ENDBRANCH   5   6
ENDBRANCH   4   5
ENDBRANCH   3   4
ENDBRANCH   2   3
ENDBRANCH   1   2
BRANCH   1  24
ATOM     24  C   UNL A   1      35.586  33.245  28.585  1.00  0.00     0.188 C 
BRANCH  24  25
ATOM     25  O   UNL A   1      35.092  34.543  28.817  1.00  0.00    -0.376 OA
BRANCH  25  26
ATOM     26  C   UNL A   1      33.748  34.827  28.463  1.00  0.00     0.202 C 
BRANCH  26  27
ATOM     27  C   UNL A   1      32.921  35.778  29.349  1.00  0.00     0.261 C 
BRANCH  27  28
ATOM     28  O   UNL A   1      32.341  35.235  30.548  1.00  0.00    -0.460 OA
BRANCH  28  29
ATOM     29  C   UNL A   1      32.692  35.795  31.735  1.00  0.00     0.338 C 
ATOM     30  O   UNL A   1      32.054  36.629  32.356  1.00  0.00    -0.246 OA
BRANCH  29  31
ATOM     31  C   UNL A   1      33.822  34.994  32.273  1.00  0.00     0.060 A 
ATOM     32  C   UNL A   1      35.133  35.483  32.147  1.00  0.00     0.016 A 
ATOM     33  C   UNL A   1      33.586  33.815  32.982  1.00  0.00     0.016 A 
ATOM     34  C   UNL A   1      36.205  34.799  32.733  1.00  0.00     0.010 A 
ATOM     35  C   UNL A   1      34.662  33.116  33.540  1.00  0.00     0.010 A 
ATOM     36  C   UNL A   1      35.979  33.596  33.413  1.00  0.00    -0.014 A 
BRANCH  36  37
ATOM     37  C   UNL A   1      37.109  32.732  33.846  1.00  0.00     0.031 A 
ATOM     38  C   UNL A   1      37.843  33.103  35.106  1.00  0.00     0.074 A 
ATOM     39  C   UNL A   1      37.509  31.666  33.128  1.00  0.00     0.049 A 
ATOM     40  N   UNL A   1      38.954  32.621  35.597  1.00  0.00    -0.248 NA
ATOM     41  C   UNL A   1      37.237  34.173  35.912  1.00  0.00     0.031 C 
ATOM     42  C   UNL A   1      36.847  31.154  31.930  1.00  0.00     0.029 A 
ATOM     43  N   UNL A   1      38.589  30.831  33.297  1.00  0.00    -0.354 N 
ATOM     44  C   UNL A   1      39.191  33.337  36.765  1.00  0.00     0.074 A 
ATOM     45  C   UNL A   1      38.120  34.305  36.888  1.00  0.00     0.031 C 
ATOM     46  C   UNL A   1      37.549  30.108  31.458  1.00  0.00     0.029 A 
ATOM     47  C   UNL A   1      38.739  29.909  32.285  1.00  0.00     0.049 A 
ATOM     48  H   UNL A   1      39.198  30.888  34.069  1.00  0.00     0.167 HD
ATOM     49  C   UNL A   1      40.206  33.201  37.653  1.00  0.00     0.034 A 
ATOM     50  C   UNL A   1      39.743  29.042  32.032  1.00  0.00     0.034 A 
ATOM     51  C   UNL A   1      41.277  32.248  37.508  1.00  0.00     0.049 A 
ATOM     52  C   UNL A   1      40.937  28.998  32.962  1.00  0.00     0.074 A 
ATOM     53  C   UNL A   1      42.348  32.022  38.355  1.00  0.00     0.029 A 
ATOM     54  N   UNL A   1      41.428  31.375  36.439  1.00  0.00    -0.354 N 
ATOM     55  N   UNL A   1      41.157  29.684  34.061  1.00  0.00    -0.248 NA
ATOM     56  C   UNL A   1      42.022  28.069  32.612  1.00  0.00     0.031 C 
ATOM     57  C   UNL A   1      43.188  31.076  37.757  1.00  0.00     0.029 A 
ATOM     58  C   UNL A   1      42.597  30.643  36.581  1.00  0.00     0.049 A 
ATOM     59  H   UNL A   1      40.796  31.288  35.688  1.00  0.00     0.167 HD
ATOM     60  C   UNL A   1      42.388  29.243  34.547  1.00  0.00     0.074 A 
ATOM     61  C   UNL A   1      42.857  28.228  33.628  1.00  0.00     0.031 C 
ATOM     62  C   UNL A   1      43.064  29.638  35.655  1.00  0.00     0.034 A 
BRANCH  49  63
ATOM     63  C   UNL A   1      40.231  34.152  38.824  1.00  0.00     0.023 A 
ATOM     64  C   UNL A   1      39.487  33.908  39.992  1.00  0.00     0.031 A 
ATOM     65  C   UNL A   1      40.985  35.337  38.759  1.00  0.00     0.131 A 
ATOM     66  C   UNL A   1      39.453  34.870  41.012  1.00  0.00     0.055 A 
ATOM     67  C   UNL A   1      41.015  36.250  39.814  1.00  0.00     0.041 A 
ATOM     68  F   UNL A   1      41.694  35.636  37.659  1.00  0.00    -0.206 F 
ATOM     69  C   UNL A   1      40.232  36.027  40.943  1.00  0.00     0.022 A 
BRANCH  66  70
ATOM     70  S   UNL A   1      38.252  34.662  42.355  1.00  0.00     0.124 S 
ATOM     71  O   UNL A   1      38.516  35.845  43.172  1.00  0.00    -0.237 OA
ATOM     72  O   UNL A   1      36.981  34.649  41.641  1.00  0.00    -0.237 OA
ATOM     73  O   UNL A   1      38.639  33.393  42.967  1.00  0.00    -0.744 OA
ENDBRANCH  66  70
ENDBRANCH  49  63
BRANCH  50  74
ATOM     74  C   UNL A   1      39.714  28.179  30.812  1.00  0.00     0.023 A 
ATOM     75  C   UNL A   1      40.401  28.550  29.644  1.00  0.00     0.031 A 
ATOM     76  C   UNL A   1      38.935  27.008  30.770  1.00  0.00     0.131 A 
ATOM     77  C   UNL A   1      40.261  27.783  28.475  1.00  0.00     0.055 A 
ATOM     78  C   UNL A   1      38.847  26.217  29.623  1.00  0.00     0.041 A 
ATOM     79  F   UNL A   1      38.244  26.613  31.852  1.00  0.00    -0.206 F 
ATOM     80  C   UNL A   1      39.502  26.611  28.462  1.00  0.00     0.022 A 
BRANCH  77  81
ATOM     81  S   UNL A   1      41.008  28.396  26.939  1.00  0.00     0.124 S 
ATOM     82  O   UNL A   1      39.989  29.327  26.466  1.00  0.00    -0.237 OA
ATOM     83  O   UNL A   1      42.248  28.994  27.422  1.00  0.00    -0.237 OA
ATOM     84  O   UNL A   1      41.173  27.188  26.135  1.00  0.00    -0.744 OA
ENDBRANCH  77  81
ENDBRANCH  50  74
BRANCH  62  85
ATOM     85  C   UNL A   1      44.366  28.937  35.968  1.00  0.00     0.023 A 
ATOM     86  C   UNL A   1      44.413  27.759  36.732  1.00  0.00     0.031 A 
ATOM     87  C   UNL A   1      45.579  29.448  35.469  1.00  0.00     0.131 A 
ATOM     88  C   UNL A   1      45.649  27.152  37.008  1.00  0.00     0.055 A 
ATOM     89  C   UNL A   1      46.798  28.809  35.697  1.00  0.00     0.041 A 
ATOM     90  F   UNL A   1      45.597  30.573  34.736  1.00  0.00    -0.206 F 
ATOM     91  C   UNL A   1      46.839  27.658  36.479  1.00  0.00     0.022 A 
BRANCH  88  92
ATOM     92  S   UNL A   1      45.693  25.726  38.129  1.00  0.00     0.124 S 
ATOM     93  O   UNL A   1      44.755  26.131  39.171  1.00  0.00    -0.237 OA
ATOM     94  O   UNL A   1      45.256  24.635  37.266  1.00  0.00    -0.237 OA
ATOM     95  O   UNL A   1      47.093  25.661  38.548  1.00  0.00    -0.744 OA
ENDBRANCH  88  92
ENDBRANCH  62  85
ENDBRANCH  36  37
ENDBRANCH  29  31
ENDBRANCH  28  29
ENDBRANCH  27  28
ENDBRANCH  26  27
ENDBRANCH  25  26
ENDBRANCH  24  25
ENDBRANCH   1  24
TORSDOF 25
ENDMDL
MODEL 2
REMARK VINA RESULT:      -8.9      1.187      7.814
REMARK SMILES COC(=O)c1ccc([C@H]([NH3+])CC(=O)OCCOCCOCCOC(=O)c2ccc(-c3c4nc(c(-c5cc(S(=O)(=O)[O-])ccc5F)c5ccc([nH]5)c(-c5cc(S(=O)(=O)[O-])ccc5F)c5nc(c(-c6cc(S(=O)(=O)[O-])ccc6F)c6ccc3[nH]6)C=C5)C=C4)cc2)cc1
REMARK SMILES IDX 18 1 17 2 16 3 15 4 14 5 12 6 13 7 11 8 9 9 8 10 5 11 6 12
REMARK SMILES IDX 90 13 7 14 89 15 3 16 4 17 2 18 1 19 10 20 19 24 20 25 21 26
REMARK SMILES IDX 22 27 23 28 24 29 25 30 26 31 27 32 88 33 28 34 87 35 29 36
REMARK SMILES IDX 30 37 31 38 81 39 32 40 86 41 80 42 82 43 33 44 85 45 79 46
REMARK SMILES IDX 78 47 34 49 66 50 46 51 65 52 47 53 50 54 64 55 83 56 48 57
REMARK SMILES IDX 49 58 63 60 84 61 51 62 35 63 36 64 44 65 37 66 43 67 45 68
REMARK SMILES IDX 42 69 38 70 39 71 40 72 41 73 67 74 68 75 76 76 69 77 75 78
REMARK SMILES IDX 77 79 74 80 70 81 71 82 72 83 73 84 52 85 53 86 61 87 54 88
REMARK SMILES IDX 60 89 62 90 59 91 55 92 56 93 57 94 58 95
REMARK H PARENT 10 21 10 22 10 23 82 48 50 59
REMARK Flexibility Score: inf
ROOT
ATOM      1  C   UNL A   1      34.695  31.893  28.595  1.00  0.00     0.188 C 
ENDROOT
BRANCH   1   2
ATOM      2  O   UNL A   1      35.730  31.258  27.851  1.00  0.00    -0.376 OA
BRANCH   2   3
ATOM      3  C   UNL A   1      35.662  29.842  27.668  1.00  0.00     0.202 C 
BRANCH   3   4
ATOM      4  C   UNL A   1      34.288  29.220  27.367  1.00  0.00     0.261 C 
BRANCH   4   5
ATOM      5  O   UNL A   1      33.816  29.553  26.047  1.00  0.00    -0.463 OA
BRANCH   5   6
ATOM      6  C   UNL A   1      32.507  29.897  25.940  1.00  0.00     0.312 C 
ATOM      7  O   UNL A   1      32.006  30.875  26.480  1.00  0.00    -0.252 OA
BRANCH   6   8
ATOM      8  C   UNL A   1      31.767  29.038  24.937  1.00  0.00     0.192 C 
BRANCH   8   9
ATOM      9  C   UNL A   1      32.450  28.653  23.597  1.00  0.00     0.223 C 
BRANCH   9  10
ATOM     10  C   UNL A   1      32.753  27.163  23.566  1.00  0.00     0.010 A 
ATOM     11  C   UNL A   1      33.700  24.529  23.580  1.00  0.00     0.060 A 
ATOM     12  C   UNL A   1      33.197  25.084  24.760  1.00  0.00     0.016 A 
ATOM     13  C   UNL A   1      33.642  25.249  22.380  1.00  0.00     0.016 A 
ATOM     14  C   UNL A   1      32.730  26.401  24.752  1.00  0.00     0.011 A 
ATOM     15  C   UNL A   1      33.148  26.547  22.371  1.00  0.00     0.011 A 
BRANCH  11  16
ATOM     16  C   UNL A   1      34.320  23.193  23.595  1.00  0.00     0.337 C 
ATOM     17  O   UNL A   1      33.929  22.246  24.270  1.00  0.00    -0.246 OA
BRANCH  16  18
ATOM     18  O   UNL A   1      35.379  23.217  22.753  1.00  0.00    -0.465 OA
ATOM     19  C   UNL A   1      36.645  22.944  23.345  1.00  0.00     0.282 C 
ENDBRANCH  16  18
ENDBRANCH  11  16
ENDBRANCH   9  10
BRANCH   9  20
ATOM     20  N   UNL A   1      33.613  29.423  23.167  1.00  0.00    -0.351 N 
ATOM     21  H   UNL A   1      33.375  29.965  22.338  1.00  0.00     0.345 HD
ATOM     22  H   UNL A   1      34.381  28.787  22.950  1.00  0.00     0.345 HD
ATOM     23  H   UNL A   1      33.898  30.055  23.915  1.00  0.00     0.345 HD
ENDBRANCH   9  20
ENDBRANCH   8   9
ENDBRANCH   6   8
ENDBRANCH   5   6
ENDBRANCH   4   5
ENDBRANCH   3   4
ENDBRANCH   2   3
ENDBRANCH   1   2
BRANCH   1  24
ATOM     24  C   UNL A   1      34.727  33.424  28.708  1.00  0.00     0.188 C 
BRANCH  24  25
ATOM     25  O   UNL A   1      33.458  34.029  28.792  1.00  0.00    -0.376 OA
BRANCH  25  26
ATOM     26  C   UNL A   1      33.384  35.444  28.803  1.00  0.00     0.202 C 
BRANCH  26  27
ATOM     27  C   UNL A   1      32.578  36.148  29.911  1.00  0.00     0.261 C 
BRANCH  27  28
ATOM     28  O   UNL A   1      33.208  36.304  31.196  1.00  0.00    -0.460 OA
BRANCH  28  29
ATOM     29  C   UNL A   1      32.969  35.357  32.140  1.00  0.00     0.338 C 
ATOM     30  O   UNL A   1      31.875  34.948  32.493  1.00  0.00    -0.246 OA
BRANCH  29  31
ATOM     31  C   UNL A   1      34.273  34.706  32.437  1.00  0.00     0.060 A 
ATOM     32  C   UNL A   1      34.290  33.497  33.154  1.00  0.00     0.016 A 
ATOM     33  C   UNL A   1      35.463  35.231  31.932  1.00  0.00     0.016 A 
ATOM     34  C   UNL A   1      35.493  32.811  33.359  1.00  0.00     0.010 A 
ATOM     35  C   UNL A   1      36.669  34.561  32.165  1.00  0.00     0.010 A 
ATOM     36  C   UNL A   1      36.695  33.353  32.887  1.00  0.00    -0.014 A 
BRANCH  36  37
ATOM     37  C   UNL A   1      38.007  32.775  33.283  1.00  0.00     0.031 A 
ATOM     38  C   UNL A   1      38.570  31.657  32.448  1.00  0.00     0.074 A 
ATOM     39  C   UNL A   1      38.674  33.195  34.375  1.00  0.00     0.049 A 
ATOM     40  N   UNL A   1      39.596  30.879  32.677  1.00  0.00    -0.248 NA
ATOM     41  C   UNL A   1      37.867  31.379  31.187  1.00  0.00     0.031 C 
ATOM     42  C   UNL A   1      38.279  34.312  35.231  1.00  0.00     0.029 A 
ATOM     43  N   UNL A   1      39.819  32.711  34.962  1.00  0.00    -0.354 N 
ATOM     44  C   UNL A   1      39.656  30.009  31.594  1.00  0.00     0.074 A 
ATOM     45  C   UNL A   1      38.544  30.339  30.727  1.00  0.00     0.031 C 
ATOM     46  C   UNL A   1      39.155  34.412  36.247  1.00  0.00     0.029 A 
ATOM     47  C   UNL A   1      40.140  33.335  36.147  1.00  0.00     0.049 A 
ATOM     48  H   UNL A   1      40.359  31.986  34.572  1.00  0.00     0.167 HD
ATOM     49  C   UNL A   1      40.555  29.025  31.346  1.00  0.00     0.034 A 
ATOM     50  C   UNL A   1      41.086  33.041  37.065  1.00  0.00     0.034 A 
ATOM     51  C   UNL A   1      41.646  28.692  32.227  1.00  0.00     0.049 A 
ATOM     52  C   UNL A   1      41.996  31.852  36.836  1.00  0.00     0.074 A 
ATOM     53  C   UNL A   1      42.618  27.721  32.065  1.00  0.00     0.029 A 
ATOM     54  N   UNL A   1      41.900  29.305  33.447  1.00  0.00    -0.354 N 
ATOM     55  N   UNL A   1      42.042  31.029  35.813  1.00  0.00    -0.248 NA
ATOM     56  C   UNL A   1      42.976  31.549  37.889  1.00  0.00     0.031 C 
ATOM     57  C   UNL A   1      43.405  27.690  33.221  1.00  0.00     0.029 A 
ATOM     58  C   UNL A   1      42.983  28.702  34.068  1.00  0.00     0.049 A 
ATOM     59  H   UNL A   1      41.386  30.059  33.818  1.00  0.00     0.167 HD
ATOM     60  C   UNL A   1      43.075  30.134  36.088  1.00  0.00     0.074 A 
ATOM     61  C   UNL A   1      43.632  30.524  37.367  1.00  0.00     0.031 C 
ATOM     62  C   UNL A   1      43.527  29.090  35.348  1.00  0.00     0.034 A 
BRANCH  49  63
ATOM     63  C   UNL A   1      40.351  28.202  30.098  1.00  0.00     0.023 A 
ATOM     64  C   UNL A   1      41.096  28.434  28.928  1.00  0.00     0.031 A 
ATOM     65  C   UNL A   1      39.374  27.191  30.067  1.00  0.00     0.131 A 
ATOM     66  C   UNL A   1      40.799  27.720  27.758  1.00  0.00     0.055 A 
ATOM     67  C   UNL A   1      39.142  26.425  28.924  1.00  0.00     0.041 A 
ATOM     68  F   UNL A   1      38.614  26.943  31.146  1.00  0.00    -0.206 F 
ATOM     69  C   UNL A   1      39.846  26.699  27.755  1.00  0.00     0.022 A 
BRANCH  66  70
ATOM     70  S   UNL A   1      41.563  28.255  26.202  1.00  0.00     0.124 S 
ATOM     71  O   UNL A   1      41.516  27.025  25.414  1.00  0.00    -0.237 OA
ATOM     72  O   UNL A   1      40.675  29.327  25.768  1.00  0.00    -0.237 OA
ATOM     73  O   UNL A   1      42.902  28.676  26.606  1.00  0.00    -0.744 OA
ENDBRANCH  66  70
ENDBRANCH  49  63
BRANCH  50  74
ATOM     74  C   UNL A   1      41.195  33.834  38.327  1.00  0.00     0.023 A 
ATOM     75  C   UNL A   1      40.452  33.487  39.468  1.00  0.00     0.031 A 
ATOM     76  C   UNL A   1      41.986  34.995  38.387  1.00  0.00     0.131 A 
ATOM     77  C   UNL A   1      40.482  34.316  40.602  1.00  0.00     0.055 A 
ATOM     78  C   UNL A   1      42.059  35.783  39.537  1.00  0.00     0.041 A 
ATOM     79  F   UNL A   1      42.706  35.383  37.322  1.00  0.00    -0.206 F 
ATOM     80  C   UNL A   1      41.293  35.452  40.649  1.00  0.00     0.022 A 
BRANCH  77  81
ATOM     81  S   UNL A   1      39.366  33.941  41.982  1.00  0.00     0.124 S 
ATOM     82  O   UNL A   1      39.379  35.198  42.723  1.00  0.00    -0.237 OA
ATOM     83  O   UNL A   1      38.124  33.619  41.289  1.00  0.00    -0.237 OA
ATOM     84  O   UNL A   1      40.017  32.816  42.649  1.00  0.00    -0.744 OA
ENDBRANCH  77  81
ENDBRANCH  50  74
BRANCH  62  85
ATOM     85  C   UNL A   1      44.715  28.319  35.876  1.00  0.00     0.023 A 
ATOM     86  C   UNL A   1      44.563  27.146  36.637  1.00  0.00     0.031 A 
ATOM     87  C   UNL A   1      46.022  28.754  35.591  1.00  0.00     0.131 A 
ATOM     88  C   UNL A   1      45.697  26.472  37.117  1.00  0.00     0.055 A 
ATOM     89  C   UNL A   1      47.146  28.048  36.020  1.00  0.00     0.041 A 
ATOM     90  F   UNL A   1      46.229  29.869  34.871  1.00  0.00    -0.206 F 
ATOM     91  C   UNL A   1      46.987  26.903  36.797  1.00  0.00     0.022 A 
BRANCH  88  92
ATOM     92  S   UNL A   1      45.467  25.056  38.229  1.00  0.00     0.124 S 
ATOM     93  O   UNL A   1      44.196  24.510  37.766  1.00  0.00    -0.237 OA
ATOM     94  O   UNL A   1      46.648  24.246  37.953  1.00  0.00    -0.237 OA
ATOM     95  O   UNL A   1      45.433  25.665  39.558  1.00  0.00    -0.744 OA
ENDBRANCH  88  92
ENDBRANCH  62  85
ENDBRANCH  36  37
ENDBRANCH  29  31
ENDBRANCH  28  29
ENDBRANCH  27  28
ENDBRANCH  26  27
ENDBRANCH  25  26
ENDBRANCH  24  25
ENDBRANCH   1  24
TORSDOF 25
ENDMDL
MODEL 3
REMARK VINA RESULT:      -8.7      2.104      2.439
REMARK SMILES COC(=O)c1ccc([C@H]([NH3+])CC(=O)OCCOCCOCCOC(=O)c2ccc(-c3c4nc(c(-c5cc(S(=O)(=O)[O-])ccc5F)c5ccc([nH]5)c(-c5cc(S(=O)(=O)[O-])ccc5F)c5nc(c(-c6cc(S(=O)(=O)[O-])ccc6F)c6ccc3[nH]6)C=C5)C=C4)cc2)cc1
REMARK SMILES IDX 18 1 17 2 16 3 15 4 14 5 12 6 13 7 11 8 9 9 8 10 5 11 6 12
REMARK SMILES IDX 90 13 7 14 89 15 3 16 4 17 2 18 1 19 10 20 19 24 20 25 21 26
REMARK SMILES IDX 22 27 23 28 24 29 25 30 26 31 27 32 88 33 28 34 87 35 29 36
REMARK SMILES IDX 30 37 31 38 81 39 32 40 86 41 80 42 82 43 33 44 85 45 79 46
REMARK SMILES IDX 78 47 34 49 66 50 46 51 65 52 47 53 50 54 64 55 83 56 48 57
REMARK SMILES IDX 49 58 63 60 84 61 51 62 35 63 36 64 44 65 37 66 43 67 45 68
REMARK SMILES IDX 42 69 38 70 39 71 40 72 41 73 67 74 68 75 76 76 69 77 75 78
REMARK SMILES IDX 77 79 74 80 70 81 71 82 72 83 73 84 52 85 53 86 61 87 54 88
REMARK SMILES IDX 60 89 62 90 59 91 55 92 56 93 57 94 58 95
REMARK H PARENT 10 21 10 22 10 23 82 48 50 59
REMARK Flexibility Score: inf
ROOT
ATOM      1  C   UNL A   1      34.826  32.132  28.522  1.00  0.00     0.188 C 
ENDROOT
BRANCH   1   2
ATOM      2  O   UNL A   1      35.326  31.189  27.580  1.00  0.00    -0.376 OA
BRANCH   2   3
ATOM      3  C   UNL A   1      34.665  29.927  27.467  1.00  0.00     0.202 C 
BRANCH   3   4
ATOM      4  C   UNL A   1      33.245  29.908  26.876  1.00  0.00     0.261 C 
BRANCH   4   5
ATOM      5  O   UNL A   1      33.109  28.947  25.811  1.00  0.00    -0.463 OA
BRANCH   5   6
ATOM      6  C   UNL A   1      31.887  28.376  25.661  1.00  0.00     0.312 C 
ATOM      7  O   UNL A   1      31.078  28.699  24.799  1.00  0.00    -0.252 OA
BRANCH   6   8
ATOM      8  C   UNL A   1      31.699  27.175  26.562  1.00  0.00     0.192 C 
BRANCH   8   9
ATOM      9  C   UNL A   1      31.385  25.786  25.943  1.00  0.00     0.223 C 
BRANCH   9  10
ATOM     10  C   UNL A   1      32.657  24.963  25.819  1.00  0.00     0.010 A 
ATOM     11  C   UNL A   1      35.164  23.718  25.849  1.00  0.00     0.060 A 
ATOM     12  C   UNL A   1      34.170  23.282  26.730  1.00  0.00     0.016 A 
ATOM     13  C   UNL A   1      34.879  24.701  24.894  1.00  0.00     0.016 A 
ATOM     14  C   UNL A   1      32.921  23.909  26.716  1.00  0.00     0.011 A 
ATOM     15  C   UNL A   1      33.627  25.301  24.864  1.00  0.00     0.011 A 
BRANCH  11  16
ATOM     16  C   UNL A   1      36.527  23.164  25.937  1.00  0.00     0.337 C 
ATOM     17  O   UNL A   1      37.529  23.810  26.227  1.00  0.00    -0.246 OA
BRANCH  16  18
ATOM     18  O   UNL A   1      36.460  21.848  25.632  1.00  0.00    -0.465 OA
ATOM     19  C   UNL A   1      37.476  21.363  24.759  1.00  0.00     0.282 C 
ENDBRANCH  16  18
ENDBRANCH  11  16
ENDBRANCH   9  10
BRANCH   9  20
ATOM     20  N   UNL A   1      30.620  25.740  24.701  1.00  0.00    -0.351 N 
ATOM     21  H   UNL A   1      30.537  26.681  24.317  1.00  0.00     0.345 HD
ATOM     22  H   UNL A   1      29.689  25.365  24.887  1.00  0.00     0.345 HD
ATOM     23  H   UNL A   1      31.098  25.140  24.029  1.00  0.00     0.345 HD
ENDBRANCH   9  20
ENDBRANCH   8   9
ENDBRANCH   6   8
ENDBRANCH   5   6
ENDBRANCH   4   5
ENDBRANCH   3   4
ENDBRANCH   2   3
ENDBRANCH   1   2
BRANCH   1  24
ATOM     24  C   UNL A   1      35.782  33.224  29.023  1.00  0.00     0.188 C 
BRANCH  24  25
ATOM     25  O   UNL A   1      35.197  34.499  29.147  1.00  0.00    -0.376 OA
BRANCH  25  26
ATOM     26  C   UNL A   1      33.793  34.615  28.987  1.00  0.00     0.202 C 
BRANCH  26  27
ATOM     27  C   UNL A   1      33.033  35.702  29.771  1.00  0.00     0.261 C 
BRANCH  27  28
ATOM     28  O   UNL A   1      32.425  35.321  31.018  1.00  0.00    -0.460 OA
BRANCH  28  29
ATOM     29  C   UNL A   1      32.891  35.899  32.156  1.00  0.00     0.338 C 
ATOM     30  O   UNL A   1      32.337  36.773  32.802  1.00  0.00    -0.246 OA
BRANCH  29  31
ATOM     31  C   UNL A   1      34.032  35.068  32.625  1.00  0.00     0.060 A 
ATOM     32  C   UNL A   1      35.335  35.590  32.559  1.00  0.00     0.016 A 
ATOM     33  C   UNL A   1      33.812  33.822  33.214  1.00  0.00     0.016 A 
ATOM     34  C   UNL A   1      36.415  34.871  33.087  1.00  0.00     0.010 A 
ATOM     35  C   UNL A   1      34.895  33.091  33.712  1.00  0.00     0.010 A 
ATOM     36  C   UNL A   1      36.204  33.604  33.645  1.00  0.00    -0.014 A 
BRANCH  36  37
ATOM     37  C   UNL A   1      37.347  32.722  34.003  1.00  0.00     0.031 A 
ATOM     38  C   UNL A   1      38.135  33.050  35.241  1.00  0.00     0.074 A 
ATOM     39  C   UNL A   1      37.710  31.676  33.236  1.00  0.00     0.049 A 
ATOM     40  N   UNL A   1      39.263  32.548  35.670  1.00  0.00    -0.248 NA
ATOM     41  C   UNL A   1      37.570  34.097  36.105  1.00  0.00     0.031 C 
ATOM     42  C   UNL A   1      36.996  31.206  32.052  1.00  0.00     0.029 A 
ATOM     43  N   UNL A   1      38.791  30.832  33.333  1.00  0.00    -0.354 N 
ATOM     44  C   UNL A   1      39.553  33.226  36.849  1.00  0.00     0.074 A 
ATOM     45  C   UNL A   1      38.494  34.194  37.047  1.00  0.00     0.031 C 
ATOM     46  C   UNL A   1      37.671  30.171  31.518  1.00  0.00     0.029 A 
ATOM     47  C   UNL A   1      38.893  29.941  32.288  1.00  0.00     0.049 A 
ATOM     48  H   UNL A   1      39.433  30.862  34.080  1.00  0.00     0.167 HD
ATOM     49  C   UNL A   1      40.603  33.057  37.688  1.00  0.00     0.034 A 
ATOM     50  C   UNL A   1      39.880  29.077  31.966  1.00  0.00     0.034 A 
ATOM     51  C   UNL A   1      41.662  32.104  37.469  1.00  0.00     0.049 A 
ATOM     52  C   UNL A   1      41.112  28.999  32.843  1.00  0.00     0.074 A 
ATOM     53  C   UNL A   1      42.767  31.847  38.262  1.00  0.00     0.029 A 
ATOM     54  N   UNL A   1      41.762  31.264  36.368  1.00  0.00    -0.354 N 
ATOM     55  N   UNL A   1      41.382  29.649  33.952  1.00  0.00    -0.248 NA
ATOM     56  C   UNL A   1      42.176  28.076  32.419  1.00  0.00     0.031 C 
ATOM     57  C   UNL A   1      43.575  30.916  37.601  1.00  0.00     0.029 A 
ATOM     58  C   UNL A   1      42.932  30.523  36.438  1.00  0.00     0.049 A 
ATOM     59  H   UNL A   1      41.099  31.203  35.642  1.00  0.00     0.167 HD
ATOM     60  C   UNL A   1      42.629  29.189  34.372  1.00  0.00     0.074 A 
ATOM     61  C   UNL A   1      43.054  28.200  33.404  1.00  0.00     0.031 C 
ATOM     62  C   UNL A   1      43.354  29.545  35.463  1.00  0.00     0.034 A 
BRANCH  49  63
ATOM     63  C   UNL A   1      40.684  33.971  38.887  1.00  0.00     0.023 A 
ATOM     64  C   UNL A   1      41.445  35.153  38.866  1.00  0.00     0.031 A 
ATOM     65  C   UNL A   1      40.016  33.638  40.079  1.00  0.00     0.131 A 
ATOM     66  C   UNL A   1      41.582  35.917  40.034  1.00  0.00     0.055 A 
ATOM     67  C   UNL A   1      40.086  34.448  41.213  1.00  0.00     0.041 A 
ATOM     68  F   UNL A   1      39.296  32.508  40.166  1.00  0.00    -0.206 F 
ATOM     69  C   UNL A   1      40.886  35.587  41.200  1.00  0.00     0.022 A 
BRANCH  66  70
ATOM     70  S   UNL A   1      42.807  37.254  40.054  1.00  0.00     0.124 S 
ATOM     71  O   UNL A   1      44.003  36.551  40.514  1.00  0.00    -0.237 OA
ATOM     72  O   UNL A   1      42.817  37.692  38.664  1.00  0.00    -0.237 OA
ATOM     73  O   UNL A   1      42.252  38.212  41.008  1.00  0.00    -0.744 OA
ENDBRANCH  66  70
ENDBRANCH  49  63
BRANCH  50  74
ATOM     74  C   UNL A   1      39.795  28.253  30.722  1.00  0.00     0.023 A 
ATOM     75  C   UNL A   1      40.460  28.642  29.547  1.00  0.00     0.031 A 
ATOM     76  C   UNL A   1      38.984  27.105  30.668  1.00  0.00     0.131 A 
ATOM     77  C   UNL A   1      40.268  27.915  28.360  1.00  0.00     0.055 A 
ATOM     78  C   UNL A   1      38.844  26.351  29.501  1.00  0.00     0.041 A 
ATOM     79  F   UNL A   1      38.313  26.695  31.756  1.00  0.00    -0.206 F 
ATOM     80  C   UNL A   1      39.478  26.764  28.334  1.00  0.00     0.022 A 
BRANCH  77  81
ATOM     81  S   UNL A   1      40.988  28.555  26.823  1.00  0.00     0.124 S 
ATOM     82  O   UNL A   1      41.299  27.322  26.106  1.00  0.00    -0.237 OA
ATOM     83  O   UNL A   1      39.893  29.352  26.283  1.00  0.00    -0.237 OA
ATOM     84  O   UNL A   1      42.146  29.318  27.282  1.00  0.00    -0.744 OA
ENDBRANCH  77  81
ENDBRANCH  50  74
BRANCH  62  85
ATOM     85  C   UNL A   1      44.664  28.829  35.699  1.00  0.00     0.023 A 
ATOM     86  C   UNL A   1      45.886  29.337  35.225  1.00  0.00     0.031 A 
ATOM     87  C   UNL A   1      44.689  27.629  36.433  1.00  0.00     0.131 A 
ATOM     88  C   UNL A   1      47.076  28.628  35.457  1.00  0.00     0.055 A 
ATOM     89  C   UNL A   1      45.881  26.959  36.712  1.00  0.00     0.041 A 
ATOM     90  F   UNL A   1      43.553  27.095  36.909  1.00  0.00    -0.206 F 
ATOM     91  C   UNL A   1      47.084  27.453  36.215  1.00  0.00     0.022 A 
BRANCH  88  92
ATOM     92  S   UNL A   1      48.612  29.222  34.696  1.00  0.00     0.124 S 
ATOM     93  O   UNL A   1      48.987  28.095  33.849  1.00  0.00    -0.237 OA
ATOM     94  O   UNL A   1      48.171  30.425  33.999  1.00  0.00    -0.237 OA
ATOM     95  O   UNL A   1      49.493  29.458  35.839  1.00  0.00    -0.744 OA
ENDBRANCH  88  92
ENDBRANCH  62  85
ENDBRANCH  36  37
ENDBRANCH  29  31
ENDBRANCH  28  29
ENDBRANCH  27  28
ENDBRANCH  26  27
ENDBRANCH  25  26
ENDBRANCH  24  25
ENDBRANCH   1  24
TORSDOF 25
ENDMDL
