MODEL 1
REMARK VINA RESULT:     -10.2      0.000      0.000
REMARK SMILES Cc1ccc(-c2nn(CCC(=O)OCCOCCOCCOC(=O)c3ccc(-c4c5nc(c(-c6cc(S(=O)(=O)[O-])ccc6F)c6ccc([nH]6)c(-c6cc(S(=O)(=O)[O-])ccc6F)c6nc(c(-c7cc(S(=O)(=O)[O-])ccc7F)c7ccc4[nH]7)C=C6)C=C5)cc3)c(=O)c3noc(C)c23)cc1C
REMARK SMILES IDX 17 1 16 2 15 3 14 4 13 5 11 6 12 7 10 8 9 9 8 10 6 11 7 12
REMARK SMILES IDX 95 13 90 14 93 15 88 16 91 17 92 18 94 19 89 20 5 21 1 22
REMARK SMILES IDX 2 23 3 24 97 25 4 26 96 27 98 28 18 29 19 30 20 31 21 32
REMARK SMILES IDX 22 33 23 34 24 35 25 36 26 37 87 38 27 39 86 40 28 41 29 42
REMARK SMILES IDX 30 43 80 44 31 45 85 46 79 47 81 48 32 49 84 50 78 51 77 52
REMARK SMILES IDX 33 54 65 55 45 56 64 57 46 58 49 59 63 60 82 61 47 62 48 63
REMARK SMILES IDX 62 65 83 66 50 67 34 68 35 69 43 70 36 71 42 72 44 73 41 74
REMARK SMILES IDX 37 75 38 76 39 77 40 78 66 79 67 80 75 81 68 82 74 83 76 84
REMARK SMILES IDX 73 85 69 86 70 87 71 88 72 89 51 90 52 91 60 92 53 93 59 94
REMARK SMILES IDX 61 95 58 96 54 97 55 98 56 99 57 100
REMARK H PARENT 81 53 49 64
REMARK Flexibility Score: inf
ROOT
ATOM      1  C   UNL A   1      41.772  19.193  26.129  1.00  0.00     0.188 C 
ENDROOT
BRANCH   1   2
ATOM      2  O   UNL A   1      42.132  20.564  26.204  1.00  0.00    -0.376 OA
BRANCH   2   3
ATOM      3  C   UNL A   1      41.957  21.177  27.484  1.00  0.00     0.202 C 
BRANCH   3   4
ATOM      4  C   UNL A   1      40.671  22.018  27.700  1.00  0.00     0.261 C 
BRANCH   4   5
ATOM      5  O   UNL A   1      40.293  22.875  26.593  1.00  0.00    -0.463 OA
BRANCH   5   6
ATOM      6  C   UNL A   1      38.984  22.945  26.257  1.00  0.00     0.307 C 
ATOM      7  O   UNL A   1      38.324  23.978  26.270  1.00  0.00    -0.252 OA
BRANCH   6   8
ATOM      8  C   UNL A   1      38.391  21.601  25.865  1.00  0.00     0.146 C 
BRANCH   8   9
ATOM      9  C   UNL A   1      37.564  21.485  24.573  1.00  0.00     0.160 C 
BRANCH   9  10
ATOM     10  N   UNL A   1      36.114  21.647  24.710  1.00  0.00    -0.227 N 
ATOM     11  C   UNL A   1      34.347  23.193  24.603  1.00  0.00     0.104 A 
ATOM     12  N   UNL A   1      35.627  22.956  24.548  1.00  0.00    -0.169 NA
ATOM     13  C   UNL A   1      33.422  22.136  24.904  1.00  0.00     0.078 A 
ATOM     14  C   UNL A   1      33.891  20.828  25.001  1.00  0.00     0.183 A 
ATOM     15  C   UNL A   1      32.077  22.031  25.166  1.00  0.00     0.143 A 
ATOM     16  C   UNL A   1      35.279  20.518  24.811  1.00  0.00     0.296 A 
ATOM     17  N   UNL A   1      32.925  19.956  25.311  1.00  0.00    -0.074 NA
ATOM     18  O   UNL A   1      31.778  20.721  25.413  1.00  0.00    -0.360 OA
ATOM     19  C   UNL A   1      30.931  22.950  25.269  1.00  0.00     0.091 C 
ATOM     20  O   UNL A   1      35.659  19.357  24.774  1.00  0.00    -0.265 OA
BRANCH  11  21
ATOM     21  C   UNL A   1      33.846  24.550  24.398  1.00  0.00     0.003 A 
ATOM     22  C   UNL A   1      32.415  28.528  23.670  1.00  0.00     0.044 C 
ATOM     23  C   UNL A   1      32.907  27.126  23.898  1.00  0.00    -0.048 A 
ATOM     24  C   UNL A   1      33.557  26.821  25.111  1.00  0.00     0.004 A 
ATOM     25  C   UNL A   1      32.724  26.115  22.933  1.00  0.00    -0.048 A 
ATOM     26  C   UNL A   1      34.027  25.534  25.366  1.00  0.00     0.011 A 
ATOM     27  C   UNL A   1      33.182  24.824  23.206  1.00  0.00     0.014 A 
ATOM     28  C   UNL A   1      32.070  26.331  21.600  1.00  0.00     0.044 C 
ENDBRANCH  11  21
ENDBRANCH   9  10
ENDBRANCH   8   9
ENDBRANCH   6   8
ENDBRANCH   5   6
ENDBRANCH   4   5
ENDBRANCH   3   4
ENDBRANCH   2   3
ENDBRANCH   1   2
BRANCH   1  29
ATOM     29  C   UNL A   1      42.918  18.198  26.098  1.00  0.00     0.188 C 
BRANCH  29  30
ATOM     30  O   UNL A   1      43.850  18.376  25.035  1.00  0.00    -0.376 OA
BRANCH  30  31
ATOM     31  C   UNL A   1      45.222  18.459  25.405  1.00  0.00     0.202 C 
BRANCH  31  32
ATOM     32  C   UNL A   1      46.072  19.491  24.638  1.00  0.00     0.261 C 
BRANCH  32  33
ATOM     33  O   UNL A   1      46.263  20.740  25.315  1.00  0.00    -0.460 OA
BRANCH  33  34
ATOM     34  C   UNL A   1      45.367  21.694  24.957  1.00  0.00     0.338 C 
ATOM     35  O   UNL A   1      44.547  21.627  24.057  1.00  0.00    -0.246 OA
BRANCH  34  36
ATOM     36  C   UNL A   1      45.438  22.831  25.890  1.00  0.00     0.060 A 
ATOM     37  C   UNL A   1      44.249  23.366  26.405  1.00  0.00     0.016 A 
ATOM     38  C   UNL A   1      46.654  23.460  26.115  1.00  0.00     0.016 A 
ATOM     39  C   UNL A   1      44.265  24.581  27.088  1.00  0.00     0.010 A 
ATOM     40  C   UNL A   1      46.655  24.704  26.741  1.00  0.00     0.010 A 
ATOM     41  C   UNL A   1      45.462  25.293  27.208  1.00  0.00    -0.014 A 
BRANCH  41  42
ATOM     42  C   UNL A   1      45.446  26.645  27.837  1.00  0.00     0.031 A 
ATOM     43  C   UNL A   1      46.060  26.666  29.201  1.00  0.00     0.074 A 
ATOM     44  C   UNL A   1      45.454  27.776  27.084  1.00  0.00     0.049 A 
ATOM     45  N   UNL A   1      47.351  26.590  29.340  1.00  0.00    -0.248 NA
ATOM     46  C   UNL A   1      45.330  26.410  30.443  1.00  0.00     0.031 C 
ATOM     47  C   UNL A   1      45.920  27.797  25.686  1.00  0.00     0.029 A 
ATOM     48  N   UNL A   1      45.296  29.116  27.392  1.00  0.00    -0.354 N 
ATOM     49  C   UNL A   1      47.619  26.197  30.632  1.00  0.00     0.074 A 
ATOM     50  C   UNL A   1      46.336  26.148  31.300  1.00  0.00     0.031 C 
ATOM     51  C   UNL A   1      46.183  29.069  25.328  1.00  0.00     0.029 A 
ATOM     52  C   UNL A   1      45.803  29.983  26.409  1.00  0.00     0.049 A 
ATOM     53  H   UNL A   1      44.868  29.432  28.219  1.00  0.00     0.167 HD
ATOM     54  C   UNL A   1      48.882  25.895  31.033  1.00  0.00     0.034 A 
ATOM     55  C   UNL A   1      46.506  31.129  26.659  1.00  0.00     0.034 A 
ATOM     56  C   UNL A   1      49.878  25.914  29.998  1.00  0.00     0.049 A 
ATOM     57  C   UNL A   1      47.764  30.584  27.289  1.00  0.00     0.074 A 
ATOM     58  C   UNL A   1      50.524  24.995  29.197  1.00  0.00     0.029 A 
ATOM     59  N   UNL A   1      50.334  27.133  29.556  1.00  0.00    -0.354 N 
ATOM     60  N   UNL A   1      48.757  30.002  26.675  1.00  0.00    -0.248 NA
ATOM     61  C   UNL A   1      47.731  30.381  28.738  1.00  0.00     0.031 C 
ATOM     62  C   UNL A   1      50.925  25.724  28.032  1.00  0.00     0.029 A 
ATOM     63  C   UNL A   1      50.483  27.034  28.196  1.00  0.00     0.049 A 
ATOM     64  H   UNL A   1      50.519  27.925  30.110  1.00  0.00     0.167 HD
ATOM     65  C   UNL A   1      49.319  29.140  27.615  1.00  0.00     0.074 A 
ATOM     66  C   UNL A   1      48.648  29.433  28.866  1.00  0.00     0.031 C 
ATOM     67  C   UNL A   1      50.174  28.125  27.299  1.00  0.00     0.034 A 
BRANCH  54  68
ATOM     68  C   UNL A   1      49.311  25.725  32.432  1.00  0.00     0.023 A 
ATOM     69  C   UNL A   1      49.787  24.452  32.777  1.00  0.00     0.031 A 
ATOM     70  C   UNL A   1      49.045  26.642  33.452  1.00  0.00     0.131 A 
ATOM     71  C   UNL A   1      49.941  24.097  34.118  1.00  0.00     0.055 A 
ATOM     72  C   UNL A   1      49.223  26.292  34.797  1.00  0.00     0.041 A 
ATOM     73  F   UNL A   1      48.562  27.862  33.170  1.00  0.00    -0.206 F 
ATOM     74  C   UNL A   1      49.658  25.008  35.136  1.00  0.00     0.022 A 
BRANCH  71  75
ATOM     75  S   UNL A   1      50.435  22.395  34.484  1.00  0.00     0.124 S 
ATOM     76  O   UNL A   1      49.616  22.087  35.650  1.00  0.00    -0.237 OA
ATOM     77  O   UNL A   1      50.073  21.711  33.247  1.00  0.00    -0.237 OA
ATOM     78  O   UNL A   1      51.870  22.507  34.738  1.00  0.00    -0.744 OA
ENDBRANCH  71  75
ENDBRANCH  54  68
BRANCH  55  79
ATOM     79  C   UNL A   1      45.806  32.324  27.237  1.00  0.00     0.023 A 
ATOM     80  C   UNL A   1      44.815  32.135  28.219  1.00  0.00     0.031 A 
ATOM     81  C   UNL A   1      46.026  33.652  26.821  1.00  0.00     0.131 A 
ATOM     82  C   UNL A   1      44.183  33.235  28.828  1.00  0.00     0.055 A 
ATOM     83  C   UNL A   1      45.432  34.748  27.457  1.00  0.00     0.041 A 
ATOM     84  F   UNL A   1      46.836  33.934  25.790  1.00  0.00    -0.206 F 
ATOM     85  C   UNL A   1      44.519  34.543  28.483  1.00  0.00     0.022 A 
BRANCH  82  86
ATOM     86  S   UNL A   1      42.945  32.931  30.118  1.00  0.00     0.124 S 
ATOM     87  O   UNL A   1      43.777  32.751  31.303  1.00  0.00    -0.237 OA
ATOM     88  O   UNL A   1      42.144  34.151  30.079  1.00  0.00    -0.237 OA
ATOM     89  O   UNL A   1      42.256  31.729  29.651  1.00  0.00    -0.744 OA
ENDBRANCH  82  86
ENDBRANCH  55  79
BRANCH  67  90
ATOM     90  C   UNL A   1      50.651  28.074  25.886  1.00  0.00     0.023 A 
ATOM     91  C   UNL A   1      49.792  27.585  24.891  1.00  0.00     0.031 A 
ATOM     92  C   UNL A   1      51.902  28.582  25.499  1.00  0.00     0.131 A 
ATOM     93  C   UNL A   1      50.172  27.649  23.547  1.00  0.00     0.055 A 
ATOM     94  C   UNL A   1      52.273  28.658  24.154  1.00  0.00     0.041 A 
ATOM     95  F   UNL A   1      52.774  29.049  26.410  1.00  0.00    -0.206 F 
ATOM     96  C   UNL A   1      51.399  28.201  23.169  1.00  0.00     0.022 A 
BRANCH  93  97
ATOM     97  S   UNL A   1      49.003  27.077  22.287  1.00  0.00     0.124 S 
ATOM     98  O   UNL A   1      49.886  26.649  21.208  1.00  0.00    -0.237 OA
ATOM     99  O   UNL A   1      48.278  26.016  22.979  1.00  0.00    -0.237 OA
ATOM    100  O   UNL A   1      48.206  28.269  21.997  1.00  0.00    -0.744 OA
ENDBRANCH  93  97
ENDBRANCH  67  90
ENDBRANCH  41  42
ENDBRANCH  34  36
ENDBRANCH  33  34
ENDBRANCH  32  33
ENDBRANCH  31  32
ENDBRANCH  30  31
ENDBRANCH  29  30
ENDBRANCH   1  29
TORSDOF 23
ENDMDL
MODEL 2
REMARK VINA RESULT:     -10.1      2.879      3.910
REMARK SMILES Cc1ccc(-c2nn(CCC(=O)OCCOCCOCCOC(=O)c3ccc(-c4c5nc(c(-c6cc(S(=O)(=O)[O-])ccc6F)c6ccc([nH]6)c(-c6cc(S(=O)(=O)[O-])ccc6F)c6nc(c(-c7cc(S(=O)(=O)[O-])ccc7F)c7ccc4[nH]7)C=C6)C=C5)cc3)c(=O)c3noc(C)c23)cc1C
REMARK SMILES IDX 17 1 16 2 15 3 14 4 13 5 11 6 12 7 10 8 9 9 8 10 6 11 7 12
REMARK SMILES IDX 95 13 90 14 93 15 88 16 91 17 92 18 94 19 89 20 5 21 1 22
REMARK SMILES IDX 2 23 3 24 97 25 4 26 96 27 98 28 18 29 19 30 20 31 21 32
REMARK SMILES IDX 22 33 23 34 24 35 25 36 26 37 87 38 27 39 86 40 28 41 29 42
REMARK SMILES IDX 30 43 80 44 31 45 85 46 79 47 81 48 32 49 84 50 78 51 77 52
REMARK SMILES IDX 33 54 65 55 45 56 64 57 46 58 49 59 63 60 82 61 47 62 48 63
REMARK SMILES IDX 62 65 83 66 50 67 34 68 35 69 43 70 36 71 42 72 44 73 41 74
REMARK SMILES IDX 37 75 38 76 39 77 40 78 66 79 67 80 75 81 68 82 74 83 76 84
REMARK SMILES IDX 73 85 69 86 70 87 71 88 72 89 51 90 52 91 60 92 53 93 59 94
REMARK SMILES IDX 61 95 58 96 54 97 55 98 56 99 57 100
REMARK H PARENT 81 53 49 64
REMARK Flexibility Score: inf
ROOT
ATOM      1  C   UNL A   1      41.886  19.447  26.270  1.00  0.00     0.188 C 
ENDROOT
BRANCH   1   2
ATOM      2  O   UNL A   1      42.182  20.826  26.115  1.00  0.00    -0.376 OA
BRANCH   2   3
ATOM      3  C   UNL A   1      42.192  21.592  27.322  1.00  0.00     0.202 C 
BRANCH   3   4
ATOM      4  C   UNL A   1      40.871  22.299  27.727  1.00  0.00     0.261 C 
BRANCH   4   5
ATOM      5  O   UNL A   1      40.318  23.201  26.737  1.00  0.00    -0.463 OA
BRANCH   5   6
ATOM      6  C   UNL A   1      38.990  23.135  26.482  1.00  0.00     0.307 C 
ATOM      7  O   UNL A   1      38.224  24.088  26.567  1.00  0.00    -0.252 OA
BRANCH   6   8
ATOM      8  C   UNL A   1      38.523  21.744  26.084  1.00  0.00     0.146 C 
BRANCH   8   9
ATOM      9  C   UNL A   1      37.762  21.548  24.762  1.00  0.00     0.160 C 
BRANCH   9  10
ATOM     10  N   UNL A   1      36.311  21.751  24.809  1.00  0.00    -0.227 N 
ATOM     11  C   UNL A   1      34.595  23.337  24.556  1.00  0.00     0.104 A 
ATOM     12  N   UNL A   1      35.870  23.066  24.584  1.00  0.00    -0.169 NA
ATOM     13  C   UNL A   1      33.627  22.313  24.830  1.00  0.00     0.078 A 
ATOM     14  C   UNL A   1      34.053  20.997  24.990  1.00  0.00     0.183 A 
ATOM     15  C   UNL A   1      32.266  22.248  25.015  1.00  0.00     0.143 A 
ATOM     16  C   UNL A   1      35.442  20.646  24.890  1.00  0.00     0.296 A 
ATOM     17  N   UNL A   1      33.048  20.158  25.264  1.00  0.00    -0.074 NA
ATOM     18  O   UNL A   1      31.918  20.953  25.279  1.00  0.00    -0.360 OA
ATOM     19  C   UNL A   1      31.141  23.199  25.026  1.00  0.00     0.091 C 
ATOM     20  O   UNL A   1      35.792  19.476  24.906  1.00  0.00    -0.265 OA
BRANCH  11  21
ATOM     21  C   UNL A   1      34.144  24.700  24.287  1.00  0.00     0.003 A 
ATOM     22  C   UNL A   1      32.748  28.699  23.609  1.00  0.00     0.044 C 
ATOM     23  C   UNL A   1      33.239  27.304  23.875  1.00  0.00    -0.048 A 
ATOM     24  C   UNL A   1      33.347  26.402  22.798  1.00  0.00     0.004 A 
ATOM     25  C   UNL A   1      33.601  26.886  25.171  1.00  0.00    -0.048 A 
ATOM     26  C   UNL A   1      33.800  25.099  22.998  1.00  0.00     0.011 A 
ATOM     27  C   UNL A   1      34.072  25.584  25.359  1.00  0.00     0.014 A 
ATOM     28  C   UNL A   1      33.504  27.751  26.394  1.00  0.00     0.044 C 
ENDBRANCH  11  21
ENDBRANCH   9  10
ENDBRANCH   8   9
ENDBRANCH   6   8
ENDBRANCH   5   6
ENDBRANCH   4   5
ENDBRANCH   3   4
ENDBRANCH   2   3
ENDBRANCH   1   2
BRANCH   1  29
ATOM     29  C   UNL A   1      42.936  18.473  25.766  1.00  0.00     0.188 C 
BRANCH  29  30
ATOM     30  O   UNL A   1      43.923  19.034  24.906  1.00  0.00    -0.376 OA
BRANCH  30  31
ATOM     31  C   UNL A   1      45.268  18.984  25.371  1.00  0.00     0.202 C 
BRANCH  31  32
ATOM     32  C   UNL A   1      46.186  20.138  24.923  1.00  0.00     0.261 C 
BRANCH  32  33
ATOM     33  O   UNL A   1      45.894  21.409  25.517  1.00  0.00    -0.460 OA
BRANCH  33  34
ATOM     34  C   UNL A   1      45.137  22.215  24.730  1.00  0.00     0.338 C 
ATOM     35  O   UNL A   1      44.747  21.977  23.599  1.00  0.00    -0.246 OA
BRANCH  34  36
ATOM     36  C   UNL A   1      44.740  23.422  25.473  1.00  0.00     0.060 A 
ATOM     37  C   UNL A   1      43.622  24.151  25.044  1.00  0.00     0.016 A 
ATOM     38  C   UNL A   1      45.563  23.913  26.477  1.00  0.00     0.016 A 
ATOM     39  C   UNL A   1      43.366  25.417  25.569  1.00  0.00     0.010 A 
ATOM     40  C   UNL A   1      45.339  25.203  26.950  1.00  0.00     0.010 A 
ATOM     41  C   UNL A   1      44.260  25.981  26.483  1.00  0.00    -0.014 A 
BRANCH  41  42
ATOM     42  C   UNL A   1      44.039  27.380  26.949  1.00  0.00     0.031 A 
ATOM     43  C   UNL A   1      43.565  27.462  28.365  1.00  0.00     0.074 A 
ATOM     44  C   UNL A   1      44.733  28.420  26.416  1.00  0.00     0.049 A 
ATOM     45  N   UNL A   1      44.390  27.239  29.345  1.00  0.00    -0.248 NA
ATOM     46  C   UNL A   1      42.161  27.424  28.773  1.00  0.00     0.031 C 
ATOM     47  C   UNL A   1      46.015  28.244  25.712  1.00  0.00     0.029 A 
ATOM     48  N   UNL A   1      44.625  29.794  26.549  1.00  0.00    -0.354 N 
ATOM     49  C   UNL A   1      43.650  26.948  30.469  1.00  0.00     0.074 A 
ATOM     50  C   UNL A   1      42.267  27.126  30.082  1.00  0.00     0.031 C 
ATOM     51  C   UNL A   1      46.649  29.430  25.644  1.00  0.00     0.029 A 
ATOM     52  C   UNL A   1      45.791  30.489  26.186  1.00  0.00     0.049 A 
ATOM     53  H   UNL A   1      43.809  30.242  26.867  1.00  0.00     0.167 HD
ATOM     54  C   UNL A   1      44.242  26.532  31.620  1.00  0.00     0.034 A 
ATOM     55  C   UNL A   1      46.312  31.557  26.862  1.00  0.00     0.034 A 
ATOM     56  C   UNL A   1      45.661  26.323  31.541  1.00  0.00     0.049 A 
ATOM     57  C   UNL A   1      46.708  30.926  28.174  1.00  0.00     0.074 A 
ATOM     58  C   UNL A   1      46.520  25.256  31.385  1.00  0.00     0.029 A 
ATOM     59  N   UNL A   1      46.481  27.425  31.544  1.00  0.00    -0.354 N 
ATOM     60  N   UNL A   1      47.745  30.166  28.394  1.00  0.00    -0.248 NA
ATOM     61  C   UNL A   1      45.675  30.874  29.209  1.00  0.00     0.031 C 
ATOM     62  C   UNL A   1      47.712  25.808  30.815  1.00  0.00     0.029 A 
ATOM     63  C   UNL A   1      47.491  27.174  30.649  1.00  0.00     0.049 A 
ATOM     64  H   UNL A   1      46.367  28.240  32.084  1.00  0.00     0.167 HD
ATOM     65  C   UNL A   1      47.379  29.339  29.456  1.00  0.00     0.074 A 
ATOM     66  C   UNL A   1      46.098  29.837  29.917  1.00  0.00     0.031 C 
ATOM     67  C   UNL A   1      48.047  28.199  29.795  1.00  0.00     0.034 A 
BRANCH  54  68
ATOM     68  C   UNL A   1      43.581  26.451  32.934  1.00  0.00     0.023 A 
ATOM     69  C   UNL A   1      42.938  27.618  33.370  1.00  0.00     0.031 A 
ATOM     70  C   UNL A   1      43.765  25.406  33.843  1.00  0.00     0.131 A 
ATOM     71  C   UNL A   1      42.540  27.748  34.701  1.00  0.00     0.055 A 
ATOM     72  C   UNL A   1      43.343  25.528  35.173  1.00  0.00     0.041 A 
ATOM     73  F   UNL A   1      44.400  24.282  33.476  1.00  0.00    -0.206 F 
ATOM     74  C   UNL A   1      42.741  26.711  35.612  1.00  0.00     0.022 A 
BRANCH  71  75
ATOM     75  S   UNL A   1      41.836  29.333  35.216  1.00  0.00     0.124 S 
ATOM     76  O   UNL A   1      42.745  30.285  34.589  1.00  0.00    -0.237 OA
ATOM     77  O   UNL A   1      40.494  29.259  34.647  1.00  0.00    -0.237 OA
ATOM     78  O   UNL A   1      41.900  29.274  36.675  1.00  0.00    -0.744 OA
ENDBRANCH  71  75
ENDBRANCH  54  68
BRANCH  55  79
ATOM     79  C   UNL A   1      45.608  32.882  26.821  1.00  0.00     0.023 A 
ATOM     80  C   UNL A   1      46.163  33.980  27.506  1.00  0.00     0.031 A 
ATOM     81  C   UNL A   1      44.372  33.106  26.182  1.00  0.00     0.131 A 
ATOM     82  C   UNL A   1      45.564  35.251  27.437  1.00  0.00     0.055 A 
ATOM     83  C   UNL A   1      43.801  34.379  26.075  1.00  0.00     0.041 A 
ATOM     84  F   UNL A   1      43.683  32.098  25.628  1.00  0.00    -0.206 F 
ATOM     85  C   UNL A   1      44.408  35.466  26.688  1.00  0.00     0.022 A 
BRANCH  82  86
ATOM     86  S   UNL A   1      46.348  36.637  28.306  1.00  0.00     0.124 S 
ATOM     87  O   UNL A   1      46.858  37.440  27.200  1.00  0.00    -0.237 OA
ATOM     88  O   UNL A   1      45.232  37.212  29.051  1.00  0.00    -0.237 OA
ATOM     89  O   UNL A   1      47.367  35.990  29.129  1.00  0.00    -0.744 OA
ENDBRANCH  82  86
ENDBRANCH  55  79
BRANCH  67  90
ATOM     90  C   UNL A   1      49.335  27.948  29.086  1.00  0.00     0.023 A 
ATOM     91  C   UNL A   1      49.314  27.338  27.823  1.00  0.00     0.031 A 
ATOM     92  C   UNL A   1      50.570  28.381  29.599  1.00  0.00     0.131 A 
ATOM     93  C   UNL A   1      50.497  27.211  27.088  1.00  0.00     0.055 A 
ATOM     94  C   UNL A   1      51.747  28.266  28.856  1.00  0.00     0.041 A 
ATOM     95  F   UNL A   1      50.654  28.958  30.810  1.00  0.00    -0.206 F 
ATOM     96  C   UNL A   1      51.712  27.690  27.588  1.00  0.00     0.022 A 
BRANCH  93  97
ATOM     97  S   UNL A   1      50.415  26.486  25.430  1.00  0.00     0.124 S 
ATOM     98  O   UNL A   1      50.480  27.661  24.568  1.00  0.00    -0.237 OA
ATOM     99  O   UNL A   1      51.581  25.609  25.405  1.00  0.00    -0.237 OA
ATOM    100  O   UNL A   1      49.129  25.788  25.428  1.00  0.00    -0.744 OA
ENDBRANCH  93  97
ENDBRANCH  67  90
ENDBRANCH  41  42
ENDBRANCH  34  36
ENDBRANCH  33  34
ENDBRANCH  32  33
ENDBRANCH  31  32
ENDBRANCH  30  31
ENDBRANCH  29  30
ENDBRANCH   1  29
TORSDOF 23
ENDMDL
MODEL 3
REMARK VINA RESULT:      -9.8      4.267      9.490
REMARK SMILES Cc1ccc(-c2nn(CCC(=O)OCCOCCOCCOC(=O)c3ccc(-c4c5nc(c(-c6cc(S(=O)(=O)[O-])ccc6F)c6ccc([nH]6)c(-c6cc(S(=O)(=O)[O-])ccc6F)c6nc(c(-c7cc(S(=O)(=O)[O-])ccc7F)c7ccc4[nH]7)C=C6)C=C5)cc3)c(=O)c3noc(C)c23)cc1C
REMARK SMILES IDX 17 1 16 2 15 3 14 4 13 5 11 6 12 7 10 8 9 9 8 10 6 11 7 12
REMARK SMILES IDX 95 13 90 14 93 15 88 16 91 17 92 18 94 19 89 20 5 21 1 22
REMARK SMILES IDX 2 23 3 24 97 25 4 26 96 27 98 28 18 29 19 30 20 31 21 32
REMARK SMILES IDX 22 33 23 34 24 35 25 36 26 37 87 38 27 39 86 40 28 41 29 42
REMARK SMILES IDX 30 43 80 44 31 45 85 46 79 47 81 48 32 49 84 50 78 51 77 52
REMARK SMILES IDX 33 54 65 55 45 56 64 57 46 58 49 59 63 60 82 61 47 62 48 63
REMARK SMILES IDX 62 65 83 66 50 67 34 68 35 69 43 70 36 71 42 72 44 73 41 74
REMARK SMILES IDX 37 75 38 76 39 77 40 78 66 79 67 80 75 81 68 82 74 83 76 84
REMARK SMILES IDX 73 85 69 86 70 87 71 88 72 89 51 90 52 91 60 92 53 93 59 94
REMARK SMILES IDX 61 95 58 96 54 97 55 98 56 99 57 100
REMARK H PARENT 81 53 49 64
REMARK Flexibility Score: inf
ROOT
ATOM      1  C   UNL A   1      38.025  34.061  31.012  1.00  0.00     0.188 C 
ENDROOT
BRANCH   1   2
ATOM      2  O   UNL A   1      37.555  33.641  32.284  1.00  0.00    -0.376 OA
BRANCH   2   3
ATOM      3  C   UNL A   1      36.137  33.496  32.398  1.00  0.00     0.202 C 
BRANCH   3   4
ATOM      4  C   UNL A   1      35.560  32.059  32.312  1.00  0.00     0.261 C 
BRANCH   4   5
ATOM      5  O   UNL A   1      35.704  31.404  31.027  1.00  0.00    -0.463 OA
BRANCH   5   6
ATOM      6  C   UNL A   1      36.306  30.192  30.991  1.00  0.00     0.307 C 
ATOM      7  O   UNL A   1      36.674  29.575  31.985  1.00  0.00    -0.252 OA
BRANCH   6   8
ATOM      8  C   UNL A   1      36.500  29.658  29.580  1.00  0.00     0.146 C 
BRANCH   8   9
ATOM      9  C   UNL A   1      36.313  30.601  28.379  1.00  0.00     0.160 C 
BRANCH   9  10
ATOM     10  N   UNL A   1      35.072  30.442  27.614  1.00  0.00    -0.227 N 
ATOM     11  C   UNL A   1      33.890  29.016  26.167  1.00  0.00     0.104 A 
ATOM     12  N   UNL A   1      34.975  29.271  26.844  1.00  0.00    -0.169 NA
ATOM     13  C   UNL A   1      32.810  29.962  26.140  1.00  0.00     0.078 A 
ATOM     14  C   UNL A   1      32.873  31.092  26.951  1.00  0.00     0.183 A 
ATOM     15  C   UNL A   1      31.620  30.100  25.466  1.00  0.00     0.143 A 
ATOM     16  C   UNL A   1      33.998  31.331  27.810  1.00  0.00     0.296 A 
ATOM     17  N   UNL A   1      31.813  31.895  26.802  1.00  0.00    -0.074 NA
ATOM     18  O   UNL A   1      31.022  31.263  25.862  1.00  0.00    -0.360 OA
ATOM     19  C   UNL A   1      30.876  29.345  24.443  1.00  0.00     0.091 C 
ATOM     20  O   UNL A   1      33.988  32.256  28.608  1.00  0.00    -0.265 OA
BRANCH  11  21
ATOM     21  C   UNL A   1      33.783  27.779  25.397  1.00  0.00     0.003 A 
ATOM     22  C   UNL A   1      33.542  24.087  23.227  1.00  0.00     0.044 C 
ATOM     23  C   UNL A   1      33.624  25.366  24.012  1.00  0.00    -0.048 A 
ATOM     24  C   UNL A   1      33.791  26.582  23.320  1.00  0.00     0.004 A 
ATOM     25  C   UNL A   1      33.528  25.374  25.419  1.00  0.00    -0.048 A 
ATOM     26  C   UNL A   1      33.870  27.792  24.007  1.00  0.00     0.011 A 
ATOM     27  C   UNL A   1      33.589  26.593  26.098  1.00  0.00     0.014 A 
ATOM     28  C   UNL A   1      33.375  24.140  26.260  1.00  0.00     0.044 C 
ENDBRANCH  11  21
ENDBRANCH   9  10
ENDBRANCH   8   9
ENDBRANCH   6   8
ENDBRANCH   5   6
ENDBRANCH   4   5
ENDBRANCH   3   4
ENDBRANCH   2   3
ENDBRANCH   1   2
BRANCH   1  29
ATOM     29  C   UNL A   1      38.723  33.007  30.172  1.00  0.00     0.188 C 
BRANCH  29  30
ATOM     30  O   UNL A   1      39.998  32.590  30.652  1.00  0.00    -0.376 OA
BRANCH  30  31
ATOM     31  C   UNL A   1      40.028  31.375  31.392  1.00  0.00     0.202 C 
BRANCH  31  32
ATOM     32  C   UNL A   1      40.163  31.511  32.921  1.00  0.00     0.261 C 
BRANCH  32  33
ATOM     33  O   UNL A   1      41.061  30.579  33.535  1.00  0.00    -0.460 OA
BRANCH  33  34
ATOM     34  C   UNL A   1      40.531  29.341  33.700  1.00  0.00     0.338 C 
ATOM     35  O   UNL A   1      39.387  29.072  34.024  1.00  0.00    -0.246 OA
BRANCH  34  36
ATOM     36  C   UNL A   1      41.517  28.313  33.327  1.00  0.00     0.060 A 
ATOM     37  C   UNL A   1      42.067  27.500  34.329  1.00  0.00     0.016 A 
ATOM     38  C   UNL A   1      42.013  28.273  32.031  1.00  0.00     0.016 A 
ATOM     39  C   UNL A   1      43.169  26.694  34.051  1.00  0.00     0.010 A 
ATOM     40  C   UNL A   1      43.153  27.515  31.777  1.00  0.00     0.010 A 
ATOM     41  C   UNL A   1      43.762  26.741  32.786  1.00  0.00    -0.014 A 
BRANCH  41  42
ATOM     42  C   UNL A   1      45.009  25.964  32.536  1.00  0.00     0.031 A 
ATOM     43  C   UNL A   1      44.894  25.021  31.381  1.00  0.00     0.074 A 
ATOM     44  C   UNL A   1      46.229  26.456  32.876  1.00  0.00     0.049 A 
ATOM     45  N   UNL A   1      44.902  25.474  30.162  1.00  0.00    -0.248 NA
ATOM     46  C   UNL A   1      44.414  23.643  31.481  1.00  0.00     0.031 C 
ATOM     47  C   UNL A   1      46.478  27.894  33.079  1.00  0.00     0.029 A 
ATOM     48  N   UNL A   1      47.498  25.904  32.896  1.00  0.00    -0.354 N 
ATOM     49  C   UNL A   1      44.360  24.509  29.344  1.00  0.00     0.074 A 
ATOM     50  C   UNL A   1      44.118  23.365  30.196  1.00  0.00     0.031 C 
ATOM     51  C   UNL A   1      47.804  28.126  33.017  1.00  0.00     0.029 A 
ATOM     52  C   UNL A   1      48.529  26.858  32.888  1.00  0.00     0.049 A 
ATOM     53  H   UNL A   1      47.663  24.934  32.915  1.00  0.00     0.167 HD
ATOM     54  C   UNL A   1      44.107  24.753  28.030  1.00  0.00     0.034 A 
ATOM     55  C   UNL A   1      49.683  26.764  32.159  1.00  0.00     0.034 A 
ATOM     56  C   UNL A   1      44.347  26.102  27.598  1.00  0.00     0.049 A 
ATOM     57  C   UNL A   1      49.159  26.841  30.746  1.00  0.00     0.074 A 
ATOM     58  C   UNL A   1      43.600  27.238  27.365  1.00  0.00     0.029 A 
ATOM     59  N   UNL A   1      45.647  26.500  27.399  1.00  0.00    -0.354 N 
ATOM     60  N   UNL A   1      48.747  27.911  30.123  1.00  0.00    -0.248 NA
ATOM     61  C   UNL A   1      48.758  25.576  30.131  1.00  0.00     0.031 C 
ATOM     62  C   UNL A   1      44.511  28.331  27.530  1.00  0.00     0.029 A 
ATOM     63  C   UNL A   1      45.747  27.786  27.869  1.00  0.00     0.049 A 
ATOM     64  H   UNL A   1      46.368  25.965  26.997  1.00  0.00     0.167 HD
ATOM     65  C   UNL A   1      47.813  27.459  29.192  1.00  0.00     0.074 A 
ATOM     66  C   UNL A   1      47.878  26.012  29.242  1.00  0.00     0.031 C 
ATOM     67  C   UNL A   1      46.922  28.273  28.556  1.00  0.00     0.034 A 
BRANCH  54  68
ATOM     68  C   UNL A   1      43.783  23.728  27.023  1.00  0.00     0.023 A 
ATOM     69  C   UNL A   1      42.512  23.146  27.128  1.00  0.00     0.031 A 
ATOM     70  C   UNL A   1      44.719  23.147  26.164  1.00  0.00     0.131 A 
ATOM     71  C   UNL A   1      42.212  21.979  26.425  1.00  0.00     0.055 A 
ATOM     72  C   UNL A   1      44.408  21.989  25.440  1.00  0.00     0.041 A 
ATOM     73  F   UNL A   1      45.957  23.655  26.053  1.00  0.00    -0.206 F 
ATOM     74  C   UNL A   1      43.154  21.389  25.582  1.00  0.00     0.022 A 
BRANCH  71  75
ATOM     75  S   UNL A   1      40.596  21.216  26.715  1.00  0.00     0.124 S 
ATOM     76  O   UNL A   1      40.687  20.002  25.913  1.00  0.00    -0.237 OA
ATOM     77  O   UNL A   1      40.613  21.031  28.162  1.00  0.00    -0.237 OA
ATOM     78  O   UNL A   1      39.656  22.222  26.225  1.00  0.00    -0.744 OA
ENDBRANCH  71  75
ENDBRANCH  54  68
BRANCH  55  79
ATOM     79  C   UNL A   1      50.728  25.758  32.544  1.00  0.00     0.023 A 
ATOM     80  C   UNL A   1      50.344  24.594  33.236  1.00  0.00     0.031 A 
ATOM     81  C   UNL A   1      52.108  25.918  32.311  1.00  0.00     0.131 A 
ATOM     82  C   UNL A   1      51.287  23.600  33.556  1.00  0.00     0.055 A 
ATOM     83  C   UNL A   1      53.040  24.910  32.588  1.00  0.00     0.041 A 
ATOM     84  F   UNL A   1      52.600  27.053  31.794  1.00  0.00    -0.206 F 
ATOM     85  C   UNL A   1      52.627  23.732  33.196  1.00  0.00     0.022 A 
BRANCH  82  86
ATOM     86  S   UNL A   1      50.726  22.102  34.412  1.00  0.00     0.124 S 
ATOM     87  O   UNL A   1      50.048  21.377  33.343  1.00  0.00    -0.237 OA
ATOM     88  O   UNL A   1      51.980  21.521  34.883  1.00  0.00    -0.237 OA
ATOM     89  O   UNL A   1      49.856  22.619  35.466  1.00  0.00    -0.744 OA
ENDBRANCH  82  86
ENDBRANCH  55  79
BRANCH  67  90
ATOM     90  C   UNL A   1      47.102  29.740  28.755  1.00  0.00     0.023 A 
ATOM     91  C   UNL A   1      47.960  30.446  27.898  1.00  0.00     0.031 A 
ATOM     92  C   UNL A   1      46.376  30.462  29.716  1.00  0.00     0.131 A 
ATOM     93  C   UNL A   1      48.044  31.839  27.985  1.00  0.00     0.055 A 
ATOM     94  C   UNL A   1      46.451  31.855  29.791  1.00  0.00     0.041 A 
ATOM     95  F   UNL A   1      45.552  29.838  30.576  1.00  0.00    -0.206 F 
ATOM     96  C   UNL A   1      47.280  32.552  28.914  1.00  0.00     0.022 A 
BRANCH  93  97
ATOM     97  S   UNL A   1      49.105  32.720  26.810  1.00  0.00     0.124 S 
ATOM     98  O   UNL A   1      50.001  31.668  26.343  1.00  0.00    -0.237 OA
ATOM     99  O   UNL A   1      48.148  33.227  25.831  1.00  0.00    -0.237 OA
ATOM    100  O   UNL A   1      49.738  33.751  27.632  1.00  0.00    -0.744 OA
ENDBRANCH  93  97
ENDBRANCH  67  90
ENDBRANCH  41  42
ENDBRANCH  34  36
ENDBRANCH  33  34
ENDBRANCH  32  33
ENDBRANCH  31  32
ENDBRANCH  30  31
ENDBRANCH  29  30
ENDBRANCH   1  29
TORSDOF 23
ENDMDL
