MODEL 1
REMARK VINA RESULT:     -11.1      0.000      0.000
REMARK SMILES O=C(CSc1nc(O)cc(=O)[nH]1)Nc1cccc(C(=O)OCCOCCOCCOC(=O)c2ccc(-c3c4nc(c(-c5cc(S(=O)(=O)[O-])ccc5F)c5ccc([nH]5)c(-c5cc(S(=O)(=O)[O-])ccc5F)c5nc(c(-c6cc(S(=O)(=O)[O-])ccc6F)c6ccc3[nH]6)C=C5)C=C4)cc2)c1
REMARK SMILES IDX 25 1 24 2 23 3 22 4 21 5 19 6 20 7 18 8 14 9 15 10 96 11
REMARK SMILES IDX 16 12 17 13 13 14 1 15 2 16 3 18 4 19 5 20 6 21 12 22 7 23
REMARK SMILES IDX 10 24 9 26 11 27 8 28 26 30 27 31 28 32 29 33 30 34 31 35
REMARK SMILES IDX 32 36 33 37 34 38 95 39 35 40 94 41 36 42 37 43 38 44 88 45
REMARK SMILES IDX 39 46 93 47 87 48 89 49 40 50 92 51 86 52 85 53 41 55 73 56
REMARK SMILES IDX 53 57 72 58 54 59 57 60 71 61 90 62 55 63 56 64 70 66 91 67
REMARK SMILES IDX 58 68 42 69 43 70 51 71 44 72 50 73 52 74 49 75 45 76 46 77
REMARK SMILES IDX 47 78 48 79 74 80 75 81 83 82 76 83 82 84 84 85 81 86 77 87
REMARK SMILES IDX 78 88 79 89 80 90 59 91 60 92 68 93 61 94 67 95 69 96 66 97
REMARK SMILES IDX 62 98 63 99 64 100 65 101
REMARK H PARENT 13 17 12 25 8 29 89 54 57 65
REMARK Flexibility Score: inf
ROOT
ATOM      1  C   UNL A   1      42.643  18.757  26.506  1.00  0.00     0.188 C 
ENDROOT
BRANCH   1   2
ATOM      2  O   UNL A   1      41.862  19.832  27.014  1.00  0.00    -0.376 OA
BRANCH   2   3
ATOM      3  C   UNL A   1      41.026  20.581  26.143  1.00  0.00     0.202 C 
BRANCH   3   4
ATOM      4  C   UNL A   1      39.910  21.492  26.686  1.00  0.00     0.261 C 
BRANCH   4   5
ATOM      5  O   UNL A   1      38.849  21.788  25.771  1.00  0.00    -0.460 OA
BRANCH   5   6
ATOM      6  C   UNL A   1      38.196  22.962  25.971  1.00  0.00     0.338 C 
ATOM      7  O   UNL A   1      38.673  24.007  26.381  1.00  0.00    -0.246 OA
BRANCH   6   8
ATOM      8  C   UNL A   1      36.832  22.843  25.412  1.00  0.00     0.062 A 
ATOM      9  C   UNL A   1      34.679  23.817  24.885  1.00  0.00     0.042 A 
ATOM     10  C   UNL A   1      34.194  22.537  24.580  1.00  0.00     0.026 A 
ATOM     11  C   UNL A   1      35.994  23.961  25.328  1.00  0.00     0.041 A 
ATOM     12  C   UNL A   1      35.037  21.423  24.646  1.00  0.00     0.003 A 
ATOM     13  C   UNL A   1      36.363  21.578  25.046  1.00  0.00     0.016 A 
BRANCH   9  14
ATOM     14  N   UNL A   1      33.802  24.908  24.717  1.00  0.00    -0.325 N 
ATOM     15  O   UNL A   1      33.974  25.262  22.417  1.00  0.00    -0.274 OA
ATOM     16  C   UNL A   1      33.510  25.545  23.518  1.00  0.00     0.234 C 
ATOM     17  H   UNL A   1      33.356  25.251  25.525  1.00  0.00     0.169 HD
BRANCH  16  18
ATOM     18  C   UNL A   1      32.493  26.663  23.651  1.00  0.00     0.178 C 
BRANCH  18  19
ATOM     19  S   UNL A   1      30.796  26.023  23.728  1.00  0.00    -0.078 SA
BRANCH  19  20
ATOM     20  C   UNL A   1      29.914  27.371  23.072  1.00  0.00     0.172 A 
ATOM     21  N   UNL A   1      30.504  28.248  22.329  1.00  0.00    -0.189 NA
ATOM     22  N   UNL A   1      28.616  27.441  23.466  1.00  0.00    -0.301 N 
ATOM     23  C   UNL A   1      29.743  29.314  21.947  1.00  0.00     0.218 A 
ATOM     24  C   UNL A   1      27.818  28.481  23.103  1.00  0.00     0.255 A 
ATOM     25  H   UNL A   1      28.244  26.723  24.028  1.00  0.00     0.172 HD
ATOM     26  C   UNL A   1      28.463  29.503  22.274  1.00  0.00     0.139 A 
ATOM     27  O   UNL A   1      26.650  28.580  23.453  1.00  0.00    -0.269 OA
BRANCH  23  28
ATOM     28  O   UNL A   1      30.391  30.260  21.196  1.00  0.00    -0.493 OA
ATOM     29  H   UNL A   1      29.933  30.712  20.516  1.00  0.00     0.295 HD
ENDBRANCH  23  28
ENDBRANCH  19  20
ENDBRANCH  18  19
ENDBRANCH  16  18
ENDBRANCH   9  14
ENDBRANCH   6   8
ENDBRANCH   5   6
ENDBRANCH   4   5
ENDBRANCH   3   4
ENDBRANCH   2   3
ENDBRANCH   1   2
BRANCH   1  30
ATOM     30  C   UNL A   1      43.443  18.942  25.200  1.00  0.00     0.188 C 
BRANCH  30  31
ATOM     31  O   UNL A   1      44.715  19.519  25.389  1.00  0.00    -0.376 OA
BRANCH  31  32
ATOM     32  C   UNL A   1      44.936  20.847  24.948  1.00  0.00     0.202 C 
BRANCH  32  33
ATOM     33  C   UNL A   1      45.435  21.995  25.852  1.00  0.00     0.261 C 
BRANCH  33  34
ATOM     34  O   UNL A   1      45.336  23.342  25.377  1.00  0.00    -0.460 OA
BRANCH  34  35
ATOM     35  C   UNL A   1      44.164  23.695  24.795  1.00  0.00     0.338 C 
ATOM     36  O   UNL A   1      43.705  23.250  23.760  1.00  0.00    -0.246 OA
BRANCH  35  37
ATOM     37  C   UNL A   1      43.426  24.581  25.723  1.00  0.00     0.060 A 
ATOM     38  C   UNL A   1      43.889  25.890  25.904  1.00  0.00     0.016 A 
ATOM     39  C   UNL A   1      42.313  24.122  26.432  1.00  0.00     0.016 A 
ATOM     40  C   UNL A   1      43.264  26.730  26.828  1.00  0.00     0.010 A 
ATOM     41  C   UNL A   1      41.696  24.963  27.367  1.00  0.00     0.010 A 
ATOM     42  C   UNL A   1      42.190  26.260  27.596  1.00  0.00    -0.014 A 
BRANCH  42  43
ATOM     43  C   UNL A   1      41.708  27.078  28.742  1.00  0.00     0.031 A 
ATOM     44  C   UNL A   1      42.516  27.095  30.015  1.00  0.00     0.074 A 
ATOM     45  C   UNL A   1      40.611  27.851  28.631  1.00  0.00     0.049 A 
ATOM     46  N   UNL A   1      42.313  27.761  31.121  1.00  0.00    -0.248 NA
ATOM     47  C   UNL A   1      43.715  26.243  30.038  1.00  0.00     0.031 C 
ATOM     48  C   UNL A   1      39.766  27.950  27.442  1.00  0.00     0.029 A 
ATOM     49  N   UNL A   1      40.025  28.707  29.531  1.00  0.00    -0.354 N 
ATOM     50  C   UNL A   1      43.362  27.418  31.970  1.00  0.00     0.074 A 
ATOM     51  C   UNL A   1      44.167  26.444  31.266  1.00  0.00     0.031 C 
ATOM     52  C   UNL A   1      38.775  28.826  27.682  1.00  0.00     0.029 A 
ATOM     53  C   UNL A   1      38.893  29.324  29.052  1.00  0.00     0.049 A 
ATOM     54  H   UNL A   1      40.383  28.865  30.434  1.00  0.00     0.167 HD
ATOM     55  C   UNL A   1      43.637  27.883  33.215  1.00  0.00     0.034 A 
ATOM     56  C   UNL A   1      38.043  30.181  29.654  1.00  0.00     0.034 A 
ATOM     57  C   UNL A   1      42.816  28.841  33.917  1.00  0.00     0.049 A 
ATOM     58  C   UNL A   1      38.325  30.617  31.075  1.00  0.00     0.074 A 
ATOM     59  C   UNL A   1      43.003  29.375  35.180  1.00  0.00     0.029 A 
ATOM     60  N   UNL A   1      41.644  29.401  33.422  1.00  0.00    -0.354 N 
ATOM     61  N   UNL A   1      39.329  30.295  31.859  1.00  0.00    -0.248 NA
ATOM     62  C   UNL A   1      37.366  31.549  31.681  1.00  0.00     0.031 C 
ATOM     63  C   UNL A   1      41.909  30.195  35.479  1.00  0.00     0.029 A 
ATOM     64  C   UNL A   1      41.084  30.250  34.366  1.00  0.00     0.049 A 
ATOM     65  H   UNL A   1      41.267  29.221  32.531  1.00  0.00     0.167 HD
ATOM     66  C   UNL A   1      39.138  31.019  33.035  1.00  0.00     0.074 A 
ATOM     67  C   UNL A   1      37.942  31.811  32.843  1.00  0.00     0.031 C 
ATOM     68  C   UNL A   1      39.883  31.029  34.173  1.00  0.00     0.034 A 
BRANCH  55  69
ATOM     69  C   UNL A   1      44.857  27.324  33.911  1.00  0.00     0.023 A 
ATOM     70  C   UNL A   1      44.851  26.048  34.504  1.00  0.00     0.031 A 
ATOM     71  C   UNL A   1      46.037  28.083  33.999  1.00  0.00     0.131 A 
ATOM     72  C   UNL A   1      45.977  25.599  35.211  1.00  0.00     0.055 A 
ATOM     73  C   UNL A   1      47.181  27.597  34.634  1.00  0.00     0.041 A 
ATOM     74  F   UNL A   1      46.095  29.318  33.476  1.00  0.00    -0.206 F 
ATOM     75  C   UNL A   1      47.152  26.353  35.258  1.00  0.00     0.022 A 
BRANCH  72  76
ATOM     76  S   UNL A   1      45.836  24.078  36.191  1.00  0.00     0.124 S 
ATOM     77  O   UNL A   1      44.444  23.703  35.956  1.00  0.00    -0.237 OA
ATOM     78  O   UNL A   1      46.842  23.216  35.582  1.00  0.00    -0.237 OA
ATOM     79  O   UNL A   1      46.134  24.518  37.553  1.00  0.00    -0.744 OA
ENDBRANCH  72  76
ENDBRANCH  55  69
BRANCH  56  80
ATOM     80  C   UNL A   1      36.826  30.678  28.944  1.00  0.00     0.023 A 
ATOM     81  C   UNL A   1      35.836  29.791  28.488  1.00  0.00     0.031 A 
ATOM     82  C   UNL A   1      36.678  32.042  28.631  1.00  0.00     0.131 A 
ATOM     83  C   UNL A   1      34.782  30.266  27.692  1.00  0.00     0.055 A 
ATOM     84  C   UNL A   1      35.591  32.518  27.896  1.00  0.00     0.041 A 
ATOM     85  F   UNL A   1      37.597  32.934  29.034  1.00  0.00    -0.206 F 
ATOM     86  C   UNL A   1      34.643  31.626  27.406  1.00  0.00     0.022 A 
BRANCH  83  87
ATOM     87  S   UNL A   1      33.656  29.061  26.934  1.00  0.00     0.124 S 
ATOM     88  O   UNL A   1      33.016  29.865  25.899  1.00  0.00    -0.237 OA
ATOM     89  O   UNL A   1      34.582  28.035  26.468  1.00  0.00    -0.237 OA
ATOM     90  O   UNL A   1      32.789  28.662  28.041  1.00  0.00    -0.744 OA
ENDBRANCH  83  87
ENDBRANCH  56  80
BRANCH  68  91
ATOM     91  C   UNL A   1      39.446  31.975  35.271  1.00  0.00     0.023 A 
ATOM     92  C   UNL A   1      38.830  31.513  36.447  1.00  0.00     0.031 A 
ATOM     93  C   UNL A   1      39.599  33.365  35.112  1.00  0.00     0.131 A 
ATOM     94  C   UNL A   1      38.305  32.430  37.371  1.00  0.00     0.055 A 
ATOM     95  C   UNL A   1      39.149  34.270  36.076  1.00  0.00     0.041 A 
ATOM     96  F   UNL A   1      40.178  33.869  34.011  1.00  0.00    -0.206 F 
ATOM     97  C   UNL A   1      38.477  33.806  37.202  1.00  0.00     0.022 A 
BRANCH  94  98
ATOM     98  S   UNL A   1      37.259  31.805  38.715  1.00  0.00     0.124 S 
ATOM     99  O   UNL A   1      38.133  31.958  39.874  1.00  0.00    -0.237 OA
ATOM    100  O   UNL A   1      36.110  32.702  38.659  1.00  0.00    -0.237 OA
ATOM    101  O   UNL A   1      36.987  30.423  38.322  1.00  0.00    -0.744 OA
ENDBRANCH  94  98
ENDBRANCH  68  91
ENDBRANCH  42  43
ENDBRANCH  35  37
ENDBRANCH  34  35
ENDBRANCH  33  34
ENDBRANCH  32  33
ENDBRANCH  31  32
ENDBRANCH  30  31
ENDBRANCH   1  30
TORSDOF 25
ENDMDL
MODEL 2
REMARK VINA RESULT:     -10.1      1.921      2.163
REMARK SMILES O=C(CSc1nc(O)cc(=O)[nH]1)Nc1cccc(C(=O)OCCOCCOCCOC(=O)c2ccc(-c3c4nc(c(-c5cc(S(=O)(=O)[O-])ccc5F)c5ccc([nH]5)c(-c5cc(S(=O)(=O)[O-])ccc5F)c5nc(c(-c6cc(S(=O)(=O)[O-])ccc6F)c6ccc3[nH]6)C=C5)C=C4)cc2)c1
REMARK SMILES IDX 25 1 24 2 23 3 22 4 21 5 19 6 20 7 18 8 14 9 15 10 96 11
REMARK SMILES IDX 16 12 17 13 13 14 1 15 2 16 3 18 4 19 5 20 6 21 12 22 7 23
REMARK SMILES IDX 10 24 9 26 11 27 8 28 26 30 27 31 28 32 29 33 30 34 31 35
REMARK SMILES IDX 32 36 33 37 34 38 95 39 35 40 94 41 36 42 37 43 38 44 88 45
REMARK SMILES IDX 39 46 93 47 87 48 89 49 40 50 92 51 86 52 85 53 41 55 73 56
REMARK SMILES IDX 53 57 72 58 54 59 57 60 71 61 90 62 55 63 56 64 70 66 91 67
REMARK SMILES IDX 58 68 42 69 43 70 51 71 44 72 50 73 52 74 49 75 45 76 46 77
REMARK SMILES IDX 47 78 48 79 74 80 75 81 83 82 76 83 82 84 84 85 81 86 77 87
REMARK SMILES IDX 78 88 79 89 80 90 59 91 60 92 68 93 61 94 67 95 69 96 66 97
REMARK SMILES IDX 62 98 63 99 64 100 65 101
REMARK H PARENT 13 17 12 25 8 29 89 54 57 65
REMARK Flexibility Score: inf
ROOT
ATOM      1  C   UNL A   1      42.638  18.942  26.746  1.00  0.00     0.188 C 
ENDROOT
BRANCH   1   2
ATOM      2  O   UNL A   1      41.840  20.042  27.170  1.00  0.00    -0.376 OA
BRANCH   2   3
ATOM      3  C   UNL A   1      40.990  20.704  26.245  1.00  0.00     0.202 C 
BRANCH   3   4
ATOM      4  C   UNL A   1      39.922  21.709  26.712  1.00  0.00     0.261 C 
BRANCH   4   5
ATOM      5  O   UNL A   1      38.666  21.645  26.028  1.00  0.00    -0.460 OA
BRANCH   5   6
ATOM      6  C   UNL A   1      37.948  22.798  25.984  1.00  0.00     0.338 C 
ATOM      7  O   UNL A   1      38.359  23.927  26.197  1.00  0.00    -0.246 OA
BRANCH   6   8
ATOM      8  C   UNL A   1      36.611  22.500  25.426  1.00  0.00     0.062 A 
ATOM      9  C   UNL A   1      34.388  23.214  24.788  1.00  0.00     0.042 A 
ATOM     10  C   UNL A   1      34.030  21.871  24.601  1.00  0.00     0.026 A 
ATOM     11  C   UNL A   1      35.676  23.521  25.227  1.00  0.00     0.041 A 
ATOM     12  C   UNL A   1      34.970  20.852  24.782  1.00  0.00     0.003 A 
ATOM     13  C   UNL A   1      36.268  21.167  25.178  1.00  0.00     0.016 A 
BRANCH   9  14
ATOM     14  N   UNL A   1      33.418  24.197  24.507  1.00  0.00    -0.325 N 
ATOM     15  O   UNL A   1      33.379  24.129  22.175  1.00  0.00    -0.274 OA
ATOM     16  C   UNL A   1      32.983  24.581  23.246  1.00  0.00     0.234 C 
ATOM     17  H   UNL A   1      33.011  24.655  25.279  1.00  0.00     0.169 HD
BRANCH  16  18
ATOM     18  C   UNL A   1      31.895  25.638  23.269  1.00  0.00     0.178 C 
BRANCH  18  19
ATOM     19  S   UNL A   1      32.230  26.975  22.088  1.00  0.00    -0.078 SA
BRANCH  19  20
ATOM     20  C   UNL A   1      30.816  27.964  22.313  1.00  0.00     0.172 A 
ATOM     21  N   UNL A   1      30.834  29.219  22.009  1.00  0.00    -0.189 NA
ATOM     22  N   UNL A   1      29.765  27.322  22.884  1.00  0.00    -0.301 N 
ATOM     23  C   UNL A   1      29.704  29.922  22.315  1.00  0.00     0.218 A 
ATOM     24  C   UNL A   1      28.616  27.980  23.199  1.00  0.00     0.255 A 
ATOM     25  H   UNL A   1      29.835  26.359  23.076  1.00  0.00     0.172 HD
ATOM     26  C   UNL A   1      28.610  29.412  22.883  1.00  0.00     0.139 A 
ATOM     27  O   UNL A   1      27.657  27.434  23.727  1.00  0.00    -0.269 OA
BRANCH  23  28
ATOM     28  O   UNL A   1      29.750  31.261  22.029  1.00  0.00    -0.493 OA
ATOM     29  H   UNL A   1      29.009  31.682  21.640  1.00  0.00     0.295 HD
ENDBRANCH  23  28
ENDBRANCH  19  20
ENDBRANCH  18  19
ENDBRANCH  16  18
ENDBRANCH   9  14
ENDBRANCH   6   8
ENDBRANCH   5   6
ENDBRANCH   4   5
ENDBRANCH   3   4
ENDBRANCH   2   3
ENDBRANCH   1   2
BRANCH   1  30
ATOM     30  C   UNL A   1      43.525  19.077  25.491  1.00  0.00     0.188 C 
BRANCH  30  31
ATOM     31  O   UNL A   1      44.742  19.748  25.723  1.00  0.00    -0.376 OA
BRANCH  31  32
ATOM     32  C   UNL A   1      44.828  21.132  25.430  1.00  0.00     0.202 C 
BRANCH  32  33
ATOM     33  C   UNL A   1      45.458  22.184  26.368  1.00  0.00     0.261 C 
BRANCH  33  34
ATOM     34  O   UNL A   1      45.472  23.556  25.957  1.00  0.00    -0.460 OA
BRANCH  34  35
ATOM     35  C   UNL A   1      44.384  23.995  25.279  1.00  0.00     0.338 C 
ATOM     36  O   UNL A   1      44.018  23.628  24.177  1.00  0.00    -0.246 OA
BRANCH  35  37
ATOM     37  C   UNL A   1      43.591  24.866  26.174  1.00  0.00     0.060 A 
ATOM     38  C   UNL A   1      44.004  26.192  26.353  1.00  0.00     0.016 A 
ATOM     39  C   UNL A   1      42.474  24.378  26.857  1.00  0.00     0.016 A 
ATOM     40  C   UNL A   1      43.326  27.021  27.248  1.00  0.00     0.010 A 
ATOM     41  C   UNL A   1      41.803  25.208  27.764  1.00  0.00     0.010 A 
ATOM     42  C   UNL A   1      42.246  26.523  27.992  1.00  0.00    -0.014 A 
BRANCH  42  43
ATOM     43  C   UNL A   1      41.705  27.337  29.114  1.00  0.00     0.031 A 
ATOM     44  C   UNL A   1      42.444  27.348  30.428  1.00  0.00     0.074 A 
ATOM     45  C   UNL A   1      40.616  28.112  28.948  1.00  0.00     0.049 A 
ATOM     46  N   UNL A   1      42.183  28.010  31.525  1.00  0.00    -0.248 NA
ATOM     47  C   UNL A   1      43.639  26.494  30.511  1.00  0.00     0.031 C 
ATOM     48  C   UNL A   1      39.837  28.217  27.715  1.00  0.00     0.029 A 
ATOM     49  N   UNL A   1      39.984  28.966  29.819  1.00  0.00    -0.354 N 
ATOM     50  C   UNL A   1      43.185  27.662  32.427  1.00  0.00     0.074 A 
ATOM     51  C   UNL A   1      44.025  26.689  31.763  1.00  0.00     0.031 C 
ATOM     52  C   UNL A   1      38.835  29.094  27.907  1.00  0.00     0.029 A 
ATOM     53  C   UNL A   1      38.880  29.587  29.282  1.00  0.00     0.049 A 
ATOM     54  H   UNL A   1      40.294  29.119  30.741  1.00  0.00     0.167 HD
ATOM     55  C   UNL A   1      43.394  28.121  33.687  1.00  0.00     0.034 A 
ATOM     56  C   UNL A   1      38.000  30.442  29.843  1.00  0.00     0.034 A 
ATOM     57  C   UNL A   1      42.538  29.077  34.348  1.00  0.00     0.049 A 
ATOM     58  C   UNL A   1      38.206  30.872  31.278  1.00  0.00     0.074 A 
ATOM     59  C   UNL A   1      42.658  29.606  35.621  1.00  0.00     0.029 A 
ATOM     60  N   UNL A   1      41.395  29.640  33.794  1.00  0.00    -0.354 N 
ATOM     61  N   UNL A   1      39.167  30.545  32.114  1.00  0.00    -0.248 NA
ATOM     62  C   UNL A   1      37.218  31.802  31.836  1.00  0.00     0.031 C 
ATOM     63  C   UNL A   1      41.550  30.426  35.865  1.00  0.00     0.029 A 
ATOM     64  C   UNL A   1      40.786  30.486  34.711  1.00  0.00     0.049 A 
ATOM     65  H   UNL A   1      41.065  29.465  32.883  1.00  0.00     0.167 HD
ATOM     66  C   UNL A   1      38.914  31.264  33.281  1.00  0.00     0.074 A 
ATOM     67  C   UNL A   1      37.732  32.059  33.028  1.00  0.00     0.031 C 
ATOM     68  C   UNL A   1      39.598  31.269  34.456  1.00  0.00     0.034 A 
BRANCH  55  69
ATOM     69  C   UNL A   1      44.574  27.557  34.444  1.00  0.00     0.023 A 
ATOM     70  C   UNL A   1      44.458  26.407  35.246  1.00  0.00     0.031 A 
ATOM     71  C   UNL A   1      45.829  28.188  34.378  1.00  0.00     0.131 A 
ATOM     72  C   UNL A   1      45.556  25.963  35.999  1.00  0.00     0.055 A 
ATOM     73  C   UNL A   1      46.940  27.693  35.065  1.00  0.00     0.041 A 
ATOM     74  F   UNL A   1      45.996  29.303  33.651  1.00  0.00    -0.206 F 
ATOM     75  C   UNL A   1      46.805  26.582  35.893  1.00  0.00     0.022 A 
BRANCH  72  76
ATOM     76  S   UNL A   1      45.295  24.653  37.226  1.00  0.00     0.124 S 
ATOM     77  O   UNL A   1      44.723  23.589  36.406  1.00  0.00    -0.237 OA
ATOM     78  O   UNL A   1      46.644  24.418  37.729  1.00  0.00    -0.237 OA
ATOM     79  O   UNL A   1      44.370  25.258  38.183  1.00  0.00    -0.744 OA
ENDBRANCH  72  76
ENDBRANCH  55  69
BRANCH  56  80
ATOM     80  C   UNL A   1      36.823  30.944  29.070  1.00  0.00     0.023 A 
ATOM     81  C   UNL A   1      36.526  32.316  29.005  1.00  0.00     0.031 A 
ATOM     82  C   UNL A   1      35.926  30.049  28.459  1.00  0.00     0.131 A 
ATOM     83  C   UNL A   1      35.334  32.747  28.403  1.00  0.00     0.055 A 
ATOM     84  C   UNL A   1      34.775  30.490  27.803  1.00  0.00     0.041 A 
ATOM     85  F   UNL A   1      36.154  28.727  28.497  1.00  0.00    -0.206 F 
ATOM     86  C   UNL A   1      34.464  31.845  27.787  1.00  0.00     0.022 A 
BRANCH  83  87
ATOM     87  S   UNL A   1      34.876  34.498  28.542  1.00  0.00     0.124 S 
ATOM     88  O   UNL A   1      36.036  35.052  29.232  1.00  0.00    -0.237 OA
ATOM     89  O   UNL A   1      34.719  34.880  27.143  1.00  0.00    -0.237 OA
ATOM     90  O   UNL A   1      33.641  34.466  29.321  1.00  0.00    -0.744 OA
ENDBRANCH  83  87
ENDBRANCH  56  80
BRANCH  68  91
ATOM     91  C   UNL A   1      39.104  32.211  35.534  1.00  0.00     0.023 A 
ATOM     92  C   UNL A   1      39.529  33.550  35.601  1.00  0.00     0.031 A 
ATOM     93  C   UNL A   1      38.240  31.745  36.541  1.00  0.00     0.131 A 
ATOM     94  C   UNL A   1      39.167  34.346  36.699  1.00  0.00     0.055 A 
ATOM     95  C   UNL A   1      37.816  32.568  37.586  1.00  0.00     0.041 A 
ATOM     96  F   UNL A   1      37.801  30.476  36.534  1.00  0.00    -0.206 F 
ATOM     97  C   UNL A   1      38.299  33.869  37.683  1.00  0.00     0.022 A 
BRANCH  94  98
ATOM     98  S   UNL A   1      39.973  35.959  36.903  1.00  0.00     0.124 S 
ATOM     99  O   UNL A   1      39.253  36.513  38.046  1.00  0.00    -0.237 OA
ATOM    100  O   UNL A   1      41.362  35.584  37.144  1.00  0.00    -0.237 OA
ATOM    101  O   UNL A   1      39.724  36.630  35.628  1.00  0.00    -0.744 OA
ENDBRANCH  94  98
ENDBRANCH  68  91
ENDBRANCH  42  43
ENDBRANCH  35  37
ENDBRANCH  34  35
ENDBRANCH  33  34
ENDBRANCH  32  33
ENDBRANCH  31  32
ENDBRANCH  30  31
ENDBRANCH   1  30
TORSDOF 25
ENDMDL
MODEL 3
REMARK VINA RESULT:      -9.8      3.657     10.399
REMARK SMILES O=C(CSc1nc(O)cc(=O)[nH]1)Nc1cccc(C(=O)OCCOCCOCCOC(=O)c2ccc(-c3c4nc(c(-c5cc(S(=O)(=O)[O-])ccc5F)c5ccc([nH]5)c(-c5cc(S(=O)(=O)[O-])ccc5F)c5nc(c(-c6cc(S(=O)(=O)[O-])ccc6F)c6ccc3[nH]6)C=C5)C=C4)cc2)c1
REMARK SMILES IDX 25 1 24 2 23 3 22 4 21 5 19 6 20 7 18 8 14 9 15 10 96 11
REMARK SMILES IDX 16 12 17 13 13 14 1 15 2 16 3 18 4 19 5 20 6 21 12 22 7 23
REMARK SMILES IDX 10 24 9 26 11 27 8 28 26 30 27 31 28 32 29 33 30 34 31 35
REMARK SMILES IDX 32 36 33 37 34 38 95 39 35 40 94 41 36 42 37 43 38 44 88 45
REMARK SMILES IDX 39 46 93 47 87 48 89 49 40 50 92 51 86 52 85 53 41 55 73 56
REMARK SMILES IDX 53 57 72 58 54 59 57 60 71 61 90 62 55 63 56 64 70 66 91 67
REMARK SMILES IDX 58 68 42 69 43 70 51 71 44 72 50 73 52 74 49 75 45 76 46 77
REMARK SMILES IDX 47 78 48 79 74 80 75 81 83 82 76 83 82 84 84 85 81 86 77 87
REMARK SMILES IDX 78 88 79 89 80 90 59 91 60 92 68 93 61 94 67 95 69 96 66 97
REMARK SMILES IDX 62 98 63 99 64 100 65 101
REMARK H PARENT 13 17 12 25 8 29 89 54 57 65
REMARK Flexibility Score: inf
ROOT
ATOM      1  C   UNL A   1      33.461  37.301  31.327  1.00  0.00     0.188 C 
ENDROOT
BRANCH   1   2
ATOM      2  O   UNL A   1      33.420  37.424  29.910  1.00  0.00    -0.376 OA
BRANCH   2   3
ATOM      3  C   UNL A   1      33.082  36.303  29.106  1.00  0.00     0.202 C 
BRANCH   3   4
ATOM      4  C   UNL A   1      34.165  35.438  28.438  1.00  0.00     0.261 C 
BRANCH   4   5
ATOM      5  O   UNL A   1      34.159  34.050  28.794  1.00  0.00    -0.460 OA
BRANCH   5   6
ATOM      6  C   UNL A   1      33.254  33.270  28.147  1.00  0.00     0.338 C 
ATOM      7  O   UNL A   1      32.179  33.619  27.687  1.00  0.00    -0.246 OA
BRANCH   6   8
ATOM      8  C   UNL A   1      33.867  31.948  27.895  1.00  0.00     0.062 A 
ATOM      9  C   UNL A   1      33.680  29.639  27.192  1.00  0.00     0.042 A 
ATOM     10  C   UNL A   1      34.983  29.411  27.657  1.00  0.00     0.026 A 
ATOM     11  C   UNL A   1      33.116  30.907  27.339  1.00  0.00     0.041 A 
ATOM     12  C   UNL A   1      35.739  30.456  28.195  1.00  0.00     0.003 A 
ATOM     13  C   UNL A   1      35.188  31.731  28.299  1.00  0.00     0.016 A 
BRANCH   9  14
ATOM     14  N   UNL A   1      33.002  28.563  26.583  1.00  0.00    -0.325 N 
ATOM     15  O   UNL A   1      33.275  29.089  24.326  1.00  0.00    -0.274 OA
ATOM     16  C   UNL A   1      32.850  28.361  25.218  1.00  0.00     0.234 C 
ATOM     17  H   UNL A   1      32.599  27.894  27.182  1.00  0.00     0.169 HD
BRANCH  16  18
ATOM     18  C   UNL A   1      32.105  27.086  24.868  1.00  0.00     0.178 C 
BRANCH  18  19
ATOM     19  S   UNL A   1      33.148  25.933  23.931  1.00  0.00    -0.078 SA
BRANCH  19  20
ATOM     20  C   UNL A   1      32.564  24.408  24.532  1.00  0.00     0.172 A 
ATOM     21  N   UNL A   1      32.713  23.327  23.843  1.00  0.00    -0.189 NA
ATOM     22  N   UNL A   1      31.901  24.487  25.715  1.00  0.00    -0.301 N 
ATOM     23  C   UNL A   1      32.133  22.205  24.363  1.00  0.00     0.218 A 
ATOM     24  C   UNL A   1      31.314  23.394  26.274  1.00  0.00     0.255 A 
ATOM     25  H   UNL A   1      31.841  25.354  26.177  1.00  0.00     0.172 HD
ATOM     26  C   UNL A   1      31.449  22.152  25.507  1.00  0.00     0.139 A 
ATOM     27  O   UNL A   1      30.698  23.434  27.330  1.00  0.00    -0.269 OA
BRANCH  23  28
ATOM     28  O   UNL A   1      32.259  21.072  23.602  1.00  0.00    -0.493 OA
ATOM     29  H   UNL A   1      32.387  21.142  22.677  1.00  0.00     0.295 HD
ENDBRANCH  23  28
ENDBRANCH  19  20
ENDBRANCH  18  19
ENDBRANCH  16  18
ENDBRANCH   9  14
ENDBRANCH   6   8
ENDBRANCH   5   6
ENDBRANCH   4   5
ENDBRANCH   3   4
ENDBRANCH   2   3
ENDBRANCH   1   2
BRANCH   1  30
ATOM     30  C   UNL A   1      32.604  36.225  32.027  1.00  0.00     0.188 C 
BRANCH  30  31
ATOM     31  O   UNL A   1      33.349  35.135  32.519  1.00  0.00    -0.376 OA
BRANCH  31  32
ATOM     32  C   UNL A   1      34.531  35.391  33.258  1.00  0.00     0.202 C 
BRANCH  32  33
ATOM     33  C   UNL A   1      35.915  34.794  32.923  1.00  0.00     0.261 C 
BRANCH  33  34
ATOM     34  O   UNL A   1      36.069  34.043  31.714  1.00  0.00    -0.460 OA
BRANCH  34  35
ATOM     35  C   UNL A   1      35.792  32.718  31.783  1.00  0.00     0.338 C 
ATOM     36  O   UNL A   1      34.690  32.212  31.887  1.00  0.00    -0.246 OA
BRANCH  35  37
ATOM     37  C   UNL A   1      37.036  31.962  31.520  1.00  0.00     0.060 A 
ATOM     38  C   UNL A   1      37.260  30.778  32.233  1.00  0.00     0.016 A 
ATOM     39  C   UNL A   1      37.988  32.427  30.609  1.00  0.00     0.016 A 
ATOM     40  C   UNL A   1      38.457  30.079  32.068  1.00  0.00     0.010 A 
ATOM     41  C   UNL A   1      39.193  31.730  30.454  1.00  0.00     0.010 A 
ATOM     42  C   UNL A   1      39.450  30.571  31.209  1.00  0.00    -0.014 A 
BRANCH  42  43
ATOM     43  C   UNL A   1      40.804  29.954  31.240  1.00  0.00     0.031 A 
ATOM     44  C   UNL A   1      41.781  30.398  32.299  1.00  0.00     0.074 A 
ATOM     45  C   UNL A   1      41.136  28.964  30.390  1.00  0.00     0.049 A 
ATOM     46  N   UNL A   1      42.994  29.974  32.543  1.00  0.00    -0.248 NA
ATOM     47  C   UNL A   1      41.324  31.463  33.204  1.00  0.00     0.031 C 
ATOM     48  C   UNL A   1      40.266  28.422  29.347  1.00  0.00     0.029 A 
ATOM     49  N   UNL A   1      42.293  28.233  30.276  1.00  0.00    -0.354 N 
ATOM     50  C   UNL A   1      43.444  30.714  33.633  1.00  0.00     0.074 A 
ATOM     51  C   UNL A   1      42.390  31.648  33.966  1.00  0.00     0.031 C 
ATOM     52  C   UNL A   1      40.919  27.436  28.705  1.00  0.00     0.029 A 
ATOM     53  C   UNL A   1      42.261  27.300  29.266  1.00  0.00     0.049 A 
ATOM     54  H   UNL A   1      43.071  28.364  30.864  1.00  0.00     0.167 HD
ATOM     55  C   UNL A   1      44.619  30.613  34.304  1.00  0.00     0.034 A 
ATOM     56  C   UNL A   1      43.213  26.445  28.835  1.00  0.00     0.034 A 
ATOM     57  C   UNL A   1      45.672  29.691  33.951  1.00  0.00     0.049 A 
ATOM     58  C   UNL A   1      44.548  26.414  29.546  1.00  0.00     0.074 A 
ATOM     59  C   UNL A   1      46.901  29.511  34.561  1.00  0.00     0.029 A 
ATOM     60  N   UNL A   1      45.628  28.801  32.884  1.00  0.00    -0.354 N 
ATOM     61  N   UNL A   1      44.952  27.110  30.585  1.00  0.00    -0.248 NA
ATOM     62  C   UNL A   1      45.545  25.466  29.034  1.00  0.00     0.031 C 
ATOM     63  C   UNL A   1      47.628  28.571  33.821  1.00  0.00     0.029 A 
ATOM     64  C   UNL A   1      46.818  28.092  32.803  1.00  0.00     0.049 A 
ATOM     65  H   UNL A   1      44.863  28.689  32.275  1.00  0.00     0.167 HD
ATOM     66  C   UNL A   1      46.237  26.650  30.871  1.00  0.00     0.074 A 
ATOM     67  C   UNL A   1      46.523  25.602  29.914  1.00  0.00     0.031 C 
ATOM     68  C   UNL A   1      47.103  27.056  31.838  1.00  0.00     0.034 A 
BRANCH  55  69
ATOM     69  C   UNL A   1      44.840  31.559  35.462  1.00  0.00     0.023 A 
ATOM     70  C   UNL A   1      44.415  31.245  36.766  1.00  0.00     0.031 A 
ATOM     71  C   UNL A   1      45.469  32.800  35.257  1.00  0.00     0.131 A 
ATOM     72  C   UNL A   1      44.564  32.185  37.797  1.00  0.00     0.055 A 
ATOM     73  C   UNL A   1      45.688  33.697  36.305  1.00  0.00     0.041 A 
ATOM     74  F   UNL A   1      45.873  33.168  34.031  1.00  0.00    -0.206 F 
ATOM     75  C   UNL A   1      45.223  33.398  37.582  1.00  0.00     0.022 A 
BRANCH  72  76
ATOM     76  S   UNL A   1      43.759  31.860  39.391  1.00  0.00     0.124 S 
ATOM     77  O   UNL A   1      44.073  33.078  40.134  1.00  0.00    -0.237 OA
ATOM     78  O   UNL A   1      42.363  31.686  39.009  1.00  0.00    -0.237 OA
ATOM     79  O   UNL A   1      44.429  30.655  39.875  1.00  0.00    -0.744 OA
ENDBRANCH  72  76
ENDBRANCH  55  69
BRANCH  56  80
ATOM     80  C   UNL A   1      42.967  25.556  27.660  1.00  0.00     0.023 A 
ATOM     81  C   UNL A   1      42.284  24.336  27.800  1.00  0.00     0.031 A 
ATOM     82  C   UNL A   1      43.490  25.872  26.393  1.00  0.00     0.131 A 
ATOM     83  C   UNL A   1      42.199  23.451  26.715  1.00  0.00     0.055 A 
ATOM     84  C   UNL A   1      43.345  25.017  25.299  1.00  0.00     0.041 A 
ATOM     85  F   UNL A   1      44.160  27.020  26.203  1.00  0.00    -0.206 F 
ATOM     86  C   UNL A   1      42.711  23.789  25.460  1.00  0.00     0.022 A 
BRANCH  83  87
ATOM     87  S   UNL A   1      41.513  21.794  26.997  1.00  0.00     0.124 S 
ATOM     88  O   UNL A   1      41.477  21.255  25.642  1.00  0.00    -0.237 OA
ATOM     89  O   UNL A   1      42.502  21.207  27.895  1.00  0.00    -0.237 OA
ATOM     90  O   UNL A   1      40.209  22.063  27.598  1.00  0.00    -0.744 OA
ENDBRANCH  83  87
ENDBRANCH  56  80
BRANCH  68  91
ATOM     91  C   UNL A   1      48.420  26.316  31.934  1.00  0.00     0.023 A 
ATOM     92  C   UNL A   1      48.573  25.174  32.740  1.00  0.00     0.031 A 
ATOM     93  C   UNL A   1      49.553  26.794  31.251  1.00  0.00     0.131 A 
ATOM     94  C   UNL A   1      49.845  24.608  32.919  1.00  0.00     0.055 A 
ATOM     95  C   UNL A   1      50.799  26.175  31.368  1.00  0.00     0.041 A 
ATOM     96  F   UNL A   1      49.473  27.881  30.467  1.00  0.00    -0.206 F 
ATOM     97  C   UNL A   1      50.956  25.090  32.224  1.00  0.00     0.022 A 
BRANCH  94  98
ATOM     98  S   UNL A   1      50.055  23.333  34.193  1.00  0.00     0.124 S 
ATOM     99  O   UNL A   1      50.829  22.320  33.483  1.00  0.00    -0.237 OA
ATOM    100  O   UNL A   1      50.762  24.057  35.244  1.00  0.00    -0.237 OA
ATOM    101  O   UNL A   1      48.683  22.948  34.521  1.00  0.00    -0.744 OA
ENDBRANCH  94  98
ENDBRANCH  68  91
ENDBRANCH  42  43
ENDBRANCH  35  37
ENDBRANCH  34  35
ENDBRANCH  33  34
ENDBRANCH  32  33
ENDBRANCH  31  32
ENDBRANCH  30  31
ENDBRANCH   1  30
TORSDOF 25
ENDMDL
