MODEL 1
REMARK VINA RESULT:     -10.1      0.000      0.000
REMARK SMILES O=C(OCCOCCOCCOC(=O)c1cncc(Oc2cc(F)ccc2F)n1)c1ccc(-c2c3nc(c(-c4cc(S(=O)(=O)[O-])ccc4F)c4ccc([nH]4)c(-c4cc(S(=O)(=O)[O-])ccc4F)c4nc(c(-c5cc(S(=O)(=O)[O-])ccc5F)c5ccc2[nH]5)C=C4)C=C3)cc1
REMARK SMILES IDX 7 1 6 2 5 3 4 4 3 5 2 6 1 7 30 8 31 9 92 10 32 11 91 12
REMARK SMILES IDX 33 13 34 14 35 15 85 16 36 17 90 18 84 19 86 20 37 21 89 22
REMARK SMILES IDX 83 23 82 24 38 26 70 27 50 28 69 29 51 30 54 31 68 32 87 33
REMARK SMILES IDX 52 34 53 35 67 37 88 38 55 39 39 40 40 41 48 42 41 43 47 44
REMARK SMILES IDX 49 45 46 46 42 47 43 48 44 49 45 50 71 51 72 52 80 53 73 54
REMARK SMILES IDX 79 55 81 56 78 57 74 58 75 59 76 60 77 61 56 62 57 63 65 64
REMARK SMILES IDX 58 65 64 66 66 67 63 68 59 69 60 70 61 71 62 72 8 73 9 74
REMARK SMILES IDX 10 75 11 76 12 77 13 78 14 79 15 80 16 81 29 82 17 83 19 84
REMARK SMILES IDX 18 85 20 86 21 87 22 88 27 89 23 90 26 91 28 92 24 93 25 94
REMARK H PARENT 86 25 54 36
REMARK Flexibility Score: inf
ROOT
ATOM      1  C   UNL A   1      34.709  23.667  23.309  1.00  0.00     0.188 C 
ENDROOT
BRANCH   1   2
ATOM      2  O   UNL A   1      35.303  22.366  23.417  1.00  0.00    -0.376 OA
BRANCH   2   3
ATOM      3  C   UNL A   1      36.652  22.375  23.893  1.00  0.00     0.202 C 
BRANCH   3   4
ATOM      4  C   UNL A   1      37.173  21.005  24.342  1.00  0.00     0.261 C 
BRANCH   4   5
ATOM      5  O   UNL A   1      37.698  21.066  25.675  1.00  0.00    -0.460 OA
BRANCH   5   6
ATOM      6  C   UNL A   1      38.982  21.286  26.053  1.00  0.00     0.338 C 
ATOM      7  O   UNL A   1      39.782  20.361  25.932  1.00  0.00    -0.246 OA
BRANCH   6   8
ATOM      8  C   UNL A   1      39.483  22.599  26.576  1.00  0.00     0.060 A 
ATOM      9  C   UNL A   1      38.953  23.853  26.265  1.00  0.00     0.016 A 
ATOM     10  C   UNL A   1      40.541  22.552  27.498  1.00  0.00     0.016 A 
ATOM     11  C   UNL A   1      39.541  25.028  26.733  1.00  0.00     0.010 A 
ATOM     12  C   UNL A   1      41.082  23.723  28.041  1.00  0.00     0.010 A 
ATOM     13  C   UNL A   1      40.619  24.975  27.615  1.00  0.00    -0.014 A 
BRANCH  13  14
ATOM     14  C   UNL A   1      41.347  26.218  27.966  1.00  0.00     0.031 A 
ATOM     15  C   UNL A   1      40.619  27.273  28.748  1.00  0.00     0.074 A 
ATOM     16  C   UNL A   1      42.645  26.376  27.653  1.00  0.00     0.049 A 
ATOM     17  N   UNL A   1      40.999  28.479  29.075  1.00  0.00    -0.248 NA
ATOM     18  C   UNL A   1      39.274  26.914  29.218  1.00  0.00     0.031 C 
ATOM     19  C   UNL A   1      43.476  25.378  26.981  1.00  0.00     0.029 A 
ATOM     20  N   UNL A   1      43.497  27.431  27.864  1.00  0.00    -0.354 N 
ATOM     21  C   UNL A   1      39.927  29.034  29.766  1.00  0.00     0.074 A 
ATOM     22  C   UNL A   1      38.870  28.045  29.770  1.00  0.00     0.031 C 
ATOM     23  C   UNL A   1      44.716  25.868  26.835  1.00  0.00     0.029 A 
ATOM     24  C   UNL A   1      44.752  27.236  27.336  1.00  0.00     0.049 A 
ATOM     25  H   UNL A   1      43.235  28.246  28.349  1.00  0.00     0.167 HD
ATOM     26  C   UNL A   1      39.838  30.253  30.354  1.00  0.00     0.034 A 
ATOM     27  C   UNL A   1      45.797  28.080  27.225  1.00  0.00     0.034 A 
ATOM     28  C   UNL A   1      40.908  31.218  30.333  1.00  0.00     0.049 A 
ATOM     29  C   UNL A   1      45.657  29.464  27.799  1.00  0.00     0.074 A 
ATOM     30  C   UNL A   1      40.933  32.501  30.849  1.00  0.00     0.029 A 
ATOM     31  N   UNL A   1      42.153  30.999  29.751  1.00  0.00    -0.354 N 
ATOM     32  N   UNL A   1      44.621  29.999  28.408  1.00  0.00    -0.248 NA
ATOM     33  C   UNL A   1      46.815  30.357  27.679  1.00  0.00     0.031 C 
ATOM     34  C   UNL A   1      42.173  33.073  30.535  1.00  0.00     0.029 A 
ATOM     35  C   UNL A   1      42.944  32.128  29.874  1.00  0.00     0.049 A 
ATOM     36  H   UNL A   1      42.430  30.161  29.315  1.00  0.00     0.167 HD
ATOM     37  C   UNL A   1      45.008  31.287  28.756  1.00  0.00     0.074 A 
ATOM     38  C   UNL A   1      46.377  31.444  28.300  1.00  0.00     0.031 C 
ATOM     39  C   UNL A   1      44.302  32.252  29.398  1.00  0.00     0.034 A 
BRANCH  26  40
ATOM     40  C   UNL A   1      38.508  30.600  30.977  1.00  0.00     0.023 A 
ATOM     41  C   UNL A   1      37.440  31.099  30.207  1.00  0.00     0.031 A 
ATOM     42  C   UNL A   1      38.354  30.573  32.374  1.00  0.00     0.131 A 
ATOM     43  C   UNL A   1      36.324  31.664  30.843  1.00  0.00     0.055 A 
ATOM     44  C   UNL A   1      37.198  31.050  32.997  1.00  0.00     0.041 A 
ATOM     45  F   UNL A   1      39.347  30.132  33.162  1.00  0.00    -0.206 F 
ATOM     46  C   UNL A   1      36.187  31.625  32.232  1.00  0.00     0.022 A 
BRANCH  43  47
ATOM     47  S   UNL A   1      35.168  32.646  29.844  1.00  0.00     0.124 S 
ATOM     48  O   UNL A   1      36.042  33.698  29.330  1.00  0.00    -0.237 OA
ATOM     49  O   UNL A   1      34.694  31.674  28.865  1.00  0.00    -0.237 OA
ATOM     50  O   UNL A   1      34.171  33.094  30.814  1.00  0.00    -0.744 OA
ENDBRANCH  43  47
ENDBRANCH  26  40
BRANCH  27  51
ATOM     51  C   UNL A   1      47.020  27.657  26.481  1.00  0.00     0.023 A 
ATOM     52  C   UNL A   1      47.146  27.844  25.096  1.00  0.00     0.031 A 
ATOM     53  C   UNL A   1      48.096  27.057  27.165  1.00  0.00     0.131 A 
ATOM     54  C   UNL A   1      48.313  27.422  24.436  1.00  0.00     0.055 A 
ATOM     55  C   UNL A   1      49.267  26.673  26.511  1.00  0.00     0.041 A 
ATOM     56  F   UNL A   1      48.031  26.860  28.492  1.00  0.00    -0.206 F 
ATOM     57  C   UNL A   1      49.377  26.848  25.137  1.00  0.00     0.022 A 
BRANCH  54  58
ATOM     58  S   UNL A   1      48.409  27.592  22.632  1.00  0.00     0.124 S 
ATOM     59  O   UNL A   1      48.484  26.200  22.204  1.00  0.00    -0.237 OA
ATOM     60  O   UNL A   1      47.164  28.289  22.327  1.00  0.00    -0.237 OA
ATOM     61  O   UNL A   1      49.625  28.374  22.426  1.00  0.00    -0.744 OA
ENDBRANCH  54  58
ENDBRANCH  27  51
BRANCH  39  62
ATOM     62  C   UNL A   1      45.020  33.547  29.669  1.00  0.00     0.023 A 
ATOM     63  C   UNL A   1      44.977  34.614  28.757  1.00  0.00     0.031 A 
ATOM     64  C   UNL A   1      45.740  33.715  30.864  1.00  0.00     0.131 A 
ATOM     65  C   UNL A   1      45.675  35.797  29.040  1.00  0.00     0.055 A 
ATOM     66  C   UNL A   1      46.397  34.909  31.159  1.00  0.00     0.041 A 
ATOM     67  F   UNL A   1      45.809  32.721  31.765  1.00  0.00    -0.206 F 
ATOM     68  C   UNL A   1      46.371  35.956  30.242  1.00  0.00     0.022 A 
BRANCH  65  69
ATOM     69  S   UNL A   1      45.699  37.115  27.796  1.00  0.00     0.124 S 
ATOM     70  O   UNL A   1      45.656  36.356  26.550  1.00  0.00    -0.237 OA
ATOM     71  O   UNL A   1      44.496  37.876  28.120  1.00  0.00    -0.237 OA
ATOM     72  O   UNL A   1      46.957  37.810  28.057  1.00  0.00    -0.744 OA
ENDBRANCH  65  69
ENDBRANCH  39  62
ENDBRANCH  13  14
ENDBRANCH   6   8
ENDBRANCH   5   6
ENDBRANCH   4   5
ENDBRANCH   3   4
ENDBRANCH   2   3
ENDBRANCH   1   2
BRANCH   1  73
ATOM     73  C   UNL A   1      33.398  23.597  22.516  1.00  0.00     0.188 C 
BRANCH  73  74
ATOM     74  O   UNL A   1      33.342  24.452  21.367  1.00  0.00    -0.376 OA
BRANCH  74  75
ATOM     75  C   UNL A   1      32.359  25.480  21.384  1.00  0.00     0.202 C 
BRANCH  75  76
ATOM     76  C   UNL A   1      32.845  26.903  21.683  1.00  0.00     0.261 C 
BRANCH  76  77
ATOM     77  O   UNL A   1      33.746  27.022  22.795  1.00  0.00    -0.458 OA
BRANCH  77  78
ATOM     78  C   UNL A   1      33.569  28.141  23.545  1.00  0.00     0.358 C 
ATOM     79  O   UNL A   1      33.871  29.288  23.240  1.00  0.00    -0.244 OA
BRANCH  78  80
ATOM     80  C   UNL A   1      33.108  27.781  24.896  1.00  0.00     0.170 A 
ATOM     81  C   UNL A   1      32.937  28.835  25.785  1.00  0.00     0.147 A 
ATOM     82  N   UNL A   1      32.710  26.498  25.157  1.00  0.00    -0.203 NA
ATOM     83  N   UNL A   1      32.360  28.667  26.995  1.00  0.00    -0.257 NA
ATOM     84  C   UNL A   1      32.126  26.347  26.373  1.00  0.00     0.238 A 
ATOM     85  C   UNL A   1      31.956  27.405  27.266  1.00  0.00     0.179 A 
BRANCH  84  86
ATOM     86  O   UNL A   1      31.587  25.141  26.800  1.00  0.00    -0.434 OA
BRANCH  86  87
ATOM     87  C   UNL A   1      32.160  23.976  26.370  1.00  0.00     0.168 A 
ATOM     88  C   UNL A   1      33.374  23.566  26.918  1.00  0.00     0.089 A 
ATOM     89  C   UNL A   1      31.412  23.089  25.596  1.00  0.00     0.166 A 
ATOM     90  C   UNL A   1      33.820  22.271  26.675  1.00  0.00     0.127 A 
ATOM     91  C   UNL A   1      31.874  21.799  25.341  1.00  0.00     0.046 A 
ATOM     92  F   UNL A   1      30.203  23.444  25.139  1.00  0.00    -0.203 F 
ATOM     93  F   UNL A   1      34.939  21.837  27.264  1.00  0.00    -0.207 F 
ATOM     94  C   UNL A   1      33.089  21.386  25.888  1.00  0.00     0.042 A 
ENDBRANCH  86  87
ENDBRANCH  84  86
ENDBRANCH  78  80
ENDBRANCH  77  78
ENDBRANCH  76  77
ENDBRANCH  75  76
ENDBRANCH  74  75
ENDBRANCH  73  74
ENDBRANCH   1  73
TORSDOF 22
ENDMDL
MODEL 2
REMARK VINA RESULT:     -10.0      2.568      8.241
REMARK SMILES O=C(OCCOCCOCCOC(=O)c1cncc(Oc2cc(F)ccc2F)n1)c1ccc(-c2c3nc(c(-c4cc(S(=O)(=O)[O-])ccc4F)c4ccc([nH]4)c(-c4cc(S(=O)(=O)[O-])ccc4F)c4nc(c(-c5cc(S(=O)(=O)[O-])ccc5F)c5ccc2[nH]5)C=C4)C=C3)cc1
REMARK SMILES IDX 7 1 6 2 5 3 4 4 3 5 2 6 1 7 30 8 31 9 92 10 32 11 91 12
REMARK SMILES IDX 33 13 34 14 35 15 85 16 36 17 90 18 84 19 86 20 37 21 89 22
REMARK SMILES IDX 83 23 82 24 38 26 70 27 50 28 69 29 51 30 54 31 68 32 87 33
REMARK SMILES IDX 52 34 53 35 67 37 88 38 55 39 39 40 40 41 48 42 41 43 47 44
REMARK SMILES IDX 49 45 46 46 42 47 43 48 44 49 45 50 71 51 72 52 80 53 73 54
REMARK SMILES IDX 79 55 81 56 78 57 74 58 75 59 76 60 77 61 56 62 57 63 65 64
REMARK SMILES IDX 58 65 64 66 66 67 63 68 59 69 60 70 61 71 62 72 8 73 9 74
REMARK SMILES IDX 10 75 11 76 12 77 13 78 14 79 15 80 16 81 29 82 17 83 19 84
REMARK SMILES IDX 18 85 20 86 21 87 22 88 27 89 23 90 26 91 28 92 24 93 25 94
REMARK H PARENT 86 25 54 36
REMARK Flexibility Score: inf
ROOT
ATOM      1  C   UNL A   1      34.990  20.772  25.442  1.00  0.00     0.188 C 
ENDROOT
BRANCH   1   2
ATOM      2  O   UNL A   1      35.694  21.737  24.649  1.00  0.00    -0.376 OA
BRANCH   2   3
ATOM      3  C   UNL A   1      37.065  21.408  24.404  1.00  0.00     0.202 C 
BRANCH   3   4
ATOM      4  C   UNL A   1      37.567  20.181  25.172  1.00  0.00     0.261 C 
BRANCH   4   5
ATOM      5  O   UNL A   1      39.000  20.168  25.241  1.00  0.00    -0.460 OA
BRANCH   5   6
ATOM      6  C   UNL A   1      39.783  20.479  26.304  1.00  0.00     0.338 C 
ATOM      7  O   UNL A   1      40.283  19.553  26.939  1.00  0.00    -0.246 OA
BRANCH   6   8
ATOM      8  C   UNL A   1      40.098  21.883  26.725  1.00  0.00     0.060 A 
ATOM      9  C   UNL A   1      39.453  23.033  26.264  1.00  0.00     0.016 A 
ATOM     10  C   UNL A   1      41.090  22.044  27.705  1.00  0.00     0.016 A 
ATOM     11  C   UNL A   1      39.872  24.306  26.648  1.00  0.00     0.010 A 
ATOM     12  C   UNL A   1      41.459  23.315  28.161  1.00  0.00     0.010 A 
ATOM     13  C   UNL A   1      40.888  24.460  27.590  1.00  0.00    -0.014 A 
BRANCH  13  14
ATOM     14  C   UNL A   1      41.446  25.808  27.859  1.00  0.00     0.031 A 
ATOM     15  C   UNL A   1      42.834  26.113  27.375  1.00  0.00     0.074 A 
ATOM     16  C   UNL A   1      40.710  26.758  28.460  1.00  0.00     0.049 A 
ATOM     17  N   UNL A   1      43.576  27.168  27.582  1.00  0.00    -0.248 NA
ATOM     18  C   UNL A   1      43.471  25.077  26.548  1.00  0.00     0.031 C 
ATOM     19  C   UNL A   1      39.319  26.604  28.884  1.00  0.00     0.029 A 
ATOM     20  N   UNL A   1      41.024  28.047  28.813  1.00  0.00    -0.354 N 
ATOM     21  C   UNL A   1      44.780  26.910  26.933  1.00  0.00     0.074 A 
ATOM     22  C   UNL A   1      44.679  25.583  26.367  1.00  0.00     0.031 C 
ATOM     23  C   UNL A   1      38.901  27.751  29.441  1.00  0.00     0.029 A 
ATOM     24  C   UNL A   1      40.010  28.696  29.478  1.00  0.00     0.049 A 
ATOM     25  H   UNL A   1      41.891  28.466  28.609  1.00  0.00     0.167 HD
ATOM     26  C   UNL A   1      45.865  27.714  26.813  1.00  0.00     0.034 A 
ATOM     27  C   UNL A   1      39.989  29.898  30.089  1.00  0.00     0.034 A 
ATOM     28  C   UNL A   1      45.938  29.032  27.390  1.00  0.00     0.049 A 
ATOM     29  C   UNL A   1      41.231  30.745  30.029  1.00  0.00     0.074 A 
ATOM     30  C   UNL A   1      46.990  29.930  27.381  1.00  0.00     0.029 A 
ATOM     31  N   UNL A   1      44.902  29.641  28.092  1.00  0.00    -0.354 N 
ATOM     32  N   UNL A   1      42.383  30.474  29.457  1.00  0.00    -0.248 NA
ATOM     33  C   UNL A   1      41.177  32.055  30.689  1.00  0.00     0.031 C 
ATOM     34  C   UNL A   1      46.607  31.058  28.120  1.00  0.00     0.029 A 
ATOM     35  C   UNL A   1      45.296  30.890  28.541  1.00  0.00     0.049 A 
ATOM     36  H   UNL A   1      44.016  29.240  28.248  1.00  0.00     0.167 HD
ATOM     37  C   UNL A   1      43.188  31.586  29.675  1.00  0.00     0.074 A 
ATOM     38  C   UNL A   1      42.384  32.537  30.421  1.00  0.00     0.031 C 
ATOM     39  C   UNL A   1      44.471  31.807  29.291  1.00  0.00     0.034 A 
BRANCH  26  40
ATOM     40  C   UNL A   1      47.059  27.125  26.101  1.00  0.00     0.023 A 
ATOM     41  C   UNL A   1      48.012  26.344  26.783  1.00  0.00     0.031 A 
ATOM     42  C   UNL A   1      47.326  27.471  24.766  1.00  0.00     0.131 A 
ATOM     43  C   UNL A   1      49.237  26.043  26.168  1.00  0.00     0.055 A 
ATOM     44  C   UNL A   1      48.507  27.085  24.128  1.00  0.00     0.041 A 
ATOM     45  F   UNL A   1      46.467  28.234  24.073  1.00  0.00    -0.206 F 
ATOM     46  C   UNL A   1      49.483  26.391  24.838  1.00  0.00     0.022 A 
BRANCH  43  47
ATOM     47  S   UNL A   1      50.582  25.391  27.199  1.00  0.00     0.124 S 
ATOM     48  O   UNL A   1      51.591  25.059  26.194  1.00  0.00    -0.237 OA
ATOM     49  O   UNL A   1      50.892  26.523  28.064  1.00  0.00    -0.237 OA
ATOM     50  O   UNL A   1      49.977  24.240  27.865  1.00  0.00    -0.744 OA
ENDBRANCH  43  47
ENDBRANCH  26  40
BRANCH  27  51
ATOM     51  C   UNL A   1      38.784  30.319  30.862  1.00  0.00     0.023 A 
ATOM     52  C   UNL A   1      37.754  31.070  30.276  1.00  0.00     0.031 A 
ATOM     53  C   UNL A   1      38.649  29.959  32.217  1.00  0.00     0.131 A 
ATOM     54  C   UNL A   1      36.642  31.452  31.046  1.00  0.00     0.055 A 
ATOM     55  C   UNL A   1      37.525  30.309  32.967  1.00  0.00     0.041 A 
ATOM     56  F   UNL A   1      39.602  29.234  32.826  1.00  0.00    -0.206 F 
ATOM     57  C   UNL A   1      36.516  31.066  32.384  1.00  0.00     0.022 A 
BRANCH  54  58
ATOM     58  S   UNL A   1      35.371  32.502  30.288  1.00  0.00     0.124 S 
ATOM     59  O   UNL A   1      35.000  31.722  29.113  1.00  0.00    -0.237 OA
ATOM     60  O   UNL A   1      34.370  32.578  31.347  1.00  0.00    -0.237 OA
ATOM     61  O   UNL A   1      36.078  33.750  30.011  1.00  0.00    -0.744 OA
ENDBRANCH  54  58
ENDBRANCH  27  51
BRANCH  39  62
ATOM     62  C   UNL A   1      45.062  33.144  29.648  1.00  0.00     0.023 A 
ATOM     63  C   UNL A   1      45.774  33.335  30.843  1.00  0.00     0.031 A 
ATOM     64  C   UNL A   1      44.920  34.232  28.771  1.00  0.00     0.131 A 
ATOM     65  C   UNL A   1      46.294  34.602  31.146  1.00  0.00     0.055 A 
ATOM     66  C   UNL A   1      45.476  35.479  29.057  1.00  0.00     0.041 A 
ATOM     67  F   UNL A   1      44.247  34.096  27.617  1.00  0.00    -0.206 F 
ATOM     68  C   UNL A   1      46.162  35.670  30.254  1.00  0.00     0.022 A 
BRANCH  65  69
ATOM     69  S   UNL A   1      47.109  34.851  32.746  1.00  0.00     0.124 S 
ATOM     70  O   UNL A   1      45.992  34.732  33.677  1.00  0.00    -0.237 OA
ATOM     71  O   UNL A   1      48.082  33.764  32.776  1.00  0.00    -0.237 OA
ATOM     72  O   UNL A   1      47.683  36.190  32.634  1.00  0.00    -0.744 OA
ENDBRANCH  65  69
ENDBRANCH  39  62
ENDBRANCH  13  14
ENDBRANCH   6   8
ENDBRANCH   5   6
ENDBRANCH   4   5
ENDBRANCH   3   4
ENDBRANCH   2   3
ENDBRANCH   1   2
BRANCH   1  73
ATOM     73  C   UNL A   1      34.229  21.462  26.580  1.00  0.00     0.188 C 
BRANCH  73  74
ATOM     74  O   UNL A   1      32.866  21.790  26.282  1.00  0.00    -0.376 OA
BRANCH  74  75
ATOM     75  C   UNL A   1      32.315  22.912  26.963  1.00  0.00     0.202 C 
BRANCH  75  76
ATOM     76  C   UNL A   1      32.042  24.168  26.127  1.00  0.00     0.261 C 
BRANCH  76  77
ATOM     77  O   UNL A   1      33.014  25.216  26.258  1.00  0.00    -0.458 OA
BRANCH  77  78
ATOM     78  C   UNL A   1      34.037  25.150  25.367  1.00  0.00     0.358 C 
ATOM     79  O   UNL A   1      35.184  24.782  25.589  1.00  0.00    -0.244 OA
BRANCH  78  80
ATOM     80  C   UNL A   1      33.639  25.758  24.087  1.00  0.00     0.170 A 
ATOM     81  C   UNL A   1      33.804  24.967  22.957  1.00  0.00     0.147 A 
ATOM     82  N   UNL A   1      32.981  26.958  24.083  1.00  0.00    -0.203 NA
ATOM     83  N   UNL A   1      33.323  25.333  21.749  1.00  0.00    -0.257 NA
ATOM     84  C   UNL A   1      32.498  27.308  22.863  1.00  0.00     0.238 A 
ATOM     85  C   UNL A   1      32.666  26.515  21.729  1.00  0.00     0.179 A 
BRANCH  84  86
ATOM     86  O   UNL A   1      31.738  28.452  22.660  1.00  0.00    -0.434 OA
BRANCH  86  87
ATOM     87  C   UNL A   1      30.375  28.344  22.653  1.00  0.00     0.168 A 
ATOM     88  C   UNL A   1      29.764  27.338  23.399  1.00  0.00     0.089 A 
ATOM     89  C   UNL A   1      29.607  29.381  22.124  1.00  0.00     0.166 A 
ATOM     90  C   UNL A   1      28.388  27.388  23.599  1.00  0.00     0.127 A 
ATOM     91  C   UNL A   1      28.226  29.414  22.311  1.00  0.00     0.046 A 
ATOM     92  F   UNL A   1      30.197  30.398  21.480  1.00  0.00    -0.203 F 
ATOM     93  F   UNL A   1      27.801  26.478  24.384  1.00  0.00    -0.207 F 
ATOM     94  C   UNL A   1      27.612  28.409  23.057  1.00  0.00     0.042 A 
ENDBRANCH  86  87
ENDBRANCH  84  86
ENDBRANCH  78  80
ENDBRANCH  77  78
ENDBRANCH  76  77
ENDBRANCH  75  76
ENDBRANCH  74  75
ENDBRANCH  73  74
ENDBRANCH   1  73
TORSDOF 22
ENDMDL
MODEL 3
REMARK VINA RESULT:      -9.9      2.359      3.695
REMARK SMILES O=C(OCCOCCOCCOC(=O)c1cncc(Oc2cc(F)ccc2F)n1)c1ccc(-c2c3nc(c(-c4cc(S(=O)(=O)[O-])ccc4F)c4ccc([nH]4)c(-c4cc(S(=O)(=O)[O-])ccc4F)c4nc(c(-c5cc(S(=O)(=O)[O-])ccc5F)c5ccc2[nH]5)C=C4)C=C3)cc1
REMARK SMILES IDX 7 1 6 2 5 3 4 4 3 5 2 6 1 7 30 8 31 9 92 10 32 11 91 12
REMARK SMILES IDX 33 13 34 14 35 15 85 16 36 17 90 18 84 19 86 20 37 21 89 22
REMARK SMILES IDX 83 23 82 24 38 26 70 27 50 28 69 29 51 30 54 31 68 32 87 33
REMARK SMILES IDX 52 34 53 35 67 37 88 38 55 39 39 40 40 41 48 42 41 43 47 44
REMARK SMILES IDX 49 45 46 46 42 47 43 48 44 49 45 50 71 51 72 52 80 53 73 54
REMARK SMILES IDX 79 55 81 56 78 57 74 58 75 59 76 60 77 61 56 62 57 63 65 64
REMARK SMILES IDX 58 65 64 66 66 67 63 68 59 69 60 70 61 71 62 72 8 73 9 74
REMARK SMILES IDX 10 75 11 76 12 77 13 78 14 79 15 80 16 81 29 82 17 83 19 84
REMARK SMILES IDX 18 85 20 86 21 87 22 88 27 89 23 90 26 91 28 92 24 93 25 94
REMARK H PARENT 86 25 54 36
REMARK Flexibility Score: inf
ROOT
ATOM      1  C   UNL A   1      33.978  21.193  24.088  1.00  0.00     0.188 C 
ENDROOT
BRANCH   1   2
ATOM      2  O   UNL A   1      34.610  22.250  24.823  1.00  0.00    -0.376 OA
BRANCH   2   3
ATOM      3  C   UNL A   1      36.040  22.189  24.829  1.00  0.00     0.202 C 
BRANCH   3   4
ATOM      4  C   UNL A   1      36.621  21.078  25.709  1.00  0.00     0.261 C 
BRANCH   4   5
ATOM      5  O   UNL A   1      37.951  20.737  25.296  1.00  0.00    -0.460 OA
BRANCH   5   6
ATOM      6  C   UNL A   1      39.104  20.895  25.993  1.00  0.00     0.338 C 
ATOM      7  O   UNL A   1      39.787  19.895  26.205  1.00  0.00    -0.246 OA
BRANCH   6   8
ATOM      8  C   UNL A   1      39.606  22.218  26.486  1.00  0.00     0.060 A 
ATOM      9  C   UNL A   1      39.099  23.467  26.118  1.00  0.00     0.016 A 
ATOM     10  C   UNL A   1      40.637  22.191  27.438  1.00  0.00     0.016 A 
ATOM     11  C   UNL A   1      39.687  24.651  26.563  1.00  0.00     0.010 A 
ATOM     12  C   UNL A   1      41.175  23.374  27.957  1.00  0.00     0.010 A 
ATOM     13  C   UNL A   1      40.739  24.616  27.477  1.00  0.00    -0.014 A 
BRANCH  13  14
ATOM     14  C   UNL A   1      41.471  25.863  27.806  1.00  0.00     0.031 A 
ATOM     15  C   UNL A   1      40.745  26.935  28.567  1.00  0.00     0.074 A 
ATOM     16  C   UNL A   1      42.770  26.010  27.494  1.00  0.00     0.049 A 
ATOM     17  N   UNL A   1      41.130  28.145  28.873  1.00  0.00    -0.248 NA
ATOM     18  C   UNL A   1      39.398  26.589  29.041  1.00  0.00     0.031 C 
ATOM     19  C   UNL A   1      43.599  24.996  26.843  1.00  0.00     0.029 A 
ATOM     20  N   UNL A   1      43.626  27.065  27.688  1.00  0.00    -0.354 N 
ATOM     21  C   UNL A   1      40.058  28.717  29.552  1.00  0.00     0.074 A 
ATOM     22  C   UNL A   1      38.997  27.732  29.570  1.00  0.00     0.031 C 
ATOM     23  C   UNL A   1      44.842  25.479  26.691  1.00  0.00     0.029 A 
ATOM     24  C   UNL A   1      44.881  26.856  27.167  1.00  0.00     0.049 A 
ATOM     25  H   UNL A   1      43.367  27.890  28.157  1.00  0.00     0.167 HD
ATOM     26  C   UNL A   1      39.972  29.946  30.116  1.00  0.00     0.034 A 
ATOM     27  C   UNL A   1      45.931  27.693  27.043  1.00  0.00     0.034 A 
ATOM     28  C   UNL A   1      41.046  30.907  30.080  1.00  0.00     0.049 A 
ATOM     29  C   UNL A   1      45.794  29.088  27.591  1.00  0.00     0.074 A 
ATOM     30  C   UNL A   1      41.075  32.199  30.573  1.00  0.00     0.029 A 
ATOM     31  N   UNL A   1      42.291  30.672  29.506  1.00  0.00    -0.354 N 
ATOM     32  N   UNL A   1      44.759  29.638  28.187  1.00  0.00    -0.248 NA
ATOM     33  C   UNL A   1      46.956  29.974  27.457  1.00  0.00     0.031 C 
ATOM     34  C   UNL A   1      42.318  32.760  30.251  1.00  0.00     0.029 A 
ATOM     35  C   UNL A   1      43.087  31.800  29.610  1.00  0.00     0.049 A 
ATOM     36  H   UNL A   1      42.567  29.825  29.086  1.00  0.00     0.167 HD
ATOM     37  C   UNL A   1      45.150  30.931  28.513  1.00  0.00     0.074 A 
ATOM     38  C   UNL A   1      46.521  31.074  28.057  1.00  0.00     0.031 C 
ATOM     39  C   UNL A   1      44.447  31.911  29.135  1.00  0.00     0.034 A 
BRANCH  26  40
ATOM     40  C   UNL A   1      38.642  30.310  30.730  1.00  0.00     0.023 A 
ATOM     41  C   UNL A   1      37.610  30.886  29.965  1.00  0.00     0.031 A 
ATOM     42  C   UNL A   1      38.458  30.219  32.120  1.00  0.00     0.131 A 
ATOM     43  C   UNL A   1      36.501  31.459  30.607  1.00  0.00     0.055 A 
ATOM     44  C   UNL A   1      37.306  30.706  32.743  1.00  0.00     0.041 A 
ATOM     45  F   UNL A   1      39.416  29.703  32.905  1.00  0.00    -0.206 F 
ATOM     46  C   UNL A   1      36.332  31.355  31.989  1.00  0.00     0.022 A 
BRANCH  43  47
ATOM     47  S   UNL A   1      35.402  32.531  29.636  1.00  0.00     0.124 S 
ATOM     48  O   UNL A   1      34.270  32.694  30.546  1.00  0.00    -0.237 OA
ATOM     49  O   UNL A   1      36.226  33.714  29.423  1.00  0.00    -0.237 OA
ATOM     50  O   UNL A   1      35.120  31.740  28.440  1.00  0.00    -0.744 OA
ENDBRANCH  43  47
ENDBRANCH  26  40
BRANCH  27  51
ATOM     51  C   UNL A   1      47.153  27.252  26.309  1.00  0.00     0.023 A 
ATOM     52  C   UNL A   1      48.200  26.576  26.955  1.00  0.00     0.031 A 
ATOM     53  C   UNL A   1      47.281  27.500  24.928  1.00  0.00     0.131 A 
ATOM     54  C   UNL A   1      49.336  26.187  26.225  1.00  0.00     0.055 A 
ATOM     55  C   UNL A   1      48.395  27.078  24.201  1.00  0.00     0.041 A 
ATOM     56  F   UNL A   1      46.306  28.136  24.259  1.00  0.00    -0.206 F 
ATOM     57  C   UNL A   1      49.434  26.423  24.851  1.00  0.00     0.022 A 
BRANCH  54  58
ATOM     58  S   UNL A   1      50.714  25.399  27.104  1.00  0.00     0.124 S 
ATOM     59  O   UNL A   1      51.528  24.902  26.001  1.00  0.00    -0.237 OA
ATOM     60  O   UNL A   1      51.271  26.517  27.858  1.00  0.00    -0.237 OA
ATOM     61  O   UNL A   1      50.062  24.370  27.911  1.00  0.00    -0.744 OA
ENDBRANCH  54  58
ENDBRANCH  27  51
BRANCH  39  62
ATOM     62  C   UNL A   1      45.169  33.207  29.384  1.00  0.00     0.023 A 
ATOM     63  C   UNL A   1      45.008  34.311  28.532  1.00  0.00     0.031 A 
ATOM     64  C   UNL A   1      46.014  33.338  30.499  1.00  0.00     0.131 A 
ATOM     65  C   UNL A   1      45.714  35.495  28.790  1.00  0.00     0.055 A 
ATOM     66  C   UNL A   1      46.680  34.532  30.775  1.00  0.00     0.041 A 
ATOM     67  F   UNL A   1      46.198  32.308  31.341  1.00  0.00    -0.206 F 
ATOM     68  C   UNL A   1      46.536  35.617  29.914  1.00  0.00     0.022 A 
BRANCH  65  69
ATOM     69  S   UNL A   1      45.578  36.866  27.612  1.00  0.00     0.124 S 
ATOM     70  O   UNL A   1      46.021  38.001  28.415  1.00  0.00    -0.237 OA
ATOM     71  O   UNL A   1      46.482  36.452  26.542  1.00  0.00    -0.237 OA
ATOM     72  O   UNL A   1      44.162  36.872  27.254  1.00  0.00    -0.744 OA
ENDBRANCH  65  69
ENDBRANCH  39  62
ENDBRANCH  13  14
ENDBRANCH   6   8
ENDBRANCH   5   6
ENDBRANCH   4   5
ENDBRANCH   3   4
ENDBRANCH   2   3
ENDBRANCH   1   2
BRANCH   1  73
ATOM     73  C   UNL A   1      33.035  20.394  24.996  1.00  0.00     0.188 C 
BRANCH  73  74
ATOM     74  O   UNL A   1      31.694  20.894  25.061  1.00  0.00    -0.376 OA
BRANCH  74  75
ATOM     75  C   UNL A   1      31.500  22.115  25.766  1.00  0.00     0.202 C 
BRANCH  75  76
ATOM     76  C   UNL A   1      30.976  23.308  24.960  1.00  0.00     0.261 C 
BRANCH  76  77
ATOM     77  O   UNL A   1      31.860  24.438  24.889  1.00  0.00    -0.458 OA
BRANCH  77  78
ATOM     78  C   UNL A   1      32.252  24.768  23.632  1.00  0.00     0.358 C 
ATOM     79  O   UNL A   1      32.522  23.998  22.718  1.00  0.00    -0.244 OA
BRANCH  78  80
ATOM     80  C   UNL A   1      32.490  26.218  23.536  1.00  0.00     0.170 A 
ATOM     81  C   UNL A   1      33.343  26.632  22.520  1.00  0.00     0.147 A 
ATOM     82  N   UNL A   1      31.753  27.077  24.304  1.00  0.00    -0.203 NA
ATOM     83  N   UNL A   1      33.513  27.936  22.214  1.00  0.00    -0.257 NA
ATOM     84  C   UNL A   1      31.930  28.384  23.979  1.00  0.00     0.238 A 
ATOM     85  C   UNL A   1      32.786  28.799  22.961  1.00  0.00     0.179 A 
BRANCH  84  86
ATOM     86  O   UNL A   1      31.219  29.409  24.589  1.00  0.00    -0.434 OA
BRANCH  86  87
ATOM     87  C   UNL A   1      30.137  29.936  23.940  1.00  0.00     0.168 A 
ATOM     88  C   UNL A   1      29.334  29.105  23.162  1.00  0.00     0.089 A 
ATOM     89  C   UNL A   1      29.700  31.219  24.267  1.00  0.00     0.166 A 
ATOM     90  C   UNL A   1      28.102  29.579  22.720  1.00  0.00     0.127 A 
ATOM     91  C   UNL A   1      28.473  31.695  23.805  1.00  0.00     0.046 A 
ATOM     92  F   UNL A   1      30.425  31.993  25.087  1.00  0.00    -0.203 F 
ATOM     93  F   UNL A   1      27.284  28.764  22.046  1.00  0.00    -0.207 F 
ATOM     94  C   UNL A   1      27.667  30.866  23.026  1.00  0.00     0.042 A 
ENDBRANCH  86  87
ENDBRANCH  84  86
ENDBRANCH  78  80
ENDBRANCH  77  78
ENDBRANCH  76  77
ENDBRANCH  75  76
ENDBRANCH  74  75
ENDBRANCH  73  74
ENDBRANCH   1  73
TORSDOF 22
ENDMDL
