MODEL 1
REMARK VINA RESULT:      -8.7      0.000      0.000
REMARK SMILES O=C(C[C@@H]([NH2+]C[C@H]1CCCO1)C(=O)OCCOCCOCCOC(=O)c1ccc(-c2c3nc(c(-c4cc(S(=O)(=O)[O-])ccc4F)c4ccc([nH]4)c(-c4cc(S(=O)(=O)[O-])ccc4F)c4nc(c(-c5cc(S(=O)(=O)[O-])ccc5F)c5ccc2[nH]5)C=C4)C=C3)cc1)Nc1cccc(Cl)c1
REMARK SMILES IDX 18 1 17 2 16 3 15 4 14 5 12 6 13 7 4 8 3 9 2 10 1 11 89 12
REMARK SMILES IDX 90 14 91 15 96 16 92 17 94 18 93 19 95 20 5 21 6 24 7 25
REMARK SMILES IDX 8 26 11 27 9 28 10 29 19 30 20 31 21 32 22 33 23 34 24 35
REMARK SMILES IDX 25 36 26 37 27 38 88 39 28 40 87 41 29 42 30 43 31 44 81 45
REMARK SMILES IDX 32 46 86 47 80 48 82 49 33 50 85 51 79 52 78 53 34 55 66 56
REMARK SMILES IDX 46 57 65 58 47 59 50 60 64 61 83 62 48 63 49 64 63 66 84 67
REMARK SMILES IDX 51 68 35 69 36 70 44 71 37 72 43 73 45 74 42 75 38 76 39 77
REMARK SMILES IDX 40 78 41 79 67 80 68 81 76 82 69 83 75 84 77 85 74 86 70 87
REMARK SMILES IDX 71 88 72 89 73 90 52 91 53 92 61 93 54 94 60 95 62 96 59 97
REMARK SMILES IDX 55 98 56 99 57 100 58 101
REMARK H PARENT 89 13 5 22 5 23 82 54 50 65
REMARK Flexibility Score: inf
ROOT
ATOM      1  C   UNL A   1      37.148  31.126  28.948  1.00  0.00     0.188 C 
ENDROOT
BRANCH   1   2
ATOM      2  O   UNL A   1      35.790  30.780  28.725  1.00  0.00    -0.376 OA
BRANCH   2   3
ATOM      3  C   UNL A   1      35.064  31.393  27.667  1.00  0.00     0.202 C 
BRANCH   3   4
ATOM      4  C   UNL A   1      33.611  30.986  27.343  1.00  0.00     0.261 C 
BRANCH   4   5
ATOM      5  O   UNL A   1      33.423  29.988  26.313  1.00  0.00    -0.459 OA
BRANCH   5   6
ATOM      6  C   UNL A   1      32.184  29.969  25.752  1.00  0.00     0.365 C 
ATOM      7  O   UNL A   1      31.447  30.948  25.794  1.00  0.00    -0.245 OA
BRANCH   6   8
ATOM      8  C   UNL A   1      31.846  28.667  24.964  1.00  0.00     0.302 C 
BRANCH   8   9
ATOM      9  C   UNL A   1      31.872  27.358  25.792  1.00  0.00     0.177 C 
BRANCH   9  10
ATOM     10  C   UNL A   1      32.365  26.164  24.972  1.00  0.00     0.231 C 
ATOM     11  O   UNL A   1      32.056  26.015  23.795  1.00  0.00    -0.274 OA
ATOM     12  N   UNL A   1      33.107  25.276  25.735  1.00  0.00    -0.326 N 
ATOM     13  H   UNL A   1      33.227  25.514  26.683  1.00  0.00     0.169 HD
BRANCH  12  14
ATOM     14  C   UNL A   1      33.709  24.074  25.317  1.00  0.00     0.042 A 
ATOM     15  C   UNL A   1      35.076  24.122  25.007  1.00  0.00     0.026 A 
ATOM     16  C   UNL A   1      33.007  22.881  25.142  1.00  0.00     0.046 A 
ATOM     17  C   UNL A   1      35.742  22.989  24.535  1.00  0.00     0.004 A 
ATOM     18  C   UNL A   1      33.667  21.767  24.612  1.00  0.00     0.043 A 
ATOM     19  C   UNL A   1      35.030  21.813  24.318  1.00  0.00     0.020 A 
ATOM     20  Cl  UNL A   1      32.785  20.330  24.264  1.00  0.00    -0.084 Cl
ENDBRANCH  12  14
ENDBRANCH   9  10
ENDBRANCH   8   9
BRANCH   8  21
ATOM     21  N   UNL A   1      30.498  28.713  24.302  1.00  0.00    -0.332 N 
ATOM     22  H   UNL A   1      29.908  29.343  24.844  1.00  0.00     0.347 HD
ATOM     23  H   UNL A   1      30.175  27.746  24.280  1.00  0.00     0.347 HD
BRANCH  21  24
ATOM     24  C   UNL A   1      30.470  29.166  22.900  1.00  0.00     0.293 C 
BRANCH  24  25
ATOM     25  C   UNL A   1      29.043  29.439  22.363  1.00  0.00     0.173 C 
ATOM     26  C   UNL A   1      28.226  30.261  23.347  1.00  0.00     0.040 C 
ATOM     27  O   UNL A   1      29.108  30.218  21.158  1.00  0.00    -0.372 OA
ATOM     28  C   UNL A   1      28.595  31.669  22.955  1.00  0.00     0.031 C 
ATOM     29  C   UNL A   1      28.660  31.553  21.448  1.00  0.00     0.161 C 
ENDBRANCH  24  25
ENDBRANCH  21  24
ENDBRANCH   8  21
ENDBRANCH   6   8
ENDBRANCH   5   6
ENDBRANCH   4   5
ENDBRANCH   3   4
ENDBRANCH   2   3
ENDBRANCH   1   2
BRANCH   1  30
ATOM     30  C   UNL A   1      38.113  30.075  29.514  1.00  0.00     0.188 C 
BRANCH  30  31
ATOM     31  O   UNL A   1      39.324  29.943  28.806  1.00  0.00    -0.376 OA
BRANCH  31  32
ATOM     32  C   UNL A   1      39.323  29.312  27.536  1.00  0.00     0.202 C 
BRANCH  32  33
ATOM     33  C   UNL A   1      40.072  27.987  27.284  1.00  0.00     0.261 C 
BRANCH  33  34
ATOM     34  O   UNL A   1      41.074  27.977  26.257  1.00  0.00    -0.460 OA
BRANCH  34  35
ATOM     35  C   UNL A   1      41.563  26.767  25.892  1.00  0.00     0.338 C 
ATOM     36  O   UNL A   1      40.919  25.833  25.439  1.00  0.00    -0.246 OA
BRANCH  35  37
ATOM     37  C   UNL A   1      43.044  26.871  25.884  1.00  0.00     0.060 A 
ATOM     38  C   UNL A   1      43.802  25.727  25.591  1.00  0.00     0.016 A 
ATOM     39  C   UNL A   1      43.677  28.092  26.120  1.00  0.00     0.016 A 
ATOM     40  C   UNL A   1      45.196  25.795  25.563  1.00  0.00     0.010 A 
ATOM     41  C   UNL A   1      45.077  28.152  26.122  1.00  0.00     0.010 A 
ATOM     42  C   UNL A   1      45.844  26.996  25.878  1.00  0.00    -0.014 A 
BRANCH  42  43
ATOM     43  C   UNL A   1      47.296  26.989  26.200  1.00  0.00     0.031 A 
ATOM     44  C   UNL A   1      48.265  27.140  25.056  1.00  0.00     0.074 A 
ATOM     45  C   UNL A   1      47.754  26.883  27.460  1.00  0.00     0.049 A 
ATOM     46  N   UNL A   1      49.572  27.088  25.055  1.00  0.00    -0.248 NA
ATOM     47  C   UNL A   1      47.670  27.376  23.731  1.00  0.00     0.031 C 
ATOM     48  C   UNL A   1      46.924  26.799  28.660  1.00  0.00     0.029 A 
ATOM     49  N   UNL A   1      49.041  26.824  27.938  1.00  0.00    -0.354 N 
ATOM     50  C   UNL A   1      49.955  27.281  23.731  1.00  0.00     0.074 A 
ATOM     51  C   UNL A   1      48.741  27.405  22.953  1.00  0.00     0.031 C 
ATOM     52  C   UNL A   1      47.724  26.691  29.736  1.00  0.00     0.029 A 
ATOM     53  C   UNL A   1      49.120  26.652  29.301  1.00  0.00     0.049 A 
ATOM     54  H   UNL A   1      49.833  26.898  27.359  1.00  0.00     0.167 HD
ATOM     55  C   UNL A   1      51.204  27.359  23.211  1.00  0.00     0.034 A 
ATOM     56  C   UNL A   1      50.194  26.459  30.097  1.00  0.00     0.034 A 
ATOM     57  C   UNL A   1      52.408  27.220  23.992  1.00  0.00     0.049 A 
ATOM     58  C   UNL A   1      51.576  26.437  29.478  1.00  0.00     0.074 A 
ATOM     59  C   UNL A   1      53.723  27.273  23.564  1.00  0.00     0.029 A 
ATOM     60  N   UNL A   1      52.446  26.991  25.362  1.00  0.00    -0.354 N 
ATOM     61  N   UNL A   1      51.927  26.605  28.223  1.00  0.00    -0.248 NA
ATOM     62  C   UNL A   1      52.707  26.205  30.388  1.00  0.00     0.031 C 
ATOM     63  C   UNL A   1      54.551  26.998  24.657  1.00  0.00     0.029 A 
ATOM     64  C   UNL A   1      53.761  26.870  25.788  1.00  0.00     0.049 A 
ATOM     65  H   UNL A   1      51.656  26.924  25.945  1.00  0.00     0.167 HD
ATOM     66  C   UNL A   1      53.321  26.548  28.206  1.00  0.00     0.074 A 
ATOM     67  C   UNL A   1      53.743  26.340  29.575  1.00  0.00     0.031 C 
ATOM     68  C   UNL A   1      54.175  26.664  27.156  1.00  0.00     0.034 A 
BRANCH  55  69
ATOM     69  C   UNL A   1      51.323  27.551  21.717  1.00  0.00     0.023 A 
ATOM     70  C   UNL A   1      51.374  26.460  20.831  1.00  0.00     0.031 A 
ATOM     71  C   UNL A   1      51.413  28.845  21.175  1.00  0.00     0.131 A 
ATOM     72  C   UNL A   1      51.580  26.682  19.461  1.00  0.00     0.055 A 
ATOM     73  C   UNL A   1      51.533  29.061  19.802  1.00  0.00     0.041 A 
ATOM     74  F   UNL A   1      51.399  29.924  21.974  1.00  0.00    -0.206 F 
ATOM     75  C   UNL A   1      51.631  27.975  18.936  1.00  0.00     0.022 A 
BRANCH  72  76
ATOM     76  S   UNL A   1      51.927  25.257  18.394  1.00  0.00     0.124 S 
ATOM     77  O   UNL A   1      51.129  25.573  17.212  1.00  0.00    -0.237 OA
ATOM     78  O   UNL A   1      53.374  25.332  18.228  1.00  0.00    -0.237 OA
ATOM     79  O   UNL A   1      51.447  24.119  19.175  1.00  0.00    -0.744 OA
ENDBRANCH  72  76
ENDBRANCH  55  69
BRANCH  56  80
ATOM     80  C   UNL A   1      50.029  26.225  31.564  1.00  0.00     0.023 A 
ATOM     81  C   UNL A   1      50.167  24.940  32.117  1.00  0.00     0.031 A 
ATOM     82  C   UNL A   1      49.638  27.269  32.423  1.00  0.00     0.131 A 
ATOM     83  C   UNL A   1      49.859  24.721  33.469  1.00  0.00     0.055 A 
ATOM     84  C   UNL A   1      49.395  27.057  33.781  1.00  0.00     0.041 A 
ATOM     85  F   UNL A   1      49.478  28.514  31.950  1.00  0.00    -0.206 F 
ATOM     86  C   UNL A   1      49.489  25.773  34.309  1.00  0.00     0.022 A 
BRANCH  83  87
ATOM     87  S   UNL A   1      49.835  23.015  34.090  1.00  0.00     0.124 S 
ATOM     88  O   UNL A   1      48.412  22.808  34.333  1.00  0.00    -0.237 OA
ATOM     89  O   UNL A   1      50.411  22.277  32.971  1.00  0.00    -0.237 OA
ATOM     90  O   UNL A   1      50.671  23.078  35.287  1.00  0.00    -0.744 OA
ENDBRANCH  83  87
ENDBRANCH  56  80
BRANCH  68  91
ATOM     91  C   UNL A   1      55.658  26.643  27.458  1.00  0.00     0.023 A 
ATOM     92  C   UNL A   1      56.395  27.819  27.680  1.00  0.00     0.031 A 
ATOM     93  C   UNL A   1      56.346  25.416  27.510  1.00  0.00     0.131 A 
ATOM     94  C   UNL A   1      57.784  27.749  27.876  1.00  0.00     0.055 A 
ATOM     95  C   UNL A   1      57.714  25.347  27.778  1.00  0.00     0.041 A 
ATOM     96  F   UNL A   1      55.697  24.258  27.303  1.00  0.00    -0.206 F 
ATOM     97  C   UNL A   1      58.444  26.519  27.946  1.00  0.00     0.022 A 
BRANCH  94  98
ATOM     98  S   UNL A   1      58.737  29.291  27.920  1.00  0.00     0.124 S 
ATOM     99  O   UNL A   1      59.442  29.176  29.193  1.00  0.00    -0.237 OA
ATOM    100  O   UNL A   1      59.564  29.183  26.722  1.00  0.00    -0.237 OA
ATOM    101  O   UNL A   1      57.711  30.331  27.872  1.00  0.00    -0.744 OA
ENDBRANCH  94  98
ENDBRANCH  68  91
ENDBRANCH  42  43
ENDBRANCH  35  37
ENDBRANCH  34  35
ENDBRANCH  33  34
ENDBRANCH  32  33
ENDBRANCH  31  32
ENDBRANCH  30  31
ENDBRANCH   1  30
TORSDOF 26
ENDMDL
MODEL 2
REMARK VINA RESULT:      -8.6      5.714     10.710
REMARK SMILES O=C(C[C@@H]([NH2+]C[C@H]1CCCO1)C(=O)OCCOCCOCCOC(=O)c1ccc(-c2c3nc(c(-c4cc(S(=O)(=O)[O-])ccc4F)c4ccc([nH]4)c(-c4cc(S(=O)(=O)[O-])ccc4F)c4nc(c(-c5cc(S(=O)(=O)[O-])ccc5F)c5ccc2[nH]5)C=C4)C=C3)cc1)Nc1cccc(Cl)c1
REMARK SMILES IDX 18 1 17 2 16 3 15 4 14 5 12 6 13 7 4 8 3 9 2 10 1 11 89 12
REMARK SMILES IDX 90 14 91 15 96 16 92 17 94 18 93 19 95 20 5 21 6 24 7 25
REMARK SMILES IDX 8 26 11 27 9 28 10 29 19 30 20 31 21 32 22 33 23 34 24 35
REMARK SMILES IDX 25 36 26 37 27 38 88 39 28 40 87 41 29 42 30 43 31 44 81 45
REMARK SMILES IDX 32 46 86 47 80 48 82 49 33 50 85 51 79 52 78 53 34 55 66 56
REMARK SMILES IDX 46 57 65 58 47 59 50 60 64 61 83 62 48 63 49 64 63 66 84 67
REMARK SMILES IDX 51 68 35 69 36 70 44 71 37 72 43 73 45 74 42 75 38 76 39 77
REMARK SMILES IDX 40 78 41 79 67 80 68 81 76 82 69 83 75 84 77 85 74 86 70 87
REMARK SMILES IDX 71 88 72 89 73 90 52 91 53 92 61 93 54 94 60 95 62 96 59 97
REMARK SMILES IDX 55 98 56 99 57 100 58 101
REMARK H PARENT 89 13 5 22 5 23 82 54 50 65
REMARK Flexibility Score: inf
ROOT
ATOM      1  C   UNL A   1      38.465  20.035  25.286  1.00  0.00     0.188 C 
ENDROOT
BRANCH   1   2
ATOM      2  O   UNL A   1      37.680  21.069  24.712  1.00  0.00    -0.376 OA
BRANCH   2   3
ATOM      3  C   UNL A   1      36.841  21.868  25.537  1.00  0.00     0.202 C 
BRANCH   3   4
ATOM      4  C   UNL A   1      36.488  23.322  25.162  1.00  0.00     0.261 C 
BRANCH   4   5
ATOM      5  O   UNL A   1      35.283  23.526  24.389  1.00  0.00    -0.459 OA
BRANCH   5   6
ATOM      6  C   UNL A   1      34.398  24.407  24.930  1.00  0.00     0.365 C 
ATOM      7  O   UNL A   1      34.775  25.383  25.569  1.00  0.00    -0.245 OA
BRANCH   6   8
ATOM      8  C   UNL A   1      32.906  24.137  24.565  1.00  0.00     0.302 C 
BRANCH   8   9
ATOM      9  C   UNL A   1      32.078  23.396  25.644  1.00  0.00     0.177 C 
BRANCH   9  10
ATOM     10  C   UNL A   1      31.874  21.918  25.304  1.00  0.00     0.231 C 
ATOM     11  O   UNL A   1      30.916  21.282  25.728  1.00  0.00    -0.274 OA
ATOM     12  N   UNL A   1      32.919  21.405  24.551  1.00  0.00    -0.326 N 
ATOM     13  H   UNL A   1      33.643  22.035  24.330  1.00  0.00     0.169 HD
BRANCH  12  14
ATOM     14  C   UNL A   1      33.069  20.092  24.066  1.00  0.00     0.042 A 
ATOM     15  C   UNL A   1      32.269  19.722  22.974  1.00  0.00     0.026 A 
ATOM     16  C   UNL A   1      33.912  19.147  24.650  1.00  0.00     0.046 A 
ATOM     17  C   UNL A   1      32.315  18.425  22.462  1.00  0.00     0.004 A 
ATOM     18  C   UNL A   1      33.909  17.833  24.169  1.00  0.00     0.043 A 
ATOM     19  C   UNL A   1      33.123  17.471  23.074  1.00  0.00     0.020 A 
ATOM     20  Cl  UNL A   1      34.842  16.624  24.964  1.00  0.00    -0.084 Cl
ENDBRANCH  12  14
ENDBRANCH   9  10
ENDBRANCH   8   9
BRANCH   8  21
ATOM     21  N   UNL A   1      32.142  25.390  24.243  1.00  0.00    -0.332 N 
ATOM     22  H   UNL A   1      31.852  25.811  25.125  1.00  0.00     0.347 HD
ATOM     23  H   UNL A   1      31.373  25.091  23.644  1.00  0.00     0.347 HD
BRANCH  21  24
ATOM     24  C   UNL A   1      32.863  26.418  23.471  1.00  0.00     0.293 C 
BRANCH  24  25
ATOM     25  C   UNL A   1      32.125  27.778  23.406  1.00  0.00     0.173 C 
ATOM     26  C   UNL A   1      31.096  27.906  24.517  1.00  0.00     0.040 C 
ATOM     27  O   UNL A   1      33.054  28.855  23.605  1.00  0.00    -0.372 OA
ATOM     28  C   UNL A   1      31.925  28.460  25.647  1.00  0.00     0.031 C 
ATOM     29  C   UNL A   1      32.832  29.420  24.907  1.00  0.00     0.161 C 
ENDBRANCH  24  25
ENDBRANCH  21  24
ENDBRANCH   8  21
ENDBRANCH   6   8
ENDBRANCH   5   6
ENDBRANCH   4   5
ENDBRANCH   3   4
ENDBRANCH   2   3
ENDBRANCH   1   2
BRANCH   1  30
ATOM     30  C   UNL A   1      39.731  20.396  26.074  1.00  0.00     0.188 C 
BRANCH  30  31
ATOM     31  O   UNL A   1      40.807  19.501  25.908  1.00  0.00    -0.376 OA
BRANCH  31  32
ATOM     32  C   UNL A   1      42.135  19.999  25.910  1.00  0.00     0.202 C 
BRANCH  32  33
ATOM     33  C   UNL A   1      42.438  21.506  26.049  1.00  0.00     0.261 C 
BRANCH  33  34
ATOM     34  O   UNL A   1      43.814  21.910  26.019  1.00  0.00    -0.460 OA
BRANCH  34  35
ATOM     35  C   UNL A   1      44.134  22.931  25.188  1.00  0.00     0.338 C 
ATOM     36  O   UNL A   1      44.422  22.837  24.004  1.00  0.00    -0.246 OA
BRANCH  35  37
ATOM     37  C   UNL A   1      43.810  24.196  25.893  1.00  0.00     0.060 A 
ATOM     38  C   UNL A   1      43.387  25.302  25.142  1.00  0.00     0.016 A 
ATOM     39  C   UNL A   1      43.880  24.278  27.285  1.00  0.00     0.016 A 
ATOM     40  C   UNL A   1      43.063  26.503  25.778  1.00  0.00     0.010 A 
ATOM     41  C   UNL A   1      43.584  25.492  27.919  1.00  0.00     0.010 A 
ATOM     42  C   UNL A   1      43.208  26.621  27.165  1.00  0.00    -0.014 A 
BRANCH  42  43
ATOM     43  C   UNL A   1      43.215  27.968  27.795  1.00  0.00     0.031 A 
ATOM     44  C   UNL A   1      44.538  28.679  27.909  1.00  0.00     0.074 A 
ATOM     45  C   UNL A   1      42.090  28.566  28.227  1.00  0.00     0.049 A 
ATOM     46  N   UNL A   1      44.829  29.818  28.482  1.00  0.00    -0.248 NA
ATOM     47  C   UNL A   1      45.692  28.002  27.295  1.00  0.00     0.031 C 
ATOM     48  C   UNL A   1      40.740  28.017  28.114  1.00  0.00     0.029 A 
ATOM     49  N   UNL A   1      41.909  29.775  28.856  1.00  0.00    -0.354 N 
ATOM     50  C   UNL A   1      46.197  29.993  28.300  1.00  0.00     0.074 A 
ATOM     51  C   UNL A   1      46.684  28.820  27.606  1.00  0.00     0.031 C 
ATOM     52  C   UNL A   1      39.871  28.884  28.665  1.00  0.00     0.029 A 
ATOM     53  C   UNL A   1      40.603  30.027  29.208  1.00  0.00     0.049 A 
ATOM     54  H   UNL A   1      42.646  30.402  29.037  1.00  0.00     0.167 HD
ATOM     55  C   UNL A   1      46.977  31.038  28.669  1.00  0.00     0.034 A 
ATOM     56  C   UNL A   1      40.070  31.049  29.912  1.00  0.00     0.034 A 
ATOM     57  C   UNL A   1      46.485  32.196  29.374  1.00  0.00     0.049 A 
ATOM     58  C   UNL A   1      40.978  32.153  30.413  1.00  0.00     0.074 A 
ATOM     59  C   UNL A   1      47.189  33.307  29.803  1.00  0.00     0.029 A 
ATOM     60  N   UNL A   1      45.165  32.390  29.762  1.00  0.00    -0.354 N 
ATOM     61  N   UNL A   1      42.273  32.301  30.250  1.00  0.00    -0.248 NA
ATOM     62  C   UNL A   1      40.348  33.231  31.188  1.00  0.00     0.031 C 
ATOM     63  C   UNL A   1      46.315  34.132  30.518  1.00  0.00     0.029 A 
ATOM     64  C   UNL A   1      45.043  33.587  30.453  1.00  0.00     0.049 A 
ATOM     65  H   UNL A   1      44.425  31.769  29.576  1.00  0.00     0.167 HD
ATOM     66  C   UNL A   1      42.599  33.513  30.861  1.00  0.00     0.074 A 
ATOM     67  C   UNL A   1      41.364  34.056  31.384  1.00  0.00     0.031 C 
ATOM     68  C   UNL A   1      43.807  34.124  30.971  1.00  0.00     0.034 A 
BRANCH  55  69
ATOM     69  C   UNL A   1      48.453  30.945  28.362  1.00  0.00     0.023 A 
ATOM     70  C   UNL A   1      49.342  30.250  29.200  1.00  0.00     0.031 A 
ATOM     71  C   UNL A   1      48.982  31.586  27.227  1.00  0.00     0.131 A 
ATOM     72  C   UNL A   1      50.719  30.269  28.929  1.00  0.00     0.055 A 
ATOM     73  C   UNL A   1      50.341  31.529  26.917  1.00  0.00     0.041 A 
ATOM     74  F   UNL A   1      48.186  32.288  26.405  1.00  0.00    -0.206 F 
ATOM     75  C   UNL A   1      51.221  30.880  27.777  1.00  0.00     0.022 A 
BRANCH  72  76
ATOM     76  S   UNL A   1      51.859  29.612  30.176  1.00  0.00     0.124 S 
ATOM     77  O   UNL A   1      51.127  28.444  30.659  1.00  0.00    -0.237 OA
ATOM     78  O   UNL A   1      53.058  29.338  29.394  1.00  0.00    -0.237 OA
ATOM     79  O   UNL A   1      51.979  30.704  31.141  1.00  0.00    -0.744 OA
ENDBRANCH  72  76
ENDBRANCH  55  69
BRANCH  56  80
ATOM     80  C   UNL A   1      38.611  31.078  30.235  1.00  0.00     0.023 A 
ATOM     81  C   UNL A   1      37.703  31.802  29.443  1.00  0.00     0.031 A 
ATOM     82  C   UNL A   1      38.115  30.457  31.396  1.00  0.00     0.131 A 
ATOM     83  C   UNL A   1      36.368  31.938  29.851  1.00  0.00     0.055 A 
ATOM     84  C   UNL A   1      36.771  30.543  31.764  1.00  0.00     0.041 A 
ATOM     85  F   UNL A   1      38.936  29.762  32.199  1.00  0.00    -0.206 F 
ATOM     86  C   UNL A   1      35.891  31.301  30.998  1.00  0.00     0.022 A 
BRANCH  83  87
ATOM     87  S   UNL A   1      35.284  33.061  28.923  1.00  0.00     0.124 S 
ATOM     88  O   UNL A   1      35.354  32.497  27.580  1.00  0.00    -0.237 OA
ATOM     89  O   UNL A   1      34.013  32.901  29.621  1.00  0.00    -0.237 OA
ATOM     90  O   UNL A   1      35.923  34.364  29.088  1.00  0.00    -0.744 OA
ENDBRANCH  83  87
ENDBRANCH  56  80
BRANCH  68  91
ATOM     91  C   UNL A   1      43.839  35.489  31.623  1.00  0.00     0.023 A 
ATOM     92  C   UNL A   1      43.831  36.679  30.874  1.00  0.00     0.031 A 
ATOM     93  C   UNL A   1      43.894  35.597  33.026  1.00  0.00     0.131 A 
ATOM     94  C   UNL A   1      43.944  37.918  31.526  1.00  0.00     0.055 A 
ATOM     95  C   UNL A   1      43.932  36.833  33.671  1.00  0.00     0.041 A 
ATOM     96  F   UNL A   1      43.908  34.495  33.796  1.00  0.00    -0.206 F 
ATOM     97  C   UNL A   1      43.975  38.003  32.920  1.00  0.00     0.022 A 
BRANCH  94  98
ATOM     98  S   UNL A   1      44.170  39.413  30.523  1.00  0.00     0.124 S 
ATOM     99  O   UNL A   1      42.947  40.156  30.807  1.00  0.00    -0.237 OA
ATOM    100  O   UNL A   1      45.400  39.975  31.073  1.00  0.00    -0.237 OA
ATOM    101  O   UNL A   1      44.281  38.898  29.160  1.00  0.00    -0.744 OA
ENDBRANCH  94  98
ENDBRANCH  68  91
ENDBRANCH  42  43
ENDBRANCH  35  37
ENDBRANCH  34  35
ENDBRANCH  33  34
ENDBRANCH  32  33
ENDBRANCH  31  32
ENDBRANCH  30  31
ENDBRANCH   1  30
TORSDOF 26
ENDMDL
MODEL 3
REMARK VINA RESULT:      -8.6      7.463     10.486
REMARK SMILES O=C(C[C@@H]([NH2+]C[C@H]1CCCO1)C(=O)OCCOCCOCCOC(=O)c1ccc(-c2c3nc(c(-c4cc(S(=O)(=O)[O-])ccc4F)c4ccc([nH]4)c(-c4cc(S(=O)(=O)[O-])ccc4F)c4nc(c(-c5cc(S(=O)(=O)[O-])ccc5F)c5ccc2[nH]5)C=C4)C=C3)cc1)Nc1cccc(Cl)c1
REMARK SMILES IDX 18 1 17 2 16 3 15 4 14 5 12 6 13 7 4 8 3 9 2 10 1 11 89 12
REMARK SMILES IDX 90 14 91 15 96 16 92 17 94 18 93 19 95 20 5 21 6 24 7 25
REMARK SMILES IDX 8 26 11 27 9 28 10 29 19 30 20 31 21 32 22 33 23 34 24 35
REMARK SMILES IDX 25 36 26 37 27 38 88 39 28 40 87 41 29 42 30 43 31 44 81 45
REMARK SMILES IDX 32 46 86 47 80 48 82 49 33 50 85 51 79 52 78 53 34 55 66 56
REMARK SMILES IDX 46 57 65 58 47 59 50 60 64 61 83 62 48 63 49 64 63 66 84 67
REMARK SMILES IDX 51 68 35 69 36 70 44 71 37 72 43 73 45 74 42 75 38 76 39 77
REMARK SMILES IDX 40 78 41 79 67 80 68 81 76 82 69 83 75 84 77 85 74 86 70 87
REMARK SMILES IDX 71 88 72 89 73 90 52 91 53 92 61 93 54 94 60 95 62 96 59 97
REMARK SMILES IDX 55 98 56 99 57 100 58 101
REMARK H PARENT 89 13 5 22 5 23 82 54 50 65
REMARK Flexibility Score: inf
ROOT
ATOM      1  C   UNL A   1      36.727  29.324  29.330  1.00  0.00     0.188 C 
ENDROOT
BRANCH   1   2
ATOM      2  O   UNL A   1      35.501  30.038  29.373  1.00  0.00    -0.376 OA
BRANCH   2   3
ATOM      3  C   UNL A   1      35.206  31.006  28.373  1.00  0.00     0.202 C 
BRANCH   3   4
ATOM      4  C   UNL A   1      33.891  30.959  27.568  1.00  0.00     0.261 C 
BRANCH   4   5
ATOM      5  O   UNL A   1      33.965  30.434  26.222  1.00  0.00    -0.459 OA
BRANCH   5   6
ATOM      6  C   UNL A   1      33.204  29.329  25.995  1.00  0.00     0.365 C 
ATOM      7  O   UNL A   1      32.916  28.553  26.900  1.00  0.00    -0.245 OA
BRANCH   6   8
ATOM      8  C   UNL A   1      32.643  29.211  24.545  1.00  0.00     0.302 C 
BRANCH   8   9
ATOM      9  C   UNL A   1      33.400  28.232  23.613  1.00  0.00     0.177 C 
BRANCH   9  10
ATOM     10  C   UNL A   1      32.847  26.808  23.698  1.00  0.00     0.231 C 
ATOM     11  O   UNL A   1      32.181  26.317  22.794  1.00  0.00    -0.274 OA
ATOM     12  N   UNL A   1      33.125  26.211  24.917  1.00  0.00    -0.326 N 
ATOM     13  H   UNL A   1      33.632  26.756  25.562  1.00  0.00     0.169 HD
BRANCH  12  14
ATOM     14  C   UNL A   1      32.769  24.918  25.345  1.00  0.00     0.042 A 
ATOM     15  C   UNL A   1      31.463  24.491  25.060  1.00  0.00     0.026 A 
ATOM     16  C   UNL A   1      33.617  24.087  26.076  1.00  0.00     0.046 A 
ATOM     17  C   UNL A   1      31.008  23.243  25.493  1.00  0.00     0.004 A 
ATOM     18  C   UNL A   1      33.136  22.864  26.557  1.00  0.00     0.043 A 
ATOM     19  C   UNL A   1      31.842  22.436  26.261  1.00  0.00     0.020 A 
ATOM     20  Cl  UNL A   1      34.127  21.890  27.574  1.00  0.00    -0.084 Cl
ENDBRANCH  12  14
ENDBRANCH   9  10
ENDBRANCH   8   9
BRANCH   8  21
ATOM     21  N   UNL A   1      31.201  28.793  24.503  1.00  0.00    -0.332 N 
ATOM     22  H   UNL A   1      30.879  28.695  25.466  1.00  0.00     0.347 HD
ATOM     23  H   UNL A   1      31.186  27.928  23.963  1.00  0.00     0.347 HD
BRANCH  21  24
ATOM     24  C   UNL A   1      30.273  29.704  23.810  1.00  0.00     0.293 C 
BRANCH  24  25
ATOM     25  C   UNL A   1      29.519  29.044  22.630  1.00  0.00     0.173 C 
ATOM     26  C   UNL A   1      28.068  28.759  22.986  1.00  0.00     0.040 C 
ATOM     27  O   UNL A   1      29.479  29.937  21.506  1.00  0.00    -0.372 OA
ATOM     28  C   UNL A   1      27.399  30.061  22.627  1.00  0.00     0.031 C 
ATOM     29  C   UNL A   1      28.141  30.439  21.362  1.00  0.00     0.161 C 
ENDBRANCH  24  25
ENDBRANCH  21  24
ENDBRANCH   8  21
ENDBRANCH   6   8
ENDBRANCH   5   6
ENDBRANCH   4   5
ENDBRANCH   3   4
ENDBRANCH   2   3
ENDBRANCH   1   2
BRANCH   1  30
ATOM     30  C   UNL A   1      37.575  29.200  30.603  1.00  0.00     0.188 C 
BRANCH  30  31
ATOM     31  O   UNL A   1      36.851  29.315  31.807  1.00  0.00    -0.376 OA
BRANCH  31  32
ATOM     32  C   UNL A   1      36.866  30.545  32.513  1.00  0.00     0.202 C 
BRANCH  32  33
ATOM     33  C   UNL A   1      38.123  31.438  32.565  1.00  0.00     0.261 C 
BRANCH  33  34
ATOM     34  O   UNL A   1      37.945  32.846  32.353  1.00  0.00    -0.460 OA
BRANCH  34  35
ATOM     35  C   UNL A   1      37.697  33.246  31.083  1.00  0.00     0.338 C 
ATOM     36  O   UNL A   1      36.602  33.309  30.545  1.00  0.00    -0.246 OA
BRANCH  35  37
ATOM     37  C   UNL A   1      38.947  33.847  30.554  1.00  0.00     0.060 A 
ATOM     38  C   UNL A   1      39.018  34.178  29.193  1.00  0.00     0.016 A 
ATOM     39  C   UNL A   1      40.022  34.124  31.401  1.00  0.00     0.016 A 
ATOM     40  C   UNL A   1      40.176  34.756  28.668  1.00  0.00     0.010 A 
ATOM     41  C   UNL A   1      41.194  34.677  30.868  1.00  0.00     0.010 A 
ATOM     42  C   UNL A   1      41.289  34.962  29.492  1.00  0.00    -0.014 A 
BRANCH  42  43
ATOM     43  C   UNL A   1      42.618  35.234  28.882  1.00  0.00     0.031 A 
ATOM     44  C   UNL A   1      43.551  34.067  28.692  1.00  0.00     0.074 A 
ATOM     45  C   UNL A   1      42.987  36.463  28.477  1.00  0.00     0.049 A 
ATOM     46  N   UNL A   1      44.785  34.044  28.260  1.00  0.00    -0.248 NA
ATOM     47  C   UNL A   1      43.013  32.743  29.047  1.00  0.00     0.031 C 
ATOM     48  C   UNL A   1      42.154  37.662  28.541  1.00  0.00     0.029 A 
ATOM     49  N   UNL A   1      44.169  36.904  27.932  1.00  0.00    -0.354 N 
ATOM     50  C   UNL A   1      45.172  32.708  28.295  1.00  0.00     0.074 A 
ATOM     51  C   UNL A   1      44.057  31.959  28.833  1.00  0.00     0.031 C 
ATOM     52  C   UNL A   1      42.856  38.706  28.061  1.00  0.00     0.029 A 
ATOM     53  C   UNL A   1      44.201  38.259  27.699  1.00  0.00     0.049 A 
ATOM     54  H   UNL A   1      44.923  36.305  27.728  1.00  0.00     0.167 HD
ATOM     55  C   UNL A   1      46.345  32.153  27.904  1.00  0.00     0.034 A 
ATOM     56  C   UNL A   1      45.209  39.049  27.268  1.00  0.00     0.034 A 
ATOM     57  C   UNL A   1      47.456  32.909  27.381  1.00  0.00     0.049 A 
ATOM     58  C   UNL A   1      46.549  38.422  26.944  1.00  0.00     0.074 A 
ATOM     59  C   UNL A   1      48.692  32.448  26.964  1.00  0.00     0.029 A 
ATOM     60  N   UNL A   1      47.470  34.288  27.212  1.00  0.00    -0.354 N 
ATOM     61  N   UNL A   1      46.910  37.160  26.994  1.00  0.00    -0.248 NA
ATOM     62  C   UNL A   1      47.615  39.329  26.497  1.00  0.00     0.031 C 
ATOM     63  C   UNL A   1      49.479  33.551  26.619  1.00  0.00     0.029 A 
ATOM     64  C   UNL A   1      48.704  34.695  26.726  1.00  0.00     0.049 A 
ATOM     65  H   UNL A   1      46.715  34.888  27.408  1.00  0.00     0.167 HD
ATOM     66  C   UNL A   1      48.229  37.121  26.539  1.00  0.00     0.074 A 
ATOM     67  C   UNL A   1      48.592  38.483  26.211  1.00  0.00     0.031 C 
ATOM     68  C   UNL A   1      49.060  36.055  26.398  1.00  0.00     0.034 A 
BRANCH  55  69
ATOM     69  C   UNL A   1      46.499  30.661  28.082  1.00  0.00     0.023 A 
ATOM     70  C   UNL A   1      46.257  29.759  27.031  1.00  0.00     0.031 A 
ATOM     71  C   UNL A   1      46.868  30.131  29.332  1.00  0.00     0.131 A 
ATOM     72  C   UNL A   1      46.319  28.377  27.266  1.00  0.00     0.055 A 
ATOM     73  C   UNL A   1      47.011  28.758  29.536  1.00  0.00     0.041 A 
ATOM     74  F   UNL A   1      47.084  30.941  30.381  1.00  0.00    -0.206 F 
ATOM     75  C   UNL A   1      46.723  27.871  28.503  1.00  0.00     0.022 A 
BRANCH  72  76
ATOM     76  S   UNL A   1      45.725  27.249  25.976  1.00  0.00     0.124 S 
ATOM     77  O   UNL A   1      46.880  27.187  25.083  1.00  0.00    -0.237 OA
ATOM     78  O   UNL A   1      45.432  26.036  26.729  1.00  0.00    -0.237 OA
ATOM     79  O   UNL A   1      44.560  27.940  25.427  1.00  0.00    -0.744 OA
ENDBRANCH  72  76
ENDBRANCH  55  69
BRANCH  56  80
ATOM     80  C   UNL A   1      45.029  40.528  27.152  1.00  0.00     0.023 A 
ATOM     81  C   UNL A   1      44.752  41.133  25.914  1.00  0.00     0.031 A 
ATOM     82  C   UNL A   1      45.223  41.369  28.263  1.00  0.00     0.131 A 
ATOM     83  C   UNL A   1      44.737  42.532  25.805  1.00  0.00     0.055 A 
ATOM     84  C   UNL A   1      45.144  42.759  28.161  1.00  0.00     0.041 A 
ATOM     85  F   UNL A   1      45.502  40.850  29.469  1.00  0.00    -0.206 F 
ATOM     86  C   UNL A   1      44.916  43.350  26.922  1.00  0.00     0.022 A 
BRANCH  83  87
ATOM     87  S   UNL A   1      44.597  43.274  24.153  1.00  0.00     0.124 S 
ATOM     88  O   UNL A   1      44.445  42.094  23.310  1.00  0.00    -0.237 OA
ATOM     89  O   UNL A   1      43.415  44.117  24.299  1.00  0.00    -0.237 OA
ATOM     90  O   UNL A   1      45.858  43.996  23.997  1.00  0.00    -0.744 OA
ENDBRANCH  83  87
ENDBRANCH  56  80
BRANCH  68  91
ATOM     91  C   UNL A   1      50.424  36.312  25.794  1.00  0.00     0.023 A 
ATOM     92  C   UNL A   1      51.587  36.398  26.579  1.00  0.00     0.031 A 
ATOM     93  C   UNL A   1      50.554  36.488  24.404  1.00  0.00     0.131 A 
ATOM     94  C   UNL A   1      52.815  36.718  25.978  1.00  0.00     0.055 A 
ATOM     95  C   UNL A   1      51.790  36.733  23.803  1.00  0.00     0.041 A 
ATOM     96  F   UNL A   1      49.478  36.420  23.602  1.00  0.00    -0.206 F 
ATOM     97  C   UNL A   1      52.927  36.867  24.593  1.00  0.00     0.022 A 
BRANCH  94  98
ATOM     98  S   UNL A   1      54.245  37.055  27.042  1.00  0.00     0.124 S 
ATOM     99  O   UNL A   1      54.819  35.724  27.210  1.00  0.00    -0.237 OA
ATOM    100  O   UNL A   1      55.024  37.987  26.233  1.00  0.00    -0.237 OA
ATOM    101  O   UNL A   1      53.649  37.631  28.246  1.00  0.00    -0.744 OA
ENDBRANCH  94  98
ENDBRANCH  68  91
ENDBRANCH  42  43
ENDBRANCH  35  37
ENDBRANCH  34  35
ENDBRANCH  33  34
ENDBRANCH  32  33
ENDBRANCH  31  32
ENDBRANCH  30  31
ENDBRANCH   1  30
TORSDOF 26
ENDMDL
