MODEL 1
REMARK VINA RESULT:     -10.2      0.000      0.000
REMARK SMILES Cc1ccc(O[C@H](C)C(=O)NNC(=O)[C@@H]2[C@@H](C(=O)OCCOCCOCCOC(=O)c3ccc(-c4c5nc(c(-c6cc(S(=O)(=O)[O-])ccc6F)c6ccc([nH]6)c(-c6cc(S(=O)(=O)[O-])ccc6F)c6nc(c(-c7cc(S(=O)(=O)[O-])ccc7F)c7ccc4[nH]7)C=C6)C=C5)cc3)[C@@H]3C=C[C@H]2C3)cc1C
REMARK SMILES IDX 23 1 22 2 21 3 20 4 19 5 17 6 18 7 16 8 15 9 97 10 94 11
REMARK SMILES IDX 96 12 98 13 95 14 13 15 12 16 14 18 11 19 9 20 10 21 7 23
REMARK SMILES IDX 8 24 6 25 5 26 1 27 2 28 3 29 100 30 4 31 99 32 101 33 24 34
REMARK SMILES IDX 25 35 26 36 27 37 28 38 29 39 30 40 31 41 32 42 93 43 33 44
REMARK SMILES IDX 92 45 34 46 35 47 36 48 86 49 37 50 91 51 85 52 87 53 38 54
REMARK SMILES IDX 90 55 84 56 83 57 39 59 71 60 51 61 70 62 52 63 55 64 69 65
REMARK SMILES IDX 88 66 53 67 54 68 68 70 89 71 56 72 40 73 41 74 49 75 42 76
REMARK SMILES IDX 48 77 50 78 47 79 43 80 44 81 45 82 46 83 72 84 73 85 81 86
REMARK SMILES IDX 74 87 80 88 82 89 79 90 75 91 76 92 77 93 78 94 57 95 58 96
REMARK SMILES IDX 66 97 59 98 65 99 67 100 64 101 60 102 61 103 62 104 63 105
REMARK H PARENT 12 17 11 22 87 58 55 69
REMARK Flexibility Score: inf
ROOT
ATOM      1  C   UNL A   1      40.685  21.281  26.149  1.00  0.00     0.188 C 
ENDROOT
BRANCH   1   2
ATOM      2  O   UNL A   1      39.377  21.492  26.662  1.00  0.00    -0.376 OA
BRANCH   2   3
ATOM      3  C   UNL A   1      38.410  21.963  25.725  1.00  0.00     0.202 C 
BRANCH   3   4
ATOM      4  C   UNL A   1      37.337  20.962  25.257  1.00  0.00     0.261 C 
BRANCH   4   5
ATOM      5  O   UNL A   1      36.217  21.523  24.524  1.00  0.00    -0.463 OA
BRANCH   5   6
ATOM      6  C   UNL A   1      35.166  21.928  25.290  1.00  0.00     0.310 C 
ATOM      7  O   UNL A   1      35.072  21.696  26.493  1.00  0.00    -0.252 OA
BRANCH   6   8
ATOM      8  C   UNL A   1      34.065  22.674  24.555  1.00  0.00     0.119 C 
ATOM      9  C   UNL A   1      33.229  23.796  25.286  1.00  0.00     0.102 C 
ATOM     10  C   UNL A   1      31.773  23.298  25.068  1.00  0.00     0.025 C 
ATOM     11  C   UNL A   1      32.962  21.663  24.127  1.00  0.00     0.027 C 
ATOM     12  C   UNL A   1      31.430  23.289  23.597  1.00  0.00    -0.027 C 
ATOM     13  C   UNL A   1      31.940  21.791  25.256  1.00  0.00     0.017 C 
ATOM     14  C   UNL A   1      32.151  22.311  23.030  1.00  0.00    -0.027 C 
BRANCH   9  15
ATOM     15  C   UNL A   1      33.640  25.164  24.728  1.00  0.00     0.242 C 
ATOM     16  N   UNL A   1      33.428  26.351  25.377  1.00  0.00    -0.267 N 
ATOM     17  H   UNL A   1      33.842  27.149  24.978  1.00  0.00     0.191 HD
ATOM     18  O   UNL A   1      34.283  25.226  23.672  1.00  0.00    -0.273 OA
BRANCH  16  19
ATOM     19  N   UNL A   1      32.696  26.546  26.534  1.00  0.00    -0.264 N 
ATOM     20  C   UNL A   1      32.153  27.752  26.916  1.00  0.00     0.279 C 
ATOM     21  O   UNL A   1      31.324  27.768  27.829  1.00  0.00    -0.269 OA
ATOM     22  H   UNL A   1      32.553  25.772  27.123  1.00  0.00     0.191 HD
BRANCH  20  23
ATOM     23  C   UNL A   1      32.685  29.064  26.310  1.00  0.00     0.260 C 
ATOM     24  C   UNL A   1      31.882  29.343  25.032  1.00  0.00     0.064 C 
BRANCH  23  25
ATOM     25  O   UNL A   1      32.616  30.149  27.234  1.00  0.00    -0.481 OA
BRANCH  25  26
ATOM     26  C   UNL A   1      33.778  30.797  27.568  1.00  0.00     0.120 A 
ATOM     27  C   UNL A   1      37.569  32.438  28.876  1.00  0.00     0.044 C 
ATOM     28  C   UNL A   1      36.280  31.842  28.381  1.00  0.00    -0.048 A 
ATOM     29  C   UNL A   1      35.131  32.645  28.355  1.00  0.00     0.007 A 
ATOM     30  C   UNL A   1      36.184  30.508  27.946  1.00  0.00    -0.045 A 
ATOM     31  C   UNL A   1      33.899  32.133  27.939  1.00  0.00     0.047 A 
ATOM     32  C   UNL A   1      34.928  30.003  27.548  1.00  0.00     0.050 A 
ATOM     33  C   UNL A   1      37.368  29.581  27.876  1.00  0.00     0.045 C 
ENDBRANCH  25  26
ENDBRANCH  23  25
ENDBRANCH  20  23
ENDBRANCH  16  19
ENDBRANCH   9  15
ENDBRANCH   6   8
ENDBRANCH   5   6
ENDBRANCH   4   5
ENDBRANCH   3   4
ENDBRANCH   2   3
ENDBRANCH   1   2
BRANCH   1  34
ATOM     34  C   UNL A   1      41.830  21.496  27.140  1.00  0.00     0.188 C 
BRANCH  34  35
ATOM     35  O   UNL A   1      43.127  21.553  26.562  1.00  0.00    -0.376 OA
BRANCH  35  36
ATOM     36  C   UNL A   1      43.684  22.851  26.344  1.00  0.00     0.202 C 
BRANCH  36  37
ATOM     37  C   UNL A   1      43.367  23.547  25.004  1.00  0.00     0.261 C 
BRANCH  37  38
ATOM     38  O   UNL A   1      43.134  24.970  25.063  1.00  0.00    -0.460 OA
BRANCH  38  39
ATOM     39  C   UNL A   1      42.033  25.413  25.715  1.00  0.00     0.338 C 
ATOM     40  O   UNL A   1      41.047  24.752  25.996  1.00  0.00    -0.246 OA
BRANCH  39  41
ATOM     41  C   UNL A   1      42.336  26.751  26.296  1.00  0.00     0.060 A 
ATOM     42  C   UNL A   1      43.124  26.804  27.456  1.00  0.00     0.016 A 
ATOM     43  C   UNL A   1      41.923  27.941  25.686  1.00  0.00     0.016 A 
ATOM     44  C   UNL A   1      43.463  28.033  28.030  1.00  0.00     0.010 A 
ATOM     45  C   UNL A   1      42.250  29.172  26.271  1.00  0.00     0.010 A 
ATOM     46  C   UNL A   1      42.992  29.226  27.464  1.00  0.00    -0.014 A 
BRANCH  46  47
ATOM     47  C   UNL A   1      43.066  30.495  28.239  1.00  0.00     0.031 A 
ATOM     48  C   UNL A   1      44.205  31.435  27.935  1.00  0.00     0.074 A 
ATOM     49  C   UNL A   1      42.146  30.838  29.161  1.00  0.00     0.049 A 
ATOM     50  N   UNL A   1      44.554  32.546  28.529  1.00  0.00    -0.248 NA
ATOM     51  C   UNL A   1      45.066  31.059  26.804  1.00  0.00     0.031 C 
ATOM     52  C   UNL A   1      40.953  30.065  29.495  1.00  0.00     0.029 A 
ATOM     53  N   UNL A   1      42.080  31.932  29.990  1.00  0.00    -0.354 N 
ATOM     54  C   UNL A   1      45.683  32.996  27.852  1.00  0.00     0.074 A 
ATOM     55  C   UNL A   1      45.977  32.017  26.827  1.00  0.00     0.031 C 
ATOM     56  C   UNL A   1      40.277  30.705  30.467  1.00  0.00     0.029 A 
ATOM     57  C   UNL A   1      41.014  31.907  30.862  1.00  0.00     0.049 A 
ATOM     58  H   UNL A   1      42.734  32.668  29.963  1.00  0.00     0.167 HD
ATOM     59  C   UNL A   1      46.407  34.123  28.060  1.00  0.00     0.034 A 
ATOM     60  C   UNL A   1      40.692  32.735  31.879  1.00  0.00     0.034 A 
ATOM     61  C   UNL A   1      46.114  35.087  29.092  1.00  0.00     0.049 A 
ATOM     62  C   UNL A   1      41.582  33.925  32.173  1.00  0.00     0.074 A 
ATOM     63  C   UNL A   1      46.790  36.255  29.397  1.00  0.00     0.029 A 
ATOM     64  N   UNL A   1      45.061  34.992  29.994  1.00  0.00    -0.354 N 
ATOM     65  N   UNL A   1      42.665  34.325  31.547  1.00  0.00    -0.248 NA
ATOM     66  C   UNL A   1      41.205  34.775  33.313  1.00  0.00     0.031 C 
ATOM     67  C   UNL A   1      46.198  36.823  30.528  1.00  0.00     0.029 A 
ATOM     68  C   UNL A   1      45.093  36.061  30.876  1.00  0.00     0.049 A 
ATOM     69  H   UNL A   1      44.391  34.271  30.006  1.00  0.00     0.167 HD
ATOM     70  C   UNL A   1      43.071  35.493  32.193  1.00  0.00     0.074 A 
ATOM     71  C   UNL A   1      42.116  35.735  33.252  1.00  0.00     0.031 C 
ATOM     72  C   UNL A   1      44.133  36.298  31.928  1.00  0.00     0.034 A 
BRANCH  59  73
ATOM     73  C   UNL A   1      47.627  34.328  27.195  1.00  0.00     0.023 A 
ATOM     74  C   UNL A   1      48.905  33.903  27.598  1.00  0.00     0.031 A 
ATOM     75  C   UNL A   1      47.515  35.006  25.967  1.00  0.00     0.131 A 
ATOM     76  C   UNL A   1      50.027  34.227  26.820  1.00  0.00     0.055 A 
ATOM     77  C   UNL A   1      48.624  35.246  25.156  1.00  0.00     0.041 A 
ATOM     78  F   UNL A   1      46.325  35.461  25.544  1.00  0.00    -0.206 F 
ATOM     79  C   UNL A   1      49.892  34.871  25.588  1.00  0.00     0.022 A 
BRANCH  76  80
ATOM     80  S   UNL A   1      51.677  33.940  27.517  1.00  0.00     0.124 S 
ATOM     81  O   UNL A   1      51.673  34.849  28.662  1.00  0.00    -0.237 OA
ATOM     82  O   UNL A   1      51.644  32.517  27.831  1.00  0.00    -0.237 OA
ATOM     83  O   UNL A   1      52.578  34.322  26.432  1.00  0.00    -0.744 OA
ENDBRANCH  76  80
ENDBRANCH  59  73
BRANCH  60  84
ATOM     84  C   UNL A   1      39.512  32.450  32.752  1.00  0.00     0.023 A 
ATOM     85  C   UNL A   1      38.265  33.053  32.516  1.00  0.00     0.031 A 
ATOM     86  C   UNL A   1      39.640  31.633  33.890  1.00  0.00     0.131 A 
ATOM     87  C   UNL A   1      37.213  32.870  33.430  1.00  0.00     0.055 A 
ATOM     88  C   UNL A   1      38.573  31.404  34.762  1.00  0.00     0.041 A 
ATOM     89  F   UNL A   1      40.811  31.042  34.174  1.00  0.00    -0.206 F 
ATOM     90  C   UNL A   1      37.354  32.037  34.541  1.00  0.00     0.022 A 
BRANCH  87  91
ATOM     91  S   UNL A   1      35.685  33.823  33.203  1.00  0.00     0.124 S 
ATOM     92  O   UNL A   1      34.848  33.303  34.278  1.00  0.00    -0.237 OA
ATOM     93  O   UNL A   1      36.156  35.195  33.361  1.00  0.00    -0.237 OA
ATOM     94  O   UNL A   1      35.259  33.465  31.851  1.00  0.00    -0.744 OA
ENDBRANCH  87  91
ENDBRANCH  60  84
BRANCH  72  95
ATOM     95  C   UNL A   1      44.281  37.557  32.752  1.00  0.00     0.023 A 
ATOM     96  C   UNL A   1      43.517  38.711  32.502  1.00  0.00     0.031 A 
ATOM     97  C   UNL A   1      45.197  37.592  33.820  1.00  0.00     0.131 A 
ATOM     98  C   UNL A   1      43.717  39.864  33.280  1.00  0.00     0.055 A 
ATOM     99  C   UNL A   1      45.348  38.720  34.627  1.00  0.00     0.041 A 
ATOM    100  F   UNL A   1      45.955  36.521  34.105  1.00  0.00    -0.206 F 
ATOM    101  C   UNL A   1      44.613  39.868  34.352  1.00  0.00     0.022 A 
BRANCH  98 102
ATOM    102  S   UNL A   1      42.848  41.389  32.822  1.00  0.00     0.124 S 
ATOM    103  O   UNL A   1      43.953  42.319  32.617  1.00  0.00    -0.237 OA
ATOM    104  O   UNL A   1      42.120  40.987  31.623  1.00  0.00    -0.237 OA
ATOM    105  O   UNL A   1      42.011  41.670  33.989  1.00  0.00    -0.744 OA
ENDBRANCH  98 102
ENDBRANCH  72  95
ENDBRANCH  46  47
ENDBRANCH  39  41
ENDBRANCH  38  39
ENDBRANCH  37  38
ENDBRANCH  36  37
ENDBRANCH  35  36
ENDBRANCH  34  35
ENDBRANCH   1  34
TORSDOF 25
ENDMDL
MODEL 2
REMARK VINA RESULT:      -9.1      7.813     14.541
REMARK SMILES Cc1ccc(O[C@H](C)C(=O)NNC(=O)[C@@H]2[C@@H](C(=O)OCCOCCOCCOC(=O)c3ccc(-c4c5nc(c(-c6cc(S(=O)(=O)[O-])ccc6F)c6ccc([nH]6)c(-c6cc(S(=O)(=O)[O-])ccc6F)c6nc(c(-c7cc(S(=O)(=O)[O-])ccc7F)c7ccc4[nH]7)C=C6)C=C5)cc3)[C@@H]3C=C[C@H]2C3)cc1C
REMARK SMILES IDX 23 1 22 2 21 3 20 4 19 5 17 6 18 7 16 8 15 9 97 10 94 11
REMARK SMILES IDX 96 12 98 13 95 14 13 15 12 16 14 18 11 19 9 20 10 21 7 23
REMARK SMILES IDX 8 24 6 25 5 26 1 27 2 28 3 29 100 30 4 31 99 32 101 33 24 34
REMARK SMILES IDX 25 35 26 36 27 37 28 38 29 39 30 40 31 41 32 42 93 43 33 44
REMARK SMILES IDX 92 45 34 46 35 47 36 48 86 49 37 50 91 51 85 52 87 53 38 54
REMARK SMILES IDX 90 55 84 56 83 57 39 59 71 60 51 61 70 62 52 63 55 64 69 65
REMARK SMILES IDX 88 66 53 67 54 68 68 70 89 71 56 72 40 73 41 74 49 75 42 76
REMARK SMILES IDX 48 77 50 78 47 79 43 80 44 81 45 82 46 83 72 84 73 85 81 86
REMARK SMILES IDX 74 87 80 88 82 89 79 90 75 91 76 92 77 93 78 94 57 95 58 96
REMARK SMILES IDX 66 97 59 98 65 99 67 100 64 101 60 102 61 103 62 104 63 105
REMARK H PARENT 12 17 11 22 87 58 55 69
REMARK Flexibility Score: inf
ROOT
ATOM      1  C   UNL A   1      52.992  27.177  39.816  1.00  0.00     0.188 C 
ENDROOT
BRANCH   1   2
ATOM      2  O   UNL A   1      52.836  25.765  39.827  1.00  0.00    -0.376 OA
BRANCH   2   3
ATOM      3  C   UNL A   1      51.767  25.252  39.036  1.00  0.00     0.202 C 
BRANCH   3   4
ATOM      4  C   UNL A   1      51.948  23.845  38.436  1.00  0.00     0.261 C 
BRANCH   4   5
ATOM      5  O   UNL A   1      51.626  23.704  37.028  1.00  0.00    -0.463 OA
BRANCH   5   6
ATOM      6  C   UNL A   1      51.074  22.509  36.675  1.00  0.00     0.310 C 
ATOM      7  O   UNL A   1      50.594  21.717  37.482  1.00  0.00    -0.252 OA
BRANCH   6   8
ATOM      8  C   UNL A   1      51.114  22.178  35.193  1.00  0.00     0.119 C 
ATOM      9  C   UNL A   1      51.376  20.699  34.708  1.00  0.00     0.102 C 
ATOM     10  C   UNL A   1      52.592  20.887  33.760  1.00  0.00     0.025 C 
ATOM     11  C   UNL A   1      52.285  22.958  34.527  1.00  0.00     0.027 C 
ATOM     12  C   UNL A   1      52.215  21.748  32.577  1.00  0.00    -0.027 C 
ATOM     13  C   UNL A   1      53.411  21.925  34.525  1.00  0.00     0.017 C 
ATOM     14  C   UNL A   1      52.023  22.992  33.040  1.00  0.00    -0.027 C 
BRANCH   9  15
ATOM     15  C   UNL A   1      50.071  20.125  34.140  1.00  0.00     0.242 C 
ATOM     16  N   UNL A   1      49.008  19.734  34.910  1.00  0.00    -0.267 N 
ATOM     17  H   UNL A   1      48.182  19.496  34.431  1.00  0.00     0.191 HD
ATOM     18  O   UNL A   1      49.903  20.084  32.915  1.00  0.00    -0.273 OA
BRANCH  16  19
ATOM     19  N   UNL A   1      48.971  19.639  36.289  1.00  0.00    -0.264 N 
ATOM     20  C   UNL A   1      47.815  19.583  37.034  1.00  0.00     0.279 C 
ATOM     21  O   UNL A   1      47.888  19.260  38.222  1.00  0.00    -0.269 OA
ATOM     22  H   UNL A   1      49.828  19.610  36.771  1.00  0.00     0.191 HD
BRANCH  20  23
ATOM     23  C   UNL A   1      46.482  20.059  36.427  1.00  0.00     0.260 C 
ATOM     24  C   UNL A   1      45.411  19.020  36.789  1.00  0.00     0.064 C 
BRANCH  23  25
ATOM     25  O   UNL A   1      46.128  21.369  36.865  1.00  0.00    -0.481 OA
BRANCH  25  26
ATOM     26  C   UNL A   1      46.348  22.424  36.017  1.00  0.00     0.120 A 
ATOM     27  C   UNL A   1      46.904  25.453  32.968  1.00  0.00     0.044 C 
ATOM     28  C   UNL A   1      46.657  24.414  34.027  1.00  0.00    -0.048 A 
ATOM     29  C   UNL A   1      47.577  24.288  35.078  1.00  0.00     0.007 A 
ATOM     30  C   UNL A   1      45.538  23.562  34.000  1.00  0.00    -0.045 A 
ATOM     31  C   UNL A   1      47.416  23.315  36.068  1.00  0.00     0.047 A 
ATOM     32  C   UNL A   1      45.403  22.573  34.998  1.00  0.00     0.050 A 
ATOM     33  C   UNL A   1      44.461  23.656  32.953  1.00  0.00     0.045 C 
ENDBRANCH  25  26
ENDBRANCH  23  25
ENDBRANCH  20  23
ENDBRANCH  16  19
ENDBRANCH   9  15
ENDBRANCH   6   8
ENDBRANCH   5   6
ENDBRANCH   4   5
ENDBRANCH   3   4
ENDBRANCH   2   3
ENDBRANCH   1   2
BRANCH   1  34
ATOM     34  C   UNL A   1      52.281  27.916  38.680  1.00  0.00     0.188 C 
BRANCH  34  35
ATOM     35  O   UNL A   1      51.118  28.636  39.063  1.00  0.00    -0.376 OA
BRANCH  35  36
ATOM     36  C   UNL A   1      50.101  28.800  38.072  1.00  0.00     0.202 C 
BRANCH  36  37
ATOM     37  C   UNL A   1      49.145  27.614  37.827  1.00  0.00     0.261 C 
BRANCH  37  38
ATOM     38  O   UNL A   1      47.749  27.940  37.669  1.00  0.00    -0.460 OA
BRANCH  38  39
ATOM     39  C   UNL A   1      46.850  26.926  37.662  1.00  0.00     0.338 C 
ATOM     40  O   UNL A   1      46.704  26.088  38.536  1.00  0.00    -0.246 OA
BRANCH  39  41
ATOM     41  C   UNL A   1      45.874  27.169  36.563  1.00  0.00     0.060 A 
ATOM     42  C   UNL A   1      46.143  28.209  35.660  1.00  0.00     0.016 A 
ATOM     43  C   UNL A   1      44.751  26.358  36.368  1.00  0.00     0.016 A 
ATOM     44  C   UNL A   1      45.277  28.466  34.593  1.00  0.00     0.010 A 
ATOM     45  C   UNL A   1      43.875  26.626  35.308  1.00  0.00     0.010 A 
ATOM     46  C   UNL A   1      44.113  27.702  34.434  1.00  0.00    -0.014 A 
BRANCH  46  47
ATOM     47  C   UNL A   1      43.036  28.171  33.520  1.00  0.00     0.031 A 
ATOM     48  C   UNL A   1      42.043  29.168  34.062  1.00  0.00     0.074 A 
ATOM     49  C   UNL A   1      42.942  27.765  32.239  1.00  0.00     0.049 A 
ATOM     50  N   UNL A   1      40.960  29.653  33.512  1.00  0.00    -0.248 NA
ATOM     51  C   UNL A   1      42.315  29.679  35.413  1.00  0.00     0.031 C 
ATOM     52  C   UNL A   1      43.879  26.872  31.564  1.00  0.00     0.029 A 
ATOM     53  N   UNL A   1      42.003  28.055  31.279  1.00  0.00    -0.354 N 
ATOM     54  C   UNL A   1      40.415  30.519  34.456  1.00  0.00     0.074 A 
ATOM     55  C   UNL A   1      41.270  30.461  35.623  1.00  0.00     0.031 C 
ATOM     56  C   UNL A   1      43.461  26.678  30.299  1.00  0.00     0.029 A 
ATOM     57  C   UNL A   1      42.200  27.391  30.089  1.00  0.00     0.049 A 
ATOM     58  H   UNL A   1      41.257  28.680  31.427  1.00  0.00     0.167 HD
ATOM     59  C   UNL A   1      39.308  31.295  34.359  1.00  0.00     0.034 A 
ATOM     60  C   UNL A   1      41.436  27.337  28.976  1.00  0.00     0.034 A 
ATOM     61  C   UNL A   1      38.456  31.337  33.196  1.00  0.00     0.049 A 
ATOM     62  C   UNL A   1      40.139  28.118  28.931  1.00  0.00     0.074 A 
ATOM     63  C   UNL A   1      37.304  32.078  32.999  1.00  0.00     0.029 A 
ATOM     64  N   UNL A   1      38.657  30.603  32.034  1.00  0.00    -0.354 N 
ATOM     65  N   UNL A   1      39.616  28.909  29.841  1.00  0.00    -0.248 NA
ATOM     66  C   UNL A   1      39.328  27.998  27.710  1.00  0.00     0.031 C 
ATOM     67  C   UNL A   1      36.767  31.733  31.755  1.00  0.00     0.029 A 
ATOM     68  C   UNL A   1      37.632  30.846  31.133  1.00  0.00     0.049 A 
ATOM     69  H   UNL A   1      39.416  29.996  31.875  1.00  0.00     0.167 HD
ATOM     70  C   UNL A   1      38.439  29.409  29.282  1.00  0.00     0.074 A 
ATOM     71  C   UNL A   1      38.332  28.836  27.958  1.00  0.00     0.031 C 
ATOM     72  C   UNL A   1      37.534  30.272  29.812  1.00  0.00     0.034 A 
BRANCH  59  73
ATOM     73  C   UNL A   1      38.924  32.103  35.574  1.00  0.00     0.023 A 
ATOM     74  C   UNL A   1      39.335  33.438  35.741  1.00  0.00     0.031 A 
ATOM     75  C   UNL A   1      38.173  31.512  36.607  1.00  0.00     0.131 A 
ATOM     76  C   UNL A   1      39.062  34.108  36.943  1.00  0.00     0.055 A 
ATOM     77  C   UNL A   1      37.828  32.214  37.762  1.00  0.00     0.041 A 
ATOM     78  F   UNL A   1      37.777  30.232  36.517  1.00  0.00    -0.206 F 
ATOM     79  C   UNL A   1      38.287  33.515  37.943  1.00  0.00     0.022 A 
BRANCH  76  80
ATOM     80  S   UNL A   1      39.870  35.703  37.248  1.00  0.00     0.124 S 
ATOM     81  O   UNL A   1      41.255  35.292  37.474  1.00  0.00    -0.237 OA
ATOM     82  O   UNL A   1      39.612  36.429  36.011  1.00  0.00    -0.237 OA
ATOM     83  O   UNL A   1      39.180  36.216  38.430  1.00  0.00    -0.744 OA
ENDBRANCH  76  80
ENDBRANCH  59  73
BRANCH  60  84
ATOM     84  C   UNL A   1      41.824  26.467  27.824  1.00  0.00     0.023 A 
ATOM     85  C   UNL A   1      41.513  25.097  27.804  1.00  0.00     0.031 A 
ATOM     86  C   UNL A   1      42.590  26.980  26.761  1.00  0.00     0.131 A 
ATOM     87  C   UNL A   1      42.008  24.279  26.772  1.00  0.00     0.055 A 
ATOM     88  C   UNL A   1      43.027  26.176  25.706  1.00  0.00     0.041 A 
ATOM     89  F   UNL A   1      42.930  28.279  26.733  1.00  0.00    -0.206 F 
ATOM     90  C   UNL A   1      42.748  24.814  25.716  1.00  0.00     0.022 A 
BRANCH  87  91
ATOM     91  S   UNL A   1      41.760  22.485  26.887  1.00  0.00     0.124 S 
ATOM     92  O   UNL A   1      40.373  22.406  27.332  1.00  0.00    -0.237 OA
ATOM     93  O   UNL A   1      42.021  22.054  25.517  1.00  0.00    -0.237 OA
ATOM     94  O   UNL A   1      42.756  22.066  27.870  1.00  0.00    -0.744 OA
ENDBRANCH  87  91
ENDBRANCH  60  84
BRANCH  72  95
ATOM     95  C   UNL A   1      36.383  30.707  28.935  1.00  0.00     0.023 A 
ATOM     96  C   UNL A   1      35.415  29.803  28.462  1.00  0.00     0.031 A 
ATOM     97  C   UNL A   1      36.246  32.063  28.580  1.00  0.00     0.131 A 
ATOM     98  C   UNL A   1      34.383  30.257  27.624  1.00  0.00     0.055 A 
ATOM     99  C   UNL A   1      35.184  32.518  27.798  1.00  0.00     0.041 A 
ATOM    100  F   UNL A   1      37.139  32.972  29.001  1.00  0.00    -0.206 F 
ATOM    101  C   UNL A   1      34.250  31.611  27.307  1.00  0.00     0.022 A 
BRANCH  98 102
ATOM    102  S   UNL A   1      33.256  29.041  26.888  1.00  0.00     0.124 S 
ATOM    103  O   UNL A   1      32.541  29.847  25.903  1.00  0.00    -0.237 OA
ATOM    104  O   UNL A   1      34.177  28.045  26.350  1.00  0.00    -0.237 OA
ATOM    105  O   UNL A   1      32.449  28.590  28.021  1.00  0.00    -0.744 OA
ENDBRANCH  98 102
ENDBRANCH  72  95
ENDBRANCH  46  47
ENDBRANCH  39  41
ENDBRANCH  38  39
ENDBRANCH  37  38
ENDBRANCH  36  37
ENDBRANCH  35  36
ENDBRANCH  34  35
ENDBRANCH   1  34
TORSDOF 25
ENDMDL
MODEL 3
REMARK VINA RESULT:      -9.0      1.812      2.090
REMARK SMILES Cc1ccc(O[C@H](C)C(=O)NNC(=O)[C@@H]2[C@@H](C(=O)OCCOCCOCCOC(=O)c3ccc(-c4c5nc(c(-c6cc(S(=O)(=O)[O-])ccc6F)c6ccc([nH]6)c(-c6cc(S(=O)(=O)[O-])ccc6F)c6nc(c(-c7cc(S(=O)(=O)[O-])ccc7F)c7ccc4[nH]7)C=C6)C=C5)cc3)[C@@H]3C=C[C@H]2C3)cc1C
REMARK SMILES IDX 23 1 22 2 21 3 20 4 19 5 17 6 18 7 16 8 15 9 97 10 94 11
REMARK SMILES IDX 96 12 98 13 95 14 13 15 12 16 14 18 11 19 9 20 10 21 7 23
REMARK SMILES IDX 8 24 6 25 5 26 1 27 2 28 3 29 100 30 4 31 99 32 101 33 24 34
REMARK SMILES IDX 25 35 26 36 27 37 28 38 29 39 30 40 31 41 32 42 93 43 33 44
REMARK SMILES IDX 92 45 34 46 35 47 36 48 86 49 37 50 91 51 85 52 87 53 38 54
REMARK SMILES IDX 90 55 84 56 83 57 39 59 71 60 51 61 70 62 52 63 55 64 69 65
REMARK SMILES IDX 88 66 53 67 54 68 68 70 89 71 56 72 40 73 41 74 49 75 42 76
REMARK SMILES IDX 48 77 50 78 47 79 43 80 44 81 45 82 46 83 72 84 73 85 81 86
REMARK SMILES IDX 74 87 80 88 82 89 79 90 75 91 76 92 77 93 78 94 57 95 58 96
REMARK SMILES IDX 66 97 59 98 65 99 67 100 64 101 60 102 61 103 62 104 63 105
REMARK H PARENT 12 17 11 22 87 58 55 69
REMARK Flexibility Score: inf
ROOT
ATOM      1  C   UNL A   1      40.787  21.504  26.180  1.00  0.00     0.188 C 
ENDROOT
BRANCH   1   2
ATOM      2  O   UNL A   1      39.456  21.067  26.418  1.00  0.00    -0.376 OA
BRANCH   2   3
ATOM      3  C   UNL A   1      38.428  21.855  25.822  1.00  0.00     0.202 C 
BRANCH   3   4
ATOM      4  C   UNL A   1      37.426  21.128  24.906  1.00  0.00     0.261 C 
BRANCH   4   5
ATOM      5  O   UNL A   1      36.349  21.939  24.367  1.00  0.00    -0.463 OA
BRANCH   5   6
ATOM      6  C   UNL A   1      35.095  21.562  24.742  1.00  0.00     0.310 C 
ATOM      7  O   UNL A   1      34.865  20.614  25.488  1.00  0.00    -0.252 OA
BRANCH   6   8
ATOM      8  C   UNL A   1      33.958  22.375  24.146  1.00  0.00     0.119 C 
ATOM      9  C   UNL A   1      33.230  23.484  25.001  1.00  0.00     0.102 C 
ATOM     10  C   UNL A   1      31.744  23.041  24.895  1.00  0.00     0.025 C 
ATOM     11  C   UNL A   1      32.787  21.419  23.775  1.00  0.00     0.027 C 
ATOM     12  C   UNL A   1      31.269  23.114  23.463  1.00  0.00    -0.027 C 
ATOM     13  C   UNL A   1      31.877  21.522  24.998  1.00  0.00     0.017 C 
ATOM     14  C   UNL A   1      31.902  22.143  22.788  1.00  0.00    -0.027 C 
BRANCH   9  15
ATOM     15  C   UNL A   1      33.635  24.865  24.470  1.00  0.00     0.242 C 
ATOM     16  N   UNL A   1      33.294  26.047  25.073  1.00  0.00    -0.267 N 
ATOM     17  H   UNL A   1      33.712  26.861  24.711  1.00  0.00     0.191 HD
ATOM     18  O   UNL A   1      34.389  24.948  23.492  1.00  0.00    -0.273 OA
BRANCH  16  19
ATOM     19  N   UNL A   1      32.428  26.218  26.138  1.00  0.00    -0.264 N 
ATOM     20  C   UNL A   1      31.962  27.437  26.573  1.00  0.00     0.279 C 
ATOM     21  O   UNL A   1      31.018  27.465  27.366  1.00  0.00    -0.269 OA
ATOM     22  H   UNL A   1      32.125  25.414  26.617  1.00  0.00     0.191 HD
BRANCH  20  23
ATOM     23  C   UNL A   1      32.706  28.729  26.187  1.00  0.00     0.260 C 
ATOM     24  C   UNL A   1      32.117  29.224  24.858  1.00  0.00     0.064 C 
BRANCH  23  25
ATOM     25  O   UNL A   1      32.628  29.721  27.210  1.00  0.00    -0.481 OA
BRANCH  25  26
ATOM     26  C   UNL A   1      33.759  30.431  27.520  1.00  0.00     0.120 A 
ATOM     27  C   UNL A   1      37.464  32.290  28.784  1.00  0.00     0.044 C 
ATOM     28  C   UNL A   1      36.207  31.616  28.307  1.00  0.00    -0.048 A 
ATOM     29  C   UNL A   1      35.033  32.376  28.197  1.00  0.00     0.007 A 
ATOM     30  C   UNL A   1      36.164  30.251  27.970  1.00  0.00    -0.045 A 
ATOM     31  C   UNL A   1      33.829  31.793  27.793  1.00  0.00     0.047 A 
ATOM     32  C   UNL A   1      34.935  29.677  27.584  1.00  0.00     0.050 A 
ATOM     33  C   UNL A   1      37.379  29.363  27.995  1.00  0.00     0.045 C 
ENDBRANCH  25  26
ENDBRANCH  23  25
ENDBRANCH  20  23
ENDBRANCH  16  19
ENDBRANCH   9  15
ENDBRANCH   6   8
ENDBRANCH   5   6
ENDBRANCH   4   5
ENDBRANCH   3   4
ENDBRANCH   2   3
ENDBRANCH   1   2
BRANCH   1  34
ATOM     34  C   UNL A   1      41.827  21.062  27.213  1.00  0.00     0.188 C 
BRANCH  34  35
ATOM     35  O   UNL A   1      43.040  21.801  27.203  1.00  0.00    -0.376 OA
BRANCH  35  36
ATOM     36  C   UNL A   1      42.940  23.210  26.990  1.00  0.00     0.202 C 
BRANCH  36  37
ATOM     37  C   UNL A   1      43.222  23.739  25.569  1.00  0.00     0.261 C 
BRANCH  37  38
ATOM     38  O   UNL A   1      42.966  25.142  25.346  1.00  0.00    -0.460 OA
BRANCH  38  39
ATOM     39  C   UNL A   1      41.854  25.686  25.894  1.00  0.00     0.338 C 
ATOM     40  O   UNL A   1      40.805  25.105  26.122  1.00  0.00    -0.246 OA
BRANCH  39  41
ATOM     41  C   UNL A   1      42.207  27.024  26.446  1.00  0.00     0.060 A 
ATOM     42  C   UNL A   1      43.129  27.080  27.502  1.00  0.00     0.016 A 
ATOM     43  C   UNL A   1      41.706  28.212  25.902  1.00  0.00     0.016 A 
ATOM     44  C   UNL A   1      43.519  28.310  28.042  1.00  0.00     0.010 A 
ATOM     45  C   UNL A   1      42.085  29.443  26.454  1.00  0.00     0.010 A 
ATOM     46  C   UNL A   1      42.966  29.499  27.549  1.00  0.00    -0.014 A 
BRANCH  46  47
ATOM     47  C   UNL A   1      43.116  30.763  28.321  1.00  0.00     0.031 A 
ATOM     48  C   UNL A   1      44.274  31.663  27.970  1.00  0.00     0.074 A 
ATOM     49  C   UNL A   1      42.248  31.136  29.280  1.00  0.00     0.049 A 
ATOM     50  N   UNL A   1      44.686  32.760  28.551  1.00  0.00    -0.248 NA
ATOM     51  C   UNL A   1      45.073  31.260  26.804  1.00  0.00     0.031 C 
ATOM     52  C   UNL A   1      41.043  30.404  29.663  1.00  0.00     0.029 A 
ATOM     53  N   UNL A   1      42.254  32.230  30.112  1.00  0.00    -0.354 N 
ATOM     54  C   UNL A   1      45.801  33.172  27.828  1.00  0.00     0.074 A 
ATOM     55  C   UNL A   1      46.017  32.186  26.790  1.00  0.00     0.031 C 
ATOM     56  C   UNL A   1      40.431  31.066  30.662  1.00  0.00     0.029 A 
ATOM     57  C   UNL A   1      41.225  32.240  31.027  1.00  0.00     0.049 A 
ATOM     58  H   UNL A   1      42.932  32.943  30.059  1.00  0.00     0.167 HD
ATOM     59  C   UNL A   1      46.572  34.273  28.006  1.00  0.00     0.034 A 
ATOM     60  C   UNL A   1      40.975  33.077  32.058  1.00  0.00     0.034 A 
ATOM     61  C   UNL A   1      46.355  35.244  29.049  1.00  0.00     0.049 A 
ATOM     62  C   UNL A   1      41.917  34.235  32.315  1.00  0.00     0.074 A 
ATOM     63  C   UNL A   1      47.084  36.388  29.327  1.00  0.00     0.029 A 
ATOM     64  N   UNL A   1      45.338  35.185  29.994  1.00  0.00    -0.354 N 
ATOM     65  N   UNL A   1      42.987  34.598  31.645  1.00  0.00    -0.248 NA
ATOM     66  C   UNL A   1      41.618  35.095  33.470  1.00  0.00     0.031 C 
ATOM     67  C   UNL A   1      46.559  36.974  30.482  1.00  0.00     0.029 A 
ATOM     68  C   UNL A   1      45.444  36.250  30.875  1.00  0.00     0.049 A 
ATOM     69  H   UNL A   1      44.645  34.487  30.033  1.00  0.00     0.167 HD
ATOM     70  C   UNL A   1      43.460  35.750  32.275  1.00  0.00     0.074 A 
ATOM     71  C   UNL A   1      42.558  36.023  33.372  1.00  0.00     0.031 C 
ATOM     72  C   UNL A   1      44.537  36.517  31.967  1.00  0.00     0.034 A 
BRANCH  59  73
ATOM     73  C   UNL A   1      47.761  34.438  27.091  1.00  0.00     0.023 A 
ATOM     74  C   UNL A   1      49.038  33.959  27.437  1.00  0.00     0.031 A 
ATOM     75  C   UNL A   1      47.624  35.128  25.873  1.00  0.00     0.131 A 
ATOM     76  C   UNL A   1      50.137  34.246  26.614  1.00  0.00     0.055 A 
ATOM     77  C   UNL A   1      48.706  35.332  25.017  1.00  0.00     0.041 A 
ATOM     78  F   UNL A   1      46.436  35.633  25.504  1.00  0.00    -0.206 F 
ATOM     79  C   UNL A   1      49.976  34.904  25.392  1.00  0.00     0.022 A 
BRANCH  76  80
ATOM     80  S   UNL A   1      51.802  33.890  27.239  1.00  0.00     0.124 S 
ATOM     81  O   UNL A   1      51.902  32.451  27.005  1.00  0.00    -0.237 OA
ATOM     82  O   UNL A   1      52.642  34.734  26.399  1.00  0.00    -0.237 OA
ATOM     83  O   UNL A   1      51.731  34.281  28.645  1.00  0.00    -0.744 OA
ENDBRANCH  76  80
ENDBRANCH  59  73
BRANCH  60  84
ATOM     84  C   UNL A   1      39.823  32.832  32.979  1.00  0.00     0.023 A 
ATOM     85  C   UNL A   1      40.000  32.199  34.220  1.00  0.00     0.031 A 
ATOM     86  C   UNL A   1      38.510  33.152  32.588  1.00  0.00     0.131 A 
ATOM     87  C   UNL A   1      38.881  31.862  35.002  1.00  0.00     0.055 A 
ATOM     88  C   UNL A   1      37.406  32.872  33.397  1.00  0.00     0.041 A 
ATOM     89  F   UNL A   1      38.278  33.745  31.406  1.00  0.00    -0.206 F 
ATOM     90  C   UNL A   1      37.588  32.210  34.606  1.00  0.00     0.022 A 
BRANCH  87  91
ATOM     91  S   UNL A   1      39.132  30.866  36.500  1.00  0.00     0.124 S 
ATOM     92  O   UNL A   1      39.882  29.730  35.977  1.00  0.00    -0.237 OA
ATOM     93  O   UNL A   1      39.872  31.787  37.356  1.00  0.00    -0.237 OA
ATOM     94  O   UNL A   1      37.771  30.566  36.941  1.00  0.00    -0.744 OA
ENDBRANCH  87  91
ENDBRANCH  60  84
BRANCH  72  95
ATOM     95  C   UNL A   1      44.763  37.769  32.784  1.00  0.00     0.023 A 
ATOM     96  C   UNL A   1      45.502  37.762  33.980  1.00  0.00     0.031 A 
ATOM     97  C   UNL A   1      44.238  38.998  32.341  1.00  0.00     0.131 A 
ATOM     98  C   UNL A   1      45.655  38.950  34.715  1.00  0.00     0.055 A 
ATOM     99  C   UNL A   1      44.444  40.186  33.044  1.00  0.00     0.041 A 
ATOM    100  F   UNL A   1      43.522  39.067  31.207  1.00  0.00    -0.206 F 
ATOM    101  C   UNL A   1      45.148  40.164  34.244  1.00  0.00     0.022 A 
BRANCH  98 102
ATOM    102  S   UNL A   1      46.459  38.875  36.339  1.00  0.00     0.124 S 
ATOM    103  O   UNL A   1      46.183  37.504  36.753  1.00  0.00    -0.237 OA
ATOM    104  O   UNL A   1      47.850  39.176  36.014  1.00  0.00    -0.237 OA
ATOM    105  O   UNL A   1      45.768  39.906  37.113  1.00  0.00    -0.744 OA
ENDBRANCH  98 102
ENDBRANCH  72  95
ENDBRANCH  46  47
ENDBRANCH  39  41
ENDBRANCH  38  39
ENDBRANCH  37  38
ENDBRANCH  36  37
ENDBRANCH  35  36
ENDBRANCH  34  35
ENDBRANCH   1  34
TORSDOF 25
ENDMDL
