MODEL 1
REMARK VINA RESULT:      -9.3      0.000      0.000
REMARK SMILES C[C@H](Nc1ccc(F)cc1Br)[C@@H](C)C(=O)OCCOCCOCCOC(=O)c1ccc(-c2c3nc(c(-c4cc(S(=O)(=O)[O-])ccc4F)c4ccc([nH]4)c(-c4cc(S(=O)(=O)[O-])ccc4F)c4nc(c(-c5cc(S(=O)(=O)[O-])ccc5F)c5ccc2[nH]5)C=C4)C=C3)cc1
REMARK SMILES IDX 20 1 19 2 18 3 17 4 16 5 14 6 15 7 12 8 13 9 2 10 1 11 3 12
REMARK SMILES IDX 4 14 5 15 10 16 6 17 9 18 11 19 7 20 8 21 21 22 22 23 23 24
REMARK SMILES IDX 24 25 25 26 26 27 27 28 28 29 29 30 90 31 30 32 89 33 31 34
REMARK SMILES IDX 32 35 33 36 83 37 34 38 88 39 82 40 84 41 35 42 87 43 81 44
REMARK SMILES IDX 80 45 36 47 68 48 48 49 67 50 49 51 52 52 66 53 85 54 50 55
REMARK SMILES IDX 51 56 65 58 86 59 53 60 37 61 38 62 46 63 39 64 45 65 47 66
REMARK SMILES IDX 44 67 40 68 41 69 42 70 43 71 69 72 70 73 78 74 71 75 77 76
REMARK SMILES IDX 79 77 76 78 72 79 73 80 74 81 75 82 54 83 55 84 63 85 56 86
REMARK SMILES IDX 62 87 64 88 61 89 57 90 58 91 59 92 60 93
REMARK H PARENT 3 13 84 46 52 57
REMARK Flexibility Score: inf
ROOT
ATOM      1  C   UNL A   1      42.263  19.863  26.216  1.00  0.00     0.188 C 
ENDROOT
BRANCH   1   2
ATOM      2  O   UNL A   1      41.961  20.691  27.326  1.00  0.00    -0.376 OA
BRANCH   2   3
ATOM      3  C   UNL A   1      40.780  21.486  27.292  1.00  0.00     0.202 C 
BRANCH   3   4
ATOM      4  C   UNL A   1      40.080  21.747  25.942  1.00  0.00     0.261 C 
BRANCH   4   5
ATOM      5  O   UNL A   1      38.815  22.478  25.941  1.00  0.00    -0.463 OA
BRANCH   5   6
ATOM      6  C   UNL A   1      37.719  21.744  25.606  1.00  0.00     0.310 C 
ATOM      7  O   UNL A   1      37.790  20.554  25.304  1.00  0.00    -0.252 OA
BRANCH   6   8
ATOM      8  C   UNL A   1      36.369  22.475  25.541  1.00  0.00     0.118 C 
ATOM      9  C   UNL A   1      35.436  21.632  26.426  1.00  0.00     0.022 C 
BRANCH   8  10
ATOM     10  C   UNL A   1      35.718  22.825  24.173  1.00  0.00     0.090 C 
ATOM     11  C   UNL A   1      36.738  22.953  23.030  1.00  0.00     0.031 C 
BRANCH  10  12
ATOM     12  N   UNL A   1      35.042  24.148  24.233  1.00  0.00    -0.381 N 
ATOM     13  H   UNL A   1      35.543  24.980  24.394  1.00  0.00     0.160 HD
BRANCH  12  14
ATOM     14  C   UNL A   1      33.654  24.145  24.047  1.00  0.00     0.049 A 
ATOM     15  C   UNL A   1      33.000  22.910  23.929  1.00  0.00     0.030 A 
ATOM     16  C   UNL A   1      32.899  25.317  23.834  1.00  0.00     0.044 A 
ATOM     17  C   UNL A   1      31.659  22.834  23.563  1.00  0.00     0.041 A 
ATOM     18  C   UNL A   1      31.566  25.243  23.427  1.00  0.00     0.057 A 
ATOM     19  Br  UNL A   1      33.624  27.052  24.110  1.00  0.00    -0.048 Br
ATOM     20  C   UNL A   1      30.964  24.001  23.286  1.00  0.00     0.124 A 
ATOM     21  F   UNL A   1      29.690  23.926  22.880  1.00  0.00    -0.207 F 
ENDBRANCH  12  14
ENDBRANCH  10  12
ENDBRANCH   8  10
ENDBRANCH   6   8
ENDBRANCH   5   6
ENDBRANCH   4   5
ENDBRANCH   3   4
ENDBRANCH   2   3
ENDBRANCH   1   2
BRANCH   1  22
ATOM     22  C   UNL A   1      43.730  19.628  25.860  1.00  0.00     0.188 C 
BRANCH  22  23
ATOM     23  O   UNL A   1      44.076  20.046  24.556  1.00  0.00    -0.376 OA
BRANCH  23  24
ATOM     24  C   UNL A   1      45.156  20.942  24.362  1.00  0.00     0.202 C 
BRANCH  24  25
ATOM     25  C   UNL A   1      44.717  22.384  24.069  1.00  0.00     0.261 C 
BRANCH  25  26
ATOM     26  O   UNL A   1      44.403  23.166  25.237  1.00  0.00    -0.460 OA
BRANCH  26  27
ATOM     27  C   UNL A   1      44.848  24.446  25.228  1.00  0.00     0.338 C 
ATOM     28  O   UNL A   1      45.648  24.926  24.438  1.00  0.00    -0.246 OA
BRANCH  27  29
ATOM     29  C   UNL A   1      44.001  25.249  26.141  1.00  0.00     0.060 A 
ATOM     30  C   UNL A   1      44.400  26.564  26.410  1.00  0.00     0.016 A 
ATOM     31  C   UNL A   1      42.816  24.751  26.690  1.00  0.00     0.016 A 
ATOM     32  C   UNL A   1      43.652  27.365  27.271  1.00  0.00     0.010 A 
ATOM     33  C   UNL A   1      42.073  25.552  27.568  1.00  0.00     0.010 A 
ATOM     34  C   UNL A   1      42.511  26.849  27.898  1.00  0.00    -0.014 A 
BRANCH  34  35
ATOM     35  C   UNL A   1      41.929  27.594  29.049  1.00  0.00     0.031 A 
ATOM     36  C   UNL A   1      42.660  27.551  30.368  1.00  0.00     0.074 A 
ATOM     37  C   UNL A   1      40.840  28.373  28.910  1.00  0.00     0.049 A 
ATOM     38  N   UNL A   1      42.371  28.137  31.500  1.00  0.00    -0.248 NA
ATOM     39  C   UNL A   1      43.884  26.736  30.407  1.00  0.00     0.031 C 
ATOM     40  C   UNL A   1      40.081  28.551  27.674  1.00  0.00     0.029 A 
ATOM     41  N   UNL A   1      40.195  29.177  29.818  1.00  0.00    -0.354 N 
ATOM     42  C   UNL A   1      43.374  27.758  32.389  1.00  0.00     0.074 A 
ATOM     43  C   UNL A   1      44.248  26.855  31.673  1.00  0.00     0.031 C 
ATOM     44  C   UNL A   1      39.080  29.420  27.899  1.00  0.00     0.029 A 
ATOM     45  C   UNL A   1      39.097  29.828  29.302  1.00  0.00     0.049 A 
ATOM     46  H   UNL A   1      40.489  29.276  30.752  1.00  0.00     0.167 HD
ATOM     47  C   UNL A   1      43.559  28.139  33.678  1.00  0.00     0.034 A 
ATOM     48  C   UNL A   1      38.203  30.646  29.897  1.00  0.00     0.034 A 
ATOM     49  C   UNL A   1      42.677  29.037  34.384  1.00  0.00     0.049 A 
ATOM     50  C   UNL A   1      38.378  30.984  31.361  1.00  0.00     0.074 A 
ATOM     51  C   UNL A   1      42.768  29.481  35.693  1.00  0.00     0.029 A 
ATOM     52  N   UNL A   1      41.537  29.622  33.847  1.00  0.00    -0.354 N 
ATOM     53  N   UNL A   1      39.322  30.607  32.194  1.00  0.00    -0.248 NA
ATOM     54  C   UNL A   1      37.371  31.870  31.959  1.00  0.00     0.031 C 
ATOM     55  C   UNL A   1      41.643  30.264  35.970  1.00  0.00     0.029 A 
ATOM     56  C   UNL A   1      40.901  30.396  34.808  1.00  0.00     0.049 A 
ATOM     57  H   UNL A   1      41.226  29.506  32.921  1.00  0.00     0.167 HD
ATOM     58  C   UNL A   1      39.042  31.245  33.402  1.00  0.00     0.074 A 
ATOM     59  C   UNL A   1      37.853  32.042  33.180  1.00  0.00     0.031 C 
ATOM     60  C   UNL A   1      39.709  31.182  34.585  1.00  0.00     0.034 A 
BRANCH  47  61
ATOM     61  C   UNL A   1      44.728  27.530  34.417  1.00  0.00     0.023 A 
ATOM     62  C   UNL A   1      46.007  28.116  34.406  1.00  0.00     0.031 A 
ATOM     63  C   UNL A   1      44.570  26.318  35.112  1.00  0.00     0.131 A 
ATOM     64  C   UNL A   1      47.087  27.454  35.007  1.00  0.00     0.055 A 
ATOM     65  C   UNL A   1      45.630  25.709  35.786  1.00  0.00     0.041 A 
ATOM     66  F   UNL A   1      43.381  25.694  35.137  1.00  0.00    -0.206 F 
ATOM     67  C   UNL A   1      46.903  26.268  35.722  1.00  0.00     0.022 A 
BRANCH  64  68
ATOM     68  S   UNL A   1      48.765  28.073  34.702  1.00  0.00     0.124 S 
ATOM     69  O   UNL A   1      49.529  27.375  35.734  1.00  0.00    -0.237 OA
ATOM     70  O   UNL A   1      49.013  27.650  33.329  1.00  0.00    -0.237 OA
ATOM     71  O   UNL A   1      48.640  29.515  34.899  1.00  0.00    -0.744 OA
ENDBRANCH  64  68
ENDBRANCH  47  61
BRANCH  48  72
ATOM     72  C   UNL A   1      37.034  31.180  29.134  1.00  0.00     0.023 A 
ATOM     73  C   UNL A   1      36.017  30.332  28.661  1.00  0.00     0.031 A 
ATOM     74  C   UNL A   1      36.958  32.545  28.802  1.00  0.00     0.131 A 
ATOM     75  C   UNL A   1      34.999  30.850  27.841  1.00  0.00     0.055 A 
ATOM     76  C   UNL A   1      35.909  33.064  28.040  1.00  0.00     0.041 A 
ATOM     77  F   UNL A   1      37.907  33.399  29.216  1.00  0.00    -0.206 F 
ATOM     78  C   UNL A   1      34.929  32.212  27.543  1.00  0.00     0.022 A 
BRANCH  75  79
ATOM     79  S   UNL A   1      33.819  29.697  27.084  1.00  0.00     0.124 S 
ATOM     80  O   UNL A   1      33.903  30.069  25.676  1.00  0.00    -0.237 OA
ATOM     81  O   UNL A   1      34.390  28.402  27.440  1.00  0.00    -0.237 OA
ATOM     82  O   UNL A   1      32.555  30.021  27.743  1.00  0.00    -0.744 OA
ENDBRANCH  75  79
ENDBRANCH  48  72
BRANCH  60  83
ATOM     83  C   UNL A   1      39.197  32.052  35.713  1.00  0.00     0.023 A 
ATOM     84  C   UNL A   1      39.686  33.351  35.937  1.00  0.00     0.031 A 
ATOM     85  C   UNL A   1      38.228  31.553  36.605  1.00  0.00     0.131 A 
ATOM     86  C   UNL A   1      39.274  34.070  37.069  1.00  0.00     0.055 A 
ATOM     87  C   UNL A   1      37.761  32.306  37.684  1.00  0.00     0.041 A 
ATOM     88  F   UNL A   1      37.723  30.320  36.448  1.00  0.00    -0.206 F 
ATOM     89  C   UNL A   1      38.300  33.564  37.934  1.00  0.00     0.022 A 
BRANCH  86  90
ATOM     90  S   UNL A   1      40.136  35.613  37.481  1.00  0.00     0.124 S 
ATOM     91  O   UNL A   1      39.857  35.743  38.908  1.00  0.00    -0.237 OA
ATOM     92  O   UNL A   1      41.517  35.303  37.127  1.00  0.00    -0.237 OA
ATOM     93  O   UNL A   1      39.485  36.608  36.629  1.00  0.00    -0.744 OA
ENDBRANCH  86  90
ENDBRANCH  60  83
ENDBRANCH  34  35
ENDBRANCH  27  29
ENDBRANCH  26  27
ENDBRANCH  25  26
ENDBRANCH  24  25
ENDBRANCH  23  24
ENDBRANCH  22  23
ENDBRANCH   1  22
TORSDOF 23
ENDMDL
MODEL 2
REMARK VINA RESULT:      -9.0      4.315      7.195
REMARK SMILES C[C@H](Nc1ccc(F)cc1Br)[C@@H](C)C(=O)OCCOCCOCCOC(=O)c1ccc(-c2c3nc(c(-c4cc(S(=O)(=O)[O-])ccc4F)c4ccc([nH]4)c(-c4cc(S(=O)(=O)[O-])ccc4F)c4nc(c(-c5cc(S(=O)(=O)[O-])ccc5F)c5ccc2[nH]5)C=C4)C=C3)cc1
REMARK SMILES IDX 20 1 19 2 18 3 17 4 16 5 14 6 15 7 12 8 13 9 2 10 1 11 3 12
REMARK SMILES IDX 4 14 5 15 10 16 6 17 9 18 11 19 7 20 8 21 21 22 22 23 23 24
REMARK SMILES IDX 24 25 25 26 26 27 27 28 28 29 29 30 90 31 30 32 89 33 31 34
REMARK SMILES IDX 32 35 33 36 83 37 34 38 88 39 82 40 84 41 35 42 87 43 81 44
REMARK SMILES IDX 80 45 36 47 68 48 48 49 67 50 49 51 52 52 66 53 85 54 50 55
REMARK SMILES IDX 51 56 65 58 86 59 53 60 37 61 38 62 46 63 39 64 45 65 47 66
REMARK SMILES IDX 44 67 40 68 41 69 42 70 43 71 69 72 70 73 78 74 71 75 77 76
REMARK SMILES IDX 79 77 76 78 72 79 73 80 74 81 75 82 54 83 55 84 63 85 56 86
REMARK SMILES IDX 62 87 64 88 61 89 57 90 58 91 59 92 60 93
REMARK H PARENT 3 13 84 46 52 57
REMARK Flexibility Score: inf
ROOT
ATOM      1  C   UNL A   1      33.754  21.730  24.430  1.00  0.00     0.188 C 
ENDROOT
BRANCH   1   2
ATOM      2  O   UNL A   1      32.479  21.472  24.993  1.00  0.00    -0.376 OA
BRANCH   2   3
ATOM      3  C   UNL A   1      31.529  22.531  25.063  1.00  0.00     0.202 C 
BRANCH   3   4
ATOM      4  C   UNL A   1      31.173  23.143  26.434  1.00  0.00     0.261 C 
BRANCH   4   5
ATOM      5  O   UNL A   1      31.943  24.289  26.909  1.00  0.00    -0.463 OA
BRANCH   5   6
ATOM      6  C   UNL A   1      31.468  25.506  26.530  1.00  0.00     0.310 C 
ATOM      7  O   UNL A   1      30.426  25.637  25.888  1.00  0.00    -0.252 OA
BRANCH   6   8
ATOM      8  C   UNL A   1      32.324  26.738  26.865  1.00  0.00     0.118 C 
ATOM      9  C   UNL A   1      31.309  27.788  27.347  1.00  0.00     0.022 C 
BRANCH   8  10
ATOM     10  C   UNL A   1      33.319  27.323  25.824  1.00  0.00     0.090 C 
ATOM     11  C   UNL A   1      34.123  28.519  26.359  1.00  0.00     0.031 C 
BRANCH  10  12
ATOM     12  N   UNL A   1      32.594  27.849  24.638  1.00  0.00    -0.381 N 
ATOM     13  H   UNL A   1      32.182  28.744  24.636  1.00  0.00     0.160 HD
BRANCH  12  14
ATOM     14  C   UNL A   1      32.529  27.003  23.524  1.00  0.00     0.049 A 
ATOM     15  C   UNL A   1      33.616  26.155  23.267  1.00  0.00     0.030 A 
ATOM     16  C   UNL A   1      31.491  27.056  22.571  1.00  0.00     0.044 A 
ATOM     17  C   UNL A   1      33.699  25.425  22.085  1.00  0.00     0.041 A 
ATOM     18  C   UNL A   1      31.591  26.358  21.366  1.00  0.00     0.057 A 
ATOM     19  Br  UNL A   1      29.895  28.046  22.867  1.00  0.00    -0.048 Br
ATOM     20  C   UNL A   1      32.700  25.558  21.133  1.00  0.00     0.124 A 
ATOM     21  F   UNL A   1      32.807  24.898  19.973  1.00  0.00    -0.207 F 
ENDBRANCH  12  14
ENDBRANCH  10  12
ENDBRANCH   8  10
ENDBRANCH   6   8
ENDBRANCH   5   6
ENDBRANCH   4   5
ENDBRANCH   3   4
ENDBRANCH   2   3
ENDBRANCH   1   2
BRANCH   1  22
ATOM     22  C   UNL A   1      34.941  20.893  24.902  1.00  0.00     0.188 C 
BRANCH  22  23
ATOM     23  O   UNL A   1      35.981  21.652  25.484  1.00  0.00    -0.376 OA
BRANCH  23  24
ATOM     24  C   UNL A   1      37.251  21.711  24.860  1.00  0.00     0.202 C 
BRANCH  24  25
ATOM     25  C   UNL A   1      38.126  20.477  25.122  1.00  0.00     0.261 C 
BRANCH  25  26
ATOM     26  O   UNL A   1      38.827  20.494  26.380  1.00  0.00    -0.460 OA
BRANCH  26  27
ATOM     27  C   UNL A   1      40.164  20.278  26.314  1.00  0.00     0.338 C 
ATOM     28  O   UNL A   1      40.712  19.283  25.862  1.00  0.00    -0.246 OA
BRANCH  27  29
ATOM     29  C   UNL A   1      40.865  21.550  26.609  1.00  0.00     0.060 A 
ATOM     30  C   UNL A   1      41.039  21.900  27.954  1.00  0.00     0.016 A 
ATOM     31  C   UNL A   1      41.385  22.366  25.601  1.00  0.00     0.016 A 
ATOM     32  C   UNL A   1      41.679  23.089  28.295  1.00  0.00     0.010 A 
ATOM     33  C   UNL A   1      42.015  23.570  25.945  1.00  0.00     0.010 A 
ATOM     34  C   UNL A   1      42.126  23.960  27.293  1.00  0.00    -0.014 A 
BRANCH  34  35
ATOM     35  C   UNL A   1      42.497  25.352  27.669  1.00  0.00     0.031 A 
ATOM     36  C   UNL A   1      43.857  25.862  27.262  1.00  0.00     0.074 A 
ATOM     37  C   UNL A   1      41.620  26.183  28.263  1.00  0.00     0.049 A 
ATOM     38  N   UNL A   1      44.397  27.038  27.446  1.00  0.00    -0.248 NA
ATOM     39  C   UNL A   1      44.722  24.909  26.548  1.00  0.00     0.031 C 
ATOM     40  C   UNL A   1      40.254  25.833  28.648  1.00  0.00     0.029 A 
ATOM     41  N   UNL A   1      41.744  27.501  28.628  1.00  0.00    -0.354 N 
ATOM     42  C   UNL A   1      45.665  26.967  26.876  1.00  0.00     0.074 A 
ATOM     43  C   UNL A   1      45.828  25.617  26.385  1.00  0.00     0.031 C 
ATOM     44  C   UNL A   1      39.662  26.915  29.186  1.00  0.00     0.029 A 
ATOM     45  C   UNL A   1      40.617  28.022  29.223  1.00  0.00     0.049 A 
ATOM     46  H   UNL A   1      42.564  28.025  28.480  1.00  0.00     0.167 HD
ATOM     47  C   UNL A   1      46.603  27.940  26.759  1.00  0.00     0.034 A 
ATOM     48  C   UNL A   1      40.388  29.243  29.749  1.00  0.00     0.034 A 
ATOM     49  C   UNL A   1      46.432  29.284  27.258  1.00  0.00     0.049 A 
ATOM     50  C   UNL A   1      41.482  30.286  29.690  1.00  0.00     0.074 A 
ATOM     51  C   UNL A   1      47.321  30.344  27.199  1.00  0.00     0.029 A 
ATOM     52  N   UNL A   1      45.302  29.753  27.917  1.00  0.00    -0.354 N 
ATOM     53  N   UNL A   1      42.683  30.201  29.161  1.00  0.00    -0.248 NA
ATOM     54  C   UNL A   1      41.182  31.593  30.287  1.00  0.00     0.031 C 
ATOM     55  C   UNL A   1      46.764  31.423  27.892  1.00  0.00     0.029 A 
ATOM     56  C   UNL A   1      45.486  31.075  28.296  1.00  0.00     0.049 A 
ATOM     57  H   UNL A   1      44.490  29.225  28.088  1.00  0.00     0.167 HD
ATOM     58  C   UNL A   1      43.263  31.458  29.328  1.00  0.00     0.074 A 
ATOM     59  C   UNL A   1      42.272  32.283  29.988  1.00  0.00     0.031 C 
ATOM     60  C   UNL A   1      44.498  31.892  28.964  1.00  0.00     0.034 A 
BRANCH  47  61
ATOM     61  C   UNL A   1      47.918  27.560  26.119  1.00  0.00     0.023 A 
ATOM     62  C   UNL A   1      48.155  27.724  24.742  1.00  0.00     0.031 A 
ATOM     63  C   UNL A   1      48.939  26.982  26.895  1.00  0.00     0.131 A 
ATOM     64  C   UNL A   1      49.345  27.247  24.174  1.00  0.00     0.055 A 
ATOM     65  C   UNL A   1      50.159  26.592  26.338  1.00  0.00     0.041 A 
ATOM     66  F   UNL A   1      48.764  26.772  28.209  1.00  0.00    -0.206 F 
ATOM     67  C   UNL A   1      50.362  26.708  24.966  1.00  0.00     0.022 A 
BRANCH  64  68
ATOM     68  S   UNL A   1      49.481  27.187  22.366  1.00  0.00     0.124 S 
ATOM     69  O   UNL A   1      50.920  27.005  22.184  1.00  0.00    -0.237 OA
ATOM     70  O   UNL A   1      48.645  26.043  22.024  1.00  0.00    -0.237 OA
ATOM     71  O   UNL A   1      48.967  28.487  21.939  1.00  0.00    -0.744 OA
ENDBRANCH  64  68
ENDBRANCH  47  61
BRANCH  48  72
ATOM     72  C   UNL A   1      39.088  29.553  30.419  1.00  0.00     0.023 A 
ATOM     73  C   UNL A   1      38.128  30.381  29.812  1.00  0.00     0.031 A 
ATOM     74  C   UNL A   1      38.820  29.080  31.717  1.00  0.00     0.131 A 
ATOM     75  C   UNL A   1      36.973  30.751  30.523  1.00  0.00     0.055 A 
ATOM     76  C   UNL A   1      37.641  29.400  32.392  1.00  0.00     0.041 A 
ATOM     77  F   UNL A   1      39.705  28.295  32.350  1.00  0.00    -0.206 F 
ATOM     78  C   UNL A   1      36.715  30.252  31.801  1.00  0.00     0.022 A 
BRANCH  75  79
ATOM     79  S   UNL A   1      35.856  31.980  29.790  1.00  0.00     0.124 S 
ATOM     80  O   UNL A   1      34.783  32.032  30.778  1.00  0.00    -0.237 OA
ATOM     81  O   UNL A   1      36.711  33.159  29.710  1.00  0.00    -0.237 OA
ATOM     82  O   UNL A   1      35.493  31.387  28.504  1.00  0.00    -0.744 OA
ENDBRANCH  75  79
ENDBRANCH  48  72
BRANCH  60  83
ATOM     83  C   UNL A   1      44.821  33.349  29.219  1.00  0.00     0.023 A 
ATOM     84  C   UNL A   1      45.442  33.782  30.405  1.00  0.00     0.031 A 
ATOM     85  C   UNL A   1      44.462  34.327  28.272  1.00  0.00     0.131 A 
ATOM     86  C   UNL A   1      45.604  35.153  30.650  1.00  0.00     0.055 A 
ATOM     87  C   UNL A   1      44.702  35.686  28.487  1.00  0.00     0.041 A 
ATOM     88  F   UNL A   1      43.864  33.980  27.122  1.00  0.00    -0.206 F 
ATOM     89  C   UNL A   1      45.256  36.108  29.691  1.00  0.00     0.022 A 
BRANCH  86  90
ATOM     90  S   UNL A   1      46.140  35.683  32.301  1.00  0.00     0.124 S 
ATOM     91  O   UNL A   1      46.322  34.406  32.984  1.00  0.00    -0.237 OA
ATOM     92  O   UNL A   1      47.360  36.429  32.008  1.00  0.00    -0.237 OA
ATOM     93  O   UNL A   1      45.020  36.489  32.784  1.00  0.00    -0.744 OA
ENDBRANCH  86  90
ENDBRANCH  60  83
ENDBRANCH  34  35
ENDBRANCH  27  29
ENDBRANCH  26  27
ENDBRANCH  25  26
ENDBRANCH  24  25
ENDBRANCH  23  24
ENDBRANCH  22  23
ENDBRANCH   1  22
TORSDOF 23
ENDMDL
MODEL 3
REMARK VINA RESULT:      -9.0      4.821      6.679
REMARK SMILES C[C@H](Nc1ccc(F)cc1Br)[C@@H](C)C(=O)OCCOCCOCCOC(=O)c1ccc(-c2c3nc(c(-c4cc(S(=O)(=O)[O-])ccc4F)c4ccc([nH]4)c(-c4cc(S(=O)(=O)[O-])ccc4F)c4nc(c(-c5cc(S(=O)(=O)[O-])ccc5F)c5ccc2[nH]5)C=C4)C=C3)cc1
REMARK SMILES IDX 20 1 19 2 18 3 17 4 16 5 14 6 15 7 12 8 13 9 2 10 1 11 3 12
REMARK SMILES IDX 4 14 5 15 10 16 6 17 9 18 11 19 7 20 8 21 21 22 22 23 23 24
REMARK SMILES IDX 24 25 25 26 26 27 27 28 28 29 29 30 90 31 30 32 89 33 31 34
REMARK SMILES IDX 32 35 33 36 83 37 34 38 88 39 82 40 84 41 35 42 87 43 81 44
REMARK SMILES IDX 80 45 36 47 68 48 48 49 67 50 49 51 52 52 66 53 85 54 50 55
REMARK SMILES IDX 51 56 65 58 86 59 53 60 37 61 38 62 46 63 39 64 45 65 47 66
REMARK SMILES IDX 44 67 40 68 41 69 42 70 43 71 69 72 70 73 78 74 71 75 77 76
REMARK SMILES IDX 79 77 76 78 72 79 73 80 74 81 75 82 54 83 55 84 63 85 56 86
REMARK SMILES IDX 62 87 64 88 61 89 57 90 58 91 59 92 60 93
REMARK H PARENT 3 13 84 46 52 57
REMARK Flexibility Score: inf
ROOT
ATOM      1  C   UNL A   1      34.614  21.256  24.652  1.00  0.00     0.188 C 
ENDROOT
BRANCH   1   2
ATOM      2  O   UNL A   1      33.409  20.618  25.041  1.00  0.00    -0.376 OA
BRANCH   2   3
ATOM      3  C   UNL A   1      32.175  21.108  24.530  1.00  0.00     0.202 C 
BRANCH   3   4
ATOM      4  C   UNL A   1      31.612  22.446  25.053  1.00  0.00     0.261 C 
BRANCH   4   5
ATOM      5  O   UNL A   1      32.232  23.689  24.603  1.00  0.00    -0.463 OA
BRANCH   5   6
ATOM      6  C   UNL A   1      31.693  24.234  23.479  1.00  0.00     0.310 C 
ATOM      7  O   UNL A   1      30.536  24.011  23.127  1.00  0.00    -0.252 OA
BRANCH   6   8
ATOM      8  C   UNL A   1      32.611  25.097  22.598  1.00  0.00     0.118 C 
ATOM      9  C   UNL A   1      34.017  24.876  23.182  1.00  0.00     0.022 C 
BRANCH   8  10
ATOM     10  C   UNL A   1      32.306  26.603  22.365  1.00  0.00     0.090 C 
ATOM     11  C   UNL A   1      33.543  27.503  22.508  1.00  0.00     0.031 C 
BRANCH  10  12
ATOM     12  N   UNL A   1      31.344  27.110  23.380  1.00  0.00    -0.381 N 
ATOM     13  H   UNL A   1      31.420  26.869  24.332  1.00  0.00     0.160 HD
BRANCH  12  14
ATOM     14  C   UNL A   1      30.326  27.948  22.907  1.00  0.00     0.049 A 
ATOM     15  C   UNL A   1      30.686  29.065  22.140  1.00  0.00     0.030 A 
ATOM     16  C   UNL A   1      28.974  27.806  23.277  1.00  0.00     0.044 A 
ATOM     17  C   UNL A   1      29.751  30.036  21.793  1.00  0.00     0.041 A 
ATOM     18  C   UNL A   1      28.041  28.798  22.967  1.00  0.00     0.057 A 
ATOM     19  Br  UNL A   1      28.328  26.267  24.185  1.00  0.00    -0.048 Br
ATOM     20  C   UNL A   1      28.444  29.907  22.237  1.00  0.00     0.124 A 
ATOM     21  F   UNL A   1      27.556  30.868  21.951  1.00  0.00    -0.207 F 
ENDBRANCH  12  14
ENDBRANCH  10  12
ENDBRANCH   8  10
ENDBRANCH   6   8
ENDBRANCH   5   6
ENDBRANCH   4   5
ENDBRANCH   3   4
ENDBRANCH   2   3
ENDBRANCH   1   2
BRANCH   1  22
ATOM     22  C   UNL A   1      35.940  20.579  24.993  1.00  0.00     0.188 C 
BRANCH  22  23
ATOM     23  O   UNL A   1      36.808  21.380  25.769  1.00  0.00    -0.376 OA
BRANCH  23  24
ATOM     24  C   UNL A   1      38.164  21.531  25.388  1.00  0.00     0.202 C 
BRANCH  24  25
ATOM     25  C   UNL A   1      38.993  20.247  25.535  1.00  0.00     0.261 C 
BRANCH  25  26
ATOM     26  O   UNL A   1      39.878  20.230  26.671  1.00  0.00    -0.460 OA
BRANCH  26  27
ATOM     27  C   UNL A   1      41.203  20.251  26.388  1.00  0.00     0.338 C 
ATOM     28  O   UNL A   1      41.816  19.414  25.742  1.00  0.00    -0.246 OA
BRANCH  27  29
ATOM     29  C   UNL A   1      41.740  21.588  26.735  1.00  0.00     0.060 A 
ATOM     30  C   UNL A   1      42.067  21.829  28.076  1.00  0.00     0.016 A 
ATOM     31  C   UNL A   1      41.964  22.575  25.771  1.00  0.00     0.016 A 
ATOM     32  C   UNL A   1      42.565  23.071  28.466  1.00  0.00     0.010 A 
ATOM     33  C   UNL A   1      42.450  23.828  26.168  1.00  0.00     0.010 A 
ATOM     34  C   UNL A   1      42.711  24.098  27.525  1.00  0.00    -0.014 A 
BRANCH  34  35
ATOM     35  C   UNL A   1      42.920  25.489  28.012  1.00  0.00     0.031 A 
ATOM     36  C   UNL A   1      44.317  26.057  27.972  1.00  0.00     0.074 A 
ATOM     37  C   UNL A   1      41.889  26.272  28.385  1.00  0.00     0.049 A 
ATOM     38  N   UNL A   1      44.745  27.244  28.312  1.00  0.00    -0.248 NA
ATOM     39  C   UNL A   1      45.370  25.156  27.478  1.00  0.00     0.031 C 
ATOM     40  C   UNL A   1      40.485  25.865  28.407  1.00  0.00     0.029 A 
ATOM     41  N   UNL A   1      41.865  27.581  28.798  1.00  0.00    -0.354 N 
ATOM     42  C   UNL A   1      46.117  27.233  28.077  1.00  0.00     0.074 A 
ATOM     43  C   UNL A   1      46.452  25.905  27.613  1.00  0.00     0.031 C 
ATOM     44  C   UNL A   1      39.735  26.909  28.802  1.00  0.00     0.029 A 
ATOM     45  C   UNL A   1      40.605  28.045  29.102  1.00  0.00     0.049 A 
ATOM     46  H   UNL A   1      42.675  28.137  28.872  1.00  0.00     0.167 HD
ATOM     47  C   UNL A   1      47.015  28.240  28.220  1.00  0.00     0.034 A 
ATOM     48  C   UNL A   1      40.203  29.242  29.581  1.00  0.00     0.034 A 
ATOM     49  C   UNL A   1      46.671  29.561  28.690  1.00  0.00     0.049 A 
ATOM     50  C   UNL A   1      41.234  30.321  29.820  1.00  0.00     0.074 A 
ATOM     51  C   UNL A   1      47.503  30.652  28.880  1.00  0.00     0.029 A 
ATOM     52  N   UNL A   1      45.394  29.972  29.053  1.00  0.00    -0.354 N 
ATOM     53  N   UNL A   1      42.531  30.293  29.609  1.00  0.00    -0.248 NA
ATOM     54  C   UNL A   1      40.742  31.599  30.351  1.00  0.00     0.031 C 
ATOM     55  C   UNL A   1      46.748  31.690  29.434  1.00  0.00     0.029 A 
ATOM     56  C   UNL A   1      45.424  31.287  29.496  1.00  0.00     0.049 A 
ATOM     57  H   UNL A   1      44.587  29.412  29.004  1.00  0.00     0.167 HD
ATOM     58  C   UNL A   1      43.000  31.562  29.944  1.00  0.00     0.074 A 
ATOM     59  C   UNL A   1      41.843  32.334  30.351  1.00  0.00     0.031 C 
ATOM     60  C   UNL A   1      44.269  32.049  29.911  1.00  0.00     0.034 A 
BRANCH  47  61
ATOM     61  C   UNL A   1      48.463  27.924  27.924  1.00  0.00     0.023 A 
ATOM     62  C   UNL A   1      49.005  28.047  26.632  1.00  0.00     0.031 A 
ATOM     63  C   UNL A   1      49.306  27.450  28.945  1.00  0.00     0.131 A 
ATOM     64  C   UNL A   1      50.320  27.629  26.381  1.00  0.00     0.055 A 
ATOM     65  C   UNL A   1      50.642  27.122  28.708  1.00  0.00     0.041 A 
ATOM     66  F   UNL A   1      48.840  27.283  30.194  1.00  0.00    -0.206 F 
ATOM     67  C   UNL A   1      51.153  27.194  27.415  1.00  0.00     0.022 A 
BRANCH  64  68
ATOM     68  S   UNL A   1      50.879  27.503  24.659  1.00  0.00     0.124 S 
ATOM     69  O   UNL A   1      50.760  26.068  24.414  1.00  0.00    -0.237 OA
ATOM     70  O   UNL A   1      49.924  28.352  23.955  1.00  0.00    -0.237 OA
ATOM     71  O   UNL A   1      52.249  28.008  24.705  1.00  0.00    -0.744 OA
ENDBRANCH  64  68
ENDBRANCH  47  61
BRANCH  48  72
ATOM     72  C   UNL A   1      38.765  29.486  29.908  1.00  0.00     0.023 A 
ATOM     73  C   UNL A   1      37.923  30.198  29.036  1.00  0.00     0.031 A 
ATOM     74  C   UNL A   1      38.231  29.073  31.143  1.00  0.00     0.131 A 
ATOM     75  C   UNL A   1      36.613  30.517  29.431  1.00  0.00     0.055 A 
ATOM     76  C   UNL A   1      36.908  29.339  31.504  1.00  0.00     0.041 A 
ATOM     77  F   UNL A   1      38.992  28.401  32.021  1.00  0.00    -0.206 F 
ATOM     78  C   UNL A   1      36.095  30.077  30.651  1.00  0.00     0.022 A 
BRANCH  75  79
ATOM     79  S   UNL A   1      35.622  31.605  28.369  1.00  0.00     0.124 S 
ATOM     80  O   UNL A   1      35.269  30.710  27.273  1.00  0.00    -0.237 OA
ATOM     81  O   UNL A   1      34.532  31.989  29.260  1.00  0.00    -0.237 OA
ATOM     82  O   UNL A   1      36.550  32.681  28.024  1.00  0.00    -0.744 OA
ENDBRANCH  75  79
ENDBRANCH  48  72
BRANCH  60  83
ATOM     83  C   UNL A   1      44.458  33.507  30.271  1.00  0.00     0.023 A 
ATOM     84  C   UNL A   1      44.294  34.538  29.328  1.00  0.00     0.031 A 
ATOM     85  C   UNL A   1      44.851  33.868  31.574  1.00  0.00     0.131 A 
ATOM     86  C   UNL A   1      44.604  35.861  29.675  1.00  0.00     0.055 A 
ATOM     87  C   UNL A   1      45.079  35.197  31.936  1.00  0.00     0.041 A 
ATOM     88  F   UNL A   1      45.028  32.931  32.519  1.00  0.00    -0.206 F 
ATOM     89  C   UNL A   1      44.977  36.201  30.978  1.00  0.00     0.022 A 
BRANCH  86  90
ATOM     90  S   UNL A   1      44.657  37.115  28.364  1.00  0.00     0.124 S 
ATOM     91  O   UNL A   1      45.062  36.323  27.206  1.00  0.00    -0.237 OA
ATOM     92  O   UNL A   1      43.285  37.609  28.350  1.00  0.00    -0.237 OA
ATOM     93  O   UNL A   1      45.657  38.069  28.841  1.00  0.00    -0.744 OA
ENDBRANCH  86  90
ENDBRANCH  60  83
ENDBRANCH  34  35
ENDBRANCH  27  29
ENDBRANCH  26  27
ENDBRANCH  25  26
ENDBRANCH  24  25
ENDBRANCH  23  24
ENDBRANCH  22  23
ENDBRANCH   1  22
TORSDOF 23
ENDMDL
