MODEL 1
REMARK VINA RESULT:      -8.3      0.000      0.000
REMARK SMILES O=C(OCCOCCOCCOC(=O)c1cc(SCc2csc(-c3ccsc3)n2)ccn1)c1ccc(-c2c3nc(c(-c4cc(S(=O)(=O)[O-])ccc4F)c4ccc([nH]4)c(-c4cc(S(=O)(=O)[O-])ccc4F)c4nc(c(-c5cc(S(=O)(=O)[O-])ccc5F)c5ccc2[nH]5)C=C4)C=C3)cc1
REMARK SMILES IDX 8 1 7 2 6 3 5 4 4 5 3 6 2 7 1 8 33 9 34 10 95 11 35 12 94 13
REMARK SMILES IDX 36 14 37 15 38 16 88 17 39 18 93 19 87 20 89 21 40 22 92 23
REMARK SMILES IDX 86 24 85 25 41 27 73 28 53 29 72 30 54 31 57 32 71 33 90 34
REMARK SMILES IDX 55 35 56 36 70 38 91 39 58 40 42 41 43 42 51 43 44 44 50 45
REMARK SMILES IDX 52 46 49 47 45 48 46 49 47 50 48 51 74 52 75 53 83 54 76 55
REMARK SMILES IDX 82 56 84 57 81 58 77 59 78 60 79 61 80 62 59 63 60 64 68 65
REMARK SMILES IDX 61 66 67 67 69 68 66 69 62 70 63 71 64 72 65 73 9 74 10 75
REMARK SMILES IDX 11 76 12 77 13 78 14 79 15 80 16 81 32 82 17 83 31 84 30 85
REMARK SMILES IDX 18 86 19 87 20 88 21 89 29 90 22 91 23 92 24 93 25 94 28 95
REMARK SMILES IDX 26 96 27 97
REMARK H PARENT 89 26 57 37
REMARK Flexibility Score: inf
ROOT
ATOM      1  C   UNL A   1      44.291  40.015  26.294  1.00  0.00     0.188 C 
ENDROOT
BRANCH   1   2
ATOM      2  C   UNL A   1      45.301  39.738  27.412  1.00  0.00     0.188 C 
BRANCH   2   3
ATOM      3  O   UNL A   1      44.890  40.370  28.631  1.00  0.00    -0.376 OA
BRANCH   3   4
ATOM      4  C   UNL A   1      45.427  39.768  29.809  1.00  0.00     0.202 C 
BRANCH   4   5
ATOM      5  C   UNL A   1      44.687  38.519  30.312  1.00  0.00     0.261 C 
BRANCH   5   6
ATOM      6  O   UNL A   1      45.549  37.370  30.441  1.00  0.00    -0.460 OA
BRANCH   6   7
ATOM      7  C   UNL A   1      46.135  36.687  29.419  1.00  0.00     0.338 C 
ATOM      8  O   UNL A   1      46.985  37.232  28.721  1.00  0.00    -0.246 OA
BRANCH   7   9
ATOM      9  C   UNL A   1      45.793  35.264  29.157  1.00  0.00     0.060 A 
ATOM     10  C   UNL A   1      45.492  34.802  27.883  1.00  0.00     0.016 A 
ATOM     11  C   UNL A   1      45.823  34.343  30.214  1.00  0.00     0.016 A 
ATOM     12  C   UNL A   1      45.040  33.502  27.700  1.00  0.00     0.010 A 
ATOM     13  C   UNL A   1      45.446  33.004  30.007  1.00  0.00     0.010 A 
ATOM     14  C   UNL A   1      44.985  32.584  28.753  1.00  0.00    -0.014 A 
BRANCH  14  15
ATOM     15  C   UNL A   1      44.350  31.251  28.515  1.00  0.00     0.031 A 
ATOM     16  C   UNL A   1      45.144  30.151  27.867  1.00  0.00     0.074 A 
ATOM     17  C   UNL A   1      43.129  30.961  29.010  1.00  0.00     0.049 A 
ATOM     18  N   UNL A   1      44.765  28.945  27.529  1.00  0.00    -0.248 NA
ATOM     19  C   UNL A   1      46.549  30.447  27.560  1.00  0.00     0.031 C 
ATOM     20  C   UNL A   1      42.294  31.897  29.755  1.00  0.00     0.029 A 
ATOM     21  N   UNL A   1      42.401  29.794  29.021  1.00  0.00    -0.354 N 
ATOM     22  C   UNL A   1      45.867  28.356  26.923  1.00  0.00     0.074 A 
ATOM     23  C   UNL A   1      46.929  29.340  26.942  1.00  0.00     0.031 C 
ATOM     24  C   UNL A   1      41.220  31.248  30.222  1.00  0.00     0.029 A 
ATOM     25  C   UNL A   1      41.230  29.879  29.741  1.00  0.00     0.049 A 
ATOM     26  H   UNL A   1      42.691  28.976  28.558  1.00  0.00     0.167 HD
ATOM     27  C   UNL A   1      45.975  27.116  26.383  1.00  0.00     0.034 A 
ATOM     28  C   UNL A   1      40.254  28.978  29.975  1.00  0.00     0.034 A 
ATOM     29  C   UNL A   1      44.912  26.142  26.384  1.00  0.00     0.049 A 
ATOM     30  C   UNL A   1      40.372  27.629  29.324  1.00  0.00     0.074 A 
ATOM     31  C   UNL A   1      44.873  24.900  25.775  1.00  0.00     0.029 A 
ATOM     32  N   UNL A   1      43.698  26.296  27.042  1.00  0.00    -0.354 N 
ATOM     33  N   UNL A   1      41.366  27.140  28.619  1.00  0.00    -0.248 NA
ATOM     34  C   UNL A   1      39.224  26.726  29.464  1.00  0.00     0.031 C 
ATOM     35  C   UNL A   1      43.618  24.327  26.020  1.00  0.00     0.029 A 
ATOM     36  C   UNL A   1      42.896  25.184  26.835  1.00  0.00     0.049 A 
ATOM     37  H   UNL A   1      43.444  27.082  27.578  1.00  0.00     0.167 HD
ATOM     38  C   UNL A   1      40.948  25.882  28.207  1.00  0.00     0.074 A 
ATOM     39  C   UNL A   1      39.639  25.664  28.791  1.00  0.00     0.031 C 
ATOM     40  C   UNL A   1      41.579  24.996  27.396  1.00  0.00     0.034 A 
BRANCH  27  41
ATOM     41  C   UNL A   1      47.258  26.818  25.648  1.00  0.00     0.023 A 
ATOM     42  C   UNL A   1      48.360  26.219  26.280  1.00  0.00     0.031 A 
ATOM     43  C   UNL A   1      47.411  27.251  24.319  1.00  0.00     0.131 A 
ATOM     44  C   UNL A   1      49.593  26.153  25.613  1.00  0.00     0.055 A 
ATOM     45  C   UNL A   1      48.618  27.108  23.634  1.00  0.00     0.041 A 
ATOM     46  F   UNL A   1      46.400  27.858  23.677  1.00  0.00    -0.206 F 
ATOM     47  C   UNL A   1      49.724  26.574  24.287  1.00  0.00     0.022 A 
BRANCH  44  48
ATOM     48  S   UNL A   1      51.067  25.678  26.559  1.00  0.00     0.124 S 
ATOM     49  O   UNL A   1      51.300  26.874  27.364  1.00  0.00    -0.237 OA
ATOM     50  O   UNL A   1      50.610  24.498  27.285  1.00  0.00    -0.237 OA
ATOM     51  O   UNL A   1      52.071  25.426  25.527  1.00  0.00    -0.744 OA
ENDBRANCH  44  48
ENDBRANCH  27  41
BRANCH  28  52
ATOM     52  C   UNL A   1      39.028  29.337  30.753  1.00  0.00     0.023 A 
ATOM     53  C   UNL A   1      38.063  30.228  30.246  1.00  0.00     0.031 A 
ATOM     54  C   UNL A   1      38.853  28.854  32.064  1.00  0.00     0.131 A 
ATOM     55  C   UNL A   1      36.986  30.630  31.058  1.00  0.00     0.055 A 
ATOM     56  C   UNL A   1      37.756  29.217  32.846  1.00  0.00     0.041 A 
ATOM     57  F   UNL A   1      39.753  28.018  32.607  1.00  0.00    -0.206 F 
ATOM     58  C   UNL A   1      36.819  30.116  32.346  1.00  0.00     0.022 A 
BRANCH  55  59
ATOM     59  S   UNL A   1      35.859  31.932  30.472  1.00  0.00     0.124 S 
ATOM     60  O   UNL A   1      35.033  32.171  31.650  1.00  0.00    -0.237 OA
ATOM     61  O   UNL A   1      36.772  33.007  30.107  1.00  0.00    -0.237 OA
ATOM     62  O   UNL A   1      35.178  31.309  29.339  1.00  0.00    -0.744 OA
ENDBRANCH  55  59
ENDBRANCH  28  52
BRANCH  40  63
ATOM     63  C   UNL A   1      40.839  23.720  27.095  1.00  0.00     0.023 A 
ATOM     64  C   UNL A   1      39.660  23.726  26.329  1.00  0.00     0.031 A 
ATOM     65  C   UNL A   1      41.297  22.494  27.605  1.00  0.00     0.131 A 
ATOM     66  C   UNL A   1      38.946  22.535  26.140  1.00  0.00     0.055 A 
ATOM     67  C   UNL A   1      40.611  21.303  27.368  1.00  0.00     0.041 A 
ATOM     68  F   UNL A   1      42.415  22.438  28.347  1.00  0.00    -0.206 F 
ATOM     69  C   UNL A   1      39.422  21.321  26.643  1.00  0.00     0.022 A 
BRANCH  66  70
ATOM     70  S   UNL A   1      37.343  22.605  25.294  1.00  0.00     0.124 S 
ATOM     71  O   UNL A   1      37.403  23.908  24.640  1.00  0.00    -0.237 OA
ATOM     72  O   UNL A   1      37.402  21.444  24.412  1.00  0.00    -0.237 OA
ATOM     73  O   UNL A   1      36.376  22.502  26.386  1.00  0.00    -0.744 OA
ENDBRANCH  66  70
ENDBRANCH  40  63
ENDBRANCH  14  15
ENDBRANCH   7   9
ENDBRANCH   6   7
ENDBRANCH   5   6
ENDBRANCH   4   5
ENDBRANCH   3   4
ENDBRANCH   2   3
ENDBRANCH   1   2
BRANCH   1  74
ATOM     74  O   UNL A   1      43.019  39.376  26.457  1.00  0.00    -0.376 OA
BRANCH  74  75
ATOM     75  C   UNL A   1      41.953  40.181  26.956  1.00  0.00     0.202 C 
BRANCH  75  76
ATOM     76  C   UNL A   1      41.293  39.700  28.248  1.00  0.00     0.261 C 
BRANCH  76  77
ATOM     77  O   UNL A   1      41.955  40.152  29.433  1.00  0.00    -0.459 OA
BRANCH  77  78
ATOM     78  C   UNL A   1      41.222  40.984  30.208  1.00  0.00     0.357 C 
ATOM     79  O   UNL A   1      39.999  41.095  30.238  1.00  0.00    -0.244 OA
BRANCH  78  80
ATOM     80  C   UNL A   1      42.120  41.911  30.910  1.00  0.00     0.149 A 
ATOM     81  C   UNL A   1      43.085  42.518  30.128  1.00  0.00     0.051 A 
ATOM     82  N   UNL A   1      41.887  42.186  32.219  1.00  0.00    -0.249 NA
ATOM     83  C   UNL A   1      43.892  43.480  30.707  1.00  0.00     0.012 A 
ATOM     84  C   UNL A   1      42.677  43.139  32.754  1.00  0.00     0.113 A 
ATOM     85  C   UNL A   1      43.665  43.814  32.046  1.00  0.00     0.035 A 
BRANCH  83  86
ATOM     86  S   UNL A   1      45.165  44.346  29.815  1.00  0.00    -0.120 SA
BRANCH  86  87
ATOM     87  C   UNL A   1      44.920  43.851  28.079  1.00  0.00     0.132 C 
BRANCH  87  88
ATOM     88  C   UNL A   1      45.891  44.375  27.058  1.00  0.00     0.062 A 
ATOM     89  C   UNL A   1      47.186  44.727  27.390  1.00  0.00     0.091 A 
ATOM     90  N   UNL A   1      45.571  44.623  25.717  1.00  0.00    -0.240 NA
ATOM     91  S   UNL A   1      48.098  45.072  25.999  1.00  0.00    -0.122 S 
ATOM     92  C   UNL A   1      46.684  44.873  25.042  1.00  0.00     0.124 A 
BRANCH  92  93
ATOM     93  C   UNL A   1      46.749  45.049  23.549  1.00  0.00     0.021 A 
ATOM     94  C   UNL A   1      45.693  45.539  22.731  1.00  0.00     0.023 A 
ATOM     95  C   UNL A   1      47.877  44.766  22.804  1.00  0.00     0.076 A 
ATOM     96  C   UNL A   1      46.054  45.610  21.401  1.00  0.00     0.065 A 
ATOM     97  S   UNL A   1      47.649  45.055  21.134  1.00  0.00    -0.152 S 
ENDBRANCH  92  93
ENDBRANCH  87  88
ENDBRANCH  86  87
ENDBRANCH  83  86
ENDBRANCH  78  80
ENDBRANCH  77  78
ENDBRANCH  76  77
ENDBRANCH  75  76
ENDBRANCH  74  75
ENDBRANCH   1  74
TORSDOF 24
ENDMDL
MODEL 2
REMARK VINA RESULT:      -8.2      6.878     15.904
REMARK SMILES O=C(OCCOCCOCCOC(=O)c1cc(SCc2csc(-c3ccsc3)n2)ccn1)c1ccc(-c2c3nc(c(-c4cc(S(=O)(=O)[O-])ccc4F)c4ccc([nH]4)c(-c4cc(S(=O)(=O)[O-])ccc4F)c4nc(c(-c5cc(S(=O)(=O)[O-])ccc5F)c5ccc2[nH]5)C=C4)C=C3)cc1
REMARK SMILES IDX 8 1 7 2 6 3 5 4 4 5 3 6 2 7 1 8 33 9 34 10 95 11 35 12 94 13
REMARK SMILES IDX 36 14 37 15 38 16 88 17 39 18 93 19 87 20 89 21 40 22 92 23
REMARK SMILES IDX 86 24 85 25 41 27 73 28 53 29 72 30 54 31 57 32 71 33 90 34
REMARK SMILES IDX 55 35 56 36 70 38 91 39 58 40 42 41 43 42 51 43 44 44 50 45
REMARK SMILES IDX 52 46 49 47 45 48 46 49 47 50 48 51 74 52 75 53 83 54 76 55
REMARK SMILES IDX 82 56 84 57 81 58 77 59 78 60 79 61 80 62 59 63 60 64 68 65
REMARK SMILES IDX 61 66 67 67 69 68 66 69 62 70 63 71 64 72 65 73 9 74 10 75
REMARK SMILES IDX 11 76 12 77 13 78 14 79 15 80 16 81 32 82 17 83 31 84 30 85
REMARK SMILES IDX 18 86 19 87 20 88 21 89 29 90 22 91 23 92 24 93 25 94 28 95
REMARK SMILES IDX 26 96 27 97
REMARK H PARENT 89 26 57 37
REMARK Flexibility Score: inf
ROOT
ATOM      1  C   UNL A   1      33.942  34.625  32.489  1.00  0.00     0.188 C 
ENDROOT
BRANCH   1   2
ATOM      2  C   UNL A   1      35.106  35.600  32.686  1.00  0.00     0.188 C 
BRANCH   2   3
ATOM      3  O   UNL A   1      35.934  35.184  33.779  1.00  0.00    -0.376 OA
BRANCH   3   4
ATOM      4  C   UNL A   1      35.502  33.979  34.412  1.00  0.00     0.202 C 
BRANCH   4   5
ATOM      5  C   UNL A   1      36.539  32.847  34.465  1.00  0.00     0.261 C 
BRANCH   5   6
ATOM      6  O   UNL A   1      37.017  32.586  35.800  1.00  0.00    -0.460 OA
BRANCH   6   7
ATOM      7  C   UNL A   1      38.286  32.233  36.144  1.00  0.00     0.338 C 
ATOM      8  O   UNL A   1      38.506  31.134  36.646  1.00  0.00    -0.246 OA
BRANCH   7   9
ATOM      9  C   UNL A   1      39.431  33.145  35.882  1.00  0.00     0.060 A 
ATOM     10  C   UNL A   1      39.264  34.517  35.751  1.00  0.00     0.016 A 
ATOM     11  C   UNL A   1      40.728  32.619  35.813  1.00  0.00     0.016 A 
ATOM     12  C   UNL A   1      40.332  35.317  35.365  1.00  0.00     0.010 A 
ATOM     13  C   UNL A   1      41.822  33.448  35.505  1.00  0.00     0.010 A 
ATOM     14  C   UNL A   1      41.622  34.803  35.212  1.00  0.00    -0.014 A 
BRANCH  14  15
ATOM     15  C   UNL A   1      42.690  35.688  34.653  1.00  0.00     0.031 A 
ATOM     16  C   UNL A   1      42.876  35.784  33.164  1.00  0.00     0.074 A 
ATOM     17  C   UNL A   1      43.391  36.523  35.446  1.00  0.00     0.049 A 
ATOM     18  N   UNL A   1      43.772  36.451  32.483  1.00  0.00    -0.248 NA
ATOM     19  C   UNL A   1      41.928  35.031  32.333  1.00  0.00     0.031 C 
ATOM     20  C   UNL A   1      43.236  36.615  36.893  1.00  0.00     0.029 A 
ATOM     21  N   UNL A   1      44.323  37.493  35.156  1.00  0.00    -0.354 N 
ATOM     22  C   UNL A   1      43.529  36.159  31.147  1.00  0.00     0.074 A 
ATOM     23  C   UNL A   1      42.400  35.253  31.117  1.00  0.00     0.031 C 
ATOM     24  C   UNL A   1      43.972  37.638  37.349  1.00  0.00     0.029 A 
ATOM     25  C   UNL A   1      44.725  38.221  36.253  1.00  0.00     0.049 A 
ATOM     26  H   UNL A   1      44.670  37.650  34.248  1.00  0.00     0.167 HD
ATOM     27  C   UNL A   1      44.200  36.590  30.049  1.00  0.00     0.034 A 
ATOM     28  C   UNL A   1      45.614  39.227  36.386  1.00  0.00     0.034 A 
ATOM     29  C   UNL A   1      45.315  37.504  30.095  1.00  0.00     0.049 A 
ATOM     30  C   UNL A   1      46.381  39.651  35.166  1.00  0.00     0.074 A 
ATOM     31  C   UNL A   1      46.135  37.924  29.062  1.00  0.00     0.029 A 
ATOM     32  N   UNL A   1      45.761  38.152  31.240  1.00  0.00    -0.354 N 
ATOM     33  N   UNL A   1      46.241  39.249  33.925  1.00  0.00    -0.248 NA
ATOM     34  C   UNL A   1      47.452  40.634  35.369  1.00  0.00     0.031 C 
ATOM     35  C   UNL A   1      47.107  38.783  29.592  1.00  0.00     0.029 A 
ATOM     36  C   UNL A   1      46.856  38.950  30.944  1.00  0.00     0.049 A 
ATOM     37  H   UNL A   1      45.357  38.058  32.133  1.00  0.00     0.167 HD
ATOM     38  C   UNL A   1      47.228  39.908  33.204  1.00  0.00     0.074 A 
ATOM     39  C   UNL A   1      47.916  40.779  34.137  1.00  0.00     0.031 C 
ATOM     40  C   UNL A   1      47.552  39.785  31.892  1.00  0.00     0.034 A 
BRANCH  27  41
ATOM     41  C   UNL A   1      43.800  35.968  28.736  1.00  0.00     0.023 A 
ATOM     42  C   UNL A   1      44.425  34.812  28.235  1.00  0.00     0.031 A 
ATOM     43  C   UNL A   1      42.855  36.615  27.920  1.00  0.00     0.131 A 
ATOM     44  C   UNL A   1      44.163  34.394  26.921  1.00  0.00     0.055 A 
ATOM     45  C   UNL A   1      42.540  36.146  26.645  1.00  0.00     0.041 A 
ATOM     46  F   UNL A   1      42.251  37.739  28.336  1.00  0.00    -0.206 F 
ATOM     47  C   UNL A   1      43.209  35.040  26.130  1.00  0.00     0.022 A 
BRANCH  44  48
ATOM     48  S   UNL A   1      45.216  33.106  26.195  1.00  0.00     0.124 S 
ATOM     49  O   UNL A   1      44.223  32.145  25.721  1.00  0.00    -0.237 OA
ATOM     50  O   UNL A   1      45.943  33.837  25.163  1.00  0.00    -0.237 OA
ATOM     51  O   UNL A   1      46.025  32.649  27.323  1.00  0.00    -0.744 OA
ENDBRANCH  44  48
ENDBRANCH  27  41
BRANCH  28  52
ATOM     52  C   UNL A   1      45.926  39.824  37.721  1.00  0.00     0.023 A 
ATOM     53  C   UNL A   1      45.336  41.028  38.151  1.00  0.00     0.031 A 
ATOM     54  C   UNL A   1      46.899  39.236  38.552  1.00  0.00     0.131 A 
ATOM     55  C   UNL A   1      45.746  41.616  39.362  1.00  0.00     0.055 A 
ATOM     56  C   UNL A   1      47.265  39.797  39.775  1.00  0.00     0.041 A 
ATOM     57  F   UNL A   1      47.511  38.098  38.183  1.00  0.00    -0.206 F 
ATOM     58  C   UNL A   1      46.694  40.998  40.182  1.00  0.00     0.022 A 
BRANCH  55  59
ATOM     59  S   UNL A   1      45.129  43.267  39.811  1.00  0.00     0.124 S 
ATOM     60  O   UNL A   1      46.026  43.640  40.899  1.00  0.00    -0.237 OA
ATOM     61  O   UNL A   1      45.286  44.016  38.572  1.00  0.00    -0.237 OA
ATOM     62  O   UNL A   1      43.741  43.019  40.194  1.00  0.00    -0.744 OA
ENDBRANCH  55  59
ENDBRANCH  28  52
BRANCH  40  63
ATOM     63  C   UNL A   1      48.715  40.613  31.412  1.00  0.00     0.023 A 
ATOM     64  C   UNL A   1      50.028  40.114  31.449  1.00  0.00     0.031 A 
ATOM     65  C   UNL A   1      48.511  41.922  30.944  1.00  0.00     0.131 A 
ATOM     66  C   UNL A   1      51.098  40.940  31.077  1.00  0.00     0.055 A 
ATOM     67  C   UNL A   1      49.575  42.720  30.524  1.00  0.00     0.041 A 
ATOM     68  F   UNL A   1      47.276  42.446  30.895  1.00  0.00    -0.206 F 
ATOM     69  C   UNL A   1      50.879  42.235  30.601  1.00  0.00     0.022 A 
BRANCH  66  70
ATOM     70  S   UNL A   1      52.790  40.325  31.298  1.00  0.00     0.124 S 
ATOM     71  O   UNL A   1      53.267  41.144  32.408  1.00  0.00    -0.237 OA
ATOM     72  O   UNL A   1      52.575  38.912  31.593  1.00  0.00    -0.237 OA
ATOM     73  O   UNL A   1      53.424  40.598  30.009  1.00  0.00    -0.744 OA
ENDBRANCH  66  70
ENDBRANCH  40  63
ENDBRANCH  14  15
ENDBRANCH   7   9
ENDBRANCH   6   7
ENDBRANCH   5   6
ENDBRANCH   4   5
ENDBRANCH   3   4
ENDBRANCH   2   3
ENDBRANCH   1   2
BRANCH   1  74
ATOM     74  O   UNL A   1      33.717  34.218  31.134  1.00  0.00    -0.376 OA
BRANCH  74  75
ATOM     75  C   UNL A   1      33.457  35.251  30.186  1.00  0.00     0.202 C 
BRANCH  75  76
ATOM     76  C   UNL A   1      34.110  35.086  28.813  1.00  0.00     0.261 C 
BRANCH  76  77
ATOM     77  O   UNL A   1      34.057  33.748  28.309  1.00  0.00    -0.459 OA
BRANCH  77  78
ATOM     78  C   UNL A   1      35.227  33.072  28.377  1.00  0.00     0.357 C 
ATOM     79  O   UNL A   1      36.352  33.537  28.540  1.00  0.00    -0.244 OA
BRANCH  78  80
ATOM     80  C   UNL A   1      34.993  31.662  28.035  1.00  0.00     0.149 A 
ATOM     81  C   UNL A   1      33.737  31.368  27.536  1.00  0.00     0.051 A 
ATOM     82  N   UNL A   1      36.024  30.785  28.126  1.00  0.00    -0.249 NA
ATOM     83  C   UNL A   1      33.490  30.081  27.096  1.00  0.00     0.012 A 
ATOM     84  C   UNL A   1      35.761  29.541  27.675  1.00  0.00     0.113 A 
ATOM     85  C   UNL A   1      34.535  29.153  27.145  1.00  0.00     0.035 A 
BRANCH  83  86
ATOM     86  S   UNL A   1      31.925  29.568  26.422  1.00  0.00    -0.120 SA
BRANCH  86  87
ATOM     87  C   UNL A   1      31.552  28.004  27.279  1.00  0.00     0.132 C 
BRANCH  87  88
ATOM     88  C   UNL A   1      31.620  26.734  26.477  1.00  0.00     0.062 A 
ATOM     89  C   UNL A   1      30.498  26.174  25.893  1.00  0.00     0.091 A 
ATOM     90  N   UNL A   1      32.780  25.969  26.304  1.00  0.00    -0.240 NA
ATOM     91  S   UNL A   1      30.923  24.878  24.880  1.00  0.00    -0.122 S 
ATOM     92  C   UNL A   1      32.558  25.042  25.383  1.00  0.00     0.124 A 
BRANCH  92  93
ATOM     93  C   UNL A   1      33.615  24.122  24.834  1.00  0.00     0.021 A 
ATOM     94  C   UNL A   1      33.382  22.816  24.318  1.00  0.00     0.023 A 
ATOM     95  C   UNL A   1      34.949  24.468  24.754  1.00  0.00     0.076 A 
ATOM     96  C   UNL A   1      34.543  22.220  23.867  1.00  0.00     0.065 A 
ATOM     97  S   UNL A   1      35.912  23.216  24.097  1.00  0.00    -0.152 S 
ENDBRANCH  92  93
ENDBRANCH  87  88
ENDBRANCH  86  87
ENDBRANCH  83  86
ENDBRANCH  78  80
ENDBRANCH  77  78
ENDBRANCH  76  77
ENDBRANCH  75  76
ENDBRANCH  74  75
ENDBRANCH   1  74
TORSDOF 24
ENDMDL
MODEL 3
REMARK VINA RESULT:      -8.0      7.090     11.844
REMARK SMILES O=C(OCCOCCOCCOC(=O)c1cc(SCc2csc(-c3ccsc3)n2)ccn1)c1ccc(-c2c3nc(c(-c4cc(S(=O)(=O)[O-])ccc4F)c4ccc([nH]4)c(-c4cc(S(=O)(=O)[O-])ccc4F)c4nc(c(-c5cc(S(=O)(=O)[O-])ccc5F)c5ccc2[nH]5)C=C4)C=C3)cc1
REMARK SMILES IDX 8 1 7 2 6 3 5 4 4 5 3 6 2 7 1 8 33 9 34 10 95 11 35 12 94 13
REMARK SMILES IDX 36 14 37 15 38 16 88 17 39 18 93 19 87 20 89 21 40 22 92 23
REMARK SMILES IDX 86 24 85 25 41 27 73 28 53 29 72 30 54 31 57 32 71 33 90 34
REMARK SMILES IDX 55 35 56 36 70 38 91 39 58 40 42 41 43 42 51 43 44 44 50 45
REMARK SMILES IDX 52 46 49 47 45 48 46 49 47 50 48 51 74 52 75 53 83 54 76 55
REMARK SMILES IDX 82 56 84 57 81 58 77 59 78 60 79 61 80 62 59 63 60 64 68 65
REMARK SMILES IDX 61 66 67 67 69 68 66 69 62 70 63 71 64 72 65 73 9 74 10 75
REMARK SMILES IDX 11 76 12 77 13 78 14 79 15 80 16 81 32 82 17 83 31 84 30 85
REMARK SMILES IDX 18 86 19 87 20 88 21 89 29 90 22 91 23 92 24 93 25 94 28 95
REMARK SMILES IDX 26 96 27 97
REMARK H PARENT 89 26 57 37
REMARK Flexibility Score: inf
ROOT
ATOM      1  C   UNL A   1      46.100  42.305  24.088  1.00  0.00     0.188 C 
ENDROOT
BRANCH   1   2
ATOM      2  C   UNL A   1      45.959  40.970  24.824  1.00  0.00     0.188 C 
BRANCH   2   3
ATOM      3  O   UNL A   1      47.237  40.504  25.274  1.00  0.00    -0.376 OA
BRANCH   3   4
ATOM      4  C   UNL A   1      47.432  39.098  25.123  1.00  0.00     0.202 C 
BRANCH   4   5
ATOM      5  C   UNL A   1      46.856  38.222  26.246  1.00  0.00     0.261 C 
BRANCH   5   6
ATOM      6  O   UNL A   1      46.276  36.994  25.760  1.00  0.00    -0.460 OA
BRANCH   6   7
ATOM      7  C   UNL A   1      46.014  35.882  26.500  1.00  0.00     0.338 C 
ATOM      8  O   UNL A   1      46.242  34.767  26.041  1.00  0.00    -0.246 OA
BRANCH   7   9
ATOM      9  C   UNL A   1      45.490  35.994  27.888  1.00  0.00     0.060 A 
ATOM     10  C   UNL A   1      46.065  35.310  28.949  1.00  0.00     0.016 A 
ATOM     11  C   UNL A   1      44.415  36.856  28.149  1.00  0.00     0.016 A 
ATOM     12  C   UNL A   1      45.462  35.328  30.200  1.00  0.00     0.010 A 
ATOM     13  C   UNL A   1      43.859  36.936  29.439  1.00  0.00     0.010 A 
ATOM     14  C   UNL A   1      44.341  36.117  30.469  1.00  0.00    -0.014 A 
BRANCH  14  15
ATOM     15  C   UNL A   1      43.658  35.975  31.791  1.00  0.00     0.031 A 
ATOM     16  C   UNL A   1      44.118  36.799  32.962  1.00  0.00     0.074 A 
ATOM     17  C   UNL A   1      42.537  35.237  31.922  1.00  0.00     0.049 A 
ATOM     18  N   UNL A   1      43.694  36.788  34.200  1.00  0.00    -0.248 NA
ATOM     19  C   UNL A   1      45.195  37.763  32.705  1.00  0.00     0.031 C 
ATOM     20  C   UNL A   1      41.917  34.475  30.844  1.00  0.00     0.029 A 
ATOM     21  N   UNL A   1      41.684  35.050  32.985  1.00  0.00    -0.354 N 
ATOM     22  C   UNL A   1      44.486  37.703  34.881  1.00  0.00     0.074 A 
ATOM     23  C   UNL A   1      45.415  38.251  33.915  1.00  0.00     0.031 C 
ATOM     24  C   UNL A   1      40.748  33.981  31.272  1.00  0.00     0.029 A 
ATOM     25  C   UNL A   1      40.568  34.305  32.676  1.00  0.00     0.049 A 
ATOM     26  H   UNL A   1      41.856  35.416  33.883  1.00  0.00     0.167 HD
ATOM     27  C   UNL A   1      44.453  38.040  36.195  1.00  0.00     0.034 A 
ATOM     28  C   UNL A   1      39.525  33.897  33.427  1.00  0.00     0.034 A 
ATOM     29  C   UNL A   1      43.511  37.495  37.142  1.00  0.00     0.049 A 
ATOM     30  C   UNL A   1      39.538  34.238  34.891  1.00  0.00     0.074 A 
ATOM     31  C   UNL A   1      43.454  37.680  38.513  1.00  0.00     0.029 A 
ATOM     32  N   UNL A   1      42.449  36.663  36.812  1.00  0.00    -0.354 N 
ATOM     33  N   UNL A   1      40.388  34.987  35.553  1.00  0.00    -0.248 NA
ATOM     34  C   UNL A   1      38.477  33.648  35.715  1.00  0.00     0.031 C 
ATOM     35  C   UNL A   1      42.391  36.920  39.017  1.00  0.00     0.029 A 
ATOM     36  C   UNL A   1      41.744  36.310  37.954  1.00  0.00     0.049 A 
ATOM     37  H   UNL A   1      42.227  36.367  35.900  1.00  0.00     0.167 HD
ATOM     38  C   UNL A   1      39.980  34.933  36.880  1.00  0.00     0.074 A 
ATOM     39  C   UNL A   1      38.774  34.129  36.913  1.00  0.00     0.031 C 
ATOM     40  C   UNL A   1      40.565  35.479  37.975  1.00  0.00     0.034 A 
BRANCH  27  41
ATOM     41  C   UNL A   1      45.552  38.952  36.678  1.00  0.00     0.023 A 
ATOM     42  C   UNL A   1      45.420  40.351  36.672  1.00  0.00     0.031 A 
ATOM     43  C   UNL A   1      46.797  38.406  37.040  1.00  0.00     0.131 A 
ATOM     44  C   UNL A   1      46.539  41.156  36.933  1.00  0.00     0.055 A 
ATOM     45  C   UNL A   1      47.883  39.212  37.378  1.00  0.00     0.041 A 
ATOM     46  F   UNL A   1      46.987  37.077  37.033  1.00  0.00    -0.206 F 
ATOM     47  C   UNL A   1      47.764  40.597  37.307  1.00  0.00     0.022 A 
BRANCH  44  48
ATOM     48  S   UNL A   1      46.423  42.937  36.602  1.00  0.00     0.124 S 
ATOM     49  O   UNL A   1      46.218  42.955  35.156  1.00  0.00    -0.237 OA
ATOM     50  O   UNL A   1      45.280  43.335  37.415  1.00  0.00    -0.237 OA
ATOM     51  O   UNL A   1      47.716  43.453  37.047  1.00  0.00    -0.744 OA
ENDBRANCH  44  48
ENDBRANCH  27  41
BRANCH  28  52
ATOM     52  C   UNL A   1      38.447  33.026  32.864  1.00  0.00     0.023 A 
ATOM     53  C   UNL A   1      37.376  33.559  32.122  1.00  0.00     0.031 A 
ATOM     54  C   UNL A   1      38.431  31.646  33.142  1.00  0.00     0.131 A 
ATOM     55  C   UNL A   1      36.322  32.722  31.712  1.00  0.00     0.055 A 
ATOM     56  C   UNL A   1      37.409  30.812  32.690  1.00  0.00     0.041 A 
ATOM     57  F   UNL A   1      39.416  31.087  33.864  1.00  0.00    -0.206 F 
ATOM     58  C   UNL A   1      36.343  31.350  31.978  1.00  0.00     0.022 A 
BRANCH  55  59
ATOM     59  S   UNL A   1      34.849  33.450  30.933  1.00  0.00     0.124 S 
ATOM     60  O   UNL A   1      35.440  34.356  29.954  1.00  0.00    -0.237 OA
ATOM     61  O   UNL A   1      34.165  32.285  30.388  1.00  0.00    -0.237 OA
ATOM     62  O   UNL A   1      34.155  34.090  32.047  1.00  0.00    -0.744 OA
ENDBRANCH  55  59
ENDBRANCH  28  52
BRANCH  40  63
ATOM     63  C   UNL A   1      39.898  35.202  39.296  1.00  0.00     0.023 A 
ATOM     64  C   UNL A   1      40.122  33.997  39.986  1.00  0.00     0.031 A 
ATOM     65  C   UNL A   1      39.007  36.134  39.853  1.00  0.00     0.131 A 
ATOM     66  C   UNL A   1      39.419  33.731  41.169  1.00  0.00     0.055 A 
ATOM     67  C   UNL A   1      38.351  35.886  41.059  1.00  0.00     0.041 A 
ATOM     68  F   UNL A   1      38.756  37.296  39.230  1.00  0.00    -0.206 F 
ATOM     69  C   UNL A   1      38.546  34.674  41.718  1.00  0.00     0.022 A 
BRANCH  66  70
ATOM     70  S   UNL A   1      39.601  32.100  41.942  1.00  0.00     0.124 S 
ATOM     71  O   UNL A   1      40.717  31.533  41.192  1.00  0.00    -0.237 OA
ATOM     72  O   UNL A   1      39.875  32.441  43.334  1.00  0.00    -0.237 OA
ATOM     73  O   UNL A   1      38.307  31.463  41.705  1.00  0.00    -0.744 OA
ENDBRANCH  66  70
ENDBRANCH  40  63
ENDBRANCH  14  15
ENDBRANCH   7   9
ENDBRANCH   6   7
ENDBRANCH   5   6
ENDBRANCH   4   5
ENDBRANCH   3   4
ENDBRANCH   2   3
ENDBRANCH   1   2
BRANCH   1  74
ATOM     74  O   UNL A   1      46.970  42.279  22.950  1.00  0.00    -0.376 OA
BRANCH  74  75
ATOM     75  C   UNL A   1      46.454  42.812  21.733  1.00  0.00     0.202 C 
BRANCH  75  76
ATOM     76  C   UNL A   1      44.972  43.189  21.736  1.00  0.00     0.261 C 
BRANCH  76  77
ATOM     77  O   UNL A   1      44.270  42.764  20.564  1.00  0.00    -0.459 OA
BRANCH  77  78
ATOM     78  C   UNL A   1      42.931  42.646  20.720  1.00  0.00     0.357 C 
ATOM     79  O   UNL A   1      42.326  41.821  21.400  1.00  0.00    -0.244 OA
BRANCH  78  80
ATOM     80  C   UNL A   1      42.252  43.557  19.788  1.00  0.00     0.149 A 
ATOM     81  C   UNL A   1      43.072  44.444  19.114  1.00  0.00     0.051 A 
ATOM     82  N   UNL A   1      40.921  43.404  19.573  1.00  0.00    -0.249 NA
ATOM     83  C   UNL A   1      42.509  45.254  18.146  1.00  0.00     0.012 A 
ATOM     84  C   UNL A   1      40.401  44.195  18.612  1.00  0.00     0.113 A 
ATOM     85  C   UNL A   1      41.145  45.108  17.873  1.00  0.00     0.035 A 
BRANCH  83  86
ATOM     86  S   UNL A   1      43.448  46.431  17.197  1.00  0.00    -0.120 SA
BRANCH  86  87
ATOM     87  C   UNL A   1      45.127  45.725  17.131  1.00  0.00     0.132 C 
BRANCH  87  88
ATOM     88  C   UNL A   1      46.153  46.270  18.086  1.00  0.00     0.062 A 
ATOM     89  C   UNL A   1      46.655  47.552  17.969  1.00  0.00     0.091 A 
ATOM     90  N   UNL A   1      46.741  45.531  19.119  1.00  0.00    -0.240 NA
ATOM     91  S   UNL A   1      47.622  47.951  19.308  1.00  0.00    -0.122 S 
ATOM     92  C   UNL A   1      47.434  46.348  19.900  1.00  0.00     0.124 A 
BRANCH  92  93
ATOM     93  C   UNL A   1      48.091  45.935  21.189  1.00  0.00     0.021 A 
ATOM     94  C   UNL A   1      47.593  46.211  22.493  1.00  0.00     0.023 A 
ATOM     95  C   UNL A   1      49.265  45.209  21.239  1.00  0.00     0.076 A 
ATOM     96  C   UNL A   1      48.402  45.688  23.482  1.00  0.00     0.065 A 
ATOM     97  S   UNL A   1      49.775  44.897  22.842  1.00  0.00    -0.152 S 
ENDBRANCH  92  93
ENDBRANCH  87  88
ENDBRANCH  86  87
ENDBRANCH  83  86
ENDBRANCH  78  80
ENDBRANCH  77  78
ENDBRANCH  76  77
ENDBRANCH  75  76
ENDBRANCH  74  75
ENDBRANCH   1  74
TORSDOF 24
ENDMDL
