MODEL 1
REMARK VINA RESULT:     -10.0      0.000      0.000
REMARK SMILES O=C(CSc1nnnn1-c1ccc(C(=O)OCCOCCOCCOC(=O)c2ccc(-c3c4nc(c(-c5cc(S(=O)(=O)[O-])ccc5F)c5ccc([nH]5)c(-c5cc(S(=O)(=O)[O-])ccc5F)c5nc(c(-c6cc(S(=O)(=O)[O-])ccc6F)c6ccc3[nH]6)C=C5)C=C4)cc2)cc1)Nc1nc(-c2ccccc2)cs1
REMARK SMILES IDX 19 1 18 2 17 3 16 4 14 5 15 6 13 7 10 8 11 9 92 10 12 11
REMARK SMILES IDX 91 12 9 13 5 14 6 15 7 16 8 17 4 18 3 19 2 20 1 21 93 22
REMARK SMILES IDX 94 24 95 25 104 26 96 27 103 28 97 29 98 30 102 31 99 32
REMARK SMILES IDX 101 33 100 34 20 35 21 36 22 37 23 38 24 39 25 40 26 41
REMARK SMILES IDX 27 42 28 43 29 44 90 45 30 46 89 47 31 48 32 49 33 50 83 51
REMARK SMILES IDX 34 52 88 53 82 54 84 55 35 56 87 57 81 58 80 59 36 61 68 62
REMARK SMILES IDX 48 63 67 64 49 65 52 66 66 67 85 68 50 69 51 70 65 72 86 73
REMARK SMILES IDX 53 74 37 75 38 76 46 77 39 78 45 79 47 80 44 81 40 82 41 83
REMARK SMILES IDX 42 84 43 85 69 86 70 87 78 88 71 89 77 90 79 91 76 92 72 93
REMARK SMILES IDX 73 94 74 95 75 96 54 97 55 98 63 99 56 100 62 101 64 102
REMARK SMILES IDX 61 103 57 104 58 105 59 106 60 107
REMARK H PARENT 93 23 84 60 52 71
REMARK Flexibility Score: inf
ROOT
ATOM      1  O   UNL A   1      33.517  32.836  28.244  1.00  0.00    -0.376 OA
ENDROOT
BRANCH   1   2
ATOM      2  C   UNL A   1      34.580  31.947  27.937  1.00  0.00     0.202 C 
BRANCH   2   3
ATOM      3  C   UNL A   1      34.244  30.495  27.566  1.00  0.00     0.261 C 
BRANCH   3   4
ATOM      4  O   UNL A   1      33.379  30.362  26.428  1.00  0.00    -0.460 OA
BRANCH   4   5
ATOM      5  C   UNL A   1      32.495  29.339  26.479  1.00  0.00     0.338 C 
ATOM      6  O   UNL A   1      31.633  29.144  27.318  1.00  0.00    -0.246 OA
BRANCH   5   7
ATOM      7  C   UNL A   1      32.616  28.511  25.260  1.00  0.00     0.060 A 
ATOM      8  C   UNL A   1      32.834  26.752  23.124  1.00  0.00     0.069 A 
ATOM      9  C   UNL A   1      31.650  26.770  23.865  1.00  0.00     0.029 A 
ATOM     10  C   UNL A   1      33.854  27.688  23.366  1.00  0.00     0.029 A 
ATOM     11  C   UNL A   1      31.564  27.629  24.959  1.00  0.00     0.018 A 
ATOM     12  C   UNL A   1      33.738  28.582  24.429  1.00  0.00     0.018 A 
BRANCH   8  13
ATOM     13  N   UNL A   1      33.075  25.669  22.256  1.00  0.00    -0.187 N 
ATOM     14  C   UNL A   1      33.239  24.337  22.593  1.00  0.00     0.214 A 
ATOM     15  N   UNL A   1      33.390  23.633  21.497  1.00  0.00    -0.101 NA
ATOM     16  N   UNL A   1      33.242  24.527  20.462  1.00  0.00    -0.022 NA
ATOM     17  N   UNL A   1      32.962  25.745  20.914  1.00  0.00    -0.039 NA
BRANCH  14  18
ATOM     18  S   UNL A   1      32.867  23.698  24.165  1.00  0.00    -0.074 SA
BRANCH  18  19
ATOM     19  C   UNL A   1      33.812  22.165  24.165  1.00  0.00     0.178 C 
BRANCH  19  20
ATOM     20  C   UNL A   1      34.998  22.141  25.111  1.00  0.00     0.236 C 
ATOM     21  O   UNL A   1      34.953  21.396  26.088  1.00  0.00    -0.274 OA
ATOM     22  N   UNL A   1      36.071  22.910  24.722  1.00  0.00    -0.301 N 
ATOM     23  H   UNL A   1      35.985  23.473  23.919  1.00  0.00     0.172 HD
BRANCH  22  24
ATOM     24  C   UNL A   1      37.247  22.919  25.411  1.00  0.00     0.189 A 
ATOM     25  N   UNL A   1      37.772  23.882  26.116  1.00  0.00    -0.220 NA
ATOM     26  S   UNL A   1      38.126  21.457  25.338  1.00  0.00    -0.105 S 
ATOM     27  C   UNL A   1      39.012  23.490  26.571  1.00  0.00     0.084 A 
ATOM     28  C   UNL A   1      39.379  22.196  26.254  1.00  0.00     0.097 A 
BRANCH  27  29
ATOM     29  C   UNL A   1      39.838  24.404  27.329  1.00  0.00     0.001 A 
ATOM     30  C   UNL A   1      39.446  25.741  27.462  1.00  0.00     0.010 A 
ATOM     31  C   UNL A   1      41.055  23.981  27.874  1.00  0.00     0.010 A 
ATOM     32  C   UNL A   1      40.256  26.645  28.151  1.00  0.00     0.001 A 
ATOM     33  C   UNL A   1      41.869  24.889  28.551  1.00  0.00     0.001 A 
ATOM     34  C   UNL A   1      41.468  26.218  28.694  1.00  0.00     0.000 A 
ENDBRANCH  27  29
ENDBRANCH  22  24
ENDBRANCH  19  20
ENDBRANCH  18  19
ENDBRANCH  14  18
ENDBRANCH   8  13
ENDBRANCH   5   7
ENDBRANCH   4   5
ENDBRANCH   3   4
ENDBRANCH   2   3
ENDBRANCH   1   2
BRANCH   1  35
ATOM     35  C   UNL A   1      33.714  34.242  28.160  1.00  0.00     0.188 C 
BRANCH  35  36
ATOM     36  C   UNL A   1      34.039  35.103  29.402  1.00  0.00     0.188 C 
BRANCH  36  37
ATOM     37  O   UNL A   1      32.925  35.551  30.164  1.00  0.00    -0.376 OA
BRANCH  37  38
ATOM     38  C   UNL A   1      33.247  36.125  31.428  1.00  0.00     0.202 C 
BRANCH  38  39
ATOM     39  C   UNL A   1      32.980  35.199  32.612  1.00  0.00     0.261 C 
BRANCH  39  40
ATOM     40  O   UNL A   1      34.153  34.650  33.206  1.00  0.00    -0.460 OA
BRANCH  40  41
ATOM     41  C   UNL A   1      34.508  33.416  32.787  1.00  0.00     0.338 C 
ATOM     42  O   UNL A   1      33.863  32.681  32.061  1.00  0.00    -0.246 OA
BRANCH  41  43
ATOM     43  C   UNL A   1      35.804  33.071  33.388  1.00  0.00     0.060 A 
ATOM     44  C   UNL A   1      36.582  34.119  33.886  1.00  0.00     0.016 A 
ATOM     45  C   UNL A   1      36.319  31.774  33.245  1.00  0.00     0.016 A 
ATOM     46  C   UNL A   1      37.937  33.915  34.052  1.00  0.00     0.010 A 
ATOM     47  C   UNL A   1      37.673  31.574  33.400  1.00  0.00     0.010 A 
ATOM     48  C   UNL A   1      38.475  32.671  33.714  1.00  0.00    -0.014 A 
BRANCH  48  49
ATOM     49  C   UNL A   1      39.916  32.575  33.567  1.00  0.00     0.031 A 
ATOM     50  C   UNL A   1      40.468  32.851  32.227  1.00  0.00     0.074 A 
ATOM     51  C   UNL A   1      40.703  32.368  34.641  1.00  0.00     0.049 A 
ATOM     52  N   UNL A   1      41.231  32.091  31.516  1.00  0.00    -0.248 NA
ATOM     53  C   UNL A   1      40.075  34.103  31.567  1.00  0.00     0.031 C 
ATOM     54  C   UNL A   1      40.289  32.367  36.048  1.00  0.00     0.029 A 
ATOM     55  N   UNL A   1      42.058  32.248  34.709  1.00  0.00    -0.354 N 
ATOM     56  C   UNL A   1      41.589  32.848  30.407  1.00  0.00     0.074 A 
ATOM     57  C   UNL A   1      40.740  34.009  30.417  1.00  0.00     0.031 C 
ATOM     58  C   UNL A   1      41.384  32.482  36.827  1.00  0.00     0.029 A 
ATOM     59  C   UNL A   1      42.568  32.455  35.983  1.00  0.00     0.049 A 
ATOM     60  H   UNL A   1      42.622  32.035  33.930  1.00  0.00     0.167 HD
ATOM     61  C   UNL A   1      42.704  32.561  29.684  1.00  0.00     0.034 A 
ATOM     62  C   UNL A   1      43.860  32.685  36.324  1.00  0.00     0.034 A 
ATOM     63  C   UNL A   1      43.130  31.196  29.879  1.00  0.00     0.049 A 
ATOM     64  C   UNL A   1      44.714  32.166  35.229  1.00  0.00     0.074 A 
ATOM     65  C   UNL A   1      42.517  29.966  29.717  1.00  0.00     0.029 A 
ATOM     66  N   UNL A   1      44.259  30.948  30.624  1.00  0.00    -0.354 N 
ATOM     67  N   UNL A   1      44.826  30.901  34.932  1.00  0.00    -0.248 NA
ATOM     68  C   UNL A   1      45.143  33.082  34.182  1.00  0.00     0.031 C 
ATOM     69  C   UNL A   1      43.038  29.146  30.759  1.00  0.00     0.029 A 
ATOM     70  C   UNL A   1      43.965  29.907  31.473  1.00  0.00     0.049 A 
ATOM     71  H   UNL A   1      45.116  31.426  30.561  1.00  0.00     0.167 HD
ATOM     72  C   UNL A   1      44.923  30.862  33.551  1.00  0.00     0.074 A 
ATOM     73  C   UNL A   1      45.248  32.229  33.159  1.00  0.00     0.031 C 
ATOM     74  C   UNL A   1      44.451  29.798  32.836  1.00  0.00     0.034 A 
BRANCH  61  75
ATOM     75  C   UNL A   1      43.575  33.606  29.030  1.00  0.00     0.023 A 
ATOM     76  C   UNL A   1      44.044  33.345  27.729  1.00  0.00     0.031 A 
ATOM     77  C   UNL A   1      44.185  34.694  29.698  1.00  0.00     0.131 A 
ATOM     78  C   UNL A   1      45.105  34.086  27.183  1.00  0.00     0.055 A 
ATOM     79  C   UNL A   1      45.184  35.480  29.118  1.00  0.00     0.041 A 
ATOM     80  F   UNL A   1      43.925  34.995  30.976  1.00  0.00    -0.206 F 
ATOM     81  C   UNL A   1      45.672  35.161  27.863  1.00  0.00     0.022 A 
BRANCH  78  82
ATOM     82  S   UNL A   1      45.871  33.490  25.654  1.00  0.00     0.124 S 
ATOM     83  O   UNL A   1      46.500  34.703  25.143  1.00  0.00    -0.237 OA
ATOM     84  O   UNL A   1      46.772  32.457  26.155  1.00  0.00    -0.237 OA
ATOM     85  O   UNL A   1      44.734  33.004  24.874  1.00  0.00    -0.744 OA
ENDBRANCH  78  82
ENDBRANCH  61  75
BRANCH  62  86
ATOM     86  C   UNL A   1      44.341  33.561  37.423  1.00  0.00     0.023 A 
ATOM     87  C   UNL A   1      43.871  34.873  37.600  1.00  0.00     0.031 A 
ATOM     88  C   UNL A   1      45.149  33.031  38.457  1.00  0.00     0.131 A 
ATOM     89  C   UNL A   1      44.227  35.605  38.755  1.00  0.00     0.055 A 
ATOM     90  C   UNL A   1      45.524  33.767  39.581  1.00  0.00     0.041 A 
ATOM     91  F   UNL A   1      45.538  31.746  38.452  1.00  0.00    -0.206 F 
ATOM     92  C   UNL A   1      45.059  35.061  39.738  1.00  0.00     0.022 A 
BRANCH  89  93
ATOM     93  S   UNL A   1      43.502  37.246  39.054  1.00  0.00     0.124 S 
ATOM     94  O   UNL A   1      42.082  37.002  38.831  1.00  0.00    -0.237 OA
ATOM     95  O   UNL A   1      43.906  37.522  40.428  1.00  0.00    -0.237 OA
ATOM     96  O   UNL A   1      44.148  38.090  38.049  1.00  0.00    -0.744 OA
ENDBRANCH  89  93
ENDBRANCH  62  86
BRANCH  74  97
ATOM     97  C   UNL A   1      44.146  28.508  33.572  1.00  0.00     0.023 A 
ATOM     98  C   UNL A   1      43.143  28.371  34.556  1.00  0.00     0.031 A 
ATOM     99  C   UNL A   1      44.817  27.342  33.160  1.00  0.00     0.131 A 
ATOM    100  C   UNL A   1      42.856  27.106  35.102  1.00  0.00     0.055 A 
ATOM    101  C   UNL A   1      44.516  26.086  33.689  1.00  0.00     0.041 A 
ATOM    102  F   UNL A   1      45.756  27.398  32.200  1.00  0.00    -0.206 F 
ATOM    103  C   UNL A   1      43.538  25.964  34.670  1.00  0.00     0.022 A 
BRANCH 100 104
ATOM    104  S   UNL A   1      41.586  26.928  36.395  1.00  0.00     0.124 S 
ATOM    105  O   UNL A   1      40.942  28.237  36.424  1.00  0.00    -0.237 OA
ATOM    106  O   UNL A   1      40.774  25.826  35.889  1.00  0.00    -0.237 OA
ATOM    107  O   UNL A   1      42.365  26.608  37.593  1.00  0.00    -0.744 OA
ENDBRANCH 100 104
ENDBRANCH  74  97
ENDBRANCH  48  49
ENDBRANCH  41  43
ENDBRANCH  40  41
ENDBRANCH  39  40
ENDBRANCH  38  39
ENDBRANCH  37  38
ENDBRANCH  36  37
ENDBRANCH  35  36
ENDBRANCH   1  35
TORSDOF 26
ENDMDL
MODEL 2
REMARK VINA RESULT:      -9.8      5.638     13.571
REMARK SMILES O=C(CSc1nnnn1-c1ccc(C(=O)OCCOCCOCCOC(=O)c2ccc(-c3c4nc(c(-c5cc(S(=O)(=O)[O-])ccc5F)c5ccc([nH]5)c(-c5cc(S(=O)(=O)[O-])ccc5F)c5nc(c(-c6cc(S(=O)(=O)[O-])ccc6F)c6ccc3[nH]6)C=C5)C=C4)cc2)cc1)Nc1nc(-c2ccccc2)cs1
REMARK SMILES IDX 19 1 18 2 17 3 16 4 14 5 15 6 13 7 10 8 11 9 92 10 12 11
REMARK SMILES IDX 91 12 9 13 5 14 6 15 7 16 8 17 4 18 3 19 2 20 1 21 93 22
REMARK SMILES IDX 94 24 95 25 104 26 96 27 103 28 97 29 98 30 102 31 99 32
REMARK SMILES IDX 101 33 100 34 20 35 21 36 22 37 23 38 24 39 25 40 26 41
REMARK SMILES IDX 27 42 28 43 29 44 90 45 30 46 89 47 31 48 32 49 33 50 83 51
REMARK SMILES IDX 34 52 88 53 82 54 84 55 35 56 87 57 81 58 80 59 36 61 68 62
REMARK SMILES IDX 48 63 67 64 49 65 52 66 66 67 85 68 50 69 51 70 65 72 86 73
REMARK SMILES IDX 53 74 37 75 38 76 46 77 39 78 45 79 47 80 44 81 40 82 41 83
REMARK SMILES IDX 42 84 43 85 69 86 70 87 78 88 71 89 77 90 79 91 76 92 72 93
REMARK SMILES IDX 73 94 74 95 75 96 54 97 55 98 63 99 56 100 62 101 64 102
REMARK SMILES IDX 61 103 57 104 58 105 59 106 60 107
REMARK H PARENT 93 23 84 60 52 71
REMARK Flexibility Score: inf
ROOT
ATOM      1  O   UNL A   1      37.659  34.521  32.464  1.00  0.00    -0.376 OA
ENDROOT
BRANCH   1   2
ATOM      2  C   UNL A   1      38.304  34.575  31.200  1.00  0.00     0.202 C 
BRANCH   2   3
ATOM      3  C   UNL A   1      39.753  34.077  31.090  1.00  0.00     0.261 C 
BRANCH   3   4
ATOM      4  O   UNL A   1      40.364  34.318  29.813  1.00  0.00    -0.460 OA
BRANCH   4   5
ATOM      5  C   UNL A   1      41.703  34.132  29.759  1.00  0.00     0.338 C 
ATOM      6  O   UNL A   1      42.316  33.092  29.929  1.00  0.00    -0.246 OA
BRANCH   5   7
ATOM      7  C   UNL A   1      42.365  35.377  29.316  1.00  0.00     0.060 A 
ATOM      8  C   UNL A   1      43.578  37.801  28.720  1.00  0.00     0.069 A 
ATOM      9  C   UNL A   1      44.208  36.934  29.615  1.00  0.00     0.029 A 
ATOM     10  C   UNL A   1      42.416  37.413  28.031  1.00  0.00     0.029 A 
ATOM     11  C   UNL A   1      43.573  35.736  29.938  1.00  0.00     0.018 A 
ATOM     12  C   UNL A   1      41.815  36.189  28.319  1.00  0.00     0.018 A 
BRANCH   8  13
ATOM     13  N   UNL A   1      44.012  39.140  28.653  1.00  0.00    -0.187 N 
ATOM     14  C   UNL A   1      45.014  39.665  27.856  1.00  0.00     0.214 A 
ATOM     15  N   UNL A   1      45.077  40.961  28.044  1.00  0.00    -0.101 NA
ATOM     16  N   UNL A   1      44.051  41.257  28.912  1.00  0.00    -0.022 NA
ATOM     17  N   UNL A   1      43.347  40.171  29.214  1.00  0.00    -0.039 NA
BRANCH  14  18
ATOM     18  S   UNL A   1      45.736  38.796  26.536  1.00  0.00    -0.074 SA
BRANCH  18  19
ATOM     19  C   UNL A   1      46.915  40.004  25.910  1.00  0.00     0.178 C 
BRANCH  19  20
ATOM     20  C   UNL A   1      46.423  40.833  24.738  1.00  0.00     0.236 C 
ATOM     21  O   UNL A   1      46.676  40.445  23.599  1.00  0.00    -0.274 OA
ATOM     22  N   UNL A   1      45.644  41.916  25.075  1.00  0.00    -0.301 N 
ATOM     23  H   UNL A   1      45.517  42.131  26.027  1.00  0.00     0.172 HD
BRANCH  22  24
ATOM     24  C   UNL A   1      45.045  42.702  24.136  1.00  0.00     0.189 A 
ATOM     25  N   UNL A   1      45.600  43.437  23.212  1.00  0.00    -0.220 NA
ATOM     26  S   UNL A   1      43.339  42.697  24.186  1.00  0.00    -0.105 S 
ATOM     27  C   UNL A   1      44.623  44.133  22.535  1.00  0.00     0.084 A 
ATOM     28  C   UNL A   1      43.324  43.857  22.918  1.00  0.00     0.097 A 
BRANCH  27  29
ATOM     29  C   UNL A   1      44.980  45.074  21.496  1.00  0.00     0.001 A 
ATOM     30  C   UNL A   1      45.542  46.307  21.844  1.00  0.00     0.010 A 
ATOM     31  C   UNL A   1      44.705  44.792  20.154  1.00  0.00     0.010 A 
ATOM     32  C   UNL A   1      45.848  47.243  20.856  1.00  0.00     0.001 A 
ATOM     33  C   UNL A   1      44.999  45.735  19.168  1.00  0.00     0.001 A 
ATOM     34  C   UNL A   1      45.574  46.957  19.519  1.00  0.00     0.000 A 
ENDBRANCH  27  29
ENDBRANCH  22  24
ENDBRANCH  19  20
ENDBRANCH  18  19
ENDBRANCH  14  18
ENDBRANCH   8  13
ENDBRANCH   5   7
ENDBRANCH   4   5
ENDBRANCH   3   4
ENDBRANCH   2   3
ENDBRANCH   1   2
BRANCH   1  35
ATOM     35  C   UNL A   1      36.650  33.550  32.711  1.00  0.00     0.188 C 
BRANCH  35  36
ATOM     36  C   UNL A   1      35.154  33.830  32.444  1.00  0.00     0.188 C 
BRANCH  36  37
ATOM     37  O   UNL A   1      34.575  33.142  31.342  1.00  0.00    -0.376 OA
BRANCH  37  38
ATOM     38  C   UNL A   1      34.282  33.953  30.207  1.00  0.00     0.202 C 
BRANCH  38  39
ATOM     39  C   UNL A   1      34.567  33.270  28.871  1.00  0.00     0.261 C 
BRANCH  39  40
ATOM     40  O   UNL A   1      34.258  31.880  28.843  1.00  0.00    -0.460 OA
BRANCH  40  41
ATOM     41  C   UNL A   1      35.116  31.096  28.155  1.00  0.00     0.338 C 
ATOM     42  O   UNL A   1      34.992  30.716  27.005  1.00  0.00    -0.246 OA
BRANCH  41  43
ATOM     43  C   UNL A   1      36.229  30.726  29.042  1.00  0.00     0.060 A 
ATOM     44  C   UNL A   1      37.332  31.583  29.081  1.00  0.00     0.016 A 
ATOM     45  C   UNL A   1      36.262  29.453  29.631  1.00  0.00     0.016 A 
ATOM     46  C   UNL A   1      38.537  31.086  29.533  1.00  0.00     0.010 A 
ATOM     47  C   UNL A   1      37.467  28.956  30.073  1.00  0.00     0.010 A 
ATOM     48  C   UNL A   1      38.605  29.749  29.933  1.00  0.00    -0.014 A 
BRANCH  48  49
ATOM     49  C   UNL A   1      39.921  29.153  30.078  1.00  0.00     0.031 A 
ATOM     50  C   UNL A   1      40.448  29.026  31.450  1.00  0.00     0.074 A 
ATOM     51  C   UNL A   1      40.559  28.633  29.011  1.00  0.00     0.049 A 
ATOM     52  N   UNL A   1      41.569  29.471  31.909  1.00  0.00    -0.248 NA
ATOM     53  C   UNL A   1      39.596  28.378  32.455  1.00  0.00     0.031 C 
ATOM     54  C   UNL A   1      40.012  28.445  27.663  1.00  0.00     0.029 A 
ATOM     55  N   UNL A   1      41.783  28.039  28.941  1.00  0.00    -0.354 N 
ATOM     56  C   UNL A   1      41.666  28.981  33.206  1.00  0.00     0.074 A 
ATOM     57  C   UNL A   1      40.371  28.446  33.535  1.00  0.00     0.031 C 
ATOM     58  C   UNL A   1      40.802  27.589  26.984  1.00  0.00     0.029 A 
ATOM     59  C   UNL A   1      41.955  27.259  27.806  1.00  0.00     0.049 A 
ATOM     60  H   UNL A   1      42.479  28.151  29.629  1.00  0.00     0.167 HD
ATOM     61  C   UNL A   1      42.867  28.865  33.831  1.00  0.00     0.034 A 
ATOM     62  C   UNL A   1      42.921  26.333  27.584  1.00  0.00     0.034 A 
ATOM     63  C   UNL A   1      43.865  29.721  33.233  1.00  0.00     0.049 A 
ATOM     64  C   UNL A   1      44.057  26.641  28.484  1.00  0.00     0.074 A 
ATOM     65  C   UNL A   1      43.944  31.081  32.993  1.00  0.00     0.029 A 
ATOM     66  N   UNL A   1      44.863  29.156  32.475  1.00  0.00    -0.354 N 
ATOM     67  N   UNL A   1      44.800  27.708  28.378  1.00  0.00    -0.248 NA
ATOM     68  C   UNL A   1      44.131  25.968  29.773  1.00  0.00     0.031 C 
ATOM     69  C   UNL A   1      44.649  31.204  31.761  1.00  0.00     0.029 A 
ATOM     70  C   UNL A   1      44.992  29.920  31.339  1.00  0.00     0.049 A 
ATOM     71  H   UNL A   1      45.386  28.354  32.703  1.00  0.00     0.167 HD
ATOM     72  C   UNL A   1      45.088  28.078  29.682  1.00  0.00     0.074 A 
ATOM     73  C   UNL A   1      44.767  26.903  30.484  1.00  0.00     0.031 C 
ATOM     74  C   UNL A   1      45.284  29.387  30.021  1.00  0.00     0.034 A 
BRANCH  61  75
ATOM     75  C   UNL A   1      43.211  27.757  34.796  1.00  0.00     0.023 A 
ATOM     76  C   UNL A   1      43.789  26.587  34.271  1.00  0.00     0.031 A 
ATOM     77  C   UNL A   1      42.762  27.674  36.135  1.00  0.00     0.131 A 
ATOM     78  C   UNL A   1      43.833  25.402  35.025  1.00  0.00     0.055 A 
ATOM     79  C   UNL A   1      42.883  26.517  36.909  1.00  0.00     0.041 A 
ATOM     80  F   UNL A   1      42.093  28.667  36.736  1.00  0.00    -0.206 F 
ATOM     81  C   UNL A   1      43.396  25.362  36.347  1.00  0.00     0.022 A 
BRANCH  78  82
ATOM     82  S   UNL A   1      44.282  23.864  34.182  1.00  0.00     0.124 S 
ATOM     83  O   UNL A   1      43.442  22.890  34.872  1.00  0.00    -0.237 OA
ATOM     84  O   UNL A   1      43.919  24.165  32.801  1.00  0.00    -0.237 OA
ATOM     85  O   UNL A   1      45.715  23.743  34.441  1.00  0.00    -0.744 OA
ENDBRANCH  78  82
ENDBRANCH  61  75
BRANCH  62  86
ATOM     86  C   UNL A   1      42.771  25.067  26.822  1.00  0.00     0.023 A 
ATOM     87  C   UNL A   1      43.713  24.648  25.865  1.00  0.00     0.031 A 
ATOM     88  C   UNL A   1      41.770  24.132  27.178  1.00  0.00     0.131 A 
ATOM     89  C   UNL A   1      43.618  23.360  25.294  1.00  0.00     0.055 A 
ATOM     90  C   UNL A   1      41.662  22.872  26.589  1.00  0.00     0.041 A 
ATOM     91  F   UNL A   1      40.907  24.379  28.176  1.00  0.00    -0.206 F 
ATOM     92  C   UNL A   1      42.592  22.478  25.644  1.00  0.00     0.022 A 
BRANCH  89  93
ATOM     93  S   UNL A   1      44.917  22.765  24.167  1.00  0.00     0.124 S 
ATOM     94  O   UNL A   1      45.807  23.917  24.086  1.00  0.00    -0.237 OA
ATOM     95  O   UNL A   1      45.429  21.595  24.870  1.00  0.00    -0.237 OA
ATOM     96  O   UNL A   1      44.185  22.464  22.936  1.00  0.00    -0.744 OA
ENDBRANCH  89  93
ENDBRANCH  62  86
BRANCH  74  97
ATOM     97  C   UNL A   1      45.538  30.393  28.916  1.00  0.00     0.023 A 
ATOM     98  C   UNL A   1      46.820  30.831  28.519  1.00  0.00     0.031 A 
ATOM     99  C   UNL A   1      44.439  30.822  28.151  1.00  0.00     0.131 A 
ATOM    100  C   UNL A   1      46.965  31.680  27.407  1.00  0.00     0.055 A 
ATOM    101  C   UNL A   1      44.587  31.649  27.036  1.00  0.00     0.041 A 
ATOM    102  F   UNL A   1      43.195  30.412  28.453  1.00  0.00    -0.206 F 
ATOM    103  C   UNL A   1      45.852  32.088  26.664  1.00  0.00     0.022 A 
BRANCH 100 104
ATOM    104  S   UNL A   1      48.613  32.275  26.910  1.00  0.00     0.124 S 
ATOM    105  O   UNL A   1      48.329  33.194  25.813  1.00  0.00    -0.237 OA
ATOM    106  O   UNL A   1      49.112  32.881  28.140  1.00  0.00    -0.237 OA
ATOM    107  O   UNL A   1      49.309  31.050  26.511  1.00  0.00    -0.744 OA
ENDBRANCH 100 104
ENDBRANCH  74  97
ENDBRANCH  48  49
ENDBRANCH  41  43
ENDBRANCH  40  41
ENDBRANCH  39  40
ENDBRANCH  38  39
ENDBRANCH  37  38
ENDBRANCH  36  37
ENDBRANCH  35  36
ENDBRANCH   1  35
TORSDOF 26
ENDMDL
MODEL 3
REMARK VINA RESULT:      -9.8      4.342      8.225
REMARK SMILES O=C(CSc1nnnn1-c1ccc(C(=O)OCCOCCOCCOC(=O)c2ccc(-c3c4nc(c(-c5cc(S(=O)(=O)[O-])ccc5F)c5ccc([nH]5)c(-c5cc(S(=O)(=O)[O-])ccc5F)c5nc(c(-c6cc(S(=O)(=O)[O-])ccc6F)c6ccc3[nH]6)C=C5)C=C4)cc2)cc1)Nc1nc(-c2ccccc2)cs1
REMARK SMILES IDX 19 1 18 2 17 3 16 4 14 5 15 6 13 7 10 8 11 9 92 10 12 11
REMARK SMILES IDX 91 12 9 13 5 14 6 15 7 16 8 17 4 18 3 19 2 20 1 21 93 22
REMARK SMILES IDX 94 24 95 25 104 26 96 27 103 28 97 29 98 30 102 31 99 32
REMARK SMILES IDX 101 33 100 34 20 35 21 36 22 37 23 38 24 39 25 40 26 41
REMARK SMILES IDX 27 42 28 43 29 44 90 45 30 46 89 47 31 48 32 49 33 50 83 51
REMARK SMILES IDX 34 52 88 53 82 54 84 55 35 56 87 57 81 58 80 59 36 61 68 62
REMARK SMILES IDX 48 63 67 64 49 65 52 66 66 67 85 68 50 69 51 70 65 72 86 73
REMARK SMILES IDX 53 74 37 75 38 76 46 77 39 78 45 79 47 80 44 81 40 82 41 83
REMARK SMILES IDX 42 84 43 85 69 86 70 87 78 88 71 89 77 90 79 91 76 92 72 93
REMARK SMILES IDX 73 94 74 95 75 96 54 97 55 98 63 99 56 100 62 101 64 102
REMARK SMILES IDX 61 103 57 104 58 105 59 106 60 107
REMARK H PARENT 93 23 84 60 52 71
REMARK Flexibility Score: inf
ROOT
ATOM      1  O   UNL A   1      39.432  30.902  29.734  1.00  0.00    -0.376 OA
ENDROOT
BRANCH   1   2
ATOM      2  C   UNL A   1      38.177  31.566  29.690  1.00  0.00     0.202 C 
BRANCH   2   3
ATOM      3  C   UNL A   1      37.192  31.208  28.569  1.00  0.00     0.261 C 
BRANCH   3   4
ATOM      4  O   UNL A   1      35.809  31.306  28.945  1.00  0.00    -0.460 OA
BRANCH   4   5
ATOM      5  C   UNL A   1      34.981  31.817  28.006  1.00  0.00     0.338 C 
ATOM      6  O   UNL A   1      35.081  32.887  27.431  1.00  0.00    -0.246 OA
BRANCH   5   7
ATOM      7  C   UNL A   1      33.956  30.816  27.642  1.00  0.00     0.060 A 
ATOM      8  C   UNL A   1      32.183  28.868  26.768  1.00  0.00     0.069 A 
ATOM      9  C   UNL A   1      33.423  28.473  27.273  1.00  0.00     0.029 A 
ATOM     10  C   UNL A   1      31.778  30.213  26.811  1.00  0.00     0.029 A 
ATOM     11  C   UNL A   1      34.322  29.459  27.675  1.00  0.00     0.018 A 
ATOM     12  C   UNL A   1      32.662  31.190  27.265  1.00  0.00     0.018 A 
BRANCH   8  13
ATOM     13  N   UNL A   1      31.417  27.934  26.042  1.00  0.00    -0.187 N 
ATOM     14  C   UNL A   1      31.035  28.004  24.714  1.00  0.00     0.214 A 
ATOM     15  N   UNL A   1      30.377  26.914  24.398  1.00  0.00    -0.101 NA
ATOM     16  N   UNL A   1      30.415  26.123  25.524  1.00  0.00    -0.022 NA
ATOM     17  N   UNL A   1      31.120  26.698  26.493  1.00  0.00    -0.039 NA
BRANCH  14  18
ATOM     18  S   UNL A   1      31.706  29.145  23.588  1.00  0.00    -0.074 SA
BRANCH  18  19
ATOM     19  C   UNL A   1      33.386  28.524  23.402  1.00  0.00     0.178 C 
BRANCH  19  20
ATOM     20  C   UNL A   1      33.491  27.054  23.043  1.00  0.00     0.236 C 
ATOM     21  O   UNL A   1      33.762  26.752  21.882  1.00  0.00    -0.274 OA
ATOM     22  N   UNL A   1      33.359  26.184  24.100  1.00  0.00    -0.301 N 
ATOM     23  H   UNL A   1      33.134  26.546  24.988  1.00  0.00     0.172 HD
BRANCH  22  24
ATOM     24  C   UNL A   1      33.526  24.838  23.960  1.00  0.00     0.189 A 
ATOM     25  N   UNL A   1      34.496  24.086  24.401  1.00  0.00    -0.220 NA
ATOM     26  S   UNL A   1      32.277  24.051  23.102  1.00  0.00    -0.105 S 
ATOM     27  C   UNL A   1      34.308  22.795  23.960  1.00  0.00     0.084 A 
ATOM     28  C   UNL A   1      33.148  22.575  23.241  1.00  0.00     0.097 A 
BRANCH  27  29
ATOM     29  C   UNL A   1      35.283  21.769  24.258  1.00  0.00     0.001 A 
ATOM     30  C   UNL A   1      34.851  20.500  24.657  1.00  0.00     0.010 A 
ATOM     31  C   UNL A   1      36.653  22.053  24.216  1.00  0.00     0.010 A 
ATOM     32  C   UNL A   1      35.780  19.514  24.993  1.00  0.00     0.001 A 
ATOM     33  C   UNL A   1      37.580  21.071  24.565  1.00  0.00     0.001 A 
ATOM     34  C   UNL A   1      37.144  19.802  24.948  1.00  0.00     0.000 A 
ENDBRANCH  27  29
ENDBRANCH  22  24
ENDBRANCH  19  20
ENDBRANCH  18  19
ENDBRANCH  14  18
ENDBRANCH   8  13
ENDBRANCH   5   7
ENDBRANCH   4   5
ENDBRANCH   3   4
ENDBRANCH   2   3
ENDBRANCH   1   2
BRANCH   1  35
ATOM     35  C   UNL A   1      40.458  31.367  30.601  1.00  0.00     0.188 C 
BRANCH  35  36
ATOM     36  C   UNL A   1      40.671  32.870  30.894  1.00  0.00     0.188 C 
BRANCH  36  37
ATOM     37  O   UNL A   1      41.507  33.573  29.983  1.00  0.00    -0.376 OA
BRANCH  37  38
ATOM     38  C   UNL A   1      41.026  34.854  29.585  1.00  0.00     0.202 C 
BRANCH  38  39
ATOM     39  C   UNL A   1      42.042  35.674  28.792  1.00  0.00     0.261 C 
BRANCH  39  40
ATOM     40  O   UNL A   1      42.407  35.105  27.538  1.00  0.00    -0.460 OA
BRANCH  40  41
ATOM     41  C   UNL A   1      43.610  35.474  27.047  1.00  0.00     0.338 C 
ATOM     42  O   UNL A   1      43.918  36.575  26.630  1.00  0.00    -0.246 OA
BRANCH  41  43
ATOM     43  C   UNL A   1      44.499  34.303  27.055  1.00  0.00     0.060 A 
ATOM     44  C   UNL A   1      44.212  33.271  26.159  1.00  0.00     0.016 A 
ATOM     45  C   UNL A   1      45.444  34.148  28.081  1.00  0.00     0.016 A 
ATOM     46  C   UNL A   1      44.722  32.014  26.415  1.00  0.00     0.010 A 
ATOM     47  C   UNL A   1      45.944  32.892  28.341  1.00  0.00     0.010 A 
ATOM     48  C   UNL A   1      45.503  31.826  27.557  1.00  0.00    -0.014 A 
BRANCH  48  49
ATOM     49  C   UNL A   1      45.744  30.463  27.994  1.00  0.00     0.031 A 
ATOM     50  C   UNL A   1      46.954  29.800  27.473  1.00  0.00     0.074 A 
ATOM     51  C   UNL A   1      44.958  29.894  28.930  1.00  0.00     0.049 A 
ATOM     52  N   UNL A   1      47.029  28.675  26.844  1.00  0.00    -0.248 NA
ATOM     53  C   UNL A   1      48.236  30.503  27.611  1.00  0.00     0.031 C 
ATOM     54  C   UNL A   1      43.913  30.553  29.721  1.00  0.00     0.029 A 
ATOM     55  N   UNL A   1      45.019  28.642  29.464  1.00  0.00    -0.354 N 
ATOM     56  C   UNL A   1      48.386  28.419  26.690  1.00  0.00     0.074 A 
ATOM     57  C   UNL A   1      49.070  29.634  27.043  1.00  0.00     0.031 C 
ATOM     58  C   UNL A   1      43.603  29.771  30.775  1.00  0.00     0.029 A 
ATOM     59  C   UNL A   1      44.343  28.524  30.671  1.00  0.00     0.049 A 
ATOM     60  H   UNL A   1      45.496  27.894  29.037  1.00  0.00     0.167 HD
ATOM     61  C   UNL A   1      48.849  27.158  26.483  1.00  0.00     0.034 A 
ATOM     62  C   UNL A   1      44.449  27.520  31.576  1.00  0.00     0.034 A 
ATOM     63  C   UNL A   1      47.818  26.287  25.971  1.00  0.00     0.049 A 
ATOM     64  C   UNL A   1      44.974  26.328  30.869  1.00  0.00     0.074 A 
ATOM     65  C   UNL A   1      46.985  26.330  24.868  1.00  0.00     0.029 A 
ATOM     66  N   UNL A   1      47.283  25.328  26.799  1.00  0.00    -0.354 N 
ATOM     67  N   UNL A   1      44.313  25.678  29.952  1.00  0.00    -0.248 NA
ATOM     68  C   UNL A   1      46.408  26.082  30.881  1.00  0.00     0.031 C 
ATOM     69  C   UNL A   1      45.756  25.756  25.304  1.00  0.00     0.029 A 
ATOM     70  C   UNL A   1      45.918  25.363  26.632  1.00  0.00     0.049 A 
ATOM     71  H   UNL A   1      47.783  24.729  27.398  1.00  0.00     0.167 HD
ATOM     72  C   UNL A   1      45.267  25.294  29.023  1.00  0.00     0.074 A 
ATOM     73  C   UNL A   1      46.544  25.451  29.712  1.00  0.00     0.031 C 
ATOM     74  C   UNL A   1      44.956  25.161  27.700  1.00  0.00     0.034 A 
BRANCH  61  75
ATOM     75  C   UNL A   1      50.162  26.645  27.024  1.00  0.00     0.023 A 
ATOM     76  C   UNL A   1      50.264  26.443  28.412  1.00  0.00     0.031 A 
ATOM     77  C   UNL A   1      51.380  26.605  26.305  1.00  0.00     0.131 A 
ATOM     78  C   UNL A   1      51.517  26.291  29.030  1.00  0.00     0.055 A 
ATOM     79  C   UNL A   1      52.616  26.371  26.913  1.00  0.00     0.041 A 
ATOM     80  F   UNL A   1      51.457  26.888  24.998  1.00  0.00    -0.206 F 
ATOM     81  C   UNL A   1      52.694  26.241  28.288  1.00  0.00     0.022 A 
BRANCH  78  82
ATOM     82  S   UNL A   1      51.598  26.367  30.837  1.00  0.00     0.124 S 
ATOM     83  O   UNL A   1      51.102  27.714  31.101  1.00  0.00    -0.237 OA
ATOM     84  O   UNL A   1      50.718  25.268  31.221  1.00  0.00    -0.237 OA
ATOM     85  O   UNL A   1      53.016  26.161  31.120  1.00  0.00    -0.744 OA
ENDBRANCH  78  82
ENDBRANCH  61  75
BRANCH  62  86
ATOM     86  C   UNL A   1      44.360  27.650  33.054  1.00  0.00     0.023 A 
ATOM     87  C   UNL A   1      43.260  27.172  33.787  1.00  0.00     0.031 A 
ATOM     88  C   UNL A   1      45.481  28.083  33.801  1.00  0.00     0.131 A 
ATOM     89  C   UNL A   1      43.299  27.163  35.199  1.00  0.00     0.055 A 
ATOM     90  C   UNL A   1      45.504  28.101  35.196  1.00  0.00     0.041 A 
ATOM     91  F   UNL A   1      46.631  28.430  33.200  1.00  0.00    -0.206 F 
ATOM     92  C   UNL A   1      44.410  27.635  35.903  1.00  0.00     0.022 A 
BRANCH  89  93
ATOM     93  S   UNL A   1      41.938  26.411  36.143  1.00  0.00     0.124 S 
ATOM     94  O   UNL A   1      41.569  27.482  37.060  1.00  0.00    -0.237 OA
ATOM     95  O   UNL A   1      40.973  26.087  35.099  1.00  0.00    -0.237 OA
ATOM     96  O   UNL A   1      42.565  25.249  36.774  1.00  0.00    -0.744 OA
ENDBRANCH  89  93
ENDBRANCH  62  86
BRANCH  74  97
ATOM     97  C   UNL A   1      43.496  25.087  27.301  1.00  0.00     0.023 A 
ATOM     98  C   UNL A   1      42.737  23.896  27.278  1.00  0.00     0.031 A 
ATOM     99  C   UNL A   1      42.816  26.295  27.062  1.00  0.00     0.131 A 
ATOM    100  C   UNL A   1      41.358  23.941  27.005  1.00  0.00     0.055 A 
ATOM    101  C   UNL A   1      41.444  26.339  26.810  1.00  0.00     0.041 A 
ATOM    102  F   UNL A   1      43.473  27.467  27.105  1.00  0.00    -0.206 F 
ATOM    103  C   UNL A   1      40.710  25.159  26.773  1.00  0.00     0.022 A 
BRANCH 100 104
ATOM    104  S   UNL A   1      40.381  22.406  26.941  1.00  0.00     0.124 S 
ATOM    105  O   UNL A   1      40.839  21.759  25.717  1.00  0.00    -0.237 OA
ATOM    106  O   UNL A   1      40.749  21.747  28.191  1.00  0.00    -0.237 OA
ATOM    107  O   UNL A   1      38.998  22.886  26.893  1.00  0.00    -0.744 OA
ENDBRANCH 100 104
ENDBRANCH  74  97
ENDBRANCH  48  49
ENDBRANCH  41  43
ENDBRANCH  40  41
ENDBRANCH  39  40
ENDBRANCH  38  39
ENDBRANCH  37  38
ENDBRANCH  36  37
ENDBRANCH  35  36
ENDBRANCH   1  35
TORSDOF 26
ENDMDL
