MODEL 1
REMARK VINA RESULT:     -11.0      0.000      0.000
REMARK SMILES C[C@]1(C(=O)N[C@](C)(C(=O)OCCOCCOCCOC(=O)c2ccc(-c3c4nc(c(-c5cc(S(=O)(=O)[O-])ccc5F)c5ccc([nH]5)c(-c5cc(S(=O)(=O)[O-])ccc5F)c5nc(c(-c6cc(S(=O)(=O)[O-])ccc6F)c6ccc3[nH]6)C=C5)C=C4)cc2)c2ccccc2)CCCO1
REMARK SMILES IDX 15 1 14 2 13 3 12 4 11 5 10 6 8 7 9 8 6 9 7 10 5 11 3 12
REMARK SMILES IDX 4 13 2 15 1 16 91 17 94 18 92 19 93 20 85 21 86 22 90 23
REMARK SMILES IDX 87 24 89 25 88 26 16 27 17 28 18 29 19 30 20 31 21 32 22 33
REMARK SMILES IDX 23 34 84 35 24 36 83 37 25 38 26 39 27 40 77 41 28 42 82 43
REMARK SMILES IDX 76 44 78 45 29 46 81 47 75 48 74 49 30 51 62 52 42 53 61 54
REMARK SMILES IDX 43 55 46 56 60 57 79 58 44 59 45 60 59 62 80 63 47 64 31 65
REMARK SMILES IDX 32 66 40 67 33 68 39 69 41 70 38 71 34 72 35 73 36 74 37 75
REMARK SMILES IDX 63 76 64 77 72 78 65 79 71 80 73 81 70 82 66 83 67 84 68 85
REMARK SMILES IDX 69 86 48 87 49 88 57 89 50 90 56 91 58 92 55 93 51 94 52 95
REMARK SMILES IDX 53 96 54 97
REMARK H PARENT 5 14 78 50 46 61
REMARK Flexibility Score: inf
ROOT
ATOM      1  C   UNL A   1      35.110  20.449  24.880  1.00  0.00     0.188 C 
ENDROOT
BRANCH   1   2
ATOM      2  C   UNL A   1      35.366  21.881  25.373  1.00  0.00     0.188 C 
BRANCH   2   3
ATOM      3  O   UNL A   1      34.253  22.697  25.690  1.00  0.00    -0.376 OA
BRANCH   3   4
ATOM      4  C   UNL A   1      33.819  22.774  27.041  1.00  0.00     0.202 C 
BRANCH   4   5
ATOM      5  C   UNL A   1      32.332  22.899  27.419  1.00  0.00     0.261 C 
BRANCH   5   6
ATOM      6  O   UNL A   1      31.424  22.966  26.305  1.00  0.00    -0.461 OA
BRANCH   6   7
ATOM      7  C   UNL A   1      30.563  24.024  26.312  1.00  0.00     0.336 C 
ATOM      8  O   UNL A   1      29.576  24.067  27.044  1.00  0.00    -0.249 OA
BRANCH   7   9
ATOM      9  C   UNL A   1      30.973  25.196  25.331  1.00  0.00     0.161 C 
ATOM     10  C   UNL A   1      31.644  24.619  24.055  1.00  0.00     0.053 C 
BRANCH   9  11
ATOM     11  N   UNL A   1      29.615  25.657  24.869  1.00  0.00    -0.334 N 
ATOM     12  C   UNL A   1      29.031  26.619  24.113  1.00  0.00     0.253 C 
ATOM     13  O   UNL A   1      27.796  26.540  24.044  1.00  0.00    -0.272 OA
ATOM     14  H   UNL A   1      28.922  25.062  25.238  1.00  0.00     0.165 HD
BRANCH  12  15
ATOM     15  C   UNL A   1      29.791  27.696  23.316  1.00  0.00     0.143 C 
ATOM     16  C   UNL A   1      28.793  28.598  22.584  1.00  0.00     0.053 C 
ATOM     17  C   UNL A   1      30.715  28.551  24.194  1.00  0.00     0.048 C 
ATOM     18  O   UNL A   1      30.691  27.073  22.399  1.00  0.00    -0.365 OA
ATOM     19  C   UNL A   1      31.819  28.934  23.232  1.00  0.00     0.032 C 
ATOM     20  C   UNL A   1      31.995  27.646  22.478  1.00  0.00     0.162 C 
ENDBRANCH  12  15
ENDBRANCH   9  11
BRANCH   9  21
ATOM     21  C   UNL A   1      31.848  26.240  26.050  1.00  0.00    -0.012 A 
ATOM     22  C   UNL A   1      31.306  27.098  27.030  1.00  0.00     0.007 A 
ATOM     23  C   UNL A   1      33.206  26.437  25.719  1.00  0.00     0.007 A 
ATOM     24  C   UNL A   1      32.041  28.169  27.554  1.00  0.00     0.000 A 
ATOM     25  C   UNL A   1      33.929  27.529  26.216  1.00  0.00     0.000 A 
ATOM     26  C   UNL A   1      33.335  28.410  27.109  1.00  0.00     0.000 A 
ENDBRANCH   9  21
ENDBRANCH   7   9
ENDBRANCH   6   7
ENDBRANCH   5   6
ENDBRANCH   4   5
ENDBRANCH   3   4
ENDBRANCH   2   3
ENDBRANCH   1   2
BRANCH   1  27
ATOM     27  O   UNL A   1      36.182  19.539  24.821  1.00  0.00    -0.376 OA
BRANCH  27  28
ATOM     28  C   UNL A   1      37.514  20.005  24.944  1.00  0.00     0.202 C 
BRANCH  28  29
ATOM     29  C   UNL A   1      38.736  19.154  25.348  1.00  0.00     0.261 C 
BRANCH  29  30
ATOM     30  O   UNL A   1      39.463  19.503  26.529  1.00  0.00    -0.460 OA
BRANCH  30  31
ATOM     31  C   UNL A   1      40.773  19.813  26.338  1.00  0.00     0.338 C 
ATOM     32  O   UNL A   1      41.594  19.153  25.731  1.00  0.00    -0.246 OA
BRANCH  31  33
ATOM     33  C   UNL A   1      40.996  21.206  26.791  1.00  0.00     0.060 A 
ATOM     34  C   UNL A   1      40.330  22.238  26.120  1.00  0.00     0.016 A 
ATOM     35  C   UNL A   1      41.860  21.495  27.848  1.00  0.00     0.016 A 
ATOM     36  C   UNL A   1      40.540  23.564  26.498  1.00  0.00     0.010 A 
ATOM     37  C   UNL A   1      42.082  22.830  28.212  1.00  0.00     0.010 A 
ATOM     38  C   UNL A   1      41.432  23.874  27.531  1.00  0.00    -0.014 A 
BRANCH  38  39
ATOM     39  C   UNL A   1      41.829  25.291  27.742  1.00  0.00     0.031 A 
ATOM     40  C   UNL A   1      43.161  25.736  27.213  1.00  0.00     0.074 A 
ATOM     41  C   UNL A   1      41.012  26.179  28.336  1.00  0.00     0.049 A 
ATOM     42  N   UNL A   1      43.761  26.890  27.336  1.00  0.00    -0.248 NA
ATOM     43  C   UNL A   1      43.919  24.735  26.446  1.00  0.00     0.031 C 
ATOM     44  C   UNL A   1      39.671  25.886  28.830  1.00  0.00     0.029 A 
ATOM     45  N   UNL A   1      41.185  27.514  28.615  1.00  0.00    -0.354 N 
ATOM     46  C   UNL A   1      44.980  26.750  26.682  1.00  0.00     0.074 A 
ATOM     47  C   UNL A   1      45.035  25.394  26.178  1.00  0.00     0.031 C 
ATOM     48  C   UNL A   1      39.130  27.013  29.327  1.00  0.00     0.029 A 
ATOM     49  C   UNL A   1      40.118  28.089  29.267  1.00  0.00     0.049 A 
ATOM     50  H   UNL A   1      41.999  28.012  28.372  1.00  0.00     0.167 HD
ATOM     51  C   UNL A   1      45.966  27.667  26.526  1.00  0.00     0.034 A 
ATOM     52  C   UNL A   1      39.972  29.325  29.794  1.00  0.00     0.034 A 
ATOM     53  C   UNL A   1      45.905  29.008  27.054  1.00  0.00     0.049 A 
ATOM     54  C   UNL A   1      41.130  30.297  29.702  1.00  0.00     0.074 A 
ATOM     55  C   UNL A   1      46.858  30.008  26.975  1.00  0.00     0.029 A 
ATOM     56  N   UNL A   1      44.839  29.534  27.774  1.00  0.00    -0.354 N 
ATOM     57  N   UNL A   1      42.297  30.143  29.116  1.00  0.00    -0.248 NA
ATOM     58  C   UNL A   1      40.957  31.603  30.354  1.00  0.00     0.031 C 
ATOM     59  C   UNL A   1      46.405  31.107  27.710  1.00  0.00     0.029 A 
ATOM     60  C   UNL A   1      45.127  30.831  28.171  1.00  0.00     0.049 A 
ATOM     61  H   UNL A   1      44.002  29.056  27.972  1.00  0.00     0.167 HD
ATOM     62  C   UNL A   1      42.982  31.342  29.309  1.00  0.00     0.074 A 
ATOM     63  C   UNL A   1      42.091  32.213  30.046  1.00  0.00     0.031 C 
ATOM     64  C   UNL A   1      44.233  31.691  28.913  1.00  0.00     0.034 A 
BRANCH  51  65
ATOM     65  C   UNL A   1      47.221  27.212  25.825  1.00  0.00     0.023 A 
ATOM     66  C   UNL A   1      48.229  26.499  26.497  1.00  0.00     0.031 A 
ATOM     67  C   UNL A   1      47.433  27.541  24.476  1.00  0.00     0.131 A 
ATOM     68  C   UNL A   1      49.434  26.207  25.840  1.00  0.00     0.055 A 
ATOM     69  C   UNL A   1      48.598  27.171  23.801  1.00  0.00     0.041 A 
ATOM     70  F   UNL A   1      46.519  28.246  23.791  1.00  0.00    -0.206 F 
ATOM     71  C   UNL A   1      49.614  26.514  24.490  1.00  0.00     0.022 A 
BRANCH  68  72
ATOM     72  S   UNL A   1      50.820  25.567  26.818  1.00  0.00     0.124 S 
ATOM     73  O   UNL A   1      51.765  25.179  25.772  1.00  0.00    -0.237 OA
ATOM     74  O   UNL A   1      51.198  26.723  27.622  1.00  0.00    -0.237 OA
ATOM     75  O   UNL A   1      50.232  24.454  27.558  1.00  0.00    -0.744 OA
ENDBRANCH  68  72
ENDBRANCH  51  65
BRANCH  52  76
ATOM     76  C   UNL A   1      38.730  29.706  30.533  1.00  0.00     0.023 A 
ATOM     77  C   UNL A   1      37.764  30.551  29.958  1.00  0.00     0.031 A 
ATOM     78  C   UNL A   1      38.527  29.296  31.864  1.00  0.00     0.131 A 
ATOM     79  C   UNL A   1      36.674  30.997  30.724  1.00  0.00     0.055 A 
ATOM     80  C   UNL A   1      37.408  29.689  32.600  1.00  0.00     0.041 A 
ATOM     81  F   UNL A   1      39.422  28.503  32.474  1.00  0.00    -0.206 F 
ATOM     82  C   UNL A   1      36.480  30.557  32.035  1.00  0.00     0.022 A 
BRANCH  79  83
ATOM     83  S   UNL A   1      35.564  32.246  30.018  1.00  0.00     0.124 S 
ATOM     84  O   UNL A   1      36.436  33.413  29.951  1.00  0.00    -0.237 OA
ATOM     85  O   UNL A   1      35.199  31.642  28.742  1.00  0.00    -0.237 OA
ATOM     86  O   UNL A   1      34.481  32.332  30.996  1.00  0.00    -0.744 OA
ENDBRANCH  79  83
ENDBRANCH  52  76
BRANCH  64  87
ATOM     87  C   UNL A   1      44.692  33.100  29.218  1.00  0.00     0.023 A 
ATOM     88  C   UNL A   1      44.144  34.222  28.571  1.00  0.00     0.031 A 
ATOM     89  C   UNL A   1      45.695  33.319  30.181  1.00  0.00     0.131 A 
ATOM     90  C   UNL A   1      44.640  35.504  28.854  1.00  0.00     0.055 A 
ATOM     91  C   UNL A   1      46.137  34.603  30.507  1.00  0.00     0.041 A 
ATOM     92  F   UNL A   1      46.257  32.287  30.830  1.00  0.00    -0.206 F 
ATOM     93  C   UNL A   1      45.618  35.703  29.832  1.00  0.00     0.022 A 
BRANCH  90  94
ATOM     94  S   UNL A   1      44.060  36.906  27.858  1.00  0.00     0.124 S 
ATOM     95  O   UNL A   1      43.522  36.236  26.677  1.00  0.00    -0.237 OA
ATOM     96  O   UNL A   1      43.079  37.529  28.738  1.00  0.00    -0.237 OA
ATOM     97  O   UNL A   1      45.272  37.689  27.627  1.00  0.00    -0.744 OA
ENDBRANCH  90  94
ENDBRANCH  64  87
ENDBRANCH  38  39
ENDBRANCH  31  33
ENDBRANCH  30  31
ENDBRANCH  29  30
ENDBRANCH  28  29
ENDBRANCH  27  28
ENDBRANCH   1  27
TORSDOF 23
ENDMDL
MODEL 2
REMARK VINA RESULT:     -10.3      2.342      7.910
REMARK SMILES C[C@]1(C(=O)N[C@](C)(C(=O)OCCOCCOCCOC(=O)c2ccc(-c3c4nc(c(-c5cc(S(=O)(=O)[O-])ccc5F)c5ccc([nH]5)c(-c5cc(S(=O)(=O)[O-])ccc5F)c5nc(c(-c6cc(S(=O)(=O)[O-])ccc6F)c6ccc3[nH]6)C=C5)C=C4)cc2)c2ccccc2)CCCO1
REMARK SMILES IDX 15 1 14 2 13 3 12 4 11 5 10 6 8 7 9 8 6 9 7 10 5 11 3 12
REMARK SMILES IDX 4 13 2 15 1 16 91 17 94 18 92 19 93 20 85 21 86 22 90 23
REMARK SMILES IDX 87 24 89 25 88 26 16 27 17 28 18 29 19 30 20 31 21 32 22 33
REMARK SMILES IDX 23 34 84 35 24 36 83 37 25 38 26 39 27 40 77 41 28 42 82 43
REMARK SMILES IDX 76 44 78 45 29 46 81 47 75 48 74 49 30 51 62 52 42 53 61 54
REMARK SMILES IDX 43 55 46 56 60 57 79 58 44 59 45 60 59 62 80 63 47 64 31 65
REMARK SMILES IDX 32 66 40 67 33 68 39 69 41 70 38 71 34 72 35 73 36 74 37 75
REMARK SMILES IDX 63 76 64 77 72 78 65 79 71 80 73 81 70 82 66 83 67 84 68 85
REMARK SMILES IDX 69 86 48 87 49 88 57 89 50 90 56 91 58 92 55 93 51 94 52 95
REMARK SMILES IDX 53 96 54 97
REMARK H PARENT 5 14 78 50 46 61
REMARK Flexibility Score: inf
ROOT
ATOM      1  C   UNL A   1      33.572  19.419  24.712  1.00  0.00     0.188 C 
ENDROOT
BRANCH   1   2
ATOM      2  C   UNL A   1      32.990  20.839  24.754  1.00  0.00     0.188 C 
BRANCH   2   3
ATOM      3  O   UNL A   1      31.867  21.134  23.944  1.00  0.00    -0.376 OA
BRANCH   3   4
ATOM      4  C   UNL A   1      32.067  21.423  22.567  1.00  0.00     0.202 C 
BRANCH   4   5
ATOM      5  C   UNL A   1      32.988  22.562  22.093  1.00  0.00     0.261 C 
BRANCH   5   6
ATOM      6  O   UNL A   1      33.612  23.319  23.145  1.00  0.00    -0.461 OA
BRANCH   6   7
ATOM      7  C   UNL A   1      33.504  24.674  23.037  1.00  0.00     0.336 C 
ATOM      8  O   UNL A   1      33.501  25.251  21.951  1.00  0.00    -0.249 OA
BRANCH   7   9
ATOM      9  C   UNL A   1      33.343  25.422  24.422  1.00  0.00     0.161 C 
ATOM     10  C   UNL A   1      34.734  25.652  25.073  1.00  0.00     0.053 C 
BRANCH   9  11
ATOM     11  N   UNL A   1      32.915  26.787  23.951  1.00  0.00    -0.334 N 
ATOM     12  C   UNL A   1      32.594  28.013  24.432  1.00  0.00     0.253 C 
ATOM     13  O   UNL A   1      32.302  28.847  23.562  1.00  0.00    -0.272 OA
ATOM     14  H   UNL A   1      32.846  26.790  22.968  1.00  0.00     0.165 HD
BRANCH  12  15
ATOM     15  C   UNL A   1      32.650  28.420  25.917  1.00  0.00     0.143 C 
ATOM     16  C   UNL A   1      31.610  27.622  26.710  1.00  0.00     0.053 C 
ATOM     17  C   UNL A   1      34.038  28.224  26.540  1.00  0.00     0.048 C 
ATOM     18  O   UNL A   1      32.426  29.824  26.042  1.00  0.00    -0.365 OA
ATOM     19  C   UNL A   1      34.075  29.301  27.603  1.00  0.00     0.032 C 
ATOM     20  C   UNL A   1      33.407  30.436  26.878  1.00  0.00     0.162 C 
ENDBRANCH  12  15
ENDBRANCH   9  11
BRANCH   9  21
ATOM     21  C   UNL A   1      32.365  24.672  25.346  1.00  0.00    -0.012 A 
ATOM     22  C   UNL A   1      32.807  24.066  26.541  1.00  0.00     0.007 A 
ATOM     23  C   UNL A   1      31.005  24.493  25.013  1.00  0.00     0.007 A 
ATOM     24  C   UNL A   1      31.972  23.228  27.290  1.00  0.00     0.000 A 
ATOM     25  C   UNL A   1      30.181  23.628  25.742  1.00  0.00     0.000 A 
ATOM     26  C   UNL A   1      30.675  22.973  26.862  1.00  0.00     0.000 A 
ENDBRANCH   9  21
ENDBRANCH   7   9
ENDBRANCH   6   7
ENDBRANCH   5   6
ENDBRANCH   4   5
ENDBRANCH   3   4
ENDBRANCH   2   3
ENDBRANCH   1   2
BRANCH   1  27
ATOM     27  O   UNL A   1      34.966  19.247  24.624  1.00  0.00    -0.376 OA
BRANCH  27  28
ATOM     28  C   UNL A   1      35.830  20.345  24.856  1.00  0.00     0.202 C 
BRANCH  28  29
ATOM     29  C   UNL A   1      37.364  20.273  25.009  1.00  0.00     0.261 C 
BRANCH  29  30
ATOM     30  O   UNL A   1      38.058  21.393  25.564  1.00  0.00    -0.460 OA
BRANCH  30  31
ATOM     31  C   UNL A   1      39.242  21.105  26.168  1.00  0.00     0.338 C 
ATOM     32  O   UNL A   1      39.838  20.047  26.132  1.00  0.00    -0.246 OA
BRANCH  31  33
ATOM     33  C   UNL A   1      39.816  22.366  26.695  1.00  0.00     0.060 A 
ATOM     34  C   UNL A   1      39.325  23.579  26.200  1.00  0.00     0.016 A 
ATOM     35  C   UNL A   1      40.836  22.356  27.647  1.00  0.00     0.016 A 
ATOM     36  C   UNL A   1      39.864  24.784  26.647  1.00  0.00     0.010 A 
ATOM     37  C   UNL A   1      41.387  23.569  28.081  1.00  0.00     0.010 A 
ATOM     38  C   UNL A   1      40.912  24.791  27.574  1.00  0.00    -0.014 A 
BRANCH  38  39
ATOM     39  C   UNL A   1      41.633  26.063  27.840  1.00  0.00     0.031 A 
ATOM     40  C   UNL A   1      40.936  27.111  28.658  1.00  0.00     0.074 A 
ATOM     41  C   UNL A   1      42.894  26.271  27.418  1.00  0.00     0.049 A 
ATOM     42  N   UNL A   1      41.320  28.322  28.960  1.00  0.00    -0.248 NA
ATOM     43  C   UNL A   1      39.621  26.737  29.202  1.00  0.00     0.031 C 
ATOM     44  C   UNL A   1      43.699  25.307  26.676  1.00  0.00     0.029 A 
ATOM     45  N   UNL A   1      43.724  27.356  27.564  1.00  0.00    -0.354 N 
ATOM     46  C   UNL A   1      40.285  28.868  29.711  1.00  0.00     0.074 A 
ATOM     47  C   UNL A   1      39.253  27.856  29.804  1.00  0.00     0.031 C 
ATOM     48  C   UNL A   1      44.918  25.832  26.455  1.00  0.00     0.029 A 
ATOM     49  C   UNL A   1      44.953  27.203  26.962  1.00  0.00     0.049 A 
ATOM     50  H   UNL A   1      43.464  28.170  28.054  1.00  0.00     0.167 HD
ATOM     51  C   UNL A   1      40.201  30.102  30.264  1.00  0.00     0.034 A 
ATOM     52  C   UNL A   1      45.968  28.079  26.800  1.00  0.00     0.034 A 
ATOM     53  C   UNL A   1      41.229  31.107  30.143  1.00  0.00     0.049 A 
ATOM     54  C   UNL A   1      45.805  29.487  27.332  1.00  0.00     0.074 A 
ATOM     55  C   UNL A   1      41.233  32.398  30.642  1.00  0.00     0.029 A 
ATOM     56  N   UNL A   1      42.429  30.942  29.463  1.00  0.00    -0.354 N 
ATOM     57  N   UNL A   1      44.806  30.008  28.008  1.00  0.00    -0.248 NA
ATOM     58  C   UNL A   1      46.902  30.430  27.068  1.00  0.00     0.031 C 
ATOM     59  C   UNL A   1      42.395  33.036  30.199  1.00  0.00     0.029 A 
ATOM     60  C   UNL A   1      43.164  32.117  29.502  1.00  0.00     0.049 A 
ATOM     61  H   UNL A   1      42.716  30.112  29.018  1.00  0.00     0.167 HD
ATOM     62  C   UNL A   1      45.168  31.330  28.269  1.00  0.00     0.074 A 
ATOM     63  C   UNL A   1      46.484  31.518  27.696  1.00  0.00     0.031 C 
ATOM     64  C   UNL A   1      44.475  32.298  28.922  1.00  0.00     0.034 A 
BRANCH  51  65
ATOM     65  C   UNL A   1      38.917  30.449  30.973  1.00  0.00     0.023 A 
ATOM     66  C   UNL A   1      37.881  31.152  30.333  1.00  0.00     0.031 A 
ATOM     67  C   UNL A   1      38.748  30.116  32.328  1.00  0.00     0.131 A 
ATOM     68  C   UNL A   1      36.759  31.564  31.067  1.00  0.00     0.055 A 
ATOM     69  C   UNL A   1      37.590  30.453  33.031  1.00  0.00     0.041 A 
ATOM     70  F   UNL A   1      39.715  29.471  32.999  1.00  0.00    -0.206 F 
ATOM     71  C   UNL A   1      36.594  31.196  32.404  1.00  0.00     0.022 A 
BRANCH  68  72
ATOM     72  S   UNL A   1      35.598  32.724  30.296  1.00  0.00     0.124 S 
ATOM     73  O   UNL A   1      36.245  34.008  30.559  1.00  0.00    -0.237 OA
ATOM     74  O   UNL A   1      35.592  32.285  28.905  1.00  0.00    -0.237 OA
ATOM     75  O   UNL A   1      34.354  32.502  31.028  1.00  0.00    -0.744 OA
ENDBRANCH  68  72
ENDBRANCH  51  65
BRANCH  52  76
ATOM     76  C   UNL A   1      47.196  27.703  26.035  1.00  0.00     0.023 A 
ATOM     77  C   UNL A   1      47.309  27.960  24.657  1.00  0.00     0.031 A 
ATOM     78  C   UNL A   1      48.247  27.001  26.655  1.00  0.00     0.131 A 
ATOM     79  C   UNL A   1      48.417  27.477  23.941  1.00  0.00     0.055 A 
ATOM     80  C   UNL A   1      49.377  26.582  25.951  1.00  0.00     0.041 A 
ATOM     81  F   UNL A   1      48.190  26.711  27.965  1.00  0.00    -0.206 F 
ATOM     82  C   UNL A   1      49.460  26.806  24.582  1.00  0.00     0.022 A 
BRANCH  79  83
ATOM     83  S   UNL A   1      48.429  27.647  22.134  1.00  0.00     0.124 S 
ATOM     84  O   UNL A   1      47.107  28.207  21.881  1.00  0.00    -0.237 OA
ATOM     85  O   UNL A   1      49.559  28.545  21.921  1.00  0.00    -0.237 OA
ATOM     86  O   UNL A   1      48.627  26.277  21.664  1.00  0.00    -0.744 OA
ENDBRANCH  79  83
ENDBRANCH  52  76
BRANCH  64  87
ATOM     87  C   UNL A   1      45.156  33.636  29.105  1.00  0.00     0.023 A 
ATOM     88  C   UNL A   1      46.084  33.869  30.136  1.00  0.00     0.031 A 
ATOM     89  C   UNL A   1      44.870  34.696  28.224  1.00  0.00     0.131 A 
ATOM     90  C   UNL A   1      46.650  35.144  30.294  1.00  0.00     0.055 A 
ATOM     91  C   UNL A   1      45.487  35.943  28.345  1.00  0.00     0.041 A 
ATOM     92  F   UNL A   1      43.991  34.535  27.223  1.00  0.00    -0.206 F 
ATOM     93  C   UNL A   1      46.373  36.176  29.393  1.00  0.00     0.022 A 
BRANCH  90  94
ATOM     94  S   UNL A   1      47.682  35.468  31.750  1.00  0.00     0.124 S 
ATOM     95  O   UNL A   1      47.943  34.119  32.243  1.00  0.00    -0.237 OA
ATOM     96  O   UNL A   1      48.824  36.169  31.174  1.00  0.00    -0.237 OA
ATOM     97  O   UNL A   1      46.822  36.284  32.606  1.00  0.00    -0.744 OA
ENDBRANCH  90  94
ENDBRANCH  64  87
ENDBRANCH  38  39
ENDBRANCH  31  33
ENDBRANCH  30  31
ENDBRANCH  29  30
ENDBRANCH  28  29
ENDBRANCH  27  28
ENDBRANCH   1  27
TORSDOF 23
ENDMDL
MODEL 3
REMARK VINA RESULT:      -9.8      2.236      2.936
REMARK SMILES C[C@]1(C(=O)N[C@](C)(C(=O)OCCOCCOCCOC(=O)c2ccc(-c3c4nc(c(-c5cc(S(=O)(=O)[O-])ccc5F)c5ccc([nH]5)c(-c5cc(S(=O)(=O)[O-])ccc5F)c5nc(c(-c6cc(S(=O)(=O)[O-])ccc6F)c6ccc3[nH]6)C=C5)C=C4)cc2)c2ccccc2)CCCO1
REMARK SMILES IDX 15 1 14 2 13 3 12 4 11 5 10 6 8 7 9 8 6 9 7 10 5 11 3 12
REMARK SMILES IDX 4 13 2 15 1 16 91 17 94 18 92 19 93 20 85 21 86 22 90 23
REMARK SMILES IDX 87 24 89 25 88 26 16 27 17 28 18 29 19 30 20 31 21 32 22 33
REMARK SMILES IDX 23 34 84 35 24 36 83 37 25 38 26 39 27 40 77 41 28 42 82 43
REMARK SMILES IDX 76 44 78 45 29 46 81 47 75 48 74 49 30 51 62 52 42 53 61 54
REMARK SMILES IDX 43 55 46 56 60 57 79 58 44 59 45 60 59 62 80 63 47 64 31 65
REMARK SMILES IDX 32 66 40 67 33 68 39 69 41 70 38 71 34 72 35 73 36 74 37 75
REMARK SMILES IDX 63 76 64 77 72 78 65 79 71 80 73 81 70 82 66 83 67 84 68 85
REMARK SMILES IDX 69 86 48 87 49 88 57 89 50 90 56 91 58 92 55 93 51 94 52 95
REMARK SMILES IDX 53 96 54 97
REMARK H PARENT 5 14 78 50 46 61
REMARK Flexibility Score: inf
ROOT
ATOM      1  C   UNL A   1      33.876  20.228  25.342  1.00  0.00     0.188 C 
ENDROOT
BRANCH   1   2
ATOM      2  C   UNL A   1      33.219  21.294  24.453  1.00  0.00     0.188 C 
BRANCH   2   3
ATOM      3  O   UNL A   1      31.808  21.306  24.341  1.00  0.00    -0.376 OA
BRANCH   3   4
ATOM      4  C   UNL A   1      31.070  22.297  25.044  1.00  0.00     0.202 C 
BRANCH   4   5
ATOM      5  C   UNL A   1      31.084  22.395  26.579  1.00  0.00     0.261 C 
BRANCH   5   6
ATOM      6  O   UNL A   1      31.263  23.722  27.105  1.00  0.00    -0.461 OA
BRANCH   6   7
ATOM      7  C   UNL A   1      32.317  24.419  26.591  1.00  0.00     0.336 C 
ATOM      8  O   UNL A   1      33.481  24.041  26.713  1.00  0.00    -0.249 OA
BRANCH   7   9
ATOM      9  C   UNL A   1      31.903  25.724  25.797  1.00  0.00     0.161 C 
ATOM     10  C   UNL A   1      30.412  26.065  26.065  1.00  0.00     0.053 C 
BRANCH   9  11
ATOM     11  N   UNL A   1      32.674  26.769  26.561  1.00  0.00    -0.334 N 
ATOM     12  C   UNL A   1      32.973  28.090  26.526  1.00  0.00     0.253 C 
ATOM     13  O   UNL A   1      33.688  28.481  27.461  1.00  0.00    -0.272 OA
ATOM     14  H   UNL A   1      33.102  26.354  27.345  1.00  0.00     0.165 HD
BRANCH  12  15
ATOM     15  C   UNL A   1      32.431  29.089  25.486  1.00  0.00     0.143 C 
ATOM     16  C   UNL A   1      32.702  30.522  25.956  1.00  0.00     0.053 C 
ATOM     17  C   UNL A   1      33.029  28.882  24.088  1.00  0.00     0.048 C 
ATOM     18  O   UNL A   1      31.035  28.869  25.286  1.00  0.00    -0.365 OA
ATOM     19  C   UNL A   1      31.912  29.353  23.182  1.00  0.00     0.032 C 
ATOM     20  C   UNL A   1      30.713  28.796  23.897  1.00  0.00     0.162 C 
ENDBRANCH  12  15
ENDBRANCH   9  11
BRANCH   9  21
ATOM     21  C   UNL A   1      32.227  25.586  24.298  1.00  0.00    -0.012 A 
ATOM     22  C   UNL A   1      33.558  25.463  23.846  1.00  0.00     0.007 A 
ATOM     23  C   UNL A   1      31.226  25.645  23.304  1.00  0.00     0.007 A 
ATOM     24  C   UNL A   1      33.878  25.524  22.484  1.00  0.00     0.000 A 
ATOM     25  C   UNL A   1      31.548  25.742  21.946  1.00  0.00     0.000 A 
ATOM     26  C   UNL A   1      32.875  25.712  21.540  1.00  0.00     0.000 A 
ENDBRANCH   9  21
ENDBRANCH   7   9
ENDBRANCH   6   7
ENDBRANCH   5   6
ENDBRANCH   4   5
ENDBRANCH   3   4
ENDBRANCH   2   3
ENDBRANCH   1   2
BRANCH   1  27
ATOM     27  O   UNL A   1      35.166  19.766  25.024  1.00  0.00    -0.376 OA
BRANCH  27  28
ATOM     28  C   UNL A   1      36.246  20.679  24.941  1.00  0.00     0.202 C 
BRANCH  28  29
ATOM     29  C   UNL A   1      37.741  20.332  25.103  1.00  0.00     0.261 C 
BRANCH  29  30
ATOM     30  O   UNL A   1      38.381  20.593  26.354  1.00  0.00    -0.460 OA
BRANCH  30  31
ATOM     31  C   UNL A   1      39.736  20.703  26.304  1.00  0.00     0.338 C 
ATOM     32  O   UNL A   1      40.508  19.934  25.767  1.00  0.00    -0.246 OA
BRANCH  31  33
ATOM     33  C   UNL A   1      40.115  22.041  26.815  1.00  0.00     0.060 A 
ATOM     34  C   UNL A   1      39.422  23.158  26.334  1.00  0.00     0.016 A 
ATOM     35  C   UNL A   1      41.149  22.199  27.739  1.00  0.00     0.016 A 
ATOM     36  C   UNL A   1      39.772  24.436  26.767  1.00  0.00     0.010 A 
ATOM     37  C   UNL A   1      41.510  23.487  28.157  1.00  0.00     0.010 A 
ATOM     38  C   UNL A   1      40.831  24.614  27.664  1.00  0.00    -0.014 A 
BRANCH  38  39
ATOM     39  C   UNL A   1      41.346  25.987  27.910  1.00  0.00     0.031 A 
ATOM     40  C   UNL A   1      42.704  26.338  27.373  1.00  0.00     0.074 A 
ATOM     41  C   UNL A   1      40.614  26.921  28.543  1.00  0.00     0.049 A 
ATOM     42  N   UNL A   1      43.398  27.434  27.520  1.00  0.00    -0.248 NA
ATOM     43  C   UNL A   1      43.367  25.301  26.566  1.00  0.00     0.031 C 
ATOM     44  C   UNL A   1      39.260  26.724  29.049  1.00  0.00     0.029 A 
ATOM     45  N   UNL A   1      40.900  28.228  28.858  1.00  0.00    -0.354 N 
ATOM     46  C   UNL A   1      44.593  27.214  26.843  1.00  0.00     0.074 A 
ATOM     47  C   UNL A   1      44.529  25.874  26.300  1.00  0.00     0.031 C 
ATOM     48  C   UNL A   1      38.821  27.876  29.586  1.00  0.00     0.029 A 
ATOM     49  C   UNL A   1      39.893  28.869  29.542  1.00  0.00     0.049 A 
ATOM     50  H   UNL A   1      41.749  28.665  28.616  1.00  0.00     0.167 HD
ATOM     51  C   UNL A   1      45.649  28.052  26.698  1.00  0.00     0.034 A 
ATOM     52  C   UNL A   1      39.857  30.096  30.107  1.00  0.00     0.034 A 
ATOM     53  C   UNL A   1      45.706  29.376  27.266  1.00  0.00     0.049 A 
ATOM     54  C   UNL A   1      41.090  30.972  30.025  1.00  0.00     0.074 A 
ATOM     55  C   UNL A   1      46.738  30.296  27.201  1.00  0.00     0.029 A 
ATOM     56  N   UNL A   1      44.697  29.966  28.018  1.00  0.00    -0.354 N 
ATOM     57  N   UNL A   1      42.232  30.741  29.417  1.00  0.00    -0.248 NA
ATOM     58  C   UNL A   1      41.034  32.267  30.718  1.00  0.00     0.031 C 
ATOM     59  C   UNL A   1      46.386  31.406  27.975  1.00  0.00     0.029 A 
ATOM     60  C   UNL A   1      45.096  31.222  28.447  1.00  0.00     0.049 A 
ATOM     61  H   UNL A   1      43.825  29.552  28.215  1.00  0.00     0.167 HD
ATOM     62  C   UNL A   1      43.016  31.873  29.634  1.00  0.00     0.074 A 
ATOM     63  C   UNL A   1      42.210  32.792  30.410  1.00  0.00     0.031 C 
ATOM     64  C   UNL A   1      44.286  32.130  29.228  1.00  0.00     0.034 A 
BRANCH  51  65
ATOM     65  C   UNL A   1      46.853  27.516  25.965  1.00  0.00     0.023 A 
ATOM     66  C   UNL A   1      47.149  27.897  24.645  1.00  0.00     0.031 A 
ATOM     67  C   UNL A   1      47.688  26.568  26.581  1.00  0.00     0.131 A 
ATOM     68  C   UNL A   1      48.204  27.277  23.960  1.00  0.00     0.055 A 
ATOM     69  C   UNL A   1      48.789  26.018  25.923  1.00  0.00     0.041 A 
ATOM     70  F   UNL A   1      47.437  26.143  27.829  1.00  0.00    -0.206 F 
ATOM     71  C   UNL A   1      49.043  26.361  24.598  1.00  0.00     0.022 A 
BRANCH  68  72
ATOM     72  S   UNL A   1      48.365  27.564  22.176  1.00  0.00     0.124 S 
ATOM     73  O   UNL A   1      47.079  28.182  21.860  1.00  0.00    -0.237 OA
ATOM     74  O   UNL A   1      49.529  28.439  22.102  1.00  0.00    -0.237 OA
ATOM     75  O   UNL A   1      48.553  26.224  21.629  1.00  0.00    -0.744 OA
ENDBRANCH  68  72
ENDBRANCH  51  65
BRANCH  52  76
ATOM     76  C   UNL A   1      38.660  30.556  30.876  1.00  0.00     0.023 A 
ATOM     77  C   UNL A   1      37.675  31.366  30.285  1.00  0.00     0.031 A 
ATOM     78  C   UNL A   1      38.524  30.258  32.245  1.00  0.00     0.131 A 
ATOM     79  C   UNL A   1      36.633  31.890  31.068  1.00  0.00     0.055 A 
ATOM     80  C   UNL A   1      37.450  30.727  33.004  1.00  0.00     0.041 A 
ATOM     81  F   UNL A   1      39.441  29.503  32.871  1.00  0.00    -0.206 F 
ATOM     82  C   UNL A   1      36.503  31.560  32.419  1.00  0.00     0.022 A 
BRANCH  79  83
ATOM     83  S   UNL A   1      35.500  33.095  30.321  1.00  0.00     0.124 S 
ATOM     84  O   UNL A   1      34.992  33.791  31.498  1.00  0.00    -0.237 OA
ATOM     85  O   UNL A   1      36.395  33.859  29.460  1.00  0.00    -0.237 OA
ATOM     86  O   UNL A   1      34.526  32.260  29.621  1.00  0.00    -0.744 OA
ENDBRANCH  79  83
ENDBRANCH  52  76
BRANCH  64  87
ATOM     87  C   UNL A   1      44.864  33.486  29.567  1.00  0.00     0.023 A 
ATOM     88  C   UNL A   1      45.597  33.713  30.746  1.00  0.00     0.031 A 
ATOM     89  C   UNL A   1      44.678  34.569  28.689  1.00  0.00     0.131 A 
ATOM     90  C   UNL A   1      46.068  35.003  31.040  1.00  0.00     0.055 A 
ATOM     91  C   UNL A   1      45.207  35.834  28.953  1.00  0.00     0.041 A 
ATOM     92  F   UNL A   1      43.985  34.414  27.550  1.00  0.00    -0.206 F 
ATOM     93  C   UNL A   1      45.895  36.059  30.141  1.00  0.00     0.022 A 
BRANCH  90  94
ATOM     94  S   UNL A   1      46.829  35.308  32.658  1.00  0.00     0.124 S 
ATOM     95  O   UNL A   1      45.668  35.630  33.483  1.00  0.00    -0.237 OA
ATOM     96  O   UNL A   1      47.479  34.034  32.943  1.00  0.00    -0.237 OA
ATOM     97  O   UNL A   1      47.738  36.425  32.406  1.00  0.00    -0.744 OA
ENDBRANCH  90  94
ENDBRANCH  64  87
ENDBRANCH  38  39
ENDBRANCH  31  33
ENDBRANCH  30  31
ENDBRANCH  29  30
ENDBRANCH  28  29
ENDBRANCH  27  28
ENDBRANCH   1  27
TORSDOF 23
ENDMDL
