MODEL 1
REMARK VINA RESULT:      -9.9      0.000      0.000
REMARK SMILES C[C@@H]1CC[N@@H+]1CC1(CC(=O)OCCOCCOCCOC(=O)c2ccc(-c3c4nc(c(-c5cc(S(=O)(=O)[O-])ccc5F)c5ccc([nH]5)c(-c5cc(S(=O)(=O)[O-])ccc5F)c5nc(c(-c6cc(S(=O)(=O)[O-])ccc6F)c6ccc3[nH]6)C=C5)C=C4)cc2)CCCCC1
REMARK SMILES IDX 15 1 14 2 13 3 12 4 11 5 9 6 10 7 8 8 7 9 86 10 90 11 87 12
REMARK SMILES IDX 89 13 88 14 6 15 5 16 1 17 2 18 3 19 4 20 16 22 17 23 18 24
REMARK SMILES IDX 19 25 20 26 21 27 22 28 23 29 24 30 85 31 25 32 84 33 26 34
REMARK SMILES IDX 27 35 28 36 78 37 29 38 83 39 77 40 79 41 30 42 82 43 76 44
REMARK SMILES IDX 75 45 31 47 63 48 43 49 62 50 44 51 47 52 61 53 80 54 45 55
REMARK SMILES IDX 46 56 60 58 81 59 48 60 32 61 33 62 41 63 34 64 40 65 42 66
REMARK SMILES IDX 39 67 35 68 36 69 37 70 38 71 64 72 65 73 73 74 66 75 72 76
REMARK SMILES IDX 74 77 71 78 67 79 68 80 69 81 70 82 49 83 50 84 58 85 51 86
REMARK SMILES IDX 57 87 59 88 56 89 52 90 53 91 54 92 55 93
REMARK H PARENT 5 21 79 46 47 57
REMARK Flexibility Score: inf
ROOT
ATOM      1  C   UNL A   1      31.984  28.938  24.837  1.00  0.00     0.188 C 
ENDROOT
BRANCH   1   2
ATOM      2  O   UNL A   1      32.765  28.078  24.021  1.00  0.00    -0.376 OA
BRANCH   2   3
ATOM      3  C   UNL A   1      32.248  27.749  22.731  1.00  0.00     0.202 C 
BRANCH   3   4
ATOM      4  C   UNL A   1      33.016  26.697  21.907  1.00  0.00     0.261 C 
BRANCH   4   5
ATOM      5  O   UNL A   1      32.412  25.373  21.906  1.00  0.00    -0.463 OA
BRANCH   5   6
ATOM      6  C   UNL A   1      33.181  24.367  22.397  1.00  0.00     0.306 C 
ATOM      7  O   UNL A   1      33.830  23.607  21.685  1.00  0.00    -0.252 OA
BRANCH   6   8
ATOM      8  C   UNL A   1      33.335  24.336  23.923  1.00  0.00     0.135 C 
BRANCH   8   9
ATOM      9  C   UNL A   1      32.340  23.637  24.949  1.00  0.00     0.030 C 
ATOM     10  C   UNL A   1      30.914  23.796  24.366  1.00  0.00     0.013 C 
ATOM     11  C   UNL A   1      32.412  24.286  26.348  1.00  0.00     0.013 C 
ATOM     12  C   UNL A   1      30.314  25.193  24.463  1.00  0.00     0.001 C 
ATOM     13  C   UNL A   1      31.799  25.685  26.416  1.00  0.00     0.001 C 
ATOM     14  C   UNL A   1      30.364  25.679  25.903  1.00  0.00     0.000 C 
BRANCH   9  15
ATOM     15  C   UNL A   1      32.666  22.079  24.982  1.00  0.00     0.269 C 
BRANCH  15  16
ATOM     16  N   UNL A   1      33.646  21.262  25.704  1.00  0.00    -0.332 N 
ATOM     17  C   UNL A   1      35.390  23.099  26.294  1.00  0.00     0.075 C 
ATOM     18  C   UNL A   1      35.034  21.655  26.021  1.00  0.00     0.186 C 
ATOM     19  C   UNL A   1      35.487  20.853  24.772  1.00  0.00     0.126 C 
ATOM     20  C   UNL A   1      34.159  20.083  24.986  1.00  0.00     0.268 C 
ATOM     21  H   UNL A   1      33.003  21.239  26.496  1.00  0.00     0.348 HD
ENDBRANCH  15  16
ENDBRANCH   9  15
ENDBRANCH   8   9
ENDBRANCH   6   8
ENDBRANCH   5   6
ENDBRANCH   4   5
ENDBRANCH   3   4
ENDBRANCH   2   3
ENDBRANCH   1   2
BRANCH   1  22
ATOM     22  C   UNL A   1      32.724  29.820  25.849  1.00  0.00     0.188 C 
BRANCH  22  23
ATOM     23  O   UNL A   1      31.870  30.557  26.706  1.00  0.00    -0.376 OA
BRANCH  23  24
ATOM     24  C   UNL A   1      31.125  31.631  26.149  1.00  0.00     0.202 C 
BRANCH  24  25
ATOM     25  C   UNL A   1      31.575  32.997  26.688  1.00  0.00     0.261 C 
BRANCH  25  26
ATOM     26  O   UNL A   1      33.003  33.156  26.779  1.00  0.00    -0.460 OA
BRANCH  26  27
ATOM     27  C   UNL A   1      33.469  33.758  27.902  1.00  0.00     0.338 C 
ATOM     28  O   UNL A   1      32.900  34.627  28.541  1.00  0.00    -0.246 OA
BRANCH  27  29
ATOM     29  C   UNL A   1      34.662  33.005  28.364  1.00  0.00     0.060 A 
ATOM     30  C   UNL A   1      34.538  31.631  28.617  1.00  0.00     0.016 A 
ATOM     31  C   UNL A   1      35.907  33.627  28.482  1.00  0.00     0.016 A 
ATOM     32  C   UNL A   1      35.648  30.886  29.030  1.00  0.00     0.010 A 
ATOM     33  C   UNL A   1      37.012  32.884  28.911  1.00  0.00     0.010 A 
ATOM     34  C   UNL A   1      36.885  31.518  29.219  1.00  0.00    -0.014 A 
BRANCH  34  35
ATOM     35  C   UNL A   1      37.990  30.821  29.933  1.00  0.00     0.031 A 
ATOM     36  C   UNL A   1      38.259  31.206  31.365  1.00  0.00     0.074 A 
ATOM     37  C   UNL A   1      38.741  29.872  29.342  1.00  0.00     0.049 A 
ATOM     38  N   UNL A   1      39.228  30.836  32.162  1.00  0.00    -0.248 NA
ATOM     39  C   UNL A   1      37.304  32.145  31.974  1.00  0.00     0.031 C 
ATOM     40  C   UNL A   1      38.549  29.361  27.987  1.00  0.00     0.029 A 
ATOM     41  N   UNL A   1      39.830  29.175  29.810  1.00  0.00    -0.354 N 
ATOM     42  C   UNL A   1      39.011  31.510  33.360  1.00  0.00     0.074 A 
ATOM     43  C   UNL A   1      37.836  32.335  33.171  1.00  0.00     0.031 C 
ATOM     44  C   UNL A   1      39.493  28.438  27.730  1.00  0.00     0.029 A 
ATOM     45  C   UNL A   1      40.390  28.328  28.880  1.00  0.00     0.049 A 
ATOM     46  H   UNL A   1      40.178  29.272  30.726  1.00  0.00     0.167 HD
ATOM     47  C   UNL A   1      39.722  31.445  34.513  1.00  0.00     0.034 A 
ATOM     48  C   UNL A   1      41.513  27.580  28.938  1.00  0.00     0.034 A 
ATOM     49  C   UNL A   1      40.891  30.621  34.688  1.00  0.00     0.049 A 
ATOM     50  C   UNL A   1      42.350  27.602  30.201  1.00  0.00     0.074 A 
ATOM     51  C   UNL A   1      41.674  30.471  35.820  1.00  0.00     0.029 A 
ATOM     52  N   UNL A   1      41.457  29.817  33.706  1.00  0.00    -0.354 N 
ATOM     53  N   UNL A   1      42.136  28.247  31.326  1.00  0.00    -0.248 NA
ATOM     54  C   UNL A   1      43.577  26.793  30.201  1.00  0.00     0.031 C 
ATOM     55  C   UNL A   1      42.757  29.646  35.498  1.00  0.00     0.029 A 
ATOM     56  C   UNL A   1      42.599  29.201  34.196  1.00  0.00     0.049 A 
ATOM     57  H   UNL A   1      41.098  29.702  32.797  1.00  0.00     0.167 HD
ATOM     58  C   UNL A   1      43.181  27.885  32.178  1.00  0.00     0.074 A 
ATOM     59  C   UNL A   1      44.014  26.959  31.441  1.00  0.00     0.031 C 
ATOM     60  C   UNL A   1      43.425  28.278  33.454  1.00  0.00     0.034 A 
BRANCH  47  61
ATOM     61  C   UNL A   1      39.287  32.336  35.651  1.00  0.00     0.023 A 
ATOM     62  C   UNL A   1      39.715  33.671  35.759  1.00  0.00     0.031 A 
ATOM     63  C   UNL A   1      38.439  31.834  36.654  1.00  0.00     0.131 A 
ATOM     64  C   UNL A   1      39.344  34.435  36.877  1.00  0.00     0.055 A 
ATOM     65  C   UNL A   1      38.008  32.625  37.719  1.00  0.00     0.041 A 
ATOM     66  F   UNL A   1      38.021  30.558  36.620  1.00  0.00    -0.206 F 
ATOM     67  C   UNL A   1      38.470  33.931  37.843  1.00  0.00     0.022 A 
BRANCH  64  68
ATOM     68  S   UNL A   1      40.130  36.052  37.121  1.00  0.00     0.124 S 
ATOM     69  O   UNL A   1      39.398  36.564  38.278  1.00  0.00    -0.237 OA
ATOM     70  O   UNL A   1      41.524  35.693  37.356  1.00  0.00    -0.237 OA
ATOM     71  O   UNL A   1      39.868  36.754  35.866  1.00  0.00    -0.744 OA
ENDBRANCH  64  68
ENDBRANCH  47  61
BRANCH  48  72
ATOM     72  C   UNL A   1      41.965  26.779  27.759  1.00  0.00     0.023 A 
ATOM     73  C   UNL A   1      41.808  25.383  27.724  1.00  0.00     0.031 A 
ATOM     74  C   UNL A   1      42.643  27.387  26.687  1.00  0.00     0.131 A 
ATOM     75  C   UNL A   1      42.371  24.638  26.675  1.00  0.00     0.055 A 
ATOM     76  C   UNL A   1      43.144  26.648  25.613  1.00  0.00     0.041 A 
ATOM     77  F   UNL A   1      42.837  28.716  26.671  1.00  0.00    -0.206 F 
ATOM     78  C   UNL A   1      43.024  25.263  25.611  1.00  0.00     0.022 A 
BRANCH  75  79
ATOM     79  S   UNL A   1      42.345  22.826  26.782  1.00  0.00     0.124 S 
ATOM     80  O   UNL A   1      43.628  22.549  27.417  1.00  0.00    -0.237 OA
ATOM     81  O   UNL A   1      41.160  22.589  27.599  1.00  0.00    -0.237 OA
ATOM     82  O   UNL A   1      42.232  22.404  25.387  1.00  0.00    -0.744 OA
ENDBRANCH  75  79
ENDBRANCH  48  72
BRANCH  60  83
ATOM     83  C   UNL A   1      44.607  27.655  34.162  1.00  0.00     0.023 A 
ATOM     84  C   UNL A   1      44.503  26.444  34.869  1.00  0.00     0.031 A 
ATOM     85  C   UNL A   1      45.864  28.288  34.124  1.00  0.00     0.131 A 
ATOM     86  C   UNL A   1      45.618  25.936  35.556  1.00  0.00     0.055 A 
ATOM     87  C   UNL A   1      46.985  27.744  34.751  1.00  0.00     0.041 A 
ATOM     88  F   UNL A   1      46.024  29.449  33.467  1.00  0.00    -0.206 F 
ATOM     89  C   UNL A   1      46.862  26.568  35.484  1.00  0.00     0.022 A 
BRANCH  86  90
ATOM     90  S   UNL A   1      45.398  24.491  36.631  1.00  0.00     0.124 S 
ATOM     91  O   UNL A   1      46.740  23.920  36.650  1.00  0.00    -0.237 OA
ATOM     92  O   UNL A   1      44.947  25.097  37.880  1.00  0.00    -0.237 OA
ATOM     93  O   UNL A   1      44.393  23.692  35.932  1.00  0.00    -0.744 OA
ENDBRANCH  86  90
ENDBRANCH  60  83
ENDBRANCH  34  35
ENDBRANCH  27  29
ENDBRANCH  26  27
ENDBRANCH  25  26
ENDBRANCH  24  25
ENDBRANCH  23  24
ENDBRANCH  22  23
ENDBRANCH   1  22
TORSDOF 23
ENDMDL
MODEL 2
REMARK VINA RESULT:      -9.6      2.082      2.930
REMARK SMILES C[C@@H]1CC[N@@H+]1CC1(CC(=O)OCCOCCOCCOC(=O)c2ccc(-c3c4nc(c(-c5cc(S(=O)(=O)[O-])ccc5F)c5ccc([nH]5)c(-c5cc(S(=O)(=O)[O-])ccc5F)c5nc(c(-c6cc(S(=O)(=O)[O-])ccc6F)c6ccc3[nH]6)C=C5)C=C4)cc2)CCCCC1
REMARK SMILES IDX 15 1 14 2 13 3 12 4 11 5 9 6 10 7 8 8 7 9 86 10 90 11 87 12
REMARK SMILES IDX 89 13 88 14 6 15 5 16 1 17 2 18 3 19 4 20 16 22 17 23 18 24
REMARK SMILES IDX 19 25 20 26 21 27 22 28 23 29 24 30 85 31 25 32 84 33 26 34
REMARK SMILES IDX 27 35 28 36 78 37 29 38 83 39 77 40 79 41 30 42 82 43 76 44
REMARK SMILES IDX 75 45 31 47 63 48 43 49 62 50 44 51 47 52 61 53 80 54 45 55
REMARK SMILES IDX 46 56 60 58 81 59 48 60 32 61 33 62 41 63 34 64 40 65 42 66
REMARK SMILES IDX 39 67 35 68 36 69 37 70 38 71 64 72 65 73 73 74 66 75 72 76
REMARK SMILES IDX 74 77 71 78 67 79 68 80 69 81 70 82 49 83 50 84 58 85 51 86
REMARK SMILES IDX 57 87 59 88 56 89 52 90 53 91 54 92 55 93
REMARK H PARENT 5 21 79 46 47 57
REMARK Flexibility Score: inf
ROOT
ATOM      1  C   UNL A   1      32.207  28.607  25.570  1.00  0.00     0.188 C 
ENDROOT
BRANCH   1   2
ATOM      2  O   UNL A   1      33.035  27.986  24.598  1.00  0.00    -0.376 OA
BRANCH   2   3
ATOM      3  C   UNL A   1      32.395  27.169  23.616  1.00  0.00     0.202 C 
BRANCH   3   4
ATOM      4  C   UNL A   1      33.191  25.971  23.063  1.00  0.00     0.261 C 
BRANCH   4   5
ATOM      5  O   UNL A   1      32.772  24.678  23.581  1.00  0.00    -0.463 OA
BRANCH   5   6
ATOM      6  C   UNL A   1      33.454  24.219  24.662  1.00  0.00     0.306 C 
ATOM      7  O   UNL A   1      33.172  24.527  25.817  1.00  0.00    -0.252 OA
BRANCH   6   8
ATOM      8  C   UNL A   1      34.506  23.141  24.373  1.00  0.00     0.135 C 
BRANCH   8   9
ATOM      9  C   UNL A   1      35.125  22.130  25.434  1.00  0.00     0.030 C 
ATOM     10  C   UNL A   1      35.910  22.986  26.460  1.00  0.00     0.013 C 
ATOM     11  C   UNL A   1      36.071  21.109  24.768  1.00  0.00     0.013 C 
ATOM     12  C   UNL A   1      37.234  23.555  25.967  1.00  0.00     0.001 C 
ATOM     13  C   UNL A   1      37.393  21.708  24.287  1.00  0.00     0.001 C 
ATOM     14  C   UNL A   1      38.107  22.436  25.419  1.00  0.00     0.000 C 
BRANCH   9  15
ATOM     15  C   UNL A   1      33.928  21.433  26.218  1.00  0.00     0.269 C 
BRANCH  15  16
ATOM     16  N   UNL A   1      32.793  20.602  25.807  1.00  0.00    -0.332 N 
ATOM     17  C   UNL A   1      34.075  18.671  24.627  1.00  0.00     0.075 C 
ATOM     18  C   UNL A   1      32.833  19.516  24.807  1.00  0.00     0.186 C 
ATOM     19  C   UNL A   1      32.294  20.531  23.764  1.00  0.00     0.126 C 
ATOM     20  C   UNL A   1      31.753  21.276  25.011  1.00  0.00     0.268 C 
ATOM     21  H   UNL A   1      32.693  20.303  26.777  1.00  0.00     0.348 HD
ENDBRANCH  15  16
ENDBRANCH   9  15
ENDBRANCH   8   9
ENDBRANCH   6   8
ENDBRANCH   5   6
ENDBRANCH   4   5
ENDBRANCH   3   4
ENDBRANCH   2   3
ENDBRANCH   1   2
BRANCH   1  22
ATOM     22  C   UNL A   1      32.786  29.802  26.334  1.00  0.00     0.188 C 
BRANCH  22  23
ATOM     23  O   UNL A   1      31.814  30.595  26.991  1.00  0.00    -0.376 OA
BRANCH  23  24
ATOM     24  C   UNL A   1      31.264  31.700  26.287  1.00  0.00     0.202 C 
BRANCH  24  25
ATOM     25  C   UNL A   1      31.697  33.048  26.883  1.00  0.00     0.261 C 
BRANCH  25  26
ATOM     26  O   UNL A   1      33.119  33.269  26.873  1.00  0.00    -0.460 OA
BRANCH  26  27
ATOM     27  C   UNL A   1      33.645  33.840  27.986  1.00  0.00     0.338 C 
ATOM     28  O   UNL A   1      33.146  34.744  28.635  1.00  0.00    -0.246 OA
BRANCH  27  29
ATOM     29  C   UNL A   1      34.795  33.011  28.426  1.00  0.00     0.060 A 
ATOM     30  C   UNL A   1      34.570  31.672  28.775  1.00  0.00     0.016 A 
ATOM     31  C   UNL A   1      36.094  33.525  28.431  1.00  0.00     0.016 A 
ATOM     32  C   UNL A   1      35.636  30.856  29.170  1.00  0.00     0.010 A 
ATOM     33  C   UNL A   1      37.157  32.712  28.841  1.00  0.00     0.010 A 
ATOM     34  C   UNL A   1      36.932  31.384  29.246  1.00  0.00    -0.014 A 
BRANCH  34  35
ATOM     35  C   UNL A   1      38.016  30.634  29.937  1.00  0.00     0.031 A 
ATOM     36  C   UNL A   1      38.243  30.911  31.401  1.00  0.00     0.074 A 
ATOM     37  C   UNL A   1      38.784  29.730  29.300  1.00  0.00     0.049 A 
ATOM     38  N   UNL A   1      39.189  30.482  32.196  1.00  0.00    -0.248 NA
ATOM     39  C   UNL A   1      37.271  31.804  32.050  1.00  0.00     0.031 C 
ATOM     40  C   UNL A   1      38.632  29.321  27.906  1.00  0.00     0.029 A 
ATOM     41  N   UNL A   1      39.859  28.998  29.747  1.00  0.00    -0.354 N 
ATOM     42  C   UNL A   1      38.937  31.066  33.434  1.00  0.00     0.074 A 
ATOM     43  C   UNL A   1      37.767  31.904  33.273  1.00  0.00     0.031 C 
ATOM     44  C   UNL A   1      39.584  28.418  27.609  1.00  0.00     0.029 A 
ATOM     45  C   UNL A   1      40.447  28.222  28.773  1.00  0.00     0.049 A 
ATOM     46  H   UNL A   1      40.181  29.027  30.677  1.00  0.00     0.167 HD
ATOM     47  C   UNL A   1      39.614  30.914  34.599  1.00  0.00     0.034 A 
ATOM     48  C   UNL A   1      41.568  27.469  28.808  1.00  0.00     0.034 A 
ATOM     49  C   UNL A   1      40.778  30.077  34.747  1.00  0.00     0.049 A 
ATOM     50  C   UNL A   1      42.368  27.397  30.093  1.00  0.00     0.074 A 
ATOM     51  C   UNL A   1      41.527  29.843  35.887  1.00  0.00     0.029 A 
ATOM     52  N   UNL A   1      41.372  29.348  33.725  1.00  0.00    -0.354 N 
ATOM     53  N   UNL A   1      42.121  27.957  31.256  1.00  0.00    -0.248 NA
ATOM     54  C   UNL A   1      43.594  26.587  30.069  1.00  0.00     0.031 C 
ATOM     55  C   UNL A   1      42.620  29.042  35.537  1.00  0.00     0.029 A 
ATOM     56  C   UNL A   1      42.499  28.695  34.201  1.00  0.00     0.049 A 
ATOM     57  H   UNL A   1      41.040  29.301  32.800  1.00  0.00     0.167 HD
ATOM     58  C   UNL A   1      43.141  27.531  32.108  1.00  0.00     0.074 A 
ATOM     59  C   UNL A   1      43.995  26.661  31.330  1.00  0.00     0.031 C 
ATOM     60  C   UNL A   1      43.348  27.828  33.417  1.00  0.00     0.034 A 
BRANCH  47  61
ATOM     61  C   UNL A   1      39.145  31.720  35.787  1.00  0.00     0.023 A 
ATOM     62  C   UNL A   1      38.401  31.144  36.832  1.00  0.00     0.031 A 
ATOM     63  C   UNL A   1      39.440  33.092  35.868  1.00  0.00     0.131 A 
ATOM     64  C   UNL A   1      37.924  31.951  37.877  1.00  0.00     0.055 A 
ATOM     65  C   UNL A   1      39.033  33.872  36.951  1.00  0.00     0.041 A 
ATOM     66  F   UNL A   1      40.123  33.703  34.886  1.00  0.00    -0.206 F 
ATOM     67  C   UNL A   1      38.259  33.305  37.958  1.00  0.00     0.022 A 
BRANCH  64  68
ATOM     68  S   UNL A   1      36.744  31.237  39.055  1.00  0.00     0.124 S 
ATOM     69  O   UNL A   1      37.523  31.240  40.291  1.00  0.00    -0.237 OA
ATOM     70  O   UNL A   1      35.632  32.180  39.000  1.00  0.00    -0.237 OA
ATOM     71  O   UNL A   1      36.468  29.912  38.504  1.00  0.00    -0.744 OA
ENDBRANCH  64  68
ENDBRANCH  47  61
BRANCH  48  72
ATOM     72  C   UNL A   1      42.054  26.757  27.586  1.00  0.00     0.023 A 
ATOM     73  C   UNL A   1      41.949  25.361  27.468  1.00  0.00     0.031 A 
ATOM     74  C   UNL A   1      42.714  27.452  26.557  1.00  0.00     0.131 A 
ATOM     75  C   UNL A   1      42.544  24.701  26.380  1.00  0.00     0.055 A 
ATOM     76  C   UNL A   1      43.247  26.798  25.444  1.00  0.00     0.041 A 
ATOM     77  F   UNL A   1      42.858  28.785  26.621  1.00  0.00    -0.206 F 
ATOM     78  C   UNL A   1      43.178  25.412  25.359  1.00  0.00     0.022 A 
BRANCH  75  79
ATOM     79  S   UNL A   1      42.584  22.886  26.380  1.00  0.00     0.124 S 
ATOM     80  O   UNL A   1      41.299  22.562  26.989  1.00  0.00    -0.237 OA
ATOM     81  O   UNL A   1      42.715  22.586  24.959  1.00  0.00    -0.237 OA
ATOM     82  O   UNL A   1      43.758  22.572  27.192  1.00  0.00    -0.744 OA
ENDBRANCH  75  79
ENDBRANCH  48  72
BRANCH  60  83
ATOM     83  C   UNL A   1      44.508  27.152  34.111  1.00  0.00     0.023 A 
ATOM     84  C   UNL A   1      45.782  27.743  34.188  1.00  0.00     0.031 A 
ATOM     85  C   UNL A   1      44.333  25.889  34.708  1.00  0.00     0.131 A 
ATOM     86  C   UNL A   1      46.841  27.049  34.794  1.00  0.00     0.055 A 
ATOM     87  C   UNL A   1      45.371  25.233  35.369  1.00  0.00     0.041 A 
ATOM     88  F   UNL A   1      43.140  25.272  34.664  1.00  0.00    -0.206 F 
ATOM     89  C   UNL A   1      46.639  25.807  35.403  1.00  0.00     0.022 A 
BRANCH  86  90
ATOM     90  S   UNL A   1      48.514  27.742  34.689  1.00  0.00     0.124 S 
ATOM     91  O   UNL A   1      48.648  28.409  35.979  1.00  0.00    -0.237 OA
ATOM     92  O   UNL A   1      49.335  26.549  34.502  1.00  0.00    -0.237 OA
ATOM     93  O   UNL A   1      48.445  28.634  33.533  1.00  0.00    -0.744 OA
ENDBRANCH  86  90
ENDBRANCH  60  83
ENDBRANCH  34  35
ENDBRANCH  27  29
ENDBRANCH  26  27
ENDBRANCH  25  26
ENDBRANCH  24  25
ENDBRANCH  23  24
ENDBRANCH  22  23
ENDBRANCH   1  22
TORSDOF 23
ENDMDL
MODEL 3
REMARK VINA RESULT:      -9.4      2.534      8.849
REMARK SMILES C[C@@H]1CC[N@@H+]1CC1(CC(=O)OCCOCCOCCOC(=O)c2ccc(-c3c4nc(c(-c5cc(S(=O)(=O)[O-])ccc5F)c5ccc([nH]5)c(-c5cc(S(=O)(=O)[O-])ccc5F)c5nc(c(-c6cc(S(=O)(=O)[O-])ccc6F)c6ccc3[nH]6)C=C5)C=C4)cc2)CCCCC1
REMARK SMILES IDX 15 1 14 2 13 3 12 4 11 5 9 6 10 7 8 8 7 9 86 10 90 11 87 12
REMARK SMILES IDX 89 13 88 14 6 15 5 16 1 17 2 18 3 19 4 20 16 22 17 23 18 24
REMARK SMILES IDX 19 25 20 26 21 27 22 28 23 29 24 30 85 31 25 32 84 33 26 34
REMARK SMILES IDX 27 35 28 36 78 37 29 38 83 39 77 40 79 41 30 42 82 43 76 44
REMARK SMILES IDX 75 45 31 47 63 48 43 49 62 50 44 51 47 52 61 53 80 54 45 55
REMARK SMILES IDX 46 56 60 58 81 59 48 60 32 61 33 62 41 63 34 64 40 65 42 66
REMARK SMILES IDX 39 67 35 68 36 69 37 70 38 71 64 72 65 73 73 74 66 75 72 76
REMARK SMILES IDX 74 77 71 78 67 79 68 80 69 81 70 82 49 83 50 84 58 85 51 86
REMARK SMILES IDX 57 87 59 88 56 89 52 90 53 91 54 92 55 93
REMARK H PARENT 5 21 79 46 47 57
REMARK Flexibility Score: inf
ROOT
ATOM      1  C   UNL A   1      38.428  20.776  25.728  1.00  0.00     0.188 C 
ENDROOT
BRANCH   1   2
ATOM      2  O   UNL A   1      37.540  21.601  24.990  1.00  0.00    -0.376 OA
BRANCH   2   3
ATOM      3  C   UNL A   1      36.476  22.228  25.709  1.00  0.00     0.202 C 
BRANCH   3   4
ATOM      4  C   UNL A   1      36.657  23.709  26.095  1.00  0.00     0.261 C 
BRANCH   4   5
ATOM      5  O   UNL A   1      35.611  24.592  25.601  1.00  0.00    -0.463 OA
BRANCH   5   6
ATOM      6  C   UNL A   1      34.335  24.225  25.889  1.00  0.00     0.306 C 
ATOM      7  O   UNL A   1      34.048  23.442  26.790  1.00  0.00    -0.252 OA
BRANCH   6   8
ATOM      8  C   UNL A   1      33.240  24.985  25.131  1.00  0.00     0.135 C 
BRANCH   8   9
ATOM      9  C   UNL A   1      32.969  24.919  23.565  1.00  0.00     0.030 C 
ATOM     10  C   UNL A   1      31.548  24.327  23.383  1.00  0.00     0.013 C 
ATOM     11  C   UNL A   1      34.005  24.030  22.843  1.00  0.00     0.013 C 
ATOM     12  C   UNL A   1      31.417  22.833  23.648  1.00  0.00     0.001 C 
ATOM     13  C   UNL A   1      33.846  22.536  23.125  1.00  0.00     0.001 C 
ATOM     14  C   UNL A   1      32.430  22.067  22.811  1.00  0.00     0.000 C 
BRANCH   9  15
ATOM     15  C   UNL A   1      32.939  26.405  22.997  1.00  0.00     0.269 C 
BRANCH  15  16
ATOM     16  N   UNL A   1      32.573  27.703  23.572  1.00  0.00    -0.332 N 
ATOM     17  C   UNL A   1      30.090  27.223  24.179  1.00  0.00     0.075 C 
ATOM     18  C   UNL A   1      31.198  28.186  23.814  1.00  0.00     0.186 C 
ATOM     19  C   UNL A   1      31.293  28.958  22.471  1.00  0.00     0.126 C 
ATOM     20  C   UNL A   1      32.820  28.880  22.721  1.00  0.00     0.268 C 
ATOM     21  H   UNL A   1      33.106  27.455  24.405  1.00  0.00     0.348 HD
ENDBRANCH  15  16
ENDBRANCH   9  15
ENDBRANCH   8   9
ENDBRANCH   6   8
ENDBRANCH   5   6
ENDBRANCH   4   5
ENDBRANCH   3   4
ENDBRANCH   2   3
ENDBRANCH   1   2
BRANCH   1  22
ATOM     22  C   UNL A   1      39.920  21.124  25.686  1.00  0.00     0.188 C 
BRANCH  22  23
ATOM     23  O   UNL A   1      40.646  20.697  26.824  1.00  0.00    -0.376 OA
BRANCH  23  24
ATOM     24  C   UNL A   1      41.750  19.825  26.625  1.00  0.00     0.202 C 
BRANCH  24  25
ATOM     25  C   UNL A   1      42.881  20.486  25.823  1.00  0.00     0.261 C 
BRANCH  25  26
ATOM     26  O   UNL A   1      43.385  21.703  26.404  1.00  0.00    -0.460 OA
BRANCH  26  27
ATOM     27  C   UNL A   1      43.307  22.814  25.629  1.00  0.00     0.338 C 
ATOM     28  O   UNL A   1      43.452  22.858  24.419  1.00  0.00    -0.246 OA
BRANCH  27  29
ATOM     29  C   UNL A   1      42.766  23.917  26.462  1.00  0.00     0.060 A 
ATOM     30  C   UNL A   1      43.344  25.190  26.357  1.00  0.00     0.016 A 
ATOM     31  C   UNL A   1      41.656  23.720  27.287  1.00  0.00     0.016 A 
ATOM     32  C   UNL A   1      42.842  26.258  27.109  1.00  0.00     0.010 A 
ATOM     33  C   UNL A   1      41.165  24.785  28.050  1.00  0.00     0.010 A 
ATOM     34  C   UNL A   1      41.774  26.052  27.993  1.00  0.00    -0.014 A 
BRANCH  34  35
ATOM     35  C   UNL A   1      41.421  27.082  29.008  1.00  0.00     0.031 A 
ATOM     36  C   UNL A   1      42.254  27.153  30.262  1.00  0.00     0.074 A 
ATOM     37  C   UNL A   1      40.394  27.937  28.837  1.00  0.00     0.049 A 
ATOM     38  N   UNL A   1      42.083  27.874  31.339  1.00  0.00    -0.248 NA
ATOM     39  C   UNL A   1      43.438  26.280  30.303  1.00  0.00     0.031 C 
ATOM     40  C   UNL A   1      39.549  28.019  27.648  1.00  0.00     0.029 A 
ATOM     41  N   UNL A   1      39.883  28.897  29.677  1.00  0.00    -0.354 N 
ATOM     42  C   UNL A   1      43.126  27.530  32.194  1.00  0.00     0.074 A 
ATOM     43  C   UNL A   1      43.904  26.512  31.520  1.00  0.00     0.031 C 
ATOM     44  C   UNL A   1      38.619  28.972  27.839  1.00  0.00     0.029 A 
ATOM     45  C   UNL A   1      38.766  29.532  29.182  1.00  0.00     0.049 A 
ATOM     46  H   UNL A   1      40.278  29.111  30.554  1.00  0.00     0.167 HD
ATOM     47  C   UNL A   1      43.412  28.020  33.426  1.00  0.00     0.034 A 
ATOM     48  C   UNL A   1      37.941  30.434  29.757  1.00  0.00     0.034 A 
ATOM     49  C   UNL A   1      42.629  29.033  34.088  1.00  0.00     0.049 A 
ATOM     50  C   UNL A   1      38.220  30.891  31.174  1.00  0.00     0.074 A 
ATOM     51  C   UNL A   1      42.842  29.609  35.328  1.00  0.00     0.029 A 
ATOM     52  N   UNL A   1      41.476  29.613  33.575  1.00  0.00    -0.354 N 
ATOM     53  N   UNL A   1      39.208  30.554  31.974  1.00  0.00    -0.248 NA
ATOM     54  C   UNL A   1      37.276  31.851  31.763  1.00  0.00     0.031 C 
ATOM     55  C   UNL A   1      41.776  30.472  35.601  1.00  0.00     0.029 A 
ATOM     56  C   UNL A   1      40.948  30.511  34.490  1.00  0.00     0.049 A 
ATOM     57  H   UNL A   1      41.092  29.417  32.690  1.00  0.00     0.167 HD
ATOM     58  C   UNL A   1      39.021  31.295  33.142  1.00  0.00     0.074 A 
ATOM     59  C   UNL A   1      37.838  32.101  32.936  1.00  0.00     0.031 C 
ATOM     60  C   UNL A   1      39.765  31.312  34.278  1.00  0.00     0.034 A 
BRANCH  47  61
ATOM     61  C   UNL A   1      44.587  27.420  34.159  1.00  0.00     0.023 A 
ATOM     62  C   UNL A   1      44.450  26.299  34.998  1.00  0.00     0.031 A 
ATOM     63  C   UNL A   1      45.866  27.989  34.025  1.00  0.00     0.131 A 
ATOM     64  C   UNL A   1      45.559  25.826  35.717  1.00  0.00     0.055 A 
ATOM     65  C   UNL A   1      46.980  27.462  34.679  1.00  0.00     0.041 A 
ATOM     66  F   UNL A   1      46.053  29.077  33.261  1.00  0.00    -0.206 F 
ATOM     67  C   UNL A   1      46.829  26.381  35.542  1.00  0.00     0.022 A 
BRANCH  64  68
ATOM     68  S   UNL A   1      45.291  24.561  36.990  1.00  0.00     0.124 S 
ATOM     69  O   UNL A   1      43.964  24.918  37.486  1.00  0.00    -0.237 OA
ATOM     70  O   UNL A   1      45.374  23.321  36.227  1.00  0.00    -0.237 OA
ATOM     71  O   UNL A   1      46.383  24.788  37.935  1.00  0.00    -0.744 OA
ENDBRANCH  64  68
ENDBRANCH  47  61
BRANCH  48  72
ATOM     72  C   UNL A   1      36.732  30.940  29.036  1.00  0.00     0.023 A 
ATOM     73  C   UNL A   1      35.763  30.057  28.533  1.00  0.00     0.031 A 
ATOM     74  C   UNL A   1      36.575  32.311  28.760  1.00  0.00     0.131 A 
ATOM     75  C   UNL A   1      34.716  30.545  27.732  1.00  0.00     0.055 A 
ATOM     76  C   UNL A   1      35.496  32.798  28.019  1.00  0.00     0.041 A 
ATOM     77  F   UNL A   1      37.477  33.201  29.202  1.00  0.00    -0.206 F 
ATOM     78  C   UNL A   1      34.567  31.911  27.486  1.00  0.00     0.022 A 
BRANCH  75  79
ATOM     79  S   UNL A   1      33.618  29.352  26.915  1.00  0.00     0.124 S 
ATOM     80  O   UNL A   1      34.554  28.300  26.537  1.00  0.00    -0.237 OA
ATOM     81  O   UNL A   1      32.680  29.023  27.984  1.00  0.00    -0.237 OA
ATOM     82  O   UNL A   1      33.052  30.116  25.805  1.00  0.00    -0.744 OA
ENDBRANCH  75  79
ENDBRANCH  48  72
BRANCH  60  83
ATOM     83  C   UNL A   1      39.359  32.283  35.363  1.00  0.00     0.023 A 
ATOM     84  C   UNL A   1      38.635  31.877  36.498  1.00  0.00     0.031 A 
ATOM     85  C   UNL A   1      39.707  33.643  35.258  1.00  0.00     0.131 A 
ATOM     86  C   UNL A   1      38.234  32.828  37.450  1.00  0.00     0.055 A 
ATOM     87  C   UNL A   1      39.365  34.572  36.241  1.00  0.00     0.041 A 
ATOM     88  F   UNL A   1      40.395  34.091  34.195  1.00  0.00    -0.206 F 
ATOM     89  C   UNL A   1      38.611  34.169  37.339  1.00  0.00     0.022 A 
BRANCH  86  90
ATOM     90  S   UNL A   1      37.123  32.310  38.788  1.00  0.00     0.124 S 
ATOM     91  O   UNL A   1      35.863  32.931  38.393  1.00  0.00    -0.237 OA
ATOM     92  O   UNL A   1      37.173  30.855  38.690  1.00  0.00    -0.237 OA
ATOM     93  O   UNL A   1      37.742  32.872  39.986  1.00  0.00    -0.744 OA
ENDBRANCH  86  90
ENDBRANCH  60  83
ENDBRANCH  34  35
ENDBRANCH  27  29
ENDBRANCH  26  27
ENDBRANCH  25  26
ENDBRANCH  24  25
ENDBRANCH  23  24
ENDBRANCH  22  23
ENDBRANCH   1  22
TORSDOF 23
ENDMDL
