MODEL 1
REMARK VINA RESULT:     -12.0      0.000      0.000
REMARK SMILES Cc1ccc(S(=O)(=O)n2cc(C(=O)C(=O)NCC(=O)OCCOCCOCCOC(=O)c3ccc(-c4c5nc(c(-c6cc(S(=O)(=O)[O-])ccc6F)c6ccc([nH]6)c(-c6cc(S(=O)(=O)[O-])ccc6F)c6nc(c(-c7cc(S(=O)(=O)[O-])ccc7F)c7ccc4[nH]7)C=C6)C=C5)cc3)c3ccccc32)cc1
REMARK SMILES IDX 24 1 23 2 22 3 21 4 20 5 18 6 19 7 17 8 16 9 14 10 15 11
REMARK SMILES IDX 12 13 13 14 11 15 9 16 10 17 100 18 95 19 99 20 96 21 98 22
REMARK SMILES IDX 97 23 6 24 7 25 8 26 5 27 1 28 2 29 3 30 102 31 4 32 101 33
REMARK SMILES IDX 25 34 26 35 27 36 28 37 29 38 30 39 31 40 32 41 33 42 94 43
REMARK SMILES IDX 34 44 93 45 35 46 36 47 37 48 87 49 38 50 92 51 86 52 88 53
REMARK SMILES IDX 39 54 91 55 85 56 84 57 40 59 72 60 52 61 71 62 53 63 56 64
REMARK SMILES IDX 70 65 89 66 54 67 55 68 69 70 90 71 57 72 41 73 42 74 50 75
REMARK SMILES IDX 43 76 49 77 51 78 48 79 44 80 45 81 46 82 47 83 73 84 74 85
REMARK SMILES IDX 82 86 75 87 81 88 83 89 80 90 76 91 77 92 78 93 79 94 58 95
REMARK SMILES IDX 59 96 67 97 60 98 66 99 68 100 65 101 61 102 62 103 63 104
REMARK SMILES IDX 64 105
REMARK H PARENT 16 12 88 58 56 69
REMARK Flexibility Score: inf
ROOT
ATOM      1  C   UNL A   1      33.085  33.867  27.682  1.00  0.00     0.188 C 
ENDROOT
BRANCH   1   2
ATOM      2  O   UNL A   1      31.800  33.365  27.259  1.00  0.00    -0.376 OA
BRANCH   2   3
ATOM      3  C   UNL A   1      31.466  32.035  26.858  1.00  0.00     0.202 C 
BRANCH   3   4
ATOM      4  C   UNL A   1      32.601  30.779  26.543  1.00  0.00     0.261 C 
BRANCH   4   5
ATOM      5  O   UNL A   1      32.859  30.091  25.097  1.00  0.00    -0.462 OA
BRANCH   5   6
ATOM      6  C   UNL A   1      33.292  28.983  24.395  1.00  0.00     0.325 C 
ATOM      7  O   UNL A   1      33.357  28.903  23.171  1.00  0.00    -0.250 OA
BRANCH   6   8
ATOM      8  C   UNL A   1      33.611  27.702  25.236  1.00  0.00     0.239 C 
BRANCH   8   9
ATOM      9  N   UNL A   1      32.871  27.728  26.471  1.00  0.00    -0.338 N 
ATOM     10  C   UNL A   1      31.647  27.144  26.651  1.00  0.00     0.292 C 
ATOM     11  O   UNL A   1      31.055  27.237  27.720  1.00  0.00    -0.265 OA
ATOM     12  H   UNL A   1      33.273  28.198  27.237  1.00  0.00     0.164 HD
BRANCH  10  13
ATOM     13  C   UNL A   1      31.011  26.403  25.456  1.00  0.00     0.252 C 
ATOM     14  O   UNL A   1      30.109  26.965  24.843  1.00  0.00    -0.283 OA
BRANCH  13  15
ATOM     15  C   UNL A   1      31.576  25.124  25.043  1.00  0.00     0.054 A 
ATOM     16  N   UNL A   1      32.606  23.173  25.253  1.00  0.00    -0.240 N 
ATOM     17  C   UNL A   1      31.806  24.070  25.903  1.00  0.00     0.117 A 
ATOM     18  C   UNL A   1      32.764  23.514  23.926  1.00  0.00     0.065 A 
ATOM     19  C   UNL A   1      32.070  24.725  23.757  1.00  0.00     0.012 A 
ATOM     20  C   UNL A   1      33.495  22.927  22.879  1.00  0.00     0.028 A 
ATOM     21  C   UNL A   1      32.055  25.316  22.475  1.00  0.00     0.011 A 
ATOM     22  C   UNL A   1      33.481  23.551  21.629  1.00  0.00     0.002 A 
ATOM     23  C   UNL A   1      32.755  24.717  21.423  1.00  0.00     0.001 A 
BRANCH  16  24
ATOM     24  S   UNL A   1      33.638  22.139  26.128  1.00  0.00     0.268 S 
ATOM     25  O   UNL A   1      33.023  21.943  27.426  1.00  0.00    -0.201 OA
ATOM     26  O   UNL A   1      34.971  22.702  25.994  1.00  0.00    -0.201 OA
BRANCH  24  27
ATOM     27  C   UNL A   1      33.634  20.578  25.279  1.00  0.00     0.088 A 
ATOM     28  C   UNL A   1      33.879  16.608  23.649  1.00  0.00     0.044 C 
ATOM     29  C   UNL A   1      33.788  18.013  24.164  1.00  0.00    -0.051 A 
ATOM     30  C   UNL A   1      34.956  18.728  24.461  1.00  0.00     0.005 A 
ATOM     31  C   UNL A   1      32.545  18.618  24.375  1.00  0.00     0.005 A 
ATOM     32  C   UNL A   1      34.881  20.005  25.018  1.00  0.00     0.022 A 
ATOM     33  C   UNL A   1      32.464  19.900  24.923  1.00  0.00     0.022 A 
ENDBRANCH  24  27
ENDBRANCH  16  24
ENDBRANCH  13  15
ENDBRANCH  10  13
ENDBRANCH   8   9
ENDBRANCH   6   8
ENDBRANCH   5   6
ENDBRANCH   4   5
ENDBRANCH   3   4
ENDBRANCH   2   3
ENDBRANCH   1   2
BRANCH   1  34
ATOM     34  C   UNL A   1      33.384  34.316  29.112  1.00  0.00     0.188 C 
BRANCH  34  35
ATOM     35  O   UNL A   1      32.552  35.396  29.501  1.00  0.00    -0.376 OA
BRANCH  35  36
ATOM     36  C   UNL A   1      33.097  36.216  30.524  1.00  0.00     0.202 C 
BRANCH  36  37
ATOM     37  C   UNL A   1      32.472  36.015  31.925  1.00  0.00     0.261 C 
BRANCH  37  38
ATOM     38  O   UNL A   1      33.468  35.686  32.924  1.00  0.00    -0.460 OA
BRANCH  38  39
ATOM     39  C   UNL A   1      33.787  34.343  33.095  1.00  0.00     0.338 C 
ATOM     40  O   UNL A   1      32.974  33.481  33.218  1.00  0.00    -0.246 OA
BRANCH  39  41
ATOM     41  C   UNL A   1      35.292  34.169  32.999  1.00  0.00     0.060 A 
ATOM     42  C   UNL A   1      36.212  34.847  32.185  1.00  0.00     0.016 A 
ATOM     43  C   UNL A   1      35.784  33.068  33.597  1.00  0.00     0.016 A 
ATOM     44  C   UNL A   1      37.567  34.316  31.906  1.00  0.00     0.010 A 
ATOM     45  C   UNL A   1      36.919  32.514  33.006  1.00  0.00     0.010 A 
ATOM     46  C   UNL A   1      37.988  33.036  32.291  1.00  0.00    -0.014 A 
BRANCH  46  47
ATOM     47  C   UNL A   1      39.213  32.146  31.754  1.00  0.00     0.031 A 
ATOM     48  C   UNL A   1      39.386  30.853  30.803  1.00  0.00     0.074 A 
ATOM     49  C   UNL A   1      40.430  32.572  32.162  1.00  0.00     0.049 A 
ATOM     50  N   UNL A   1      40.104  29.778  31.096  1.00  0.00    -0.248 NA
ATOM     51  C   UNL A   1      38.907  30.664  29.430  1.00  0.00     0.031 C 
ATOM     52  C   UNL A   1      41.757  32.095  31.777  1.00  0.00     0.029 A 
ATOM     53  N   UNL A   1      40.684  33.480  33.186  1.00  0.00    -0.354 N 
ATOM     54  C   UNL A   1      40.165  28.927  29.968  1.00  0.00     0.074 A 
ATOM     55  C   UNL A   1      39.275  29.460  29.022  1.00  0.00     0.031 C 
ATOM     56  C   UNL A   1      42.627  32.454  32.737  1.00  0.00     0.029 A 
ATOM     57  C   UNL A   1      41.870  33.088  33.803  1.00  0.00     0.049 A 
ATOM     58  H   UNL A   1      40.128  34.254  33.429  1.00  0.00     0.167 HD
ATOM     59  C   UNL A   1      41.050  27.926  29.690  1.00  0.00     0.034 A 
ATOM     60  C   UNL A   1      41.847  32.749  35.122  1.00  0.00     0.034 A 
ATOM     61  C   UNL A   1      42.154  27.996  30.590  1.00  0.00     0.049 A 
ATOM     62  C   UNL A   1      42.242  31.306  35.333  1.00  0.00     0.074 A 
ATOM     63  C   UNL A   1      43.365  28.654  30.501  1.00  0.00     0.029 A 
ATOM     64  N   UNL A   1      41.926  27.717  31.919  1.00  0.00    -0.354 N 
ATOM     65  N   UNL A   1      42.358  30.427  34.373  1.00  0.00    -0.248 NA
ATOM     66  C   UNL A   1      42.556  30.742  36.640  1.00  0.00     0.031 C 
ATOM     67  C   UNL A   1      43.799  28.903  31.829  1.00  0.00     0.029 A 
ATOM     68  C   UNL A   1      42.903  28.298  32.694  1.00  0.00     0.049 A 
ATOM     69  H   UNL A   1      41.175  27.181  32.263  1.00  0.00     0.167 HD
ATOM     70  C   UNL A   1      42.723  29.215  34.896  1.00  0.00     0.074 A 
ATOM     71  C   UNL A   1      42.863  29.473  36.317  1.00  0.00     0.031 C 
ATOM     72  C   UNL A   1      42.869  28.095  34.126  1.00  0.00     0.034 A 
BRANCH  59  73
ATOM     73  C   UNL A   1      41.010  27.171  28.362  1.00  0.00     0.023 A 
ATOM     74  C   UNL A   1      40.723  25.794  28.278  1.00  0.00     0.031 A 
ATOM     75  C   UNL A   1      41.347  27.803  27.140  1.00  0.00     0.131 A 
ATOM     76  C   UNL A   1      40.899  25.089  27.062  1.00  0.00     0.055 A 
ATOM     77  C   UNL A   1      41.568  27.096  25.947  1.00  0.00     0.041 A 
ATOM     78  F   UNL A   1      41.532  29.132  27.092  1.00  0.00    -0.206 F 
ATOM     79  C   UNL A   1      41.367  25.723  25.911  1.00  0.00     0.022 A 
BRANCH  76  80
ATOM     80  S   UNL A   1      40.520  23.310  26.994  1.00  0.00     0.124 S 
ATOM     81  O   UNL A   1      40.900  22.859  28.328  1.00  0.00    -0.237 OA
ATOM     82  O   UNL A   1      39.091  23.309  26.696  1.00  0.00    -0.237 OA
ATOM     83  O   UNL A   1      41.372  22.815  25.913  1.00  0.00    -0.744 OA
ENDBRANCH  76  80
ENDBRANCH  59  73
BRANCH  60  84
ATOM     84  C   UNL A   1      40.904  33.589  35.940  1.00  0.00     0.023 A 
ATOM     85  C   UNL A   1      39.629  33.027  36.214  1.00  0.00     0.031 A 
ATOM     86  C   UNL A   1      41.286  34.699  36.703  1.00  0.00     0.131 A 
ATOM     87  C   UNL A   1      38.871  33.451  37.314  1.00  0.00     0.055 A 
ATOM     88  C   UNL A   1      40.474  35.188  37.747  1.00  0.00     0.041 A 
ATOM     89  F   UNL A   1      42.502  35.245  36.559  1.00  0.00    -0.206 F 
ATOM     90  C   UNL A   1      39.276  34.545  38.075  1.00  0.00     0.022 A 
BRANCH  87  91
ATOM     91  S   UNL A   1      37.500  32.417  37.923  1.00  0.00     0.124 S 
ATOM     92  O   UNL A   1      36.332  33.095  37.373  1.00  0.00    -0.237 OA
ATOM     93  O   UNL A   1      37.785  31.097  37.364  1.00  0.00    -0.237 OA
ATOM     94  O   UNL A   1      37.666  32.498  39.372  1.00  0.00    -0.744 OA
ENDBRANCH  87  91
ENDBRANCH  60  84
BRANCH  72  95
ATOM     95  C   UNL A   1      43.039  26.684  34.634  1.00  0.00     0.023 A 
ATOM     96  C   UNL A   1      44.110  25.875  34.256  1.00  0.00     0.031 A 
ATOM     97  C   UNL A   1      42.161  26.135  35.607  1.00  0.00     0.131 A 
ATOM     98  C   UNL A   1      44.219  24.559  34.727  1.00  0.00     0.055 A 
ATOM     99  C   UNL A   1      42.345  24.871  36.170  1.00  0.00     0.041 A 
ATOM    100  F   UNL A   1      41.086  26.803  36.053  1.00  0.00    -0.206 F 
ATOM    101  C   UNL A   1      43.368  24.060  35.710  1.00  0.00     0.022 A 
BRANCH  98 102
ATOM    102  S   UNL A   1      45.416  23.479  33.910  1.00  0.00     0.124 S 
ATOM    103  O   UNL A   1      45.525  22.382  34.869  1.00  0.00    -0.237 OA
ATOM    104  O   UNL A   1      44.746  23.159  32.655  1.00  0.00    -0.237 OA
ATOM    105  O   UNL A   1      46.606  24.317  33.790  1.00  0.00    -0.744 OA
ENDBRANCH  98 102
ENDBRANCH  72  95
ENDBRANCH  46  47
ENDBRANCH  39  41
ENDBRANCH  38  39
ENDBRANCH  37  38
ENDBRANCH  36  37
ENDBRANCH  35  36
ENDBRANCH  34  35
ENDBRANCH   1  34
TORSDOF 25
ENDMDL
MODEL 2
REMARK VINA RESULT:     -11.6      2.728      4.122
REMARK SMILES Cc1ccc(S(=O)(=O)n2cc(C(=O)C(=O)NCC(=O)OCCOCCOCCOC(=O)c3ccc(-c4c5nc(c(-c6cc(S(=O)(=O)[O-])ccc6F)c6ccc([nH]6)c(-c6cc(S(=O)(=O)[O-])ccc6F)c6nc(c(-c7cc(S(=O)(=O)[O-])ccc7F)c7ccc4[nH]7)C=C6)C=C5)cc3)c3ccccc32)cc1
REMARK SMILES IDX 24 1 23 2 22 3 21 4 20 5 18 6 19 7 17 8 16 9 14 10 15 11
REMARK SMILES IDX 12 13 13 14 11 15 9 16 10 17 100 18 95 19 99 20 96 21 98 22
REMARK SMILES IDX 97 23 6 24 7 25 8 26 5 27 1 28 2 29 3 30 102 31 4 32 101 33
REMARK SMILES IDX 25 34 26 35 27 36 28 37 29 38 30 39 31 40 32 41 33 42 94 43
REMARK SMILES IDX 34 44 93 45 35 46 36 47 37 48 87 49 38 50 92 51 86 52 88 53
REMARK SMILES IDX 39 54 91 55 85 56 84 57 40 59 72 60 52 61 71 62 53 63 56 64
REMARK SMILES IDX 70 65 89 66 54 67 55 68 69 70 90 71 57 72 41 73 42 74 50 75
REMARK SMILES IDX 43 76 49 77 51 78 48 79 44 80 45 81 46 82 47 83 73 84 74 85
REMARK SMILES IDX 82 86 75 87 81 88 83 89 80 90 76 91 77 92 78 93 79 94 58 95
REMARK SMILES IDX 59 96 67 97 60 98 66 99 68 100 65 101 61 102 62 103 63 104
REMARK SMILES IDX 64 105
REMARK H PARENT 16 12 88 58 56 69
REMARK Flexibility Score: inf
ROOT
ATOM      1  C   UNL A   1      33.846  33.868  28.061  1.00  0.00     0.188 C 
ENDROOT
BRANCH   1   2
ATOM      2  O   UNL A   1      32.492  33.849  27.562  1.00  0.00    -0.376 OA
BRANCH   2   3
ATOM      3  C   UNL A   1      31.661  32.712  27.324  1.00  0.00     0.202 C 
BRANCH   3   4
ATOM      4  C   UNL A   1      32.152  31.278  26.508  1.00  0.00     0.261 C 
BRANCH   4   5
ATOM      5  O   UNL A   1      31.202  30.371  25.554  1.00  0.00    -0.462 OA
BRANCH   5   6
ATOM      6  C   UNL A   1      31.104  29.564  24.439  1.00  0.00     0.325 C 
ATOM      7  O   UNL A   1      30.353  29.764  23.486  1.00  0.00    -0.250 OA
BRANCH   6   8
ATOM      8  C   UNL A   1      31.933  28.237  24.458  1.00  0.00     0.239 C 
BRANCH   8   9
ATOM      9  N   UNL A   1      31.884  27.647  25.772  1.00  0.00    -0.338 N 
ATOM     10  C   UNL A   1      31.180  26.517  26.085  1.00  0.00     0.292 C 
ATOM     11  O   UNL A   1      31.151  26.090  27.233  1.00  0.00    -0.265 OA
ATOM     12  H   UNL A   1      32.393  28.087  26.491  1.00  0.00     0.164 HD
BRANCH  10  13
ATOM     13  C   UNL A   1      30.384  25.820  24.962  1.00  0.00     0.252 C 
ATOM     14  O   UNL A   1      29.296  26.294  24.646  1.00  0.00    -0.283 OA
BRANCH  13  15
ATOM     15  C   UNL A   1      30.998  24.703  24.256  1.00  0.00     0.054 A 
ATOM     16  N   UNL A   1      31.998  22.742  23.995  1.00  0.00    -0.240 N 
ATOM     17  C   UNL A   1      31.121  23.433  24.782  1.00  0.00     0.117 A 
ATOM     18  C   UNL A   1      32.319  23.456  22.859  1.00  0.00     0.065 A 
ATOM     19  C   UNL A   1      31.649  24.686  22.978  1.00  0.00     0.012 A 
ATOM     20  C   UNL A   1      33.177  23.181  21.779  1.00  0.00     0.028 A 
ATOM     21  C   UNL A   1      31.792  25.631  21.939  1.00  0.00     0.011 A 
ATOM     22  C   UNL A   1      33.317  24.149  20.781  1.00  0.00     0.002 A 
ATOM     23  C   UNL A   1      32.619  25.348  20.847  1.00  0.00     0.001 A 
BRANCH  16  24
ATOM     24  S   UNL A   1      32.916  21.460  24.637  1.00  0.00     0.268 S 
ATOM     25  O   UNL A   1      33.015  20.459  23.592  1.00  0.00    -0.201 OA
ATOM     26  O   UNL A   1      32.326  21.156  25.929  1.00  0.00    -0.201 OA
BRANCH  24  27
ATOM     27  C   UNL A   1      34.547  22.102  24.936  1.00  0.00     0.088 A 
ATOM     28  C   UNL A   1      38.380  23.599  26.177  1.00  0.00     0.044 C 
ATOM     29  C   UNL A   1      37.049  23.105  25.695  1.00  0.00    -0.051 A 
ATOM     30  C   UNL A   1      35.875  23.773  26.068  1.00  0.00     0.005 A 
ATOM     31  C   UNL A   1      36.959  21.965  24.889  1.00  0.00     0.005 A 
ATOM     32  C   UNL A   1      34.628  23.274  25.693  1.00  0.00     0.022 A 
ATOM     33  C   UNL A   1      35.714  21.466  24.502  1.00  0.00     0.022 A 
ENDBRANCH  24  27
ENDBRANCH  16  24
ENDBRANCH  13  15
ENDBRANCH  10  13
ENDBRANCH   8   9
ENDBRANCH   6   8
ENDBRANCH   5   6
ENDBRANCH   4   5
ENDBRANCH   3   4
ENDBRANCH   2   3
ENDBRANCH   1   2
BRANCH   1  34
ATOM     34  C   UNL A   1      34.299  33.086  29.295  1.00  0.00     0.188 C 
BRANCH  34  35
ATOM     35  O   UNL A   1      33.896  33.729  30.493  1.00  0.00    -0.376 OA
BRANCH  35  36
ATOM     36  C   UNL A   1      34.957  34.325  31.223  1.00  0.00     0.202 C 
BRANCH  36  37
ATOM     37  C   UNL A   1      35.550  33.447  32.350  1.00  0.00     0.261 C 
BRANCH  37  38
ATOM     38  O   UNL A   1      36.776  32.791  31.942  1.00  0.00    -0.460 OA
BRANCH  38  39
ATOM     39  C   UNL A   1      36.701  31.445  31.599  1.00  0.00     0.338 C 
ATOM     40  O   UNL A   1      35.783  30.741  31.884  1.00  0.00    -0.246 OA
BRANCH  39  41
ATOM     41  C   UNL A   1      37.901  31.077  30.747  1.00  0.00     0.060 A 
ATOM     42  C   UNL A   1      37.935  30.493  29.471  1.00  0.00     0.016 A 
ATOM     43  C   UNL A   1      39.087  31.095  31.382  1.00  0.00     0.016 A 
ATOM     44  C   UNL A   1      39.148  29.833  28.933  1.00  0.00     0.010 A 
ATOM     45  C   UNL A   1      40.032  30.176  30.927  1.00  0.00     0.010 A 
ATOM     46  C   UNL A   1      40.299  29.596  29.694  1.00  0.00    -0.014 A 
BRANCH  46  47
ATOM     47  C   UNL A   1      41.515  28.575  29.442  1.00  0.00     0.031 A 
ATOM     48  C   UNL A   1      41.672  27.056  28.920  1.00  0.00     0.074 A 
ATOM     49  C   UNL A   1      42.738  29.094  29.697  1.00  0.00     0.049 A 
ATOM     50  N   UNL A   1      42.386  26.112  29.517  1.00  0.00    -0.248 NA
ATOM     51  C   UNL A   1      41.182  26.469  27.669  1.00  0.00     0.031 C 
ATOM     52  C   UNL A   1      44.059  28.513  29.466  1.00  0.00     0.029 A 
ATOM     53  N   UNL A   1      43.005  30.264  30.401  1.00  0.00    -0.354 N 
ATOM     54  C   UNL A   1      42.432  24.962  28.695  1.00  0.00     0.074 A 
ATOM     55  C   UNL A   1      41.538  25.195  27.638  1.00  0.00     0.031 C 
ATOM     56  C   UNL A   1      44.938  29.135  30.269  1.00  0.00     0.029 A 
ATOM     57  C   UNL A   1      44.193  30.064  31.101  1.00  0.00     0.049 A 
ATOM     58  H   UNL A   1      42.456  31.081  30.404  1.00  0.00     0.167 HD
ATOM     59  C   UNL A   1      43.308  23.916  28.724  1.00  0.00     0.034 A 
ATOM     60  C   UNL A   1      44.179  30.136  32.460  1.00  0.00     0.034 A 
ATOM     61  C   UNL A   1      44.420  24.243  29.557  1.00  0.00     0.049 A 
ATOM     62  C   UNL A   1      44.566  28.819  33.092  1.00  0.00     0.074 A 
ATOM     63  C   UNL A   1      45.634  24.834  29.268  1.00  0.00     0.029 A 
ATOM     64  N   UNL A   1      44.200  24.376  30.909  1.00  0.00    -0.354 N 
ATOM     65  N   UNL A   1      44.668  27.692  32.438  1.00  0.00    -0.248 NA
ATOM     66  C   UNL A   1      44.886  28.668  34.506  1.00  0.00     0.031 C 
ATOM     67  C   UNL A   1      46.080  25.464  30.458  1.00  0.00     0.029 A 
ATOM     68  C   UNL A   1      45.187  25.154  31.469  1.00  0.00     0.049 A 
ATOM     69  H   UNL A   1      43.448  23.974  31.401  1.00  0.00     0.167 HD
ATOM     70  C   UNL A   1      45.029  26.689  33.297  1.00  0.00     0.074 A 
ATOM     71  C   UNL A   1      45.182  27.359  34.575  1.00  0.00     0.031 C 
ATOM     72  C   UNL A   1      45.163  25.389  32.897  1.00  0.00     0.034 A 
BRANCH  59  73
ATOM     73  C   UNL A   1      43.253  22.799  27.683  1.00  0.00     0.023 A 
ATOM     74  C   UNL A   1      44.198  22.679  26.645  1.00  0.00     0.031 A 
ATOM     75  C   UNL A   1      42.188  21.865  27.655  1.00  0.00     0.131 A 
ATOM     76  C   UNL A   1      43.998  21.763  25.584  1.00  0.00     0.055 A 
ATOM     77  C   UNL A   1      41.965  20.991  26.578  1.00  0.00     0.041 A 
ATOM     78  F   UNL A   1      41.295  21.823  28.656  1.00  0.00    -0.206 F 
ATOM     79  C   UNL A   1      42.862  20.955  25.520  1.00  0.00     0.022 A 
BRANCH  76  80
ATOM     80  S   UNL A   1      45.241  21.639  24.260  1.00  0.00     0.124 S 
ATOM     81  O   UNL A   1      45.031  22.877  23.518  1.00  0.00    -0.237 OA
ATOM     82  O   UNL A   1      46.486  21.542  25.013  1.00  0.00    -0.237 OA
ATOM     83  O   UNL A   1      44.862  20.422  23.541  1.00  0.00    -0.744 OA
ENDBRANCH  76  80
ENDBRANCH  59  73
BRANCH  60  84
ATOM     84  C   UNL A   1      43.247  31.190  32.996  1.00  0.00     0.023 A 
ATOM     85  C   UNL A   1      42.067  30.728  33.637  1.00  0.00     0.031 A 
ATOM     86  C   UNL A   1      43.596  32.531  33.197  1.00  0.00     0.131 A 
ATOM     87  C   UNL A   1      41.388  31.526  34.568  1.00  0.00     0.055 A 
ATOM     88  C   UNL A   1      42.851  33.362  34.058  1.00  0.00     0.041 A 
ATOM     89  F   UNL A   1      44.731  33.028  32.687  1.00  0.00    -0.206 F 
ATOM     90  C   UNL A   1      41.761  32.852  34.770  1.00  0.00     0.022 A 
BRANCH  87  91
ATOM     91  S   UNL A   1      40.194  30.764  35.713  1.00  0.00     0.124 S 
ATOM     92  O   UNL A   1      38.959  30.794  34.939  1.00  0.00    -0.237 OA
ATOM     93  O   UNL A   1      40.750  29.436  35.964  1.00  0.00    -0.237 OA
ATOM     94  O   UNL A   1      40.250  31.660  36.866  1.00  0.00    -0.744 OA
ENDBRANCH  87  91
ENDBRANCH  60  84
BRANCH  72  95
ATOM     95  C   UNL A   1      45.327  24.193  33.803  1.00  0.00     0.023 A 
ATOM     96  C   UNL A   1      46.578  23.713  34.192  1.00  0.00     0.031 A 
ATOM     97  C   UNL A   1      44.206  23.546  34.389  1.00  0.00     0.131 A 
ATOM     98  C   UNL A   1      46.691  22.582  35.012  1.00  0.00     0.055 A 
ATOM     99  C   UNL A   1      44.326  22.501  35.306  1.00  0.00     0.041 A 
ATOM    100  F   UNL A   1      42.946  23.902  34.097  1.00  0.00    -0.206 F 
ATOM    101  C   UNL A   1      45.578  21.993  35.604  1.00  0.00     0.022 A 
BRANCH  98 102
ATOM    102  S   UNL A   1      48.325  21.823  35.161  1.00  0.00     0.124 S 
ATOM    103  O   UNL A   1      49.115  22.642  34.244  1.00  0.00    -0.237 OA
ATOM    104  O   UNL A   1      48.623  21.994  36.579  1.00  0.00    -0.237 OA
ATOM    105  O   UNL A   1      48.104  20.446  34.728  1.00  0.00    -0.744 OA
ENDBRANCH  98 102
ENDBRANCH  72  95
ENDBRANCH  46  47
ENDBRANCH  39  41
ENDBRANCH  38  39
ENDBRANCH  37  38
ENDBRANCH  36  37
ENDBRANCH  35  36
ENDBRANCH  34  35
ENDBRANCH   1  34
TORSDOF 25
ENDMDL
MODEL 3
REMARK VINA RESULT:     -10.8      2.479      3.394
REMARK SMILES Cc1ccc(S(=O)(=O)n2cc(C(=O)C(=O)NCC(=O)OCCOCCOCCOC(=O)c3ccc(-c4c5nc(c(-c6cc(S(=O)(=O)[O-])ccc6F)c6ccc([nH]6)c(-c6cc(S(=O)(=O)[O-])ccc6F)c6nc(c(-c7cc(S(=O)(=O)[O-])ccc7F)c7ccc4[nH]7)C=C6)C=C5)cc3)c3ccccc32)cc1
REMARK SMILES IDX 24 1 23 2 22 3 21 4 20 5 18 6 19 7 17 8 16 9 14 10 15 11
REMARK SMILES IDX 12 13 13 14 11 15 9 16 10 17 100 18 95 19 99 20 96 21 98 22
REMARK SMILES IDX 97 23 6 24 7 25 8 26 5 27 1 28 2 29 3 30 102 31 4 32 101 33
REMARK SMILES IDX 25 34 26 35 27 36 28 37 29 38 30 39 31 40 32 41 33 42 94 43
REMARK SMILES IDX 34 44 93 45 35 46 36 47 37 48 87 49 38 50 92 51 86 52 88 53
REMARK SMILES IDX 39 54 91 55 85 56 84 57 40 59 72 60 52 61 71 62 53 63 56 64
REMARK SMILES IDX 70 65 89 66 54 67 55 68 69 70 90 71 57 72 41 73 42 74 50 75
REMARK SMILES IDX 43 76 49 77 51 78 48 79 44 80 45 81 46 82 47 83 73 84 74 85
REMARK SMILES IDX 82 86 75 87 81 88 83 89 80 90 76 91 77 92 78 93 79 94 58 95
REMARK SMILES IDX 59 96 67 97 60 98 66 99 68 100 65 101 61 102 62 103 63 104
REMARK SMILES IDX 64 105
REMARK H PARENT 16 12 88 58 56 69
REMARK Flexibility Score: inf
ROOT
ATOM      1  C   UNL A   1      33.832  34.011  28.017  1.00  0.00     0.188 C 
ENDROOT
BRANCH   1   2
ATOM      2  O   UNL A   1      32.599  33.860  27.282  1.00  0.00    -0.376 OA
BRANCH   2   3
ATOM      3  C   UNL A   1      31.761  32.706  27.202  1.00  0.00     0.202 C 
BRANCH   3   4
ATOM      4  C   UNL A   1      32.302  31.109  26.858  1.00  0.00     0.261 C 
BRANCH   4   5
ATOM      5  O   UNL A   1      31.550  30.055  25.880  1.00  0.00    -0.462 OA
BRANCH   5   6
ATOM      6  C   UNL A   1      31.632  29.224  24.780  1.00  0.00     0.325 C 
ATOM      7  O   UNL A   1      31.237  29.506  23.651  1.00  0.00    -0.250 OA
BRANCH   6   8
ATOM      8  C   UNL A   1      32.166  27.775  25.035  1.00  0.00     0.239 C 
BRANCH   8   9
ATOM      9  N   UNL A   1      31.475  27.187  26.154  1.00  0.00    -0.338 N 
ATOM     10  C   UNL A   1      30.459  26.278  26.043  1.00  0.00     0.292 C 
ATOM     11  O   UNL A   1      29.889  25.845  27.037  1.00  0.00    -0.265 OA
ATOM     12  H   UNL A   1      31.753  27.458  27.059  1.00  0.00     0.164 HD
BRANCH  10  13
ATOM     13  C   UNL A   1      30.020  25.845  24.628  1.00  0.00     0.252 C 
ATOM     14  O   UNL A   1      29.130  26.487  24.079  1.00  0.00    -0.283 OA
BRANCH  13  15
ATOM     15  C   UNL A   1      30.748  24.770  23.966  1.00  0.00     0.054 A 
ATOM     16  N   UNL A   1      31.872  22.870  23.772  1.00  0.00    -0.240 N 
ATOM     17  C   UNL A   1      30.901  23.504  24.493  1.00  0.00     0.117 A 
ATOM     18  C   UNL A   1      32.239  23.611  22.668  1.00  0.00     0.065 A 
ATOM     19  C   UNL A   1      31.495  24.801  22.741  1.00  0.00     0.012 A 
ATOM     20  C   UNL A   1      33.191  23.394  21.656  1.00  0.00     0.028 A 
ATOM     21  C   UNL A   1      31.664  25.763  21.722  1.00  0.00     0.011 A 
ATOM     22  C   UNL A   1      33.353  24.377  20.677  1.00  0.00     0.002 A 
ATOM     23  C   UNL A   1      32.587  25.536  20.695  1.00  0.00     0.001 A 
BRANCH  16  24
ATOM     24  S   UNL A   1      32.808  21.634  24.476  1.00  0.00     0.268 S 
ATOM     25  O   UNL A   1      32.978  20.614  23.459  1.00  0.00    -0.201 OA
ATOM     26  O   UNL A   1      32.182  21.339  25.753  1.00  0.00    -0.201 OA
BRANCH  24  27
ATOM     27  C   UNL A   1      34.405  22.337  24.817  1.00  0.00     0.088 A 
ATOM     28  C   UNL A   1      38.173  23.916  26.153  1.00  0.00     0.044 C 
ATOM     29  C   UNL A   1      36.862  23.399  25.641  1.00  0.00    -0.051 A 
ATOM     30  C   UNL A   1      35.661  23.945  26.112  1.00  0.00     0.005 A 
ATOM     31  C   UNL A   1      36.819  22.357  24.710  1.00  0.00     0.005 A 
ATOM     32  C   UNL A   1      34.436  23.416  25.704  1.00  0.00     0.022 A 
ATOM     33  C   UNL A   1      35.596  21.830  24.290  1.00  0.00     0.022 A 
ENDBRANCH  24  27
ENDBRANCH  16  24
ENDBRANCH  13  15
ENDBRANCH  10  13
ENDBRANCH   8   9
ENDBRANCH   6   8
ENDBRANCH   5   6
ENDBRANCH   4   5
ENDBRANCH   3   4
ENDBRANCH   2   3
ENDBRANCH   1   2
BRANCH   1  34
ATOM     34  C   UNL A   1      34.041  33.465  29.430  1.00  0.00     0.188 C 
BRANCH  34  35
ATOM     35  O   UNL A   1      33.430  34.297  30.403  1.00  0.00    -0.376 OA
BRANCH  35  36
ATOM     36  C   UNL A   1      34.345  34.991  31.236  1.00  0.00     0.202 C 
BRANCH  36  37
ATOM     37  C   UNL A   1      34.564  34.363  32.633  1.00  0.00     0.261 C 
BRANCH  37  38
ATOM     38  O   UNL A   1      35.853  33.710  32.741  1.00  0.00    -0.460 OA
BRANCH  38  39
ATOM     39  C   UNL A   1      35.953  32.405  32.270  1.00  0.00     0.338 C 
ATOM     40  O   UNL A   1      35.149  31.556  32.499  1.00  0.00    -0.246 OA
BRANCH  39  41
ATOM     41  C   UNL A   1      37.167  32.289  31.367  1.00  0.00     0.060 A 
ATOM     42  C   UNL A   1      37.222  32.095  29.977  1.00  0.00     0.016 A 
ATOM     43  C   UNL A   1      38.342  32.117  31.999  1.00  0.00     0.016 A 
ATOM     44  C   UNL A   1      38.442  31.611  29.291  1.00  0.00     0.010 A 
ATOM     45  C   UNL A   1      39.293  31.361  31.314  1.00  0.00     0.010 A 
ATOM     46  C   UNL A   1      39.580  31.158  29.971  1.00  0.00    -0.014 A 
BRANCH  46  47
ATOM     47  C   UNL A   1      40.798  30.245  29.455  1.00  0.00     0.031 A 
ATOM     48  C   UNL A   1      40.968  28.753  28.863  1.00  0.00     0.074 A 
ATOM     49  C   UNL A   1      42.004  30.858  29.486  1.00  0.00     0.049 A 
ATOM     50  N   UNL A   1      41.855  27.861  29.280  1.00  0.00    -0.248 NA
ATOM     51  C   UNL A   1      40.290  28.150  27.711  1.00  0.00     0.031 C 
ATOM     52  C   UNL A   1      43.295  30.392  28.985  1.00  0.00     0.029 A 
ATOM     53  N   UNL A   1      42.312  32.034  30.164  1.00  0.00    -0.354 N 
ATOM     54  C   UNL A   1      41.829  26.733  28.427  1.00  0.00     0.074 A 
ATOM     55  C   UNL A   1      40.731  26.910  27.571  1.00  0.00     0.031 C 
ATOM     56  C   UNL A   1      44.264  31.070  29.624  1.00  0.00     0.029 A 
ATOM     57  C   UNL A   1      43.625  31.921  30.614  1.00  0.00     0.049 A 
ATOM     58  H   UNL A   1      41.713  32.802  30.300  1.00  0.00     0.167 HD
ATOM     59  C   UNL A   1      42.772  25.762  28.252  1.00  0.00     0.034 A 
ATOM     60  C   UNL A   1      43.871  31.968  31.953  1.00  0.00     0.034 A 
ATOM     61  C   UNL A   1      43.996  26.165  28.865  1.00  0.00     0.049 A 
ATOM     62  C   UNL A   1      44.475  30.676  32.453  1.00  0.00     0.074 A 
ATOM     63  C   UNL A   1      45.082  26.859  28.367  1.00  0.00     0.029 A 
ATOM     64  N   UNL A   1      44.035  26.256  30.238  1.00  0.00    -0.354 N 
ATOM     65  N   UNL A   1      44.534  29.573  31.756  1.00  0.00    -0.248 NA
ATOM     66  C   UNL A   1      45.075  30.528  33.774  1.00  0.00     0.031 C 
ATOM     67  C   UNL A   1      45.701  27.503  29.468  1.00  0.00     0.029 A 
ATOM     68  C   UNL A   1      45.049  27.103  30.622  1.00  0.00     0.049 A 
ATOM     69  H   UNL A   1      43.427  25.785  30.852  1.00  0.00     0.167 HD
ATOM     70  C   UNL A   1      45.133  28.588  32.496  1.00  0.00     0.074 A 
ATOM     71  C   UNL A   1      45.480  29.246  33.741  1.00  0.00     0.031 C 
ATOM     72  C   UNL A   1      45.286  27.311  32.034  1.00  0.00     0.034 A 
BRANCH  59  73
ATOM     73  C   UNL A   1      42.602  24.663  27.205  1.00  0.00     0.023 A 
ATOM     74  C   UNL A   1      41.917  23.460  27.470  1.00  0.00     0.031 A 
ATOM     75  C   UNL A   1      43.203  24.758  25.926  1.00  0.00     0.131 A 
ATOM     76  C   UNL A   1      41.958  22.384  26.550  1.00  0.00     0.055 A 
ATOM     77  C   UNL A   1      43.286  23.674  25.037  1.00  0.00     0.041 A 
ATOM     78  F   UNL A   1      43.787  25.901  25.534  1.00  0.00    -0.206 F 
ATOM     79  C   UNL A   1      42.680  22.468  25.358  1.00  0.00     0.022 A 
BRANCH  76  80
ATOM     80  S   UNL A   1      41.062  20.845  26.928  1.00  0.00     0.124 S 
ATOM     81  O   UNL A   1      42.057  19.822  26.624  1.00  0.00    -0.237 OA
ATOM     82  O   UNL A   1      40.727  21.021  28.337  1.00  0.00    -0.237 OA
ATOM     83  O   UNL A   1      39.918  20.877  26.017  1.00  0.00    -0.744 OA
ENDBRANCH  76  80
ENDBRANCH  59  73
BRANCH  60  84
ATOM     84  C   UNL A   1      42.983  32.932  32.692  1.00  0.00     0.023 A 
ATOM     85  C   UNL A   1      41.994  32.364  33.538  1.00  0.00     0.031 A 
ATOM     86  C   UNL A   1      43.257  34.295  32.861  1.00  0.00     0.131 A 
ATOM     87  C   UNL A   1      41.452  33.088  34.608  1.00  0.00     0.055 A 
ATOM     88  C   UNL A   1      42.634  35.048  33.877  1.00  0.00     0.041 A 
ATOM     89  F   UNL A   1      44.226  34.892  32.154  1.00  0.00    -0.206 F 
ATOM     90  C   UNL A   1      41.751  34.438  34.773  1.00  0.00     0.022 A 
BRANCH  87  91
ATOM     91  S   UNL A   1      40.572  32.213  35.942  1.00  0.00     0.124 S 
ATOM     92  O   UNL A   1      39.392  31.705  35.253  1.00  0.00    -0.237 OA
ATOM     93  O   UNL A   1      41.529  31.201  36.385  1.00  0.00    -0.237 OA
ATOM     94  O   UNL A   1      40.339  33.278  36.915  1.00  0.00    -0.744 OA
ENDBRANCH  87  91
ENDBRANCH  60  84
BRANCH  72  95
ATOM     95  C   UNL A   1      45.716  26.117  32.852  1.00  0.00     0.023 A 
ATOM     96  C   UNL A   1      44.803  25.237  33.432  1.00  0.00     0.031 A 
ATOM     97  C   UNL A   1      47.086  25.770  32.994  1.00  0.00     0.131 A 
ATOM     98  C   UNL A   1      45.240  24.155  34.209  1.00  0.00     0.055 A 
ATOM     99  C   UNL A   1      47.514  24.621  33.661  1.00  0.00     0.041 A 
ATOM    100  F   UNL A   1      48.070  26.532  32.492  1.00  0.00    -0.206 F 
ATOM    101  C   UNL A   1      46.587  23.815  34.299  1.00  0.00     0.022 A 
BRANCH  98 102
ATOM    102  S   UNL A   1      44.005  23.297  35.211  1.00  0.00     0.124 S 
ATOM    103  O   UNL A   1      44.161  21.918  34.753  1.00  0.00    -0.237 OA
ATOM    104  O   UNL A   1      44.458  23.568  36.570  1.00  0.00    -0.237 OA
ATOM    105  O   UNL A   1      42.749  23.938  34.829  1.00  0.00    -0.744 OA
ENDBRANCH  98 102
ENDBRANCH  72  95
ENDBRANCH  46  47
ENDBRANCH  39  41
ENDBRANCH  38  39
ENDBRANCH  37  38
ENDBRANCH  36  37
ENDBRANCH  35  36
ENDBRANCH  34  35
ENDBRANCH   1  34
TORSDOF 25
ENDMDL
