MODEL 1
REMARK VINA RESULT:     -10.8      0.000      0.000
REMARK SMILES Cc1ccc([C@@](C)(O)[C@H](F)C(=O)OCCOCCOCCOC(=O)c2ccc(-c3c4nc(c(-c5cc(S(=O)(=O)[O-])ccc5F)c5ccc([nH]5)c(-c5cc(S(=O)(=O)[O-])ccc5F)c5nc(c(-c6cc(S(=O)(=O)[O-])ccc6F)c6ccc3[nH]6)C=C5)C=C4)cc2)cc1F
REMARK SMILES IDX 18 1 17 2 16 3 15 4 14 5 13 6 11 7 12 8 9 9 10 10 6 11 7 12
REMARK SMILES IDX 5 13 1 14 2 15 3 16 89 17 4 18 88 19 90 20 8 21 19 23 20 24
REMARK SMILES IDX 21 25 22 26 23 27 24 28 25 29 26 30 87 31 27 32 86 33 28 34
REMARK SMILES IDX 29 35 30 36 80 37 31 38 85 39 79 40 81 41 32 42 84 43 78 44
REMARK SMILES IDX 77 45 33 47 65 48 45 49 64 50 46 51 49 52 63 53 82 54 47 55
REMARK SMILES IDX 48 56 62 58 83 59 50 60 34 61 35 62 43 63 36 64 42 65 44 66
REMARK SMILES IDX 41 67 37 68 38 69 39 70 40 71 66 72 67 73 75 74 68 75 74 76
REMARK SMILES IDX 76 77 73 78 69 79 70 80 71 81 72 82 51 83 52 84 60 85 53 86
REMARK SMILES IDX 59 87 61 88 58 89 54 90 55 91 56 92 57 93
REMARK H PARENT 8 22 81 46 49 57
REMARK Flexibility Score: inf
ROOT
ATOM      1  C   UNL A   1      33.706  30.541  27.267  1.00  0.00     0.188 C 
ENDROOT
BRANCH   1   2
ATOM      2  C   UNL A   1      32.798  29.368  26.820  1.00  0.00     0.188 C 
BRANCH   2   3
ATOM      3  O   UNL A   1      32.726  28.944  25.461  1.00  0.00    -0.376 OA
BRANCH   3   4
ATOM      4  C   UNL A   1      31.470  28.572  24.908  1.00  0.00     0.202 C 
BRANCH   4   5
ATOM      5  C   UNL A   1      31.427  27.915  23.518  1.00  0.00     0.261 C 
BRANCH   5   6
ATOM      6  O   UNL A   1      32.223  26.729  23.387  1.00  0.00    -0.461 OA
BRANCH   6   7
ATOM      7  C   UNL A   1      31.714  25.752  22.566  1.00  0.00     0.344 C 
ATOM      8  O   UNL A   1      31.469  25.905  21.399  1.00  0.00    -0.249 OA
BRANCH   7   9
ATOM      9  C   UNL A   1      31.704  24.406  23.309  1.00  0.00     0.311 C 
ATOM     10  F   UNL A   1      30.527  23.726  23.101  1.00  0.00    -0.231 F 
BRANCH   9  11
ATOM     11  C   UNL A   1      32.847  23.459  22.919  1.00  0.00     0.129 C 
ATOM     12  C   UNL A   1      34.233  24.046  23.217  1.00  0.00     0.051 C 
BRANCH  11  13
ATOM     13  C   UNL A   1      32.758  22.083  23.601  1.00  0.00    -0.010 A 
ATOM     14  C   UNL A   1      32.470  18.114  25.324  1.00  0.00     0.047 C 
ATOM     15  C   UNL A   1      32.580  19.488  24.745  1.00  0.00    -0.015 A 
ATOM     16  C   UNL A   1      32.915  20.591  25.535  1.00  0.00     0.007 A 
ATOM     17  C   UNL A   1      32.340  19.693  23.388  1.00  0.00     0.126 A 
ATOM     18  C   UNL A   1      33.006  21.871  24.971  1.00  0.00     0.007 A 
ATOM     19  C   UNL A   1      32.430  20.959  22.821  1.00  0.00     0.046 A 
ATOM     20  F   UNL A   1      32.011  18.657  22.603  1.00  0.00    -0.207 F 
ENDBRANCH  11  13
BRANCH  11  21
ATOM     21  O   UNL A   1      32.744  23.228  21.499  1.00  0.00    -0.382 OA
ATOM     22  H   UNL A   1      32.514  24.058  21.053  1.00  0.00     0.212 HD
ENDBRANCH  11  21
ENDBRANCH   9  11
ENDBRANCH   7   9
ENDBRANCH   6   7
ENDBRANCH   5   6
ENDBRANCH   4   5
ENDBRANCH   3   4
ENDBRANCH   2   3
ENDBRANCH   1   2
BRANCH   1  23
ATOM     23  O   UNL A   1      33.000  31.762  27.401  1.00  0.00    -0.376 OA
BRANCH  23  24
ATOM     24  C   UNL A   1      33.667  32.848  28.027  1.00  0.00     0.202 C 
BRANCH  24  25
ATOM     25  C   UNL A   1      35.194  32.845  28.188  1.00  0.00     0.261 C 
BRANCH  25  26
ATOM     26  O   UNL A   1      35.681  32.250  29.388  1.00  0.00    -0.460 OA
BRANCH  26  27
ATOM     27  C   UNL A   1      36.854  31.615  29.186  1.00  0.00     0.338 C 
ATOM     28  O   UNL A   1      37.964  32.126  29.217  1.00  0.00    -0.246 OA
BRANCH  27  29
ATOM     29  C   UNL A   1      36.656  30.200  28.809  1.00  0.00     0.060 A 
ATOM     30  C   UNL A   1      36.881  29.334  29.897  1.00  0.00     0.016 A 
ATOM     31  C   UNL A   1      37.237  29.972  27.563  1.00  0.00     0.016 A 
ATOM     32  C   UNL A   1      38.032  28.586  29.897  1.00  0.00     0.010 A 
ATOM     33  C   UNL A   1      38.408  29.257  27.573  1.00  0.00     0.010 A 
ATOM     34  C   UNL A   1      38.843  28.685  28.778  1.00  0.00    -0.014 A 
BRANCH  34  35
ATOM     35  C   UNL A   1      40.210  28.239  28.812  1.00  0.00     0.031 A 
ATOM     36  C   UNL A   1      40.466  26.807  28.642  1.00  0.00     0.074 A 
ATOM     37  C   UNL A   1      41.194  29.154  28.938  1.00  0.00     0.049 A 
ATOM     38  N   UNL A   1      41.516  26.211  29.081  1.00  0.00    -0.248 NA
ATOM     39  C   UNL A   1      39.485  25.911  28.031  1.00  0.00     0.031 C 
ATOM     40  C   UNL A   1      42.571  28.984  28.515  1.00  0.00     0.029 A 
ATOM     41  N   UNL A   1      41.172  30.396  29.590  1.00  0.00    -0.354 N 
ATOM     42  C   UNL A   1      41.501  24.952  28.528  1.00  0.00     0.074 A 
ATOM     43  C   UNL A   1      40.165  24.762  28.011  1.00  0.00     0.031 C 
ATOM     44  C   UNL A   1      43.319  29.952  29.065  1.00  0.00     0.029 A 
ATOM     45  C   UNL A   1      42.483  30.665  30.020  1.00  0.00     0.049 A 
ATOM     46  H   UNL A   1      40.385  30.972  29.723  1.00  0.00     0.167 HD
ATOM     47  C   UNL A   1      42.675  24.286  28.360  1.00  0.00     0.034 A 
ATOM     48  C   UNL A   1      42.857  30.973  31.295  1.00  0.00     0.034 A 
ATOM     49  C   UNL A   1      43.796  25.080  28.857  1.00  0.00     0.049 A 
ATOM     50  C   UNL A   1      43.840  29.968  31.859  1.00  0.00     0.074 A 
ATOM     51  C   UNL A   1      44.620  25.999  28.224  1.00  0.00     0.029 A 
ATOM     52  N   UNL A   1      43.950  25.298  30.221  1.00  0.00    -0.354 N 
ATOM     53  N   UNL A   1      44.068  28.807  31.312  1.00  0.00    -0.248 NA
ATOM     54  C   UNL A   1      44.595  30.151  33.095  1.00  0.00     0.031 C 
ATOM     55  C   UNL A   1      45.250  26.790  29.212  1.00  0.00     0.029 A 
ATOM     56  C   UNL A   1      44.825  26.350  30.453  1.00  0.00     0.049 A 
ATOM     57  H   UNL A   1      43.499  24.777  30.926  1.00  0.00     0.167 HD
ATOM     58  C   UNL A   1      44.893  28.063  32.112  1.00  0.00     0.074 A 
ATOM     59  C   UNL A   1      45.234  28.970  33.193  1.00  0.00     0.031 C 
ATOM     60  C   UNL A   1      45.177  26.760  31.814  1.00  0.00     0.034 A 
BRANCH  47  61
ATOM     61  C   UNL A   1      42.779  23.135  27.387  1.00  0.00     0.023 A 
ATOM     62  C   UNL A   1      43.697  23.105  26.314  1.00  0.00     0.031 A 
ATOM     63  C   UNL A   1      42.004  21.971  27.569  1.00  0.00     0.131 A 
ATOM     64  C   UNL A   1      43.898  21.928  25.565  1.00  0.00     0.055 A 
ATOM     65  C   UNL A   1      42.161  20.826  26.783  1.00  0.00     0.041 A 
ATOM     66  F   UNL A   1      41.099  21.870  28.551  1.00  0.00    -0.206 F 
ATOM     67  C   UNL A   1      43.129  20.789  25.792  1.00  0.00     0.022 A 
BRANCH  64  68
ATOM     68  S   UNL A   1      45.253  21.793  24.361  1.00  0.00     0.124 S 
ATOM     69  O   UNL A   1      44.906  20.569  23.637  1.00  0.00    -0.237 OA
ATOM     70  O   UNL A   1      45.118  23.026  23.594  1.00  0.00    -0.237 OA
ATOM     71  O   UNL A   1      46.448  21.688  25.193  1.00  0.00    -0.744 OA
ENDBRANCH  64  68
ENDBRANCH  47  61
BRANCH  48  72
ATOM     72  C   UNL A   1      41.820  31.664  32.099  1.00  0.00     0.023 A 
ATOM     73  C   UNL A   1      40.855  30.923  32.793  1.00  0.00     0.031 A 
ATOM     74  C   UNL A   1      41.567  33.027  31.842  1.00  0.00     0.131 A 
ATOM     75  C   UNL A   1      39.610  31.509  33.071  1.00  0.00     0.055 A 
ATOM     76  C   UNL A   1      40.339  33.613  32.149  1.00  0.00     0.041 A 
ATOM     77  F   UNL A   1      42.475  33.776  31.193  1.00  0.00    -0.206 F 
ATOM     78  C   UNL A   1      39.341  32.841  32.738  1.00  0.00     0.022 A 
BRANCH  75  79
ATOM     79  S   UNL A   1      38.286  30.460  33.727  1.00  0.00     0.124 S 
ATOM     80  O   UNL A   1      37.088  30.910  33.015  1.00  0.00    -0.237 OA
ATOM     81  O   UNL A   1      38.737  29.119  33.370  1.00  0.00    -0.237 OA
ATOM     82  O   UNL A   1      38.315  30.790  35.150  1.00  0.00    -0.744 OA
ENDBRANCH  75  79
ENDBRANCH  48  72
BRANCH  60  83
ATOM     83  C   UNL A   1      45.875  25.746  32.697  1.00  0.00     0.023 A 
ATOM     84  C   UNL A   1      45.068  24.872  33.471  1.00  0.00     0.031 A 
ATOM     85  C   UNL A   1      47.254  25.672  32.938  1.00  0.00     0.131 A 
ATOM     86  C   UNL A   1      45.614  24.023  34.439  1.00  0.00     0.055 A 
ATOM     87  C   UNL A   1      47.810  24.753  33.840  1.00  0.00     0.041 A 
ATOM     88  F   UNL A   1      48.122  26.516  32.370  1.00  0.00    -0.206 F 
ATOM     89  C   UNL A   1      46.990  23.937  34.608  1.00  0.00     0.022 A 
BRANCH  86  90
ATOM     90  S   UNL A   1      44.537  23.144  35.605  1.00  0.00     0.124 S 
ATOM     91  O   UNL A   1      44.458  24.095  36.710  1.00  0.00    -0.237 OA
ATOM     92  O   UNL A   1      43.309  22.982  34.829  1.00  0.00    -0.237 OA
ATOM     93  O   UNL A   1      45.261  21.908  35.880  1.00  0.00    -0.744 OA
ENDBRANCH  86  90
ENDBRANCH  60  83
ENDBRANCH  34  35
ENDBRANCH  27  29
ENDBRANCH  26  27
ENDBRANCH  25  26
ENDBRANCH  24  25
ENDBRANCH  23  24
ENDBRANCH   1  23
TORSDOF 23
ENDMDL
MODEL 2
REMARK VINA RESULT:     -10.6      1.874      2.252
REMARK SMILES Cc1ccc([C@@](C)(O)[C@H](F)C(=O)OCCOCCOCCOC(=O)c2ccc(-c3c4nc(c(-c5cc(S(=O)(=O)[O-])ccc5F)c5ccc([nH]5)c(-c5cc(S(=O)(=O)[O-])ccc5F)c5nc(c(-c6cc(S(=O)(=O)[O-])ccc6F)c6ccc3[nH]6)C=C5)C=C4)cc2)cc1F
REMARK SMILES IDX 18 1 17 2 16 3 15 4 14 5 13 6 11 7 12 8 9 9 10 10 6 11 7 12
REMARK SMILES IDX 5 13 1 14 2 15 3 16 89 17 4 18 88 19 90 20 8 21 19 23 20 24
REMARK SMILES IDX 21 25 22 26 23 27 24 28 25 29 26 30 87 31 27 32 86 33 28 34
REMARK SMILES IDX 29 35 30 36 80 37 31 38 85 39 79 40 81 41 32 42 84 43 78 44
REMARK SMILES IDX 77 45 33 47 65 48 45 49 64 50 46 51 49 52 63 53 82 54 47 55
REMARK SMILES IDX 48 56 62 58 83 59 50 60 34 61 35 62 43 63 36 64 42 65 44 66
REMARK SMILES IDX 41 67 37 68 38 69 39 70 40 71 66 72 67 73 75 74 68 75 74 76
REMARK SMILES IDX 76 77 73 78 69 79 70 80 71 81 72 82 51 83 52 84 60 85 53 86
REMARK SMILES IDX 59 87 61 88 58 89 54 90 55 91 56 92 57 93
REMARK H PARENT 8 22 81 46 49 57
REMARK Flexibility Score: inf
ROOT
ATOM      1  C   UNL A   1      33.242  30.998  27.179  1.00  0.00     0.188 C 
ENDROOT
BRANCH   1   2
ATOM      2  C   UNL A   1      32.189  29.943  26.754  1.00  0.00     0.188 C 
BRANCH   2   3
ATOM      3  O   UNL A   1      32.054  29.512  25.403  1.00  0.00    -0.376 OA
BRANCH   3   4
ATOM      4  C   UNL A   1      30.927  29.929  24.644  1.00  0.00     0.202 C 
BRANCH   4   5
ATOM      5  C   UNL A   1      30.384  29.006  23.538  1.00  0.00     0.261 C 
BRANCH   5   6
ATOM      6  O   UNL A   1      31.211  27.874  23.238  1.00  0.00    -0.461 OA
BRANCH   6   7
ATOM      7  C   UNL A   1      30.847  26.690  23.835  1.00  0.00     0.344 C 
ATOM      8  O   UNL A   1      29.713  26.303  23.941  1.00  0.00    -0.249 OA
BRANCH   7   9
ATOM      9  C   UNL A   1      32.103  25.862  24.149  1.00  0.00     0.311 C 
ATOM     10  F   UNL A   1      31.991  25.219  25.360  1.00  0.00    -0.231 F 
BRANCH   9  11
ATOM     11  C   UNL A   1      32.437  24.793  23.100  1.00  0.00     0.129 C 
ATOM     12  C   UNL A   1      32.964  25.392  21.789  1.00  0.00     0.051 C 
BRANCH  11  13
ATOM     13  C   UNL A   1      33.458  23.753  23.591  1.00  0.00    -0.010 A 
ATOM     14  C   UNL A   1      36.485  20.987  25.002  1.00  0.00     0.047 C 
ATOM     15  C   UNL A   1      35.428  21.928  24.521  1.00  0.00    -0.015 A 
ATOM     16  C   UNL A   1      34.130  21.491  24.240  1.00  0.00     0.007 A 
ATOM     17  C   UNL A   1      35.727  23.276  24.337  1.00  0.00     0.126 A 
ATOM     18  C   UNL A   1      33.157  22.392  23.784  1.00  0.00     0.007 A 
ATOM     19  C   UNL A   1      34.767  24.176  23.887  1.00  0.00     0.046 A 
ATOM     20  F   UNL A   1      36.964  23.728  24.592  1.00  0.00    -0.207 F 
ENDBRANCH  11  13
BRANCH  11  21
ATOM     21  O   UNL A   1      31.217  24.078  22.816  1.00  0.00    -0.382 OA
ATOM     22  H   UNL A   1      30.983  24.197  21.882  1.00  0.00     0.212 HD
ENDBRANCH  11  21
ENDBRANCH   9  11
ENDBRANCH   7   9
ENDBRANCH   6   7
ENDBRANCH   5   6
ENDBRANCH   4   5
ENDBRANCH   3   4
ENDBRANCH   2   3
ENDBRANCH   1   2
BRANCH   1  23
ATOM     23  O   UNL A   1      32.675  32.274  27.419  1.00  0.00    -0.376 OA
BRANCH  23  24
ATOM     24  C   UNL A   1      33.505  33.269  28.000  1.00  0.00     0.202 C 
BRANCH  24  25
ATOM     25  C   UNL A   1      35.012  33.032  28.174  1.00  0.00     0.261 C 
BRANCH  25  26
ATOM     26  O   UNL A   1      35.393  32.390  29.389  1.00  0.00    -0.460 OA
BRANCH  26  27
ATOM     27  C   UNL A   1      36.585  31.769  29.268  1.00  0.00     0.338 C 
ATOM     28  O   UNL A   1      37.684  32.293  29.369  1.00  0.00    -0.246 OA
BRANCH  27  29
ATOM     29  C   UNL A   1      36.427  30.350  28.888  1.00  0.00     0.060 A 
ATOM     30  C   UNL A   1      36.687  29.488  29.972  1.00  0.00     0.016 A 
ATOM     31  C   UNL A   1      37.008  30.143  27.638  1.00  0.00     0.016 A 
ATOM     32  C   UNL A   1      37.861  28.775  29.962  1.00  0.00     0.010 A 
ATOM     33  C   UNL A   1      38.200  29.465  27.638  1.00  0.00     0.010 A 
ATOM     34  C   UNL A   1      38.661  28.903  28.839  1.00  0.00    -0.014 A 
BRANCH  34  35
ATOM     35  C   UNL A   1      40.041  28.500  28.861  1.00  0.00     0.031 A 
ATOM     36  C   UNL A   1      40.341  27.079  28.676  1.00  0.00     0.074 A 
ATOM     37  C   UNL A   1      40.996  29.444  28.993  1.00  0.00     0.049 A 
ATOM     38  N   UNL A   1      41.411  26.511  29.105  1.00  0.00    -0.248 NA
ATOM     39  C   UNL A   1      39.385  26.158  28.061  1.00  0.00     0.031 C 
ATOM     40  C   UNL A   1      42.377  29.321  28.562  1.00  0.00     0.029 A 
ATOM     41  N   UNL A   1      40.939  30.678  29.657  1.00  0.00    -0.354 N 
ATOM     42  C   UNL A   1      41.433  25.258  28.540  1.00  0.00     0.074 A 
ATOM     43  C   UNL A   1      40.100  25.031  28.027  1.00  0.00     0.031 C 
ATOM     44  C   UNL A   1      43.096  30.307  29.118  1.00  0.00     0.029 A 
ATOM     45  C   UNL A   1      42.243  30.984  30.083  1.00  0.00     0.049 A 
ATOM     46  H   UNL A   1      40.135  31.228  29.799  1.00  0.00     0.167 HD
ATOM     47  C   UNL A   1      42.626  24.630  28.360  1.00  0.00     0.034 A 
ATOM     48  C   UNL A   1      42.613  31.292  31.360  1.00  0.00     0.034 A 
ATOM     49  C   UNL A   1      43.724  25.455  28.860  1.00  0.00     0.049 A 
ATOM     50  C   UNL A   1      43.629  30.312  31.910  1.00  0.00     0.074 A 
ATOM     51  C   UNL A   1      44.516  26.404  28.233  1.00  0.00     0.029 A 
ATOM     52  N   UNL A   1      43.877  25.663  30.226  1.00  0.00    -0.354 N 
ATOM     53  N   UNL A   1      43.891  29.164  31.351  1.00  0.00    -0.248 NA
ATOM     54  C   UNL A   1      44.384  30.506  33.145  1.00  0.00     0.031 C 
ATOM     55  C   UNL A   1      45.125  27.205  29.226  1.00  0.00     0.029 A 
ATOM     56  C   UNL A   1      44.720  26.741  30.464  1.00  0.00     0.049 A 
ATOM     57  H   UNL A   1      43.447  25.122  30.927  1.00  0.00     0.167 HD
ATOM     58  C   UNL A   1      44.743  28.438  32.140  1.00  0.00     0.074 A 
ATOM     59  C   UNL A   1      45.060  29.346  33.228  1.00  0.00     0.031 C 
ATOM     60  C   UNL A   1      45.066  27.148  31.827  1.00  0.00     0.034 A 
BRANCH  47  61
ATOM     61  C   UNL A   1      42.762  23.493  27.376  1.00  0.00     0.023 A 
ATOM     62  C   UNL A   1      43.521  23.579  26.188  1.00  0.00     0.031 A 
ATOM     63  C   UNL A   1      42.193  22.233  27.654  1.00  0.00     0.131 A 
ATOM     64  C   UNL A   1      43.785  22.433  25.412  1.00  0.00     0.055 A 
ATOM     65  C   UNL A   1      42.405  21.111  26.848  1.00  0.00     0.041 A 
ATOM     66  F   UNL A   1      41.452  22.017  28.750  1.00  0.00    -0.206 F 
ATOM     67  C   UNL A   1      43.225  21.199  25.735  1.00  0.00     0.022 A 
BRANCH  64  68
ATOM     68  S   UNL A   1      44.971  22.475  24.035  1.00  0.00     0.124 S 
ATOM     69  O   UNL A   1      45.593  23.789  24.198  1.00  0.00    -0.237 OA
ATOM     70  O   UNL A   1      45.836  21.339  24.330  1.00  0.00    -0.237 OA
ATOM     71  O   UNL A   1      44.131  22.344  22.848  1.00  0.00    -0.744 OA
ENDBRANCH  64  68
ENDBRANCH  47  61
BRANCH  48  72
ATOM     72  C   UNL A   1      41.558  31.942  32.176  1.00  0.00     0.023 A 
ATOM     73  C   UNL A   1      40.633  31.164  32.883  1.00  0.00     0.031 A 
ATOM     74  C   UNL A   1      41.246  33.293  31.918  1.00  0.00     0.131 A 
ATOM     75  C   UNL A   1      39.369  31.699  33.175  1.00  0.00     0.055 A 
ATOM     76  C   UNL A   1      40.000  33.828  32.238  1.00  0.00     0.041 A 
ATOM     77  F   UNL A   1      42.115  34.076  31.256  1.00  0.00    -0.206 F 
ATOM     78  C   UNL A   1      39.042  33.018  32.843  1.00  0.00     0.022 A 
BRANCH  75  79
ATOM     79  S   UNL A   1      38.098  30.598  33.852  1.00  0.00     0.124 S 
ATOM     80  O   UNL A   1      36.852  31.082  33.252  1.00  0.00    -0.237 OA
ATOM     81  O   UNL A   1      38.530  29.287  33.381  1.00  0.00    -0.237 OA
ATOM     82  O   UNL A   1      38.222  30.839  35.287  1.00  0.00    -0.744 OA
ENDBRANCH  75  79
ENDBRANCH  48  72
BRANCH  60  83
ATOM     83  C   UNL A   1      45.799  26.148  32.697  1.00  0.00     0.023 A 
ATOM     84  C   UNL A   1      47.218  26.156  32.668  1.00  0.00     0.031 A 
ATOM     85  C   UNL A   1      45.213  25.108  33.434  1.00  0.00     0.131 A 
ATOM     86  C   UNL A   1      47.977  25.167  33.301  1.00  0.00     0.055 A 
ATOM     87  C   UNL A   1      45.976  24.171  34.147  1.00  0.00     0.041 A 
ATOM     88  F   UNL A   1      43.891  24.906  33.451  1.00  0.00    -0.206 F 
ATOM     89  C   UNL A   1      47.361  24.185  34.068  1.00  0.00     0.022 A 
BRANCH  86  90
ATOM     90  S   UNL A   1      49.762  25.042  32.998  1.00  0.00     0.124 S 
ATOM     91  O   UNL A   1      50.080  23.761  33.622  1.00  0.00    -0.237 OA
ATOM     92  O   UNL A   1      49.829  25.061  31.538  1.00  0.00    -0.237 OA
ATOM     93  O   UNL A   1      50.308  26.223  33.657  1.00  0.00    -0.744 OA
ENDBRANCH  86  90
ENDBRANCH  60  83
ENDBRANCH  34  35
ENDBRANCH  27  29
ENDBRANCH  26  27
ENDBRANCH  25  26
ENDBRANCH  24  25
ENDBRANCH  23  24
ENDBRANCH   1  23
TORSDOF 23
ENDMDL
MODEL 3
REMARK VINA RESULT:     -10.5      3.693      9.351
REMARK SMILES Cc1ccc([C@@](C)(O)[C@H](F)C(=O)OCCOCCOCCOC(=O)c2ccc(-c3c4nc(c(-c5cc(S(=O)(=O)[O-])ccc5F)c5ccc([nH]5)c(-c5cc(S(=O)(=O)[O-])ccc5F)c5nc(c(-c6cc(S(=O)(=O)[O-])ccc6F)c6ccc3[nH]6)C=C5)C=C4)cc2)cc1F
REMARK SMILES IDX 18 1 17 2 16 3 15 4 14 5 13 6 11 7 12 8 9 9 10 10 6 11 7 12
REMARK SMILES IDX 5 13 1 14 2 15 3 16 89 17 4 18 88 19 90 20 8 21 19 23 20 24
REMARK SMILES IDX 21 25 22 26 23 27 24 28 25 29 26 30 87 31 27 32 86 33 28 34
REMARK SMILES IDX 29 35 30 36 80 37 31 38 85 39 79 40 81 41 32 42 84 43 78 44
REMARK SMILES IDX 77 45 33 47 65 48 45 49 64 50 46 51 49 52 63 53 82 54 47 55
REMARK SMILES IDX 48 56 62 58 83 59 50 60 34 61 35 62 43 63 36 64 42 65 44 66
REMARK SMILES IDX 41 67 37 68 38 69 39 70 40 71 66 72 67 73 75 74 68 75 74 76
REMARK SMILES IDX 76 77 73 78 69 79 70 80 71 81 72 82 51 83 52 84 60 85 53 86
REMARK SMILES IDX 59 87 61 88 58 89 54 90 55 91 56 92 57 93
REMARK H PARENT 8 22 81 46 49 57
REMARK Flexibility Score: inf
ROOT
ATOM      1  C   UNL A   1      37.872  21.859  25.017  1.00  0.00     0.188 C 
ENDROOT
BRANCH   1   2
ATOM      2  C   UNL A   1      37.087  23.019  25.681  1.00  0.00     0.188 C 
BRANCH   2   3
ATOM      3  O   UNL A   1      36.385  23.993  24.913  1.00  0.00    -0.376 OA
BRANCH   3   4
ATOM      4  C   UNL A   1      35.225  24.610  25.455  1.00  0.00     0.202 C 
BRANCH   4   5
ATOM      5  C   UNL A   1      33.837  24.081  25.056  1.00  0.00     0.261 C 
BRANCH   5   6
ATOM      6  O   UNL A   1      33.149  23.357  26.084  1.00  0.00    -0.461 OA
BRANCH   6   7
ATOM      7  C   UNL A   1      33.596  22.079  26.321  1.00  0.00     0.344 C 
ATOM      8  O   UNL A   1      33.650  21.569  27.409  1.00  0.00    -0.249 OA
BRANCH   7   9
ATOM      9  C   UNL A   1      33.815  21.352  24.985  1.00  0.00     0.311 C 
ATOM     10  F   UNL A   1      34.899  20.508  25.044  1.00  0.00    -0.231 F 
BRANCH   9  11
ATOM     11  C   UNL A   1      32.617  20.516  24.515  1.00  0.00     0.129 C 
ATOM     12  C   UNL A   1      32.292  20.727  23.030  1.00  0.00     0.051 C 
BRANCH  11  13
ATOM     13  C   UNL A   1      32.796  19.006  24.752  1.00  0.00    -0.010 A 
ATOM     14  C   UNL A   1      33.399  14.738  25.221  1.00  0.00     0.047 C 
ATOM     15  C   UNL A   1      33.191  16.211  25.079  1.00  0.00    -0.015 A 
ATOM     16  C   UNL A   1      32.638  16.976  26.110  1.00  0.00     0.007 A 
ATOM     17  C   UNL A   1      33.543  16.854  23.894  1.00  0.00     0.126 A 
ATOM     18  C   UNL A   1      32.446  18.356  25.951  1.00  0.00     0.007 A 
ATOM     19  C   UNL A   1      33.357  18.222  23.729  1.00  0.00     0.046 A 
ATOM     20  F   UNL A   1      34.070  16.148  22.882  1.00  0.00    -0.207 F 
ENDBRANCH  11  13
BRANCH  11  21
ATOM     21  O   UNL A   1      31.477  20.928  25.295  1.00  0.00    -0.382 OA
ATOM     22  H   UNL A   1      31.166  20.182  25.832  1.00  0.00     0.212 HD
ENDBRANCH  11  21
ENDBRANCH   9  11
ENDBRANCH   7   9
ENDBRANCH   6   7
ENDBRANCH   5   6
ENDBRANCH   4   5
ENDBRANCH   3   4
ENDBRANCH   2   3
ENDBRANCH   1   2
BRANCH   1  23
ATOM     23  O   UNL A   1      38.524  21.027  25.959  1.00  0.00    -0.376 OA
BRANCH  23  24
ATOM     24  C   UNL A   1      39.941  21.091  26.031  1.00  0.00     0.202 C 
BRANCH  24  25
ATOM     25  C   UNL A   1      40.646  21.435  27.351  1.00  0.00     0.261 C 
BRANCH  25  26
ATOM     26  O   UNL A   1      40.355  22.726  27.882  1.00  0.00    -0.460 OA
BRANCH  26  27
ATOM     27  C   UNL A   1      40.995  23.698  27.199  1.00  0.00     0.338 C 
ATOM     28  O   UNL A   1      42.206  23.828  27.094  1.00  0.00    -0.246 OA
BRANCH  27  29
ATOM     29  C   UNL A   1      40.052  24.692  26.646  1.00  0.00     0.060 A 
ATOM     30  C   UNL A   1      40.727  25.787  26.070  1.00  0.00     0.016 A 
ATOM     31  C   UNL A   1      39.000  24.874  27.542  1.00  0.00     0.016 A 
ATOM     32  C   UNL A   1      40.710  26.982  26.746  1.00  0.00     0.010 A 
ATOM     33  C   UNL A   1      39.011  26.053  28.243  1.00  0.00     0.010 A 
ATOM     34  C   UNL A   1      39.956  27.034  27.907  1.00  0.00    -0.014 A 
BRANCH  34  35
ATOM     35  C   UNL A   1      40.141  28.090  28.865  1.00  0.00     0.031 A 
ATOM     36  C   UNL A   1      39.296  29.280  28.742  1.00  0.00     0.074 A 
ATOM     37  C   UNL A   1      41.035  27.921  29.861  1.00  0.00     0.049 A 
ATOM     38  N   UNL A   1      39.620  30.439  29.192  1.00  0.00    -0.248 NA
ATOM     39  C   UNL A   1      38.035  29.262  28.001  1.00  0.00     0.031 C 
ATOM     40  C   UNL A   1      41.019  28.604  31.141  1.00  0.00     0.029 A 
ATOM     41  N   UNL A   1      42.221  27.173  29.871  1.00  0.00    -0.354 N 
ATOM     42  C   UNL A   1      38.491  31.217  29.096  1.00  0.00     0.074 A 
ATOM     43  C   UNL A   1      37.588  30.499  28.225  1.00  0.00     0.031 C 
ATOM     44  C   UNL A   1      42.202  28.425  31.746  1.00  0.00     0.029 A 
ATOM     45  C   UNL A   1      43.093  27.785  30.790  1.00  0.00     0.049 A 
ATOM     46  H   UNL A   1      42.409  26.369  29.335  1.00  0.00     0.167 HD
ATOM     47  C   UNL A   1      38.340  32.276  29.937  1.00  0.00     0.034 A 
ATOM     48  C   UNL A   1      44.369  28.191  30.528  1.00  0.00     0.034 A 
ATOM     49  C   UNL A   1      39.498  32.404  30.820  1.00  0.00     0.049 A 
ATOM     50  C   UNL A   1      44.546  29.681  30.741  1.00  0.00     0.074 A 
ATOM     51  C   UNL A   1      39.754  31.878  32.077  1.00  0.00     0.029 A 
ATOM     52  N   UNL A   1      40.728  32.802  30.308  1.00  0.00    -0.354 N 
ATOM     53  N   UNL A   1      43.547  30.509  30.867  1.00  0.00    -0.248 NA
ATOM     54  C   UNL A   1      45.835  30.366  30.771  1.00  0.00     0.031 C 
ATOM     55  C   UNL A   1      41.147  31.934  32.310  1.00  0.00     0.029 A 
ATOM     56  C   UNL A   1      41.747  32.507  31.203  1.00  0.00     0.049 A 
ATOM     57  H   UNL A   1      40.857  33.232  29.432  1.00  0.00     0.167 HD
ATOM     58  C   UNL A   1      44.006  31.798  30.908  1.00  0.00     0.074 A 
ATOM     59  C   UNL A   1      45.450  31.650  30.893  1.00  0.00     0.031 C 
ATOM     60  C   UNL A   1      43.139  32.855  30.910  1.00  0.00     0.034 A 
BRANCH  47  61
ATOM     61  C   UNL A   1      36.979  32.879  30.184  1.00  0.00     0.023 A 
ATOM     62  C   UNL A   1      36.412  33.020  31.470  1.00  0.00     0.031 A 
ATOM     63  C   UNL A   1      36.233  33.426  29.119  1.00  0.00     0.131 A 
ATOM     64  C   UNL A   1      35.237  33.773  31.667  1.00  0.00     0.055 A 
ATOM     65  C   UNL A   1      35.034  34.118  29.310  1.00  0.00     0.041 A 
ATOM     66  F   UNL A   1      36.660  33.362  27.850  1.00  0.00    -0.206 F 
ATOM     67  C   UNL A   1      34.543  34.319  30.590  1.00  0.00     0.022 A 
BRANCH  64  68
ATOM     68  S   UNL A   1      34.644  34.182  33.335  1.00  0.00     0.124 S 
ATOM     69  O   UNL A   1      35.121  33.046  34.125  1.00  0.00    -0.237 OA
ATOM     70  O   UNL A   1      35.313  35.449  33.605  1.00  0.00    -0.237 OA
ATOM     71  O   UNL A   1      33.193  34.249  33.182  1.00  0.00    -0.744 OA
ENDBRANCH  64  68
ENDBRANCH  47  61
BRANCH  48  72
ATOM     72  C   UNL A   1      45.070  27.412  29.479  1.00  0.00     0.023 A 
ATOM     73  C   UNL A   1      44.916  27.749  28.128  1.00  0.00     0.031 A 
ATOM     74  C   UNL A   1      45.546  26.124  29.803  1.00  0.00     0.131 A 
ATOM     75  C   UNL A   1      45.088  26.756  27.151  1.00  0.00     0.055 A 
ATOM     76  C   UNL A   1      45.744  25.151  28.825  1.00  0.00     0.041 A 
ATOM     77  F   UNL A   1      45.721  25.769  31.088  1.00  0.00    -0.206 F 
ATOM     78  C   UNL A   1      45.484  25.458  27.492  1.00  0.00     0.022 A 
BRANCH  75  79
ATOM     79  S   UNL A   1      44.630  27.137  25.439  1.00  0.00     0.124 S 
ATOM     80  O   UNL A   1      45.907  27.433  24.786  1.00  0.00    -0.237 OA
ATOM     81  O   UNL A   1      43.993  25.901  24.998  1.00  0.00    -0.237 OA
ATOM     82  O   UNL A   1      43.748  28.289  25.611  1.00  0.00    -0.744 OA
ENDBRANCH  75  79
ENDBRANCH  48  72
BRANCH  60  83
ATOM     83  C   UNL A   1      43.476  34.320  30.727  1.00  0.00     0.023 A 
ATOM     84  C   UNL A   1      44.228  34.962  31.745  1.00  0.00     0.031 A 
ATOM     85  C   UNL A   1      42.998  35.156  29.707  1.00  0.00     0.131 A 
ATOM     86  C   UNL A   1      44.442  36.344  31.749  1.00  0.00     0.055 A 
ATOM     87  C   UNL A   1      43.293  36.527  29.661  1.00  0.00     0.041 A 
ATOM     88  F   UNL A   1      42.178  34.711  28.749  1.00  0.00    -0.206 F 
ATOM     89  C   UNL A   1      44.000  37.130  30.691  1.00  0.00     0.022 A 
BRANCH  86  90
ATOM     90  S   UNL A   1      45.147  37.162  33.206  1.00  0.00     0.124 S 
ATOM     91  O   UNL A   1      46.571  36.890  33.040  1.00  0.00    -0.237 OA
ATOM     92  O   UNL A   1      44.748  38.554  33.001  1.00  0.00    -0.237 OA
ATOM     93  O   UNL A   1      44.498  36.492  34.327  1.00  0.00    -0.744 OA
ENDBRANCH  86  90
ENDBRANCH  60  83
ENDBRANCH  34  35
ENDBRANCH  27  29
ENDBRANCH  26  27
ENDBRANCH  25  26
ENDBRANCH  24  25
ENDBRANCH  23  24
ENDBRANCH   1  23
TORSDOF 23
ENDMDL
