MODEL 1
REMARK VINA RESULT:     -12.1      0.000      0.000
REMARK SMILES COc1ccc(-c2cc(Cl)cc3c2O[C@@H](C(F)(F)F)C(C(=O)OCCOCCOCCOC(=O)c2ccc(-c4c5nc(c(-c6cc(S(=O)(=O)[O-])ccc6F)c6ccc([nH]6)c(-c6cc(S(=O)(=O)[O-])ccc6F)c6nc(c(-c7cc(S(=O)(=O)[O-])ccc7F)c7ccc4[nH]7)C=C6)C=C5)cc2)=C3)cc1C
REMARK SMILES IDX 28 1 27 2 26 3 25 4 24 5 23 6 21 7 22 8 20 9 7 10 8 11 13 12
REMARK SMILES IDX 9 13 12 14 14 15 10 16 11 17 98 18 15 19 6 20 3 21 4 22
REMARK SMILES IDX 100 23 5 24 99 25 101 26 2 27 1 28 16 29 17 30 18 31 19 32
REMARK SMILES IDX 29 33 30 34 31 35 32 36 33 37 34 38 35 39 36 40 97 41 37 42
REMARK SMILES IDX 96 43 38 44 39 45 40 46 90 47 41 48 95 49 89 50 91 51 42 52
REMARK SMILES IDX 94 53 88 54 87 55 43 57 75 58 55 59 74 60 56 61 59 62 73 63
REMARK SMILES IDX 92 64 57 65 58 66 72 68 93 69 60 70 44 71 45 72 53 73 46 74
REMARK SMILES IDX 52 75 54 76 51 77 47 78 48 79 49 80 50 81 76 82 77 83 85 84
REMARK SMILES IDX 78 85 84 86 86 87 83 88 79 89 80 90 81 91 82 92 61 93 62 94
REMARK SMILES IDX 70 95 63 96 69 97 71 98 68 99 64 100 65 101 66 102 67 103
REMARK H PARENT 91 56 59 67
REMARK Flexibility Score: inf
ROOT
ATOM      1  C   UNL A   1      34.286  31.440  27.782  1.00  0.00     0.188 C 
ENDROOT
BRANCH   1   2
ATOM      2  C   UNL A   1      33.317  30.460  27.197  1.00  0.00     0.188 C 
BRANCH   2   3
ATOM      3  O   UNL A   1      33.959  29.191  27.113  1.00  0.00    -0.376 OA
BRANCH   3   4
ATOM      4  C   UNL A   1      33.649  28.374  25.979  1.00  0.00     0.202 C 
BRANCH   4   5
ATOM      5  C   UNL A   1      32.953  29.064  24.691  1.00  0.00     0.261 C 
BRANCH   5   6
ATOM      6  O   UNL A   1      31.898  28.236  23.844  1.00  0.00    -0.460 OA
BRANCH   6   7
ATOM      7  C   UNL A   1      31.428  27.123  22.992  1.00  0.00     0.338 C 
ATOM      8  O   UNL A   1      30.949  27.440  21.903  1.00  0.00    -0.246 OA
BRANCH   7   9
ATOM      9  C   UNL A   1      31.546  25.287  23.650  1.00  0.00     0.087 C 
ATOM     10  C   UNL A   1      34.657  22.140  25.404  1.00  0.00     0.026 A 
ATOM     11  C   UNL A   1      34.329  20.809  25.303  1.00  0.00     0.033 A 
ATOM     12  C   UNL A   1      33.278  23.082  25.045  1.00  0.00     0.135 A 
ATOM     13  C   UNL A   1      33.091  20.464  24.687  1.00  0.00     0.042 A 
ATOM     14  C   UNL A   1      32.328  22.748  24.065  1.00  0.00     0.019 A 
ATOM     15  O   UNL A   1      32.701  24.304  25.781  1.00  0.00    -0.475 OA
ATOM     16  Cl  UNL A   1      32.604  18.807  24.839  1.00  0.00    -0.084 Cl
ATOM     17  C   UNL A   1      32.210  21.369  23.960  1.00  0.00     0.032 A 
ATOM     18  C   UNL A   1      31.696  23.947  23.181  1.00  0.00     0.027 C 
ATOM     19  C   UNL A   1      31.369  24.922  25.128  1.00  0.00     0.316 C 
BRANCH  10  20
ATOM     20  C   UNL A   1      36.530  22.457  25.108  1.00  0.00    -0.014 A 
ATOM     21  C   UNL A   1      39.822  22.723  26.808  1.00  0.00     0.121 A 
ATOM     22  C   UNL A   1      39.522  21.215  26.030  1.00  0.00     0.047 A 
ATOM     23  C   UNL A   1      38.674  24.099  26.732  1.00  0.00    -0.008 A 
ATOM     24  C   UNL A   1      37.977  21.008  25.144  1.00  0.00     0.013 A 
ATOM     25  C   UNL A   1      37.057  24.021  25.912  1.00  0.00     0.016 A 
ATOM     26  C   UNL A   1      39.246  25.334  27.364  1.00  0.00     0.048 C 
BRANCH  21  27
ATOM     27  O   UNL A   1      40.994  22.947  27.502  1.00  0.00    -0.496 OA
ATOM     28  C   UNL A   1      42.184  22.833  26.722  1.00  0.00     0.278 C 
ENDBRANCH  21  27
ENDBRANCH  10  20
BRANCH  19  29
ATOM     29  C   UNL A   1      30.089  25.604  25.692  1.00  0.00     0.430 C 
ATOM     30  F   UNL A   1      30.483  26.768  26.321  1.00  0.00    -0.167 F 
ATOM     31  F   UNL A   1      29.210  25.979  24.746  1.00  0.00    -0.167 F 
ATOM     32  F   UNL A   1      29.414  24.928  26.634  1.00  0.00    -0.167 F 
ENDBRANCH  19  29
ENDBRANCH   7   9
ENDBRANCH   6   7
ENDBRANCH   5   6
ENDBRANCH   4   5
ENDBRANCH   3   4
ENDBRANCH   2   3
ENDBRANCH   1   2
BRANCH   1  33
ATOM     33  O   UNL A   1      33.794  32.302  28.778  1.00  0.00    -0.376 OA
BRANCH  33  34
ATOM     34  C   UNL A   1      34.742  32.673  29.747  1.00  0.00     0.202 C 
BRANCH  34  35
ATOM     35  C   UNL A   1      35.773  33.724  29.303  1.00  0.00     0.261 C 
BRANCH  35  36
ATOM     36  O   UNL A   1      37.128  33.289  29.516  1.00  0.00    -0.460 OA
BRANCH  36  37
ATOM     37  C   UNL A   1      37.302  32.750  30.757  1.00  0.00     0.338 C 
ATOM     38  O   UNL A   1      36.473  32.724  31.646  1.00  0.00    -0.246 OA
BRANCH  37  39
ATOM     39  C   UNL A   1      38.716  32.373  30.855  1.00  0.00     0.060 A 
ATOM     40  C   UNL A   1      39.433  31.784  29.854  1.00  0.00     0.016 A 
ATOM     41  C   UNL A   1      39.410  32.514  32.001  1.00  0.00     0.016 A 
ATOM     42  C   UNL A   1      40.675  31.030  30.182  1.00  0.00     0.010 A 
ATOM     43  C   UNL A   1      40.661  31.830  32.117  1.00  0.00     0.010 A 
ATOM     44  C   UNL A   1      41.335  30.770  31.353  1.00  0.00    -0.014 A 
BRANCH  44  45
ATOM     45  C   UNL A   1      42.829  29.667  31.541  1.00  0.00     0.031 A 
ATOM     46  C   UNL A   1      43.268  28.068  30.659  1.00  0.00     0.074 A 
ATOM     47  C   UNL A   1      43.969  30.092  32.178  1.00  0.00     0.049 A 
ATOM     48  N   UNL A   1      44.377  27.399  30.791  1.00  0.00    -0.248 NA
ATOM     49  C   UNL A   1      42.454  27.115  29.657  1.00  0.00     0.031 C 
ATOM     50  C   UNL A   1      45.324  29.503  32.141  1.00  0.00     0.029 A 
ATOM     51  N   UNL A   1      44.153  31.086  33.148  1.00  0.00    -0.354 N 
ATOM     52  C   UNL A   1      44.502  26.465  29.754  1.00  0.00     0.074 A 
ATOM     53  C   UNL A   1      43.269  26.224  29.162  1.00  0.00     0.031 C 
ATOM     54  C   UNL A   1      45.979  29.813  33.270  1.00  0.00     0.029 A 
ATOM     55  C   UNL A   1      45.012  30.488  34.099  1.00  0.00     0.049 A 
ATOM     56  H   UNL A   1      43.770  31.994  33.165  1.00  0.00     0.167 HD
ATOM     57  C   UNL A   1      45.685  25.931  29.413  1.00  0.00     0.034 A 
ATOM     58  C   UNL A   1      44.521  30.039  35.285  1.00  0.00     0.034 A 
ATOM     59  C   UNL A   1      46.497  25.946  30.597  1.00  0.00     0.049 A 
ATOM     60  C   UNL A   1      44.749  28.481  35.441  1.00  0.00     0.074 A 
ATOM     61  C   UNL A   1      47.578  26.662  31.056  1.00  0.00     0.029 A 
ATOM     62  N   UNL A   1      45.908  25.361  31.707  1.00  0.00    -0.354 N 
ATOM     63  N   UNL A   1      45.214  27.689  34.493  1.00  0.00    -0.248 NA
ATOM     64  C   UNL A   1      44.530  27.697  36.657  1.00  0.00     0.031 C 
ATOM     65  C   UNL A   1      47.537  26.601  32.487  1.00  0.00     0.029 A 
ATOM     66  C   UNL A   1      46.459  25.820  32.874  1.00  0.00     0.049 A 
ATOM     67  H   UNL A   1      45.184  24.697  31.661  1.00  0.00     0.167 HD
ATOM     68  C   UNL A   1      45.352  26.380  34.924  1.00  0.00     0.074 A 
ATOM     69  C   UNL A   1      44.877  26.447  36.291  1.00  0.00     0.031 C 
ATOM     70  C   UNL A   1      45.856  25.369  34.124  1.00  0.00     0.034 A 
BRANCH  57  71
ATOM     71  C   UNL A   1      46.059  25.570  27.995  1.00  0.00     0.023 A 
ATOM     72  C   UNL A   1      46.426  26.644  27.178  1.00  0.00     0.031 A 
ATOM     73  C   UNL A   1      45.926  24.323  27.318  1.00  0.00     0.131 A 
ATOM     74  C   UNL A   1      46.592  26.491  25.792  1.00  0.00     0.055 A 
ATOM     75  C   UNL A   1      46.140  24.162  25.940  1.00  0.00     0.041 A 
ATOM     76  F   UNL A   1      45.531  23.192  27.915  1.00  0.00    -0.206 F 
ATOM     77  C   UNL A   1      46.458  25.258  25.163  1.00  0.00     0.022 A 
BRANCH  74  78
ATOM     78  S   UNL A   1      46.940  27.972  24.821  1.00  0.00     0.124 S 
ATOM     79  O   UNL A   1      45.774  28.800  25.115  1.00  0.00    -0.237 OA
ATOM     80  O   UNL A   1      48.207  28.416  25.388  1.00  0.00    -0.237 OA
ATOM     81  O   UNL A   1      47.014  27.468  23.452  1.00  0.00    -0.744 OA
ENDBRANCH  74  78
ENDBRANCH  57  71
BRANCH  58  82
ATOM     82  C   UNL A   1      43.264  30.941  35.773  1.00  0.00     0.023 A 
ATOM     83  C   UNL A   1      42.819  32.638  36.771  1.00  0.00     0.031 A 
ATOM     84  C   UNL A   1      41.809  30.081  35.209  1.00  0.00     0.131 A 
ATOM     85  C   UNL A   1      41.166  33.202  37.049  1.00  0.00     0.055 A 
ATOM     86  C   UNL A   1      40.141  30.753  35.716  1.00  0.00     0.041 A 
ATOM     87  F   UNL A   1      42.029  28.865  34.741  1.00  0.00    -0.206 F 
ATOM     88  C   UNL A   1      39.889  32.217  36.590  1.00  0.00     0.022 A 
BRANCH  85  89
ATOM     89  S   UNL A   1      40.819  35.020  36.284  1.00  0.00     0.124 S 
ATOM     90  O   UNL A   1      40.888  34.766  34.852  1.00  0.00    -0.237 OA
ATOM     91  O   UNL A   1      39.506  35.394  36.802  1.00  0.00    -0.237 OA
ATOM     92  O   UNL A   1      41.922  35.803  36.847  1.00  0.00    -0.744 OA
ENDBRANCH  85  89
ENDBRANCH  58  82
BRANCH  70  93
ATOM     93  C   UNL A   1      45.857  23.836  34.371  1.00  0.00     0.023 A 
ATOM     94  C   UNL A   1      47.014  23.067  34.517  1.00  0.00     0.031 A 
ATOM     95  C   UNL A   1      44.645  23.076  34.487  1.00  0.00     0.131 A 
ATOM     96  C   UNL A   1      46.951  21.666  34.714  1.00  0.00     0.055 A 
ATOM     97  C   UNL A   1      44.586  21.709  34.781  1.00  0.00     0.041 A 
ATOM     98  F   UNL A   1      43.429  23.607  34.309  1.00  0.00    -0.206 F 
ATOM     99  C   UNL A   1      45.750  20.984  34.879  1.00  0.00     0.022 A 
BRANCH  96 100
ATOM    100  S   UNL A   1      48.495  20.726  34.623  1.00  0.00     0.124 S 
ATOM    101  O   UNL A   1      48.724  20.397  36.027  1.00  0.00    -0.237 OA
ATOM    102  O   UNL A   1      48.118  19.611  33.761  1.00  0.00    -0.237 OA
ATOM    103  O   UNL A   1      49.443  21.674  34.043  1.00  0.00    -0.744 OA
ENDBRANCH  96 100
ENDBRANCH  70  93
ENDBRANCH  44  45
ENDBRANCH  37  39
ENDBRANCH  36  37
ENDBRANCH  35  36
ENDBRANCH  34  35
ENDBRANCH  33  34
ENDBRANCH   1  33
TORSDOF 23
ENDMDL
MODEL 2
REMARK VINA RESULT:     -12.1      1.963      2.966
REMARK SMILES COc1ccc(-c2cc(Cl)cc3c2O[C@@H](C(F)(F)F)C(C(=O)OCCOCCOCCOC(=O)c2ccc(-c4c5nc(c(-c6cc(S(=O)(=O)[O-])ccc6F)c6ccc([nH]6)c(-c6cc(S(=O)(=O)[O-])ccc6F)c6nc(c(-c7cc(S(=O)(=O)[O-])ccc7F)c7ccc4[nH]7)C=C6)C=C5)cc2)=C3)cc1C
REMARK SMILES IDX 28 1 27 2 26 3 25 4 24 5 23 6 21 7 22 8 20 9 7 10 8 11 13 12
REMARK SMILES IDX 9 13 12 14 14 15 10 16 11 17 98 18 15 19 6 20 3 21 4 22
REMARK SMILES IDX 100 23 5 24 99 25 101 26 2 27 1 28 16 29 17 30 18 31 19 32
REMARK SMILES IDX 29 33 30 34 31 35 32 36 33 37 34 38 35 39 36 40 97 41 37 42
REMARK SMILES IDX 96 43 38 44 39 45 40 46 90 47 41 48 95 49 89 50 91 51 42 52
REMARK SMILES IDX 94 53 88 54 87 55 43 57 75 58 55 59 74 60 56 61 59 62 73 63
REMARK SMILES IDX 92 64 57 65 58 66 72 68 93 69 60 70 44 71 45 72 53 73 46 74
REMARK SMILES IDX 52 75 54 76 51 77 47 78 48 79 49 80 50 81 76 82 77 83 85 84
REMARK SMILES IDX 78 85 84 86 86 87 83 88 79 89 80 90 81 91 82 92 61 93 62 94
REMARK SMILES IDX 70 95 63 96 69 97 71 98 68 99 64 100 65 101 66 102 67 103
REMARK H PARENT 91 56 59 67
REMARK Flexibility Score: inf
ROOT
ATOM      1  C   UNL A   1      33.727  30.931  27.580  1.00  0.00     0.188 C 
ENDROOT
BRANCH   1   2
ATOM      2  C   UNL A   1      34.405  29.629  27.283  1.00  0.00     0.188 C 
BRANCH   2   3
ATOM      3  O   UNL A   1      33.497  28.573  27.581  1.00  0.00    -0.376 OA
BRANCH   3   4
ATOM      4  C   UNL A   1      33.271  27.596  26.558  1.00  0.00     0.202 C 
BRANCH   4   5
ATOM      5  C   UNL A   1      33.718  27.942  25.042  1.00  0.00     0.261 C 
BRANCH   5   6
ATOM      6  O   UNL A   1      33.568  26.831  23.918  1.00  0.00    -0.460 OA
BRANCH   6   7
ATOM      7  C   UNL A   1      34.023  25.735  23.037  1.00  0.00     0.338 C 
ATOM      8  O   UNL A   1      33.684  25.813  21.856  1.00  0.00    -0.246 OA
BRANCH   7   9
ATOM      9  C   UNL A   1      35.055  24.256  23.790  1.00  0.00     0.087 C 
ATOM     10  C   UNL A   1      38.570  23.338  26.866  1.00  0.00     0.026 A 
ATOM     11  C   UNL A   1      39.243  22.149  26.715  1.00  0.00     0.033 A 
ATOM     12  C   UNL A   1      37.156  23.303  25.908  1.00  0.00     0.135 A 
ATOM     13  C   UNL A   1      38.845  21.279  25.658  1.00  0.00     0.042 A 
ATOM     14  C   UNL A   1      37.076  22.700  24.642  1.00  0.00     0.019 A 
ATOM     15  O   UNL A   1      35.717  23.715  26.262  1.00  0.00    -0.475 OA
ATOM     16  Cl  UNL A   1      39.531  19.686  25.689  1.00  0.00    -0.084 Cl
ATOM     17  C   UNL A   1      37.922  21.602  24.578  1.00  0.00     0.032 A 
ATOM     18  C   UNL A   1      36.187  23.434  23.507  1.00  0.00     0.027 C 
ATOM     19  C   UNL A   1      34.647  23.530  25.077  1.00  0.00     0.316 C 
BRANCH  10  20
ATOM     20  C   UNL A   1      39.739  24.782  27.363  1.00  0.00    -0.014 A 
ATOM     21  C   UNL A   1      41.254  27.951  26.159  1.00  0.00     0.121 A 
ATOM     22  C   UNL A   1      39.888  28.141  27.191  1.00  0.00     0.047 A 
ATOM     23  C   UNL A   1      41.955  26.349  25.762  1.00  0.00    -0.008 A 
ATOM     24  C   UNL A   1      39.116  26.668  27.859  1.00  0.00     0.013 A 
ATOM     25  C   UNL A   1      41.255  24.772  26.328  1.00  0.00     0.016 A 
ATOM     26  C   UNL A   1      43.223  26.478  24.971  1.00  0.00     0.048 C 
BRANCH  21  27
ATOM     27  O   UNL A   1      41.896  29.046  25.616  1.00  0.00    -0.496 OA
ATOM     28  C   UNL A   1      42.906  29.622  26.446  1.00  0.00     0.278 C 
ENDBRANCH  21  27
ENDBRANCH  10  20
BRANCH  19  29
ATOM     29  C   UNL A   1      33.141  23.144  25.013  1.00  0.00     0.430 C 
ATOM     30  F   UNL A   1      33.021  22.090  24.130  1.00  0.00    -0.167 F 
ATOM     31  F   UNL A   1      32.642  22.702  26.180  1.00  0.00    -0.167 F 
ATOM     32  F   UNL A   1      32.302  24.076  24.535  1.00  0.00    -0.167 F 
ENDBRANCH  19  29
ENDBRANCH   7   9
ENDBRANCH   6   7
ENDBRANCH   5   6
ENDBRANCH   4   5
ENDBRANCH   3   4
ENDBRANCH   2   3
ENDBRANCH   1   2
BRANCH   1  33
ATOM     33  O   UNL A   1      34.461  32.102  27.322  1.00  0.00    -0.376 OA
BRANCH  33  34
ATOM     34  C   UNL A   1      34.633  32.939  28.438  1.00  0.00     0.202 C 
BRANCH  34  35
ATOM     35  C   UNL A   1      35.267  32.279  29.674  1.00  0.00     0.261 C 
BRANCH  35  36
ATOM     36  O   UNL A   1      36.399  33.015  30.170  1.00  0.00    -0.460 OA
BRANCH  36  37
ATOM     37  C   UNL A   1      36.911  32.461  31.307  1.00  0.00     0.338 C 
ATOM     38  O   UNL A   1      36.497  32.639  32.436  1.00  0.00    -0.246 OA
BRANCH  37  39
ATOM     39  C   UNL A   1      38.139  31.761  30.915  1.00  0.00     0.060 A 
ATOM     40  C   UNL A   1      38.321  30.410  30.998  1.00  0.00     0.016 A 
ATOM     41  C   UNL A   1      39.236  32.427  30.506  1.00  0.00     0.016 A 
ATOM     42  C   UNL A   1      39.704  29.854  31.031  1.00  0.00     0.010 A 
ATOM     43  C   UNL A   1      40.476  31.715  30.461  1.00  0.00     0.010 A 
ATOM     44  C   UNL A   1      40.947  30.425  30.984  1.00  0.00    -0.014 A 
BRANCH  44  45
ATOM     45  C   UNL A   1      42.569  29.522  31.180  1.00  0.00     0.031 A 
ATOM     46  C   UNL A   1      43.172  27.934  30.376  1.00  0.00     0.074 A 
ATOM     47  C   UNL A   1      43.668  30.118  31.747  1.00  0.00     0.049 A 
ATOM     48  N   UNL A   1      44.358  27.413  30.505  1.00  0.00    -0.248 NA
ATOM     49  C   UNL A   1      42.450  26.831  29.463  1.00  0.00     0.031 C 
ATOM     50  C   UNL A   1      45.082  29.695  31.693  1.00  0.00     0.029 A 
ATOM     51  N   UNL A   1      43.758  31.187  32.651  1.00  0.00    -0.354 N 
ATOM     52  C   UNL A   1      44.564  26.438  29.520  1.00  0.00     0.074 A 
ATOM     53  C   UNL A   1      43.352  26.015  28.990  1.00  0.00     0.031 C 
ATOM     54  C   UNL A   1      45.729  30.151  32.778  1.00  0.00     0.029 A 
ATOM     55  C   UNL A   1      44.712  30.756  33.601  1.00  0.00     0.049 A 
ATOM     56  H   UNL A   1      43.269  32.041  32.628  1.00  0.00     0.167 HD
ATOM     57  C   UNL A   1      45.792  26.029  29.167  1.00  0.00     0.034 A 
ATOM     58  C   UNL A   1      44.316  30.326  34.829  1.00  0.00     0.034 A 
ATOM     59  C   UNL A   1      46.632  26.214  30.317  1.00  0.00     0.049 A 
ATOM     60  C   UNL A   1      44.737  28.819  35.067  1.00  0.00     0.074 A 
ATOM     61  C   UNL A   1      47.632  27.081  30.692  1.00  0.00     0.029 A 
ATOM     62  N   UNL A   1      46.153  25.633  31.480  1.00  0.00    -0.354 N 
ATOM     63  N   UNL A   1      45.265  28.031  34.150  1.00  0.00    -0.248 NA
ATOM     64  C   UNL A   1      44.652  28.092  36.334  1.00  0.00     0.031 C 
ATOM     65  C   UNL A   1      47.641  27.106  32.125  1.00  0.00     0.029 A 
ATOM     66  C   UNL A   1      46.678  26.227  32.597  1.00  0.00     0.049 A 
ATOM     67  H   UNL A   1      45.513  24.886  31.500  1.00  0.00     0.167 HD
ATOM     68  C   UNL A   1      45.574  26.777  34.650  1.00  0.00     0.074 A 
ATOM     69  C   UNL A   1      45.136  26.872  36.029  1.00  0.00     0.031 C 
ATOM     70  C   UNL A   1      46.173  25.786  33.893  1.00  0.00     0.034 A 
BRANCH  57  71
ATOM     71  C   UNL A   1      46.164  25.627  27.759  1.00  0.00     0.023 A 
ATOM     72  C   UNL A   1      46.719  26.641  26.972  1.00  0.00     0.031 A 
ATOM     73  C   UNL A   1      45.874  24.419  27.060  1.00  0.00     0.131 A 
ATOM     74  C   UNL A   1      46.915  26.476  25.591  1.00  0.00     0.055 A 
ATOM     75  C   UNL A   1      46.116  24.239  25.690  1.00  0.00     0.041 A 
ATOM     76  F   UNL A   1      45.292  23.355  27.627  1.00  0.00    -0.206 F 
ATOM     77  C   UNL A   1      46.624  25.282  24.940  1.00  0.00     0.022 A 
BRANCH  74  78
ATOM     78  S   UNL A   1      47.517  27.896  24.654  1.00  0.00     0.124 S 
ATOM     79  O   UNL A   1      46.843  27.714  23.373  1.00  0.00    -0.237 OA
ATOM     80  O   UNL A   1      47.060  29.014  25.471  1.00  0.00    -0.237 OA
ATOM     81  O   UNL A   1      48.964  27.695  24.630  1.00  0.00    -0.744 OA
ENDBRANCH  74  78
ENDBRANCH  57  71
BRANCH  58  82
ATOM     82  C   UNL A   1      42.974  31.100  35.310  1.00  0.00     0.023 A 
ATOM     83  C   UNL A   1      41.052  31.423  34.787  1.00  0.00     0.031 A 
ATOM     84  C   UNL A   1      43.419  31.937  36.819  1.00  0.00     0.131 A 
ATOM     85  C   UNL A   1      39.939  32.426  35.727  1.00  0.00     0.055 A 
ATOM     86  C   UNL A   1      42.152  33.066  37.602  1.00  0.00     0.041 A 
ATOM     87  F   UNL A   1      44.711  31.937  37.094  1.00  0.00    -0.206 F 
ATOM     88  C   UNL A   1      40.534  33.271  37.047  1.00  0.00     0.022 A 
BRANCH  85  89
ATOM     89  S   UNL A   1      38.315  31.428  36.343  1.00  0.00     0.124 S 
ATOM     90  O   UNL A   1      38.688  30.046  36.075  1.00  0.00    -0.237 OA
ATOM     91  O   UNL A   1      38.172  31.788  37.750  1.00  0.00    -0.237 OA
ATOM     92  O   UNL A   1      37.270  31.985  35.480  1.00  0.00    -0.744 OA
ENDBRANCH  85  89
ENDBRANCH  58  82
BRANCH  70  93
ATOM     93  C   UNL A   1      46.368  24.283  34.228  1.00  0.00     0.023 A 
ATOM     94  C   UNL A   1      47.551  23.740  34.734  1.00  0.00     0.031 A 
ATOM     95  C   UNL A   1      45.322  23.315  34.056  1.00  0.00     0.131 A 
ATOM     96  C   UNL A   1      47.678  22.353  34.997  1.00  0.00     0.055 A 
ATOM     97  C   UNL A   1      45.417  21.965  34.410  1.00  0.00     0.041 A 
ATOM     98  F   UNL A   1      44.132  23.612  33.519  1.00  0.00    -0.206 F 
ATOM     99  C   UNL A   1      46.613  21.466  34.870  1.00  0.00     0.022 A 
BRANCH  96 100
ATOM    100  S   UNL A   1      49.322  21.711  35.392  1.00  0.00     0.124 S 
ATOM    101  O   UNL A   1      49.009  20.358  35.845  1.00  0.00    -0.237 OA
ATOM    102  O   UNL A   1      50.002  21.810  34.105  1.00  0.00    -0.237 OA
ATOM    103  O   UNL A   1      49.808  22.617  36.429  1.00  0.00    -0.744 OA
ENDBRANCH  96 100
ENDBRANCH  70  93
ENDBRANCH  44  45
ENDBRANCH  37  39
ENDBRANCH  36  37
ENDBRANCH  35  36
ENDBRANCH  34  35
ENDBRANCH  33  34
ENDBRANCH   1  33
TORSDOF 23
ENDMDL
MODEL 3
REMARK VINA RESULT:     -11.8      2.278      2.975
REMARK SMILES COc1ccc(-c2cc(Cl)cc3c2O[C@@H](C(F)(F)F)C(C(=O)OCCOCCOCCOC(=O)c2ccc(-c4c5nc(c(-c6cc(S(=O)(=O)[O-])ccc6F)c6ccc([nH]6)c(-c6cc(S(=O)(=O)[O-])ccc6F)c6nc(c(-c7cc(S(=O)(=O)[O-])ccc7F)c7ccc4[nH]7)C=C6)C=C5)cc2)=C3)cc1C
REMARK SMILES IDX 28 1 27 2 26 3 25 4 24 5 23 6 21 7 22 8 20 9 7 10 8 11 13 12
REMARK SMILES IDX 9 13 12 14 14 15 10 16 11 17 98 18 15 19 6 20 3 21 4 22
REMARK SMILES IDX 100 23 5 24 99 25 101 26 2 27 1 28 16 29 17 30 18 31 19 32
REMARK SMILES IDX 29 33 30 34 31 35 32 36 33 37 34 38 35 39 36 40 97 41 37 42
REMARK SMILES IDX 96 43 38 44 39 45 40 46 90 47 41 48 95 49 89 50 91 51 42 52
REMARK SMILES IDX 94 53 88 54 87 55 43 57 75 58 55 59 74 60 56 61 59 62 73 63
REMARK SMILES IDX 92 64 57 65 58 66 72 68 93 69 60 70 44 71 45 72 53 73 46 74
REMARK SMILES IDX 52 75 54 76 51 77 47 78 48 79 49 80 50 81 76 82 77 83 85 84
REMARK SMILES IDX 78 85 84 86 86 87 83 88 79 89 80 90 81 91 82 92 61 93 62 94
REMARK SMILES IDX 70 95 63 96 69 97 71 98 68 99 64 100 65 101 66 102 67 103
REMARK H PARENT 91 56 59 67
REMARK Flexibility Score: inf
ROOT
ATOM      1  C   UNL A   1      34.398  30.417  27.991  1.00  0.00     0.188 C 
ENDROOT
BRANCH   1   2
ATOM      2  C   UNL A   1      34.780  29.227  27.167  1.00  0.00     0.188 C 
BRANCH   2   3
ATOM      3  O   UNL A   1      33.616  28.759  26.490  1.00  0.00    -0.376 OA
BRANCH   3   4
ATOM      4  C   UNL A   1      33.804  28.168  25.199  1.00  0.00     0.202 C 
BRANCH   4   5
ATOM      5  C   UNL A   1      33.004  28.790  23.937  1.00  0.00     0.261 C 
BRANCH   5   6
ATOM      6  O   UNL A   1      31.977  27.875  23.145  1.00  0.00    -0.460 OA
BRANCH   6   7
ATOM      7  C   UNL A   1      31.501  26.640  22.488  1.00  0.00     0.338 C 
ATOM      8  O   UNL A   1      31.028  26.774  21.358  1.00  0.00    -0.246 OA
BRANCH   7   9
ATOM      9  C   UNL A   1      31.601  24.938  23.443  1.00  0.00     0.087 C 
ATOM     10  C   UNL A   1      34.715  22.003  25.529  1.00  0.00     0.026 A 
ATOM     11  C   UNL A   1      34.339  20.690  25.676  1.00  0.00     0.033 A 
ATOM     12  C   UNL A   1      33.347  22.929  25.093  1.00  0.00     0.135 A 
ATOM     13  C   UNL A   1      33.054  20.299  25.201  1.00  0.00     0.042 A 
ATOM     14  C   UNL A   1      32.326  22.475  24.241  1.00  0.00     0.019 A 
ATOM     15  O   UNL A   1      32.859  24.281  25.641  1.00  0.00    -0.475 OA
ATOM     16  Cl  UNL A   1      32.524  18.713  25.663  1.00  0.00    -0.084 Cl
ATOM     17  C   UNL A   1      32.157  21.104  24.382  1.00  0.00     0.032 A 
ATOM     18  C   UNL A   1      31.678  23.533  23.203  1.00  0.00     0.027 C 
ATOM     19  C   UNL A   1      31.508  24.837  24.969  1.00  0.00     0.316 C 
BRANCH  10  20
ATOM     20  C   UNL A   1      36.575  22.185  25.076  1.00  0.00    -0.014 A 
ATOM     21  C   UNL A   1      40.007  22.234  26.495  1.00  0.00     0.121 A 
ATOM     22  C   UNL A   1      39.540  20.745  25.766  1.00  0.00     0.047 A 
ATOM     23  C   UNL A   1      38.955  23.687  26.494  1.00  0.00    -0.008 A 
ATOM     24  C   UNL A   1      37.916  20.639  25.014  1.00  0.00     0.013 A 
ATOM     25  C   UNL A   1      37.274  23.715  25.810  1.00  0.00     0.016 A 
ATOM     26  C   UNL A   1      39.661  24.884  27.058  1.00  0.00     0.048 C 
BRANCH  21  27
ATOM     27  O   UNL A   1      41.245  22.381  27.087  1.00  0.00    -0.496 OA
ATOM     28  C   UNL A   1      41.804  21.179  27.617  1.00  0.00     0.278 C 
ENDBRANCH  21  27
ENDBRANCH  10  20
BRANCH  19  29
ATOM     29  C   UNL A   1      30.289  25.658  25.481  1.00  0.00     0.430 C 
ATOM     30  F   UNL A   1      30.784  26.751  26.164  1.00  0.00    -0.167 F 
ATOM     31  F   UNL A   1      29.519  26.158  24.499  1.00  0.00    -0.167 F 
ATOM     32  F   UNL A   1      29.484  25.049  26.364  1.00  0.00    -0.167 F 
ENDBRANCH  19  29
ENDBRANCH   7   9
ENDBRANCH   6   7
ENDBRANCH   5   6
ENDBRANCH   4   5
ENDBRANCH   3   4
ENDBRANCH   2   3
ENDBRANCH   1   2
BRANCH   1  33
ATOM     33  O   UNL A   1      34.579  31.682  27.402  1.00  0.00    -0.376 OA
BRANCH  33  34
ATOM     34  C   UNL A   1      34.217  32.763  28.223  1.00  0.00     0.202 C 
BRANCH  34  35
ATOM     35  C   UNL A   1      34.628  32.646  29.700  1.00  0.00     0.261 C 
BRANCH  35  36
ATOM     36  O   UNL A   1      34.439  33.876  30.423  1.00  0.00    -0.460 OA
BRANCH  36  37
ATOM     37  C   UNL A   1      34.413  33.677  31.772  1.00  0.00     0.338 C 
ATOM     38  O   UNL A   1      33.518  34.007  32.524  1.00  0.00    -0.246 OA
BRANCH  37  39
ATOM     39  C   UNL A   1      35.732  33.153  32.143  1.00  0.00     0.060 A 
ATOM     40  C   UNL A   1      36.921  33.687  31.736  1.00  0.00     0.016 A 
ATOM     41  C   UNL A   1      35.869  32.027  32.870  1.00  0.00     0.016 A 
ATOM     42  C   UNL A   1      38.153  32.848  31.763  1.00  0.00     0.010 A 
ATOM     43  C   UNL A   1      37.158  31.406  32.909  1.00  0.00     0.010 A 
ATOM     44  C   UNL A   1      38.402  31.557  32.141  1.00  0.00    -0.014 A 
BRANCH  44  45
ATOM     45  C   UNL A   1      40.029  30.661  31.957  1.00  0.00     0.031 A 
ATOM     46  C   UNL A   1      40.446  29.100  30.999  1.00  0.00     0.074 A 
ATOM     47  C   UNL A   1      41.224  31.251  32.288  1.00  0.00     0.049 A 
ATOM     48  N   UNL A   1      41.633  28.583  30.854  1.00  0.00    -0.248 NA
ATOM     49  C   UNL A   1      39.545  28.014  30.235  1.00  0.00     0.031 C 
ATOM     50  C   UNL A   1      42.593  30.840  31.918  1.00  0.00     0.029 A 
ATOM     51  N   UNL A   1      41.507  32.296  33.179  1.00  0.00    -0.354 N 
ATOM     52  C   UNL A   1      41.622  27.636  29.822  1.00  0.00     0.074 A 
ATOM     53  C   UNL A   1      40.325  27.218  29.556  1.00  0.00     0.031 C 
ATOM     54  C   UNL A   1      43.459  31.272  32.848  1.00  0.00     0.029 A 
ATOM     55  C   UNL A   1      42.645  31.848  33.888  1.00  0.00     0.049 A 
ATOM     56  H   UNL A   1      41.023  33.147  33.286  1.00  0.00     0.167 HD
ATOM     57  C   UNL A   1      42.745  27.246  29.200  1.00  0.00     0.034 A 
ATOM     58  C   UNL A   1      42.525  31.384  35.161  1.00  0.00     0.034 A 
ATOM     59  C   UNL A   1      43.814  27.407  30.145  1.00  0.00     0.049 A 
ATOM     60  C   UNL A   1      42.990  29.875  35.261  1.00  0.00     0.074 A 
ATOM     61  C   UNL A   1      44.870  28.272  30.318  1.00  0.00     0.029 A 
ATOM     62  N   UNL A   1      43.599  26.793  31.368  1.00  0.00    -0.354 N 
ATOM     63  N   UNL A   1      43.308  29.115  34.231  1.00  0.00    -0.248 NA
ATOM     64  C   UNL A   1      43.183  29.115  36.497  1.00  0.00     0.031 C 
ATOM     65  C   UNL A   1      45.190  28.259  31.714  1.00  0.00     0.029 A 
ATOM     66  C   UNL A   1      44.354  27.361  32.360  1.00  0.00     0.049 A 
ATOM     67  H   UNL A   1      42.981  26.040  31.507  1.00  0.00     0.167 HD
ATOM     68  C   UNL A   1      43.721  27.851  34.618  1.00  0.00     0.074 A 
ATOM     69  C   UNL A   1      43.592  27.907  36.061  1.00  0.00     0.031 C 
ATOM     70  C   UNL A   1      44.142  26.884  33.723  1.00  0.00     0.034 A 
BRANCH  57  71
ATOM     71  C   UNL A   1      42.803  26.883  27.735  1.00  0.00     0.023 A 
ATOM     72  C   UNL A   1      43.648  25.816  27.413  1.00  0.00     0.031 A 
ATOM     73  C   UNL A   1      42.262  27.577  26.613  1.00  0.00     0.131 A 
ATOM     74  C   UNL A   1      43.965  25.506  26.080  1.00  0.00     0.055 A 
ATOM     75  C   UNL A   1      42.543  27.234  25.281  1.00  0.00     0.041 A 
ATOM     76  F   UNL A   1      41.477  28.657  26.715  1.00  0.00    -0.206 F 
ATOM     77  C   UNL A   1      43.417  26.201  25.008  1.00  0.00     0.022 A 
BRANCH  74  78
ATOM     78  S   UNL A   1      45.166  24.191  25.790  1.00  0.00     0.124 S 
ATOM     79  O   UNL A   1      45.346  24.267  24.343  1.00  0.00    -0.237 OA
ATOM     80  O   UNL A   1      46.295  24.625  26.604  1.00  0.00    -0.237 OA
ATOM     81  O   UNL A   1      44.479  22.995  26.269  1.00  0.00    -0.744 OA
ENDBRANCH  74  78
ENDBRANCH  57  71
BRANCH  58  82
ATOM     82  C   UNL A   1      41.318  32.135  35.942  1.00  0.00     0.023 A 
ATOM     83  C   UNL A   1      39.336  32.007  36.304  1.00  0.00     0.031 A 
ATOM     84  C   UNL A   1      42.062  33.555  36.720  1.00  0.00     0.131 A 
ATOM     85  C   UNL A   1      38.446  33.177  37.287  1.00  0.00     0.055 A 
ATOM     86  C   UNL A   1      40.939  34.759  37.605  1.00  0.00     0.041 A 
ATOM     87  F   UNL A   1      43.302  33.808  36.345  1.00  0.00    -0.206 F 
ATOM     88  C   UNL A   1      39.245  34.544  37.836  1.00  0.00     0.022 A 
BRANCH  85  89
ATOM     89  S   UNL A   1      37.538  32.343  38.867  1.00  0.00     0.124 S 
ATOM     90  O   UNL A   1      36.795  31.254  38.250  1.00  0.00    -0.237 OA
ATOM     91  O   UNL A   1      38.629  31.948  39.752  1.00  0.00    -0.237 OA
ATOM     92  O   UNL A   1      36.734  33.455  39.378  1.00  0.00    -0.744 OA
ENDBRANCH  85  89
ENDBRANCH  58  82
BRANCH  70  93
ATOM     93  C   UNL A   1      44.408  25.374  33.968  1.00  0.00     0.023 A 
ATOM     94  C   UNL A   1      44.876  24.846  35.173  1.00  0.00     0.031 A 
ATOM     95  C   UNL A   1      44.173  24.379  32.960  1.00  0.00     0.131 A 
ATOM     96  C   UNL A   1      45.124  23.460  35.328  1.00  0.00     0.055 A 
ATOM     97  C   UNL A   1      44.324  23.001  33.148  1.00  0.00     0.041 A 
ATOM     98  F   UNL A   1      43.790  24.678  31.712  1.00  0.00    -0.206 F 
ATOM     99  C   UNL A   1      44.823  22.529  34.339  1.00  0.00     0.022 A 
BRANCH  96 100
ATOM    100  S   UNL A   1      45.979  22.913  36.826  1.00  0.00     0.124 S 
ATOM    101  O   UNL A   1      47.323  23.441  36.609  1.00  0.00    -0.237 OA
ATOM    102  O   UNL A   1      45.200  23.564  37.873  1.00  0.00    -0.237 OA
ATOM    103  O   UNL A   1      45.868  21.457  36.776  1.00  0.00    -0.744 OA
ENDBRANCH  96 100
ENDBRANCH  70  93
ENDBRANCH  44  45
ENDBRANCH  37  39
ENDBRANCH  36  37
ENDBRANCH  35  36
ENDBRANCH  34  35
ENDBRANCH  33  34
ENDBRANCH   1  33
TORSDOF 23
ENDMDL
