MODEL 1
REMARK VINA RESULT:     -10.6      0.000      0.000
REMARK SMILES C[C@H]1[C@@H](C(=O)OCCOCCOCCOC(=O)c2ccc(-c3c4nc(c(-c5cc(S(=O)(=O)[O-])ccc5F)c5ccc([nH]5)c(-c5cc(S(=O)(=O)[O-])ccc5F)c5nc(c(-c6cc(S(=O)(=O)[O-])ccc6F)c6ccc3[nH]6)C=C5)C=C4)cc2)CC[N@@H+]1[C@@H]1CC(=O)N(C)C1=O
REMARK SMILES IDX 11 1 10 2 9 3 8 4 7 5 6 6 4 7 5 8 3 9 1 10 2 11 83 12 81 13
REMARK SMILES IDX 82 14 84 16 85 17 90 18 86 19 88 20 91 21 87 22 89 23 12 24
REMARK SMILES IDX 13 25 14 26 15 27 16 28 17 29 18 30 19 31 80 32 20 33 79 34
REMARK SMILES IDX 21 35 22 36 23 37 73 38 24 39 78 40 72 41 74 42 25 43 77 44
REMARK SMILES IDX 71 45 70 46 26 48 58 49 38 50 57 51 39 52 42 53 56 54 75 55
REMARK SMILES IDX 40 56 41 57 55 59 76 60 43 61 27 62 28 63 36 64 29 65 35 66
REMARK SMILES IDX 37 67 34 68 30 69 31 70 32 71 33 72 59 73 60 74 68 75 61 76
REMARK SMILES IDX 67 77 69 78 66 79 62 80 63 81 64 82 65 83 44 84 45 85 53 86
REMARK SMILES IDX 46 87 52 88 54 89 51 90 47 91 48 92 49 93 50 94
REMARK H PARENT 83 15 74 47 42 58
REMARK Flexibility Score: inf
ROOT
ATOM      1  C   UNL A   1      37.281  21.948  25.720  1.00  0.00     0.188 C 
ENDROOT
BRANCH   1   2
ATOM      2  C   UNL A   1      35.830  22.450  25.605  1.00  0.00     0.188 C 
BRANCH   2   3
ATOM      3  O   UNL A   1      34.912  21.753  24.786  1.00  0.00    -0.376 OA
BRANCH   3   4
ATOM      4  C   UNL A   1      33.924  20.948  25.410  1.00  0.00     0.202 C 
BRANCH   4   5
ATOM      5  C   UNL A   1      32.502  21.503  25.562  1.00  0.00     0.261 C 
BRANCH   5   6
ATOM      6  O   UNL A   1      32.389  22.910  25.253  1.00  0.00    -0.463 OA
BRANCH   6   7
ATOM      7  C   UNL A   1      32.139  23.740  26.294  1.00  0.00     0.315 C 
ATOM      8  O   UNL A   1      31.690  23.358  27.370  1.00  0.00    -0.252 OA
BRANCH   7   9
ATOM      9  C   UNL A   1      32.548  25.199  26.099  1.00  0.00     0.162 C 
ATOM     10  C   UNL A   1      30.217  25.940  25.126  1.00  0.00     0.076 C 
ATOM     11  C   UNL A   1      31.609  26.320  25.623  1.00  0.00     0.196 C 
ATOM     12  N   UNL A   1      32.329  27.082  24.577  1.00  0.00    -0.321 N 
ATOM     13  C   UNL A   1      33.820  25.332  25.264  1.00  0.00     0.083 C 
ATOM     14  C   UNL A   1      33.499  26.312  24.156  1.00  0.00     0.264 C 
ATOM     15  H   UNL A   1      31.651  27.199  23.824  1.00  0.00     0.349 HD
BRANCH  12  16
ATOM     16  C   UNL A   1      32.708  28.471  24.893  1.00  0.00     0.284 C 
ATOM     17  C   UNL A   1      33.434  28.702  26.215  1.00  0.00     0.176 C 
ATOM     18  C   UNL A   1      31.557  29.463  24.928  1.00  0.00     0.287 C 
ATOM     19  C   UNL A   1      32.923  30.035  26.664  1.00  0.00     0.235 C 
ATOM     20  N   UNL A   1      31.844  30.380  25.906  1.00  0.00    -0.280 N 
ATOM     21  O   UNL A   1      30.584  29.494  24.188  1.00  0.00    -0.267 OA
ATOM     22  O   UNL A   1      33.378  30.659  27.611  1.00  0.00    -0.274 OA
ATOM     23  C   UNL A   1      31.070  31.579  26.103  1.00  0.00     0.156 C 
ENDBRANCH  12  16
ENDBRANCH   7   9
ENDBRANCH   6   7
ENDBRANCH   5   6
ENDBRANCH   4   5
ENDBRANCH   3   4
ENDBRANCH   2   3
ENDBRANCH   1   2
BRANCH   1  24
ATOM     24  O   UNL A   1      37.848  21.067  24.778  1.00  0.00    -0.376 OA
BRANCH  24  25
ATOM     25  C   UNL A   1      38.168  19.743  25.152  1.00  0.00     0.202 C 
BRANCH  25  26
ATOM     26  C   UNL A   1      39.565  19.361  25.659  1.00  0.00     0.261 C 
BRANCH  26  27
ATOM     27  O   UNL A   1      39.905  19.812  26.977  1.00  0.00    -0.460 OA
BRANCH  27  28
ATOM     28  C   UNL A   1      41.196  20.196  27.141  1.00  0.00     0.338 C 
ATOM     29  O   UNL A   1      42.197  19.506  26.996  1.00  0.00    -0.246 OA
BRANCH  28  30
ATOM     30  C   UNL A   1      41.241  21.650  27.362  1.00  0.00     0.060 A 
ATOM     31  C   UNL A   1      40.534  22.501  26.499  1.00  0.00     0.016 A 
ATOM     32  C   UNL A   1      42.019  22.173  28.392  1.00  0.00     0.016 A 
ATOM     33  C   UNL A   1      40.602  23.885  26.664  1.00  0.00     0.010 A 
ATOM     34  C   UNL A   1      42.111  23.558  28.537  1.00  0.00     0.010 A 
ATOM     35  C   UNL A   1      41.419  24.421  27.664  1.00  0.00    -0.014 A 
BRANCH  35  36
ATOM     36  C   UNL A   1      41.725  25.870  27.714  1.00  0.00     0.031 A 
ATOM     37  C   UNL A   1      43.036  26.331  27.145  1.00  0.00     0.074 A 
ATOM     38  C   UNL A   1      40.890  26.746  28.300  1.00  0.00     0.049 A 
ATOM     39  N   UNL A   1      43.650  27.474  27.291  1.00  0.00    -0.248 NA
ATOM     40  C   UNL A   1      43.754  25.357  26.309  1.00  0.00     0.031 C 
ATOM     41  C   UNL A   1      39.554  26.434  28.804  1.00  0.00     0.029 A 
ATOM     42  N   UNL A   1      41.063  28.075  28.598  1.00  0.00    -0.354 N 
ATOM     43  C   UNL A   1      44.846  27.349  26.592  1.00  0.00     0.074 A 
ATOM     44  C   UNL A   1      44.871  26.013  26.035  1.00  0.00     0.031 C 
ATOM     45  C   UNL A   1      39.040  27.535  29.379  1.00  0.00     0.029 A 
ATOM     46  C   UNL A   1      40.037  28.604  29.348  1.00  0.00     0.049 A 
ATOM     47  H   UNL A   1      41.842  28.598  28.305  1.00  0.00     0.167 HD
ATOM     48  C   UNL A   1      45.832  28.266  26.441  1.00  0.00     0.034 A 
ATOM     49  C   UNL A   1      39.944  29.791  29.985  1.00  0.00     0.034 A 
ATOM     50  C   UNL A   1      45.787  29.584  27.020  1.00  0.00     0.049 A 
ATOM     51  C   UNL A   1      41.107  30.757  29.908  1.00  0.00     0.074 A 
ATOM     52  C   UNL A   1      46.728  30.594  26.939  1.00  0.00     0.029 A 
ATOM     53  N   UNL A   1      44.746  30.073  27.801  1.00  0.00    -0.354 N 
ATOM     54  N   UNL A   1      42.254  30.621  29.281  1.00  0.00    -0.248 NA
ATOM     55  C   UNL A   1      40.968  32.032  30.627  1.00  0.00     0.031 C 
ATOM     56  C   UNL A   1      46.298  31.657  27.738  1.00  0.00     0.029 A 
ATOM     57  C   UNL A   1      45.040  31.354  28.235  1.00  0.00     0.049 A 
ATOM     58  H   UNL A   1      43.921  29.579  28.015  1.00  0.00     0.167 HD
ATOM     59  C   UNL A   1      42.949  31.811  29.493  1.00  0.00     0.074 A 
ATOM     60  C   UNL A   1      42.099  32.649  30.311  1.00  0.00     0.031 C 
ATOM     61  C   UNL A   1      44.172  32.183  29.039  1.00  0.00     0.034 A 
BRANCH  48  62
ATOM     62  C   UNL A   1      47.067  27.841  25.686  1.00  0.00     0.023 A 
ATOM     63  C   UNL A   1      47.224  28.096  24.312  1.00  0.00     0.031 A 
ATOM     64  C   UNL A   1      48.091  27.137  26.345  1.00  0.00     0.131 A 
ATOM     65  C   UNL A   1      48.339  27.586  23.630  1.00  0.00     0.055 A 
ATOM     66  C   UNL A   1      49.240  26.709  25.678  1.00  0.00     0.041 A 
ATOM     67  F   UNL A   1      47.984  26.839  27.650  1.00  0.00    -0.206 F 
ATOM     68  C   UNL A   1      49.362  26.920  24.309  1.00  0.00     0.022 A 
BRANCH  65  69
ATOM     69  S   UNL A   1      48.356  27.671  21.819  1.00  0.00     0.124 S 
ATOM     70  O   UNL A   1      47.051  28.266  21.539  1.00  0.00    -0.237 OA
ATOM     71  O   UNL A   1      49.514  28.516  21.553  1.00  0.00    -0.237 OA
ATOM     72  O   UNL A   1      48.495  26.274  21.411  1.00  0.00    -0.744 OA
ENDBRANCH  65  69
ENDBRANCH  48  62
BRANCH  49  73
ATOM     73  C   UNL A   1      38.743  30.118  30.810  1.00  0.00     0.023 A 
ATOM     74  C   UNL A   1      37.773  31.023  30.351  1.00  0.00     0.031 A 
ATOM     75  C   UNL A   1      38.578  29.577  32.099  1.00  0.00     0.131 A 
ATOM     76  C   UNL A   1      36.710  31.396  31.190  1.00  0.00     0.055 A 
ATOM     77  C   UNL A   1      37.485  29.902  32.904  1.00  0.00     0.041 A 
ATOM     78  F   UNL A   1      39.480  28.715  32.594  1.00  0.00    -0.206 F 
ATOM     79  C   UNL A   1      36.550  30.829  32.455  1.00  0.00     0.022 A 
BRANCH  76  80
ATOM     80  S   UNL A   1      35.596  32.719  30.640  1.00  0.00     0.124 S 
ATOM     81  O   UNL A   1      35.369  32.352  29.247  1.00  0.00    -0.237 OA
ATOM     82  O   UNL A   1      34.462  32.554  31.541  1.00  0.00    -0.237 OA
ATOM     83  O   UNL A   1      36.384  33.933  30.845  1.00  0.00    -0.744 OA
ENDBRANCH  76  80
ENDBRANCH  49  73
BRANCH  61  84
ATOM     84  C   UNL A   1      44.637  33.590  29.332  1.00  0.00     0.023 A 
ATOM     85  C   UNL A   1      44.229  34.695  28.564  1.00  0.00     0.031 A 
ATOM     86  C   UNL A   1      45.462  33.826  30.447  1.00  0.00     0.131 A 
ATOM     87  C   UNL A   1      44.670  35.982  28.910  1.00  0.00     0.055 A 
ATOM     88  C   UNL A   1      45.849  35.113  30.818  1.00  0.00     0.041 A 
ATOM     89  F   UNL A   1      45.883  32.806  31.212  1.00  0.00    -0.206 F 
ATOM     90  C   UNL A   1      45.458  36.200  30.044  1.00  0.00     0.022 A 
BRANCH  87  91
ATOM     91  S   UNL A   1      44.244  37.375  27.829  1.00  0.00     0.124 S 
ATOM     92  O   UNL A   1      45.559  37.850  27.413  1.00  0.00    -0.237 OA
ATOM     93  O   UNL A   1      43.440  36.734  26.792  1.00  0.00    -0.237 OA
ATOM     94  O   UNL A   1      43.507  38.281  28.708  1.00  0.00    -0.744 OA
ENDBRANCH  87  91
ENDBRANCH  61  84
ENDBRANCH  35  36
ENDBRANCH  28  30
ENDBRANCH  27  28
ENDBRANCH  26  27
ENDBRANCH  25  26
ENDBRANCH  24  25
ENDBRANCH   1  24
TORSDOF 21
ENDMDL
MODEL 2
REMARK VINA RESULT:     -10.0      1.812      2.315
REMARK SMILES C[C@H]1[C@@H](C(=O)OCCOCCOCCOC(=O)c2ccc(-c3c4nc(c(-c5cc(S(=O)(=O)[O-])ccc5F)c5ccc([nH]5)c(-c5cc(S(=O)(=O)[O-])ccc5F)c5nc(c(-c6cc(S(=O)(=O)[O-])ccc6F)c6ccc3[nH]6)C=C5)C=C4)cc2)CC[N@@H+]1[C@@H]1CC(=O)N(C)C1=O
REMARK SMILES IDX 11 1 10 2 9 3 8 4 7 5 6 6 4 7 5 8 3 9 1 10 2 11 83 12 81 13
REMARK SMILES IDX 82 14 84 16 85 17 90 18 86 19 88 20 91 21 87 22 89 23 12 24
REMARK SMILES IDX 13 25 14 26 15 27 16 28 17 29 18 30 19 31 80 32 20 33 79 34
REMARK SMILES IDX 21 35 22 36 23 37 73 38 24 39 78 40 72 41 74 42 25 43 77 44
REMARK SMILES IDX 71 45 70 46 26 48 58 49 38 50 57 51 39 52 42 53 56 54 75 55
REMARK SMILES IDX 40 56 41 57 55 59 76 60 43 61 27 62 28 63 36 64 29 65 35 66
REMARK SMILES IDX 37 67 34 68 30 69 31 70 32 71 33 72 59 73 60 74 68 75 61 76
REMARK SMILES IDX 67 77 69 78 66 79 62 80 63 81 64 82 65 83 44 84 45 85 53 86
REMARK SMILES IDX 46 87 52 88 54 89 51 90 47 91 48 92 49 93 50 94
REMARK H PARENT 83 15 74 47 42 58
REMARK Flexibility Score: inf
ROOT
ATOM      1  C   UNL A   1      37.035  21.934  25.731  1.00  0.00     0.188 C 
ENDROOT
BRANCH   1   2
ATOM      2  C   UNL A   1      35.577  22.422  25.672  1.00  0.00     0.188 C 
BRANCH   2   3
ATOM      3  O   UNL A   1      34.763  22.062  24.572  1.00  0.00    -0.376 OA
BRANCH   3   4
ATOM      4  C   UNL A   1      33.933  20.917  24.689  1.00  0.00     0.202 C 
BRANCH   4   5
ATOM      5  C   UNL A   1      32.493  21.093  25.187  1.00  0.00     0.261 C 
BRANCH   5   6
ATOM      6  O   UNL A   1      32.237  22.383  25.787  1.00  0.00    -0.463 OA
BRANCH   6   7
ATOM      7  C   UNL A   1      30.938  22.744  25.914  1.00  0.00     0.315 C 
ATOM      8  O   UNL A   1      30.057  21.979  26.296  1.00  0.00    -0.252 OA
BRANCH   7   9
ATOM      9  C   UNL A   1      30.624  24.215  25.651  1.00  0.00     0.162 C 
ATOM     10  C   UNL A   1      30.766  23.994  23.032  1.00  0.00     0.076 C 
ATOM     11  C   UNL A   1      30.437  24.841  24.258  1.00  0.00     0.196 C 
ATOM     12  N   UNL A   1      31.222  26.097  24.232  1.00  0.00    -0.321 N 
ATOM     13  C   UNL A   1      31.568  25.147  26.408  1.00  0.00     0.083 C 
ATOM     14  C   UNL A   1      32.124  26.112  25.383  1.00  0.00     0.264 C 
ATOM     15  H   UNL A   1      31.724  26.073  23.345  1.00  0.00     0.349 HD
BRANCH  12  16
ATOM     16  C   UNL A   1      30.469  27.362  24.146  1.00  0.00     0.284 C 
ATOM     17  C   UNL A   1      28.966  27.253  23.904  1.00  0.00     0.176 C 
ATOM     18  C   UNL A   1      30.945  28.325  23.071  1.00  0.00     0.287 C 
ATOM     19  C   UNL A   1      28.666  28.439  23.042  1.00  0.00     0.235 C 
ATOM     20  N   UNL A   1      29.837  28.969  22.586  1.00  0.00    -0.280 N 
ATOM     21  O   UNL A   1      32.100  28.546  22.734  1.00  0.00    -0.267 OA
ATOM     22  O   UNL A   1      27.537  28.805  22.751  1.00  0.00    -0.274 OA
ATOM     23  C   UNL A   1      29.916  30.090  21.684  1.00  0.00     0.156 C 
ENDBRANCH  12  16
ENDBRANCH   7   9
ENDBRANCH   6   7
ENDBRANCH   5   6
ENDBRANCH   4   5
ENDBRANCH   3   4
ENDBRANCH   2   3
ENDBRANCH   1   2
BRANCH   1  24
ATOM     24  O   UNL A   1      37.611  21.158  24.705  1.00  0.00    -0.376 OA
BRANCH  24  25
ATOM     25  C   UNL A   1      37.984  19.820  24.957  1.00  0.00     0.202 C 
BRANCH  25  26
ATOM     26  C   UNL A   1      39.377  19.454  25.487  1.00  0.00     0.261 C 
BRANCH  26  27
ATOM     27  O   UNL A   1      39.671  19.863  26.829  1.00  0.00    -0.460 OA
BRANCH  27  28
ATOM     28  C   UNL A   1      40.966  20.194  27.062  1.00  0.00     0.338 C 
ATOM     29  O   UNL A   1      41.946  19.469  26.952  1.00  0.00    -0.246 OA
BRANCH  28  30
ATOM     30  C   UNL A   1      41.056  21.642  27.310  1.00  0.00     0.060 A 
ATOM     31  C   UNL A   1      40.364  22.529  26.472  1.00  0.00     0.016 A 
ATOM     32  C   UNL A   1      41.860  22.122  28.340  1.00  0.00     0.016 A 
ATOM     33  C   UNL A   1      40.474  23.907  26.663  1.00  0.00     0.010 A 
ATOM     34  C   UNL A   1      41.994  23.500  28.512  1.00  0.00     0.010 A 
ATOM     35  C   UNL A   1      41.317  24.400  27.664  1.00  0.00    -0.014 A 
BRANCH  35  36
ATOM     36  C   UNL A   1      41.665  25.839  27.738  1.00  0.00     0.031 A 
ATOM     37  C   UNL A   1      43.031  26.255  27.273  1.00  0.00     0.074 A 
ATOM     38  C   UNL A   1      40.816  26.742  28.257  1.00  0.00     0.049 A 
ATOM     39  N   UNL A   1      43.669  27.378  27.468  1.00  0.00    -0.248 NA
ATOM     40  C   UNL A   1      43.780  25.257  26.496  1.00  0.00     0.031 C 
ATOM     41  C   UNL A   1      39.436  26.475  28.655  1.00  0.00     0.029 A 
ATOM     42  N   UNL A   1      41.008  28.066  28.569  1.00  0.00    -0.354 N 
ATOM     43  C   UNL A   1      44.911  27.212  26.864  1.00  0.00     0.074 A 
ATOM     44  C   UNL A   1      44.936  25.875  26.310  1.00  0.00     0.031 C 
ATOM     45  C   UNL A   1      38.914  27.593  29.189  1.00  0.00     0.029 A 
ATOM     46  C   UNL A   1      39.945  28.630  29.236  1.00  0.00     0.049 A 
ATOM     47  H   UNL A   1      41.825  28.562  28.338  1.00  0.00     0.167 HD
ATOM     48  C   UNL A   1      45.935  28.096  26.791  1.00  0.00     0.034 A 
ATOM     49  C   UNL A   1      39.841  29.820  29.865  1.00  0.00     0.034 A 
ATOM     50  C   UNL A   1      45.888  29.417  27.366  1.00  0.00     0.049 A 
ATOM     51  C   UNL A   1      41.037  30.748  29.880  1.00  0.00     0.074 A 
ATOM     52  C   UNL A   1      46.865  30.395  27.359  1.00  0.00     0.029 A 
ATOM     53  N   UNL A   1      44.806  29.941  28.063  1.00  0.00    -0.354 N 
ATOM     54  N   UNL A   1      42.225  30.573  29.344  1.00  0.00    -0.248 NA
ATOM     55  C   UNL A   1      40.885  32.027  30.586  1.00  0.00     0.031 C 
ATOM     56  C   UNL A   1      46.408  31.473  28.123  1.00  0.00     0.029 A 
ATOM     57  C   UNL A   1      45.106  31.213  28.519  1.00  0.00     0.049 A 
ATOM     58  H   UNL A   1      43.951  29.475  28.212  1.00  0.00     0.167 HD
ATOM     59  C   UNL A   1      42.940  31.740  29.610  1.00  0.00     0.074 A 
ATOM     60  C   UNL A   1      42.056  32.607  30.360  1.00  0.00     0.031 C 
ATOM     61  C   UNL A   1      44.206  32.071  29.254  1.00  0.00     0.034 A 
BRANCH  48  62
ATOM     62  C   UNL A   1      47.211  27.630  26.135  1.00  0.00     0.023 A 
ATOM     63  C   UNL A   1      48.260  27.056  26.873  1.00  0.00     0.031 A 
ATOM     64  C   UNL A   1      47.394  27.794  24.750  1.00  0.00     0.131 A 
ATOM     65  C   UNL A   1      49.470  26.737  26.237  1.00  0.00     0.055 A 
ATOM     66  C   UNL A   1      48.567  27.394  24.108  1.00  0.00     0.041 A 
ATOM     67  F   UNL A   1      46.438  28.364  23.998  1.00  0.00    -0.206 F 
ATOM     68  C   UNL A   1      49.619  26.876  24.854  1.00  0.00     0.022 A 
BRANCH  65  69
ATOM     69  S   UNL A   1      50.895  26.288  27.264  1.00  0.00     0.124 S 
ATOM     70  O   UNL A   1      50.855  24.829  27.201  1.00  0.00    -0.237 OA
ATOM     71  O   UNL A   1      52.003  26.928  26.564  1.00  0.00    -0.237 OA
ATOM     72  O   UNL A   1      50.569  26.857  28.570  1.00  0.00    -0.744 OA
ENDBRANCH  65  69
ENDBRANCH  48  62
BRANCH  49  73
ATOM     73  C   UNL A   1      38.591  30.187  30.593  1.00  0.00     0.023 A 
ATOM     74  C   UNL A   1      37.578  30.931  29.967  1.00  0.00     0.031 A 
ATOM     75  C   UNL A   1      38.415  29.853  31.949  1.00  0.00     0.131 A 
ATOM     76  C   UNL A   1      36.462  31.356  30.705  1.00  0.00     0.055 A 
ATOM     77  C   UNL A   1      37.274  30.224  32.661  1.00  0.00     0.041 A 
ATOM     78  F   UNL A   1      39.355  29.153  32.604  1.00  0.00    -0.206 F 
ATOM     79  C   UNL A   1      36.294  30.993  32.042  1.00  0.00     0.022 A 
BRANCH  76  80
ATOM     80  S   UNL A   1      35.281  32.485  29.916  1.00  0.00     0.124 S 
ATOM     81  O   UNL A   1      36.170  33.494  29.351  1.00  0.00    -0.237 OA
ATOM     82  O   UNL A   1      34.615  31.608  28.960  1.00  0.00    -0.237 OA
ATOM     83  O   UNL A   1      34.449  32.939  31.029  1.00  0.00    -0.744 OA
ENDBRANCH  76  80
ENDBRANCH  49  73
BRANCH  61  84
ATOM     84  C   UNL A   1      44.692  33.463  29.583  1.00  0.00     0.023 A 
ATOM     85  C   UNL A   1      44.495  34.555  28.720  1.00  0.00     0.031 A 
ATOM     86  C   UNL A   1      45.315  33.701  30.821  1.00  0.00     0.131 A 
ATOM     87  C   UNL A   1      44.941  35.831  29.100  1.00  0.00     0.055 A 
ATOM     88  C   UNL A   1      45.704  34.980  31.218  1.00  0.00     0.041 A 
ATOM     89  F   UNL A   1      45.532  32.693  31.682  1.00  0.00    -0.206 F 
ATOM     90  C   UNL A   1      45.523  36.054  30.352  1.00  0.00     0.022 A 
BRANCH  87  91
ATOM     91  S   UNL A   1      44.799  37.198  27.917  1.00  0.00     0.124 S 
ATOM     92  O   UNL A   1      44.243  38.262  28.747  1.00  0.00    -0.237 OA
ATOM     93  O   UNL A   1      46.180  37.384  27.484  1.00  0.00    -0.237 OA
ATOM     94  O   UNL A   1      43.895  36.676  26.894  1.00  0.00    -0.744 OA
ENDBRANCH  87  91
ENDBRANCH  61  84
ENDBRANCH  35  36
ENDBRANCH  28  30
ENDBRANCH  27  28
ENDBRANCH  26  27
ENDBRANCH  25  26
ENDBRANCH  24  25
ENDBRANCH   1  24
TORSDOF 21
ENDMDL
MODEL 3
REMARK VINA RESULT:      -9.9      1.887      2.463
REMARK SMILES C[C@H]1[C@@H](C(=O)OCCOCCOCCOC(=O)c2ccc(-c3c4nc(c(-c5cc(S(=O)(=O)[O-])ccc5F)c5ccc([nH]5)c(-c5cc(S(=O)(=O)[O-])ccc5F)c5nc(c(-c6cc(S(=O)(=O)[O-])ccc6F)c6ccc3[nH]6)C=C5)C=C4)cc2)CC[N@@H+]1[C@@H]1CC(=O)N(C)C1=O
REMARK SMILES IDX 11 1 10 2 9 3 8 4 7 5 6 6 4 7 5 8 3 9 1 10 2 11 83 12 81 13
REMARK SMILES IDX 82 14 84 16 85 17 90 18 86 19 88 20 91 21 87 22 89 23 12 24
REMARK SMILES IDX 13 25 14 26 15 27 16 28 17 29 18 30 19 31 80 32 20 33 79 34
REMARK SMILES IDX 21 35 22 36 23 37 73 38 24 39 78 40 72 41 74 42 25 43 77 44
REMARK SMILES IDX 71 45 70 46 26 48 58 49 38 50 57 51 39 52 42 53 56 54 75 55
REMARK SMILES IDX 40 56 41 57 55 59 76 60 43 61 27 62 28 63 36 64 29 65 35 66
REMARK SMILES IDX 37 67 34 68 30 69 31 70 32 71 33 72 59 73 60 74 68 75 61 76
REMARK SMILES IDX 67 77 69 78 66 79 62 80 63 81 64 82 65 83 44 84 45 85 53 86
REMARK SMILES IDX 46 87 52 88 54 89 51 90 47 91 48 92 49 93 50 94
REMARK H PARENT 83 15 74 47 42 58
REMARK Flexibility Score: inf
ROOT
ATOM      1  C   UNL A   1      35.985  18.826  24.983  1.00  0.00     0.188 C 
ENDROOT
BRANCH   1   2
ATOM      2  C   UNL A   1      34.908  18.033  24.221  1.00  0.00     0.188 C 
BRANCH   2   3
ATOM      3  O   UNL A   1      33.638  18.615  23.997  1.00  0.00    -0.376 OA
BRANCH   3   4
ATOM      4  C   UNL A   1      32.884  19.047  25.119  1.00  0.00     0.202 C 
BRANCH   4   5
ATOM      5  C   UNL A   1      32.182  20.410  25.060  1.00  0.00     0.261 C 
BRANCH   5   6
ATOM      6  O   UNL A   1      33.076  21.534  25.224  1.00  0.00    -0.463 OA
BRANCH   6   7
ATOM      7  C   UNL A   1      33.083  22.452  24.227  1.00  0.00     0.315 C 
ATOM      8  O   UNL A   1      33.618  22.264  23.139  1.00  0.00    -0.252 OA
BRANCH   7   9
ATOM      9  C   UNL A   1      32.284  23.727  24.487  1.00  0.00     0.162 C 
ATOM     10  C   UNL A   1      34.290  25.001  25.619  1.00  0.00     0.076 C 
ATOM     11  C   UNL A   1      32.864  25.024  25.076  1.00  0.00     0.196 C 
ATOM     12  N   UNL A   1      31.929  25.485  26.128  1.00  0.00    -0.321 N 
ATOM     13  C   UNL A   1      30.998  23.450  25.263  1.00  0.00     0.083 C 
ATOM     14  C   UNL A   1      31.001  24.400  26.442  1.00  0.00     0.264 C 
ATOM     15  H   UNL A   1      32.524  25.729  26.920  1.00  0.00     0.349 HD
BRANCH  12  16
ATOM     16  C   UNL A   1      31.194  26.739  25.877  1.00  0.00     0.284 C 
ATOM     17  C   UNL A   1      30.992  27.137  24.417  1.00  0.00     0.176 C 
ATOM     18  C   UNL A   1      31.796  27.979  26.516  1.00  0.00     0.287 C 
ATOM     19  C   UNL A   1      31.079  28.630  24.449  1.00  0.00     0.235 C 
ATOM     20  N   UNL A   1      31.571  29.025  25.658  1.00  0.00    -0.280 N 
ATOM     21  O   UNL A   1      32.325  28.064  27.615  1.00  0.00    -0.267 OA
ATOM     22  O   UNL A   1      30.813  29.351  23.499  1.00  0.00    -0.274 OA
ATOM     23  C   UNL A   1      31.835  30.397  26.011  1.00  0.00     0.156 C 
ENDBRANCH  12  16
ENDBRANCH   7   9
ENDBRANCH   6   7
ENDBRANCH   5   6
ENDBRANCH   4   5
ENDBRANCH   3   4
ENDBRANCH   2   3
ENDBRANCH   1   2
BRANCH   1  24
ATOM     24  O   UNL A   1      36.150  20.216  24.822  1.00  0.00    -0.376 OA
BRANCH  24  25
ATOM     25  C   UNL A   1      37.445  20.780  24.840  1.00  0.00     0.202 C 
BRANCH  25  26
ATOM     26  C   UNL A   1      38.591  20.149  25.642  1.00  0.00     0.261 C 
BRANCH  26  27
ATOM     27  O   UNL A   1      39.808  20.903  25.707  1.00  0.00    -0.460 OA
BRANCH  27  28
ATOM     28  C   UNL A   1      40.357  21.010  26.943  1.00  0.00     0.338 C 
ATOM     29  O   UNL A   1      40.800  20.104  27.637  1.00  0.00    -0.246 OA
BRANCH  28  30
ATOM     30  C   UNL A   1      40.507  22.434  27.281  1.00  0.00     0.060 A 
ATOM     31  C   UNL A   1      39.777  23.394  26.564  1.00  0.00     0.016 A 
ATOM     32  C   UNL A   1      41.403  22.823  28.274  1.00  0.00     0.016 A 
ATOM     33  C   UNL A   1      39.941  24.752  26.838  1.00  0.00     0.010 A 
ATOM     34  C   UNL A   1      41.589  24.182  28.526  1.00  0.00     0.010 A 
ATOM     35  C   UNL A   1      40.874  25.154  27.799  1.00  0.00    -0.014 A 
BRANCH  35  36
ATOM     36  C   UNL A   1      41.267  26.576  27.942  1.00  0.00     0.031 A 
ATOM     37  C   UNL A   1      42.669  26.958  27.564  1.00  0.00     0.074 A 
ATOM     38  C   UNL A   1      40.424  27.492  28.448  1.00  0.00     0.049 A 
ATOM     39  N   UNL A   1      43.335  28.049  27.831  1.00  0.00    -0.248 NA
ATOM     40  C   UNL A   1      43.424  25.959  26.792  1.00  0.00     0.031 C 
ATOM     41  C   UNL A   1      39.016  27.263  28.763  1.00  0.00     0.029 A 
ATOM     42  N   UNL A   1      40.645  28.797  28.815  1.00  0.00    -0.354 N 
ATOM     43  C   UNL A   1      44.601  27.858  27.288  1.00  0.00     0.074 A 
ATOM     44  C   UNL A   1      44.609  26.540  26.689  1.00  0.00     0.031 C 
ATOM     45  C   UNL A   1      38.506  28.381  29.308  1.00  0.00     0.029 A 
ATOM     46  C   UNL A   1      39.568  29.377  29.446  1.00  0.00     0.049 A 
ATOM     47  H   UNL A   1      41.490  29.270  28.645  1.00  0.00     0.167 HD
ATOM     48  C   UNL A   1      45.658  28.706  27.300  1.00  0.00     0.034 A 
ATOM     49  C   UNL A   1      39.472  30.549  30.109  1.00  0.00     0.034 A 
ATOM     50  C   UNL A   1      45.626  30.007  27.918  1.00  0.00     0.049 A 
ATOM     51  C   UNL A   1      40.698  31.431  30.220  1.00  0.00     0.074 A 
ATOM     52  C   UNL A   1      46.636  30.949  27.997  1.00  0.00     0.029 A 
ATOM     53  N   UNL A   1      44.528  30.547  28.575  1.00  0.00    -0.354 N 
ATOM     54  N   UNL A   1      41.905  31.230  29.741  1.00  0.00    -0.248 NA
ATOM     55  C   UNL A   1      40.552  32.691  30.962  1.00  0.00     0.031 C 
ATOM     56  C   UNL A   1      46.177  32.017  28.773  1.00  0.00     0.029 A 
ATOM     57  C   UNL A   1      44.847  31.791  29.091  1.00  0.00     0.049 A 
ATOM     58  H   UNL A   1      43.650  30.108  28.662  1.00  0.00     0.167 HD
ATOM     59  C   UNL A   1      42.645  32.361  30.086  1.00  0.00     0.074 A 
ATOM     60  C   UNL A   1      41.753  33.234  30.818  1.00  0.00     0.031 C 
ATOM     61  C   UNL A   1      43.940  32.657  29.808  1.00  0.00     0.034 A 
BRANCH  48  62
ATOM     62  C   UNL A   1      46.950  28.215  26.695  1.00  0.00     0.023 A 
ATOM     63  C   UNL A   1      47.177  28.234  25.308  1.00  0.00     0.031 A 
ATOM     64  C   UNL A   1      47.960  27.686  27.519  1.00  0.00     0.131 A 
ATOM     65  C   UNL A   1      48.348  27.667  24.783  1.00  0.00     0.055 A 
ATOM     66  C   UNL A   1      49.161  27.204  26.997  1.00  0.00     0.041 A 
ATOM     67  F   UNL A   1      47.788  27.615  28.849  1.00  0.00    -0.206 F 
ATOM     68  C   UNL A   1      49.354  27.178  25.621  1.00  0.00     0.022 A 
BRANCH  65  69
ATOM     69  S   UNL A   1      48.467  27.436  22.989  1.00  0.00     0.124 S 
ATOM     70  O   UNL A   1      48.286  25.991  22.866  1.00  0.00    -0.237 OA
ATOM     71  O   UNL A   1      47.373  28.261  22.491  1.00  0.00    -0.237 OA
ATOM     72  O   UNL A   1      49.809  27.918  22.669  1.00  0.00    -0.744 OA
ENDBRANCH  65  69
ENDBRANCH  48  62
BRANCH  49  73
ATOM     73  C   UNL A   1      38.198  30.937  30.784  1.00  0.00     0.023 A 
ATOM     74  C   UNL A   1      37.201  31.648  30.097  1.00  0.00     0.031 A 
ATOM     75  C   UNL A   1      37.983  30.658  32.147  1.00  0.00     0.131 A 
ATOM     76  C   UNL A   1      36.061  32.096  30.784  1.00  0.00     0.055 A 
ATOM     77  C   UNL A   1      36.818  31.050  32.808  1.00  0.00     0.041 A 
ATOM     78  F   UNL A   1      38.906  29.991  32.857  1.00  0.00    -0.206 F 
ATOM     79  C   UNL A   1      35.854  31.786  32.129  1.00  0.00     0.022 A 
BRANCH  76  80
ATOM     80  S   UNL A   1      34.899  33.184  29.913  1.00  0.00     0.124 S 
ATOM     81  O   UNL A   1      35.794  34.200  29.373  1.00  0.00    -0.237 OA
ATOM     82  O   UNL A   1      34.299  32.274  28.944  1.00  0.00    -0.237 OA
ATOM     83  O   UNL A   1      34.003  33.642  30.974  1.00  0.00    -0.744 OA
ENDBRANCH  76  80
ENDBRANCH  49  73
BRANCH  61  84
ATOM     84  C   UNL A   1      44.456  34.018  30.211  1.00  0.00     0.023 A 
ATOM     85  C   UNL A   1      45.121  34.243  31.428  1.00  0.00     0.031 A 
ATOM     86  C   UNL A   1      44.323  35.098  29.318  1.00  0.00     0.131 A 
ATOM     87  C   UNL A   1      45.607  35.526  31.728  1.00  0.00     0.055 A 
ATOM     88  C   UNL A   1      44.858  36.355  29.597  1.00  0.00     0.041 A 
ATOM     89  F   UNL A   1      43.693  34.939  28.143  1.00  0.00    -0.206 F 
ATOM     90  C   UNL A   1      45.499  36.576  30.812  1.00  0.00     0.022 A 
BRANCH  87  91
ATOM     91  S   UNL A   1      46.341  35.826  33.360  1.00  0.00     0.124 S 
ATOM     92  O   UNL A   1      46.399  37.283  33.403  1.00  0.00    -0.237 OA
ATOM     93  O   UNL A   1      45.377  35.200  34.258  1.00  0.00    -0.237 OA
ATOM     94  O   UNL A   1      47.638  35.157  33.282  1.00  0.00    -0.744 OA
ENDBRANCH  87  91
ENDBRANCH  61  84
ENDBRANCH  35  36
ENDBRANCH  28  30
ENDBRANCH  27  28
ENDBRANCH  26  27
ENDBRANCH  25  26
ENDBRANCH  24  25
ENDBRANCH   1  24
TORSDOF 21
ENDMDL
