MODEL 1
REMARK VINA RESULT:      -6.3      0.000      0.000
REMARK SMILES NS(=O)(=O)c1ccc(-n2nc(C(=O)NCCCCCCCCCCC(=O)OCCOCCOCCOC(=O)c3ccc(-c4c5nc(c(-c6cc(S(=O)(=O)[O-])ccc6F)c6ccc([nH]6)c(-c6cc(S(=O)(=O)[O-])ccc6F)c6nc(c(-c7cc(S(=O)(=O)[O-])ccc7F)c7ccc4[nH]7)C=C6)C=C5)cc3)cc2-c2ccccc2)cc1
REMARK SMILES IDX 25 1 26 2 24 3 23 4 22 5 21 6 20 7 19 8 18 9 17 10 16 11
REMARK SMILES IDX 15 12 14 13 12 14 13 15 11 17 9 18 10 19 103 20 102 21 8 22
REMARK SMILES IDX 5 23 6 24 111 25 7 26 110 27 2 28 3 29 4 30 1 31 104 34
REMARK SMILES IDX 105 35 109 36 106 37 108 38 107 39 27 40 28 41 29 42 30 43
REMARK SMILES IDX 31 44 32 45 33 46 34 47 35 48 36 49 37 50 38 51 39 52 40 53
REMARK SMILES IDX 101 54 41 55 100 56 42 57 43 58 44 59 94 60 45 61 99 62
REMARK SMILES IDX 93 63 95 64 46 65 98 66 92 67 91 68 47 70 79 71 59 72 78 73
REMARK SMILES IDX 60 74 63 75 77 76 96 77 61 78 62 79 76 81 97 82 64 83 48 84
REMARK SMILES IDX 49 85 57 86 50 87 56 88 58 89 55 90 51 91 52 92 53 93 54 94
REMARK SMILES IDX 80 95 81 96 89 97 82 98 88 99 90 100 87 101 83 102 84 103
REMARK SMILES IDX 85 104 86 105 65 106 66 107 74 108 67 109 73 110 75 111
REMARK SMILES IDX 72 112 68 113 69 114 70 115 71 116
REMARK H PARENT 14 16 1 32 1 33 95 69 63 80
REMARK Flexibility Score: inf
ROOT
ATOM      1  C   UNL A   1      38.834  34.748  34.037  1.00  0.00     0.305 C 
ATOM      2  O   UNL A   1      39.286  34.432  32.943  1.00  0.00    -0.252 OA
ENDROOT
BRANCH   1   3
ATOM      3  C   UNL A   1      39.718  34.920  35.265  1.00  0.00     0.123 C 
BRANCH   3   4
ATOM      4  C   UNL A   1      40.484  36.237  35.424  1.00  0.00     0.012 C 
BRANCH   4   5
ATOM      5  C   UNL A   1      41.250  36.387  36.739  1.00  0.00     0.001 C 
BRANCH   5   6
ATOM      6  C   UNL A   1      42.763  36.403  36.532  1.00  0.00     0.000 C 
BRANCH   6   7
ATOM      7  C   UNL A   1      43.445  37.466  37.395  1.00  0.00     0.000 C 
BRANCH   7   8
ATOM      8  C   UNL A   1      43.464  37.084  38.878  1.00  0.00     0.000 C 
BRANCH   8   9
ATOM      9  C   UNL A   1      42.095  36.602  39.373  1.00  0.00     0.000 C 
BRANCH   9  10
ATOM     10  C   UNL A   1      42.121  35.146  39.858  1.00  0.00     0.002 C 
BRANCH  10  11
ATOM     11  C   UNL A   1      40.796  34.420  39.604  1.00  0.00     0.021 C 
BRANCH  11  12
ATOM     12  C   UNL A   1      41.047  32.963  39.228  1.00  0.00     0.116 C 
BRANCH  12  13
ATOM     13  N   UNL A   1      42.404  32.618  39.574  1.00  0.00    -0.351 N 
ATOM     14  C   UNL A   1      43.396  31.997  38.859  1.00  0.00     0.271 C 
ATOM     15  O   UNL A   1      44.425  31.728  39.483  1.00  0.00    -0.267 OA
ATOM     16  H   UNL A   1      42.665  32.877  40.487  1.00  0.00     0.163 HD
BRANCH  14  17
ATOM     17  C   UNL A   1      43.251  31.745  37.411  1.00  0.00     0.151 A 
ATOM     18  N   UNL A   1      43.342  32.264  35.335  1.00  0.00    -0.232 N 
ATOM     19  N   UNL A   1      43.897  32.535  36.532  1.00  0.00    -0.162 NA
ATOM     20  C   UNL A   1      42.479  31.186  35.386  1.00  0.00     0.075 A 
ATOM     21  C   UNL A   1      42.519  30.765  36.697  1.00  0.00     0.065 A 
BRANCH  18  22
ATOM     22  C   UNL A   1      43.709  33.019  34.201  1.00  0.00     0.065 A 
ATOM     23  C   UNL A   1      44.288  34.326  31.835  1.00  0.00     0.082 A 
ATOM     24  C   UNL A   1      43.255  34.803  32.648  1.00  0.00     0.024 A 
ATOM     25  C   UNL A   1      45.062  33.225  32.218  1.00  0.00     0.024 A 
ATOM     26  C   UNL A   1      42.954  34.138  33.831  1.00  0.00     0.030 A 
ATOM     27  C   UNL A   1      44.792  32.587  33.428  1.00  0.00     0.030 A 
BRANCH  23  28
ATOM     28  S   UNL A   1      44.568  35.075  30.262  1.00  0.00     0.238 S 
ATOM     29  O   UNL A   1      45.959  35.417  30.138  1.00  0.00    -0.207 OA
ATOM     30  O   UNL A   1      43.497  36.017  30.003  1.00  0.00    -0.207 OA
BRANCH  28  31
ATOM     31  N   UNL A   1      44.335  33.799  29.192  1.00  0.00    -0.225 NA
ATOM     32  H   UNL A   1      45.118  33.148  29.263  1.00  0.00     0.137 HD
ATOM     33  H   UNL A   1      44.278  34.160  28.239  1.00  0.00     0.137 HD
ENDBRANCH  28  31
ENDBRANCH  23  28
ENDBRANCH  18  22
BRANCH  20  34
ATOM     34  C   UNL A   1      41.791  30.575  34.257  1.00  0.00     0.000 A 
ATOM     35  C   UNL A   1      41.184  31.370  33.280  1.00  0.00     0.010 A 
ATOM     36  C   UNL A   1      41.735  29.180  34.144  1.00  0.00     0.010 A 
ATOM     37  C   UNL A   1      40.508  30.778  32.214  1.00  0.00     0.001 A 
ATOM     38  C   UNL A   1      41.054  28.589  33.079  1.00  0.00     0.001 A 
ATOM     39  C   UNL A   1      40.439  29.389  32.117  1.00  0.00     0.000 A 
ENDBRANCH  20  34
ENDBRANCH  14  17
ENDBRANCH  12  13
ENDBRANCH  11  12
ENDBRANCH  10  11
ENDBRANCH   9  10
ENDBRANCH   8   9
ENDBRANCH   7   8
ENDBRANCH   6   7
ENDBRANCH   5   6
ENDBRANCH   4   5
ENDBRANCH   3   4
ENDBRANCH   1   3
BRANCH   1  40
ATOM     40  O   UNL A   1      37.541  35.058  34.281  1.00  0.00    -0.463 OA
BRANCH  40  41
ATOM     41  C   UNL A   1      36.742  34.142  35.042  1.00  0.00     0.261 C 
BRANCH  41  42
ATOM     42  C   UNL A   1      35.547  33.606  34.241  1.00  0.00     0.202 C 
BRANCH  42  43
ATOM     43  O   UNL A   1      35.871  32.785  33.117  1.00  0.00    -0.376 OA
BRANCH  43  44
ATOM     44  C   UNL A   1      36.816  31.731  33.337  1.00  0.00     0.188 C 
BRANCH  44  45
ATOM     45  C   UNL A   1      37.245  30.962  32.083  1.00  0.00     0.188 C 
BRANCH  45  46
ATOM     46  O   UNL A   1      36.259  30.035  31.652  1.00  0.00    -0.376 OA
BRANCH  46  47
ATOM     47  C   UNL A   1      35.690  30.097  30.349  1.00  0.00     0.202 C 
BRANCH  47  48
ATOM     48  C   UNL A   1      35.952  31.245  29.368  1.00  0.00     0.261 C 
BRANCH  48  49
ATOM     49  O   UNL A   1      36.822  30.984  28.284  1.00  0.00    -0.460 OA
BRANCH  49  50
ATOM     50  C   UNL A   1      37.029  29.714  27.882  1.00  0.00     0.338 C 
ATOM     51  O   UNL A   1      36.316  29.042  27.165  1.00  0.00    -0.246 OA
BRANCH  50  52
ATOM     52  C   UNL A   1      38.331  29.324  28.461  1.00  0.00     0.060 A 
ATOM     53  C   UNL A   1      39.348  30.273  28.488  1.00  0.00     0.016 A 
ATOM     54  C   UNL A   1      38.574  27.980  28.803  1.00  0.00     0.016 A 
ATOM     55  C   UNL A   1      40.648  29.819  28.564  1.00  0.00     0.010 A 
ATOM     56  C   UNL A   1      39.866  27.527  28.859  1.00  0.00     0.010 A 
ATOM     57  C   UNL A   1      40.884  28.439  28.617  1.00  0.00    -0.014 A 
BRANCH  57  58
ATOM     58  C   UNL A   1      42.241  27.943  28.511  1.00  0.00     0.031 A 
ATOM     59  C   UNL A   1      42.298  26.730  27.678  1.00  0.00     0.074 A 
ATOM     60  C   UNL A   1      43.298  28.584  29.052  1.00  0.00     0.049 A 
ATOM     61  N   UNL A   1      42.327  25.512  28.104  1.00  0.00    -0.248 NA
ATOM     62  C   UNL A   1      42.016  26.848  26.238  1.00  0.00     0.031 C 
ATOM     63  C   UNL A   1      43.307  29.900  29.704  1.00  0.00     0.029 A 
ATOM     64  N   UNL A   1      44.615  28.228  29.084  1.00  0.00    -0.354 N 
ATOM     65  C   UNL A   1      42.414  24.738  26.956  1.00  0.00     0.074 A 
ATOM     66  C   UNL A   1      41.918  25.562  25.892  1.00  0.00     0.031 C 
ATOM     67  C   UNL A   1      44.585  30.317  29.875  1.00  0.00     0.029 A 
ATOM     68  C   UNL A   1      45.488  29.244  29.483  1.00  0.00     0.049 A 
ATOM     69  H   UNL A   1      44.926  27.325  28.843  1.00  0.00     0.167 HD
ATOM     70  C   UNL A   1      43.245  23.661  26.938  1.00  0.00     0.034 A 
ATOM     71  C   UNL A   1      46.851  29.202  29.499  1.00  0.00     0.034 A 
ATOM     72  C   UNL A   1      43.642  23.318  28.288  1.00  0.00     0.049 A 
ATOM     73  C   UNL A   1      47.221  27.774  29.603  1.00  0.00     0.074 A 
ATOM     74  C   UNL A   1      43.037  22.764  29.396  1.00  0.00     0.029 A 
ATOM     75  N   UNL A   1      44.768  23.975  28.726  1.00  0.00    -0.354 N 
ATOM     76  N   UNL A   1      46.947  27.056  30.657  1.00  0.00    -0.248 NA
ATOM     77  C   UNL A   1      47.503  27.010  28.392  1.00  0.00     0.031 C 
ATOM     78  C   UNL A   1      43.722  23.298  30.528  1.00  0.00     0.029 A 
ATOM     79  C   UNL A   1      44.768  24.110  30.090  1.00  0.00     0.049 A 
ATOM     80  H   UNL A   1      45.482  24.307  28.136  1.00  0.00     0.167 HD
ATOM     81  C   UNL A   1      46.577  25.825  30.151  1.00  0.00     0.074 A 
ATOM     82  C   UNL A   1      47.111  25.795  28.794  1.00  0.00     0.031 C 
ATOM     83  C   UNL A   1      45.606  25.089  30.765  1.00  0.00     0.034 A 
BRANCH  70  84
ATOM     84  C   UNL A   1      44.106  23.255  25.752  1.00  0.00     0.023 A 
ATOM     85  C   UNL A   1      44.106  21.888  25.409  1.00  0.00     0.031 A 
ATOM     86  C   UNL A   1      45.122  24.033  25.148  1.00  0.00     0.131 A 
ATOM     87  C   UNL A   1      45.118  21.343  24.600  1.00  0.00     0.055 A 
ATOM     88  C   UNL A   1      46.097  23.495  24.305  1.00  0.00     0.041 A 
ATOM     89  F   UNL A   1      45.297  25.335  25.397  1.00  0.00    -0.206 F 
ATOM     90  C   UNL A   1      46.117  22.138  24.048  1.00  0.00     0.022 A 
BRANCH  87  91
ATOM     91  S   UNL A   1      45.196  19.546  24.402  1.00  0.00     0.124 S 
ATOM     92  O   UNL A   1      44.549  19.360  23.108  1.00  0.00    -0.237 OA
ATOM     93  O   UNL A   1      46.634  19.302  24.448  1.00  0.00    -0.237 OA
ATOM     94  O   UNL A   1      44.444  19.047  25.552  1.00  0.00    -0.744 OA
ENDBRANCH  87  91
ENDBRANCH  70  84
BRANCH  71  95
ATOM     95  C   UNL A   1      47.834  30.269  29.144  1.00  0.00     0.023 A 
ATOM     96  C   UNL A   1      47.672  31.160  28.055  1.00  0.00     0.031 A 
ATOM     97  C   UNL A   1      48.832  30.602  30.086  1.00  0.00     0.131 A 
ATOM     98  C   UNL A   1      48.474  32.328  27.956  1.00  0.00     0.055 A 
ATOM     99  C   UNL A   1      49.610  31.759  29.990  1.00  0.00     0.041 A 
ATOM    100  F   UNL A   1      49.019  29.857  31.186  1.00  0.00    -0.206 F 
ATOM    101  C   UNL A   1      49.425  32.634  28.931  1.00  0.00     0.022 A 
BRANCH  98 102
ATOM    102  S   UNL A   1      48.244  33.525  26.593  1.00  0.00     0.124 S 
ATOM    103  O   UNL A   1      46.941  33.147  26.060  1.00  0.00    -0.237 OA
ATOM    104  O   UNL A   1      48.318  34.807  27.283  1.00  0.00    -0.237 OA
ATOM    105  O   UNL A   1      49.371  33.249  25.700  1.00  0.00    -0.744 OA
ENDBRANCH  98 102
ENDBRANCH  71  95
BRANCH  83 106
ATOM    106  C   UNL A   1      45.329  25.390  32.219  1.00  0.00     0.023 A 
ATOM    107  C   UNL A   1      46.080  24.911  33.316  1.00  0.00     0.031 A 
ATOM    108  C   UNL A   1      44.248  26.246  32.490  1.00  0.00     0.131 A 
ATOM    109  C   UNL A   1      45.725  25.288  34.628  1.00  0.00     0.055 A 
ATOM    110  C   UNL A   1      43.915  26.636  33.784  1.00  0.00     0.041 A 
ATOM    111  F   UNL A   1      43.504  26.740  31.486  1.00  0.00    -0.206 F 
ATOM    112  C   UNL A   1      44.649  26.153  34.860  1.00  0.00     0.022 A 
BRANCH 109 113
ATOM    113  S   UNL A   1      46.642  24.641  36.064  1.00  0.00     0.124 S 
ATOM    114  O   UNL A   1      48.039  24.853  35.701  1.00  0.00    -0.237 OA
ATOM    115  O   UNL A   1      46.136  25.463  37.160  1.00  0.00    -0.237 OA
ATOM    116  O   UNL A   1      46.235  23.236  36.125  1.00  0.00    -0.744 OA
ENDBRANCH 109 113
ENDBRANCH  83 106
ENDBRANCH  57  58
ENDBRANCH  50  52
ENDBRANCH  49  50
ENDBRANCH  48  49
ENDBRANCH  47  48
ENDBRANCH  46  47
ENDBRANCH  45  46
ENDBRANCH  44  45
ENDBRANCH  43  44
ENDBRANCH  42  43
ENDBRANCH  41  42
ENDBRANCH  40  41
ENDBRANCH   1  40
TORSDOF 35
ENDMDL
MODEL 2
REMARK VINA RESULT:      -5.8      3.595      5.166
REMARK SMILES NS(=O)(=O)c1ccc(-n2nc(C(=O)NCCCCCCCCCCC(=O)OCCOCCOCCOC(=O)c3ccc(-c4c5nc(c(-c6cc(S(=O)(=O)[O-])ccc6F)c6ccc([nH]6)c(-c6cc(S(=O)(=O)[O-])ccc6F)c6nc(c(-c7cc(S(=O)(=O)[O-])ccc7F)c7ccc4[nH]7)C=C6)C=C5)cc3)cc2-c2ccccc2)cc1
REMARK SMILES IDX 25 1 26 2 24 3 23 4 22 5 21 6 20 7 19 8 18 9 17 10 16 11
REMARK SMILES IDX 15 12 14 13 12 14 13 15 11 17 9 18 10 19 103 20 102 21 8 22
REMARK SMILES IDX 5 23 6 24 111 25 7 26 110 27 2 28 3 29 4 30 1 31 104 34
REMARK SMILES IDX 105 35 109 36 106 37 108 38 107 39 27 40 28 41 29 42 30 43
REMARK SMILES IDX 31 44 32 45 33 46 34 47 35 48 36 49 37 50 38 51 39 52 40 53
REMARK SMILES IDX 101 54 41 55 100 56 42 57 43 58 44 59 94 60 45 61 99 62
REMARK SMILES IDX 93 63 95 64 46 65 98 66 92 67 91 68 47 70 79 71 59 72 78 73
REMARK SMILES IDX 60 74 63 75 77 76 96 77 61 78 62 79 76 81 97 82 64 83 48 84
REMARK SMILES IDX 49 85 57 86 50 87 56 88 58 89 55 90 51 91 52 92 53 93 54 94
REMARK SMILES IDX 80 95 81 96 89 97 82 98 88 99 90 100 87 101 83 102 84 103
REMARK SMILES IDX 85 104 86 105 65 106 66 107 74 108 67 109 73 110 75 111
REMARK SMILES IDX 72 112 68 113 69 114 70 115 71 116
REMARK H PARENT 14 16 1 32 1 33 95 69 63 80
REMARK Flexibility Score: inf
ROOT
ATOM      1  C   UNL A   1      38.754  34.405  34.406  1.00  0.00     0.305 C 
ATOM      2  O   UNL A   1      39.693  34.587  33.640  1.00  0.00    -0.252 OA
ENDROOT
BRANCH   1   3
ATOM      3  C   UNL A   1      38.883  33.560  35.666  1.00  0.00     0.123 C 
BRANCH   3   4
ATOM      4  C   UNL A   1      38.889  34.279  37.019  1.00  0.00     0.012 C 
BRANCH   4   5
ATOM      5  C   UNL A   1      40.244  34.840  37.449  1.00  0.00     0.001 C 
BRANCH   5   6
ATOM      6  C   UNL A   1      40.418  36.305  37.056  1.00  0.00     0.000 C 
BRANCH   6   7
ATOM      7  C   UNL A   1      41.285  36.463  35.806  1.00  0.00     0.000 C 
BRANCH   7   8
ATOM      8  C   UNL A   1      42.671  35.836  35.979  1.00  0.00     0.000 C 
BRANCH   8   9
ATOM      9  C   UNL A   1      43.568  36.655  36.915  1.00  0.00     0.000 C 
BRANCH   9  10
ATOM     10  C   UNL A   1      45.061  36.486  36.602  1.00  0.00     0.002 C 
BRANCH  10  11
ATOM     11  C   UNL A   1      45.618  37.638  35.761  1.00  0.00     0.021 C 
BRANCH  11  12
ATOM     12  C   UNL A   1      46.277  37.106  34.492  1.00  0.00     0.116 C 
BRANCH  12  13
ATOM     13  N   UNL A   1      45.283  36.420  33.704  1.00  0.00    -0.351 N 
ATOM     14  C   UNL A   1      44.264  36.888  32.915  1.00  0.00     0.271 C 
ATOM     15  O   UNL A   1      43.494  36.037  32.462  1.00  0.00    -0.267 OA
ATOM     16  H   UNL A   1      45.350  35.438  33.736  1.00  0.00     0.163 HD
BRANCH  14  17
ATOM     17  C   UNL A   1      44.157  38.321  32.576  1.00  0.00     0.151 A 
ATOM     18  N   UNL A   1      44.790  40.146  31.649  1.00  0.00    -0.232 N 
ATOM     19  N   UNL A   1      44.837  38.807  31.520  1.00  0.00    -0.162 NA
ATOM     20  C   UNL A   1      43.939  40.547  32.662  1.00  0.00     0.075 A 
ATOM     21  C   UNL A   1      43.427  39.377  33.176  1.00  0.00     0.065 A 
BRANCH  18  22
ATOM     22  C   UNL A   1      45.520  40.966  30.763  1.00  0.00     0.065 A 
ATOM     23  C   UNL A   1      47.121  42.369  29.000  1.00  0.00     0.082 A 
ATOM     24  C   UNL A   1      45.963  41.744  28.528  1.00  0.00     0.024 A 
ATOM     25  C   UNL A   1      47.461  42.335  30.357  1.00  0.00     0.024 A 
ATOM     26  C   UNL A   1      45.166  41.026  29.411  1.00  0.00     0.030 A 
ATOM     27  C   UNL A   1      46.636  41.656  31.252  1.00  0.00     0.030 A 
BRANCH  23  28
ATOM     28  S   UNL A   1      48.214  43.149  27.854  1.00  0.00     0.238 S 
ATOM     29  O   UNL A   1      48.653  44.407  28.394  1.00  0.00    -0.207 OA
ATOM     30  O   UNL A   1      47.658  43.011  26.522  1.00  0.00    -0.207 OA
BRANCH  28  31
ATOM     31  N   UNL A   1      49.571  42.157  27.897  1.00  0.00    -0.225 NA
ATOM     32  H   UNL A   1      50.380  42.672  27.547  1.00  0.00     0.137 HD
ATOM     33  H   UNL A   1      49.412  41.336  27.313  1.00  0.00     0.137 HD
ENDBRANCH  28  31
ENDBRANCH  23  28
ENDBRANCH  18  22
BRANCH  20  34
ATOM     34  C   UNL A   1      43.587  41.919  33.002  1.00  0.00     0.000 A 
ATOM     35  C   UNL A   1      42.563  42.581  32.316  1.00  0.00     0.010 A 
ATOM     36  C   UNL A   1      44.276  42.586  34.022  1.00  0.00     0.010 A 
ATOM     37  C   UNL A   1      42.246  43.901  32.632  1.00  0.00     0.001 A 
ATOM     38  C   UNL A   1      43.961  43.909  34.334  1.00  0.00     0.001 A 
ATOM     39  C   UNL A   1      42.949  44.566  33.637  1.00  0.00     0.000 A 
ENDBRANCH  20  34
ENDBRANCH  14  17
ENDBRANCH  12  13
ENDBRANCH  11  12
ENDBRANCH  10  11
ENDBRANCH   9  10
ENDBRANCH   8   9
ENDBRANCH   7   8
ENDBRANCH   6   7
ENDBRANCH   5   6
ENDBRANCH   4   5
ENDBRANCH   3   4
ENDBRANCH   1   3
BRANCH   1  40
ATOM     40  O   UNL A   1      37.536  34.976  34.286  1.00  0.00    -0.463 OA
BRANCH  40  41
ATOM     41  C   UNL A   1      36.374  34.206  34.627  1.00  0.00     0.261 C 
BRANCH  41  42
ATOM     42  C   UNL A   1      35.553  33.812  33.391  1.00  0.00     0.202 C 
BRANCH  42  43
ATOM     43  O   UNL A   1      36.123  32.795  32.564  1.00  0.00    -0.376 OA
BRANCH  43  44
ATOM     44  C   UNL A   1      36.576  31.607  33.223  1.00  0.00     0.188 C 
BRANCH  44  45
ATOM     45  C   UNL A   1      37.265  30.579  32.319  1.00  0.00     0.188 C 
BRANCH  45  46
ATOM     46  O   UNL A   1      36.348  29.654  31.753  1.00  0.00    -0.376 OA
BRANCH  46  47
ATOM     47  C   UNL A   1      35.898  29.771  30.408  1.00  0.00     0.202 C 
BRANCH  47  48
ATOM     48  C   UNL A   1      35.892  31.094  29.633  1.00  0.00     0.261 C 
BRANCH  48  49
ATOM     49  O   UNL A   1      36.818  31.228  28.574  1.00  0.00    -0.460 OA
BRANCH  49  50
ATOM     50  C   UNL A   1      37.125  30.158  27.813  1.00  0.00     0.338 C 
ATOM     51  O   UNL A   1      36.576  29.797  26.793  1.00  0.00    -0.246 OA
BRANCH  50  52
ATOM     52  C   UNL A   1      38.303  29.541  28.457  1.00  0.00     0.060 A 
ATOM     53  C   UNL A   1      39.281  30.382  28.980  1.00  0.00     0.016 A 
ATOM     54  C   UNL A   1      38.500  28.150  28.376  1.00  0.00     0.016 A 
ATOM     55  C   UNL A   1      40.552  29.868  29.137  1.00  0.00     0.010 A 
ATOM     56  C   UNL A   1      39.767  27.644  28.513  1.00  0.00     0.010 A 
ATOM     57  C   UNL A   1      40.796  28.537  28.774  1.00  0.00    -0.014 A 
BRANCH  57  58
ATOM     58  C   UNL A   1      42.157  28.042  28.759  1.00  0.00     0.031 A 
ATOM     59  C   UNL A   1      42.282  26.861  27.888  1.00  0.00     0.074 A 
ATOM     60  C   UNL A   1      43.168  28.658  29.408  1.00  0.00     0.049 A 
ATOM     61  N   UNL A   1      42.276  25.627  28.269  1.00  0.00    -0.248 NA
ATOM     62  C   UNL A   1      42.117  27.034  26.435  1.00  0.00     0.031 C 
ATOM     63  C   UNL A   1      43.124  29.949  30.107  1.00  0.00     0.029 A 
ATOM     64  N   UNL A   1      44.478  28.297  29.531  1.00  0.00    -0.354 N 
ATOM     65  C   UNL A   1      42.455  24.897  27.103  1.00  0.00     0.074 A 
ATOM     66  C   UNL A   1      42.046  25.762  26.034  1.00  0.00     0.031 C 
ATOM     67  C   UNL A   1      44.385  30.355  30.396  1.00  0.00     0.029 A 
ATOM     68  C   UNL A   1      45.315  29.295  30.038  1.00  0.00     0.049 A 
ATOM     69  H   UNL A   1      44.807  27.403  29.282  1.00  0.00     0.167 HD
ATOM     70  C   UNL A   1      43.285  23.819  27.110  1.00  0.00     0.034 A 
ATOM     71  C   UNL A   1      46.673  29.248  30.162  1.00  0.00     0.034 A 
ATOM     72  C   UNL A   1      43.572  23.424  28.475  1.00  0.00     0.049 A 
ATOM     73  C   UNL A   1      47.033  27.816  30.241  1.00  0.00     0.074 A 
ATOM     74  C   UNL A   1      42.879  22.831  29.508  1.00  0.00     0.029 A 
ATOM     75  N   UNL A   1      44.659  24.060  29.026  1.00  0.00    -0.354 N 
ATOM     76  N   UNL A   1      46.675  27.060  31.241  1.00  0.00    -0.248 NA
ATOM     77  C   UNL A   1      47.412  27.097  29.029  1.00  0.00     0.031 C 
ATOM     78  C   UNL A   1      43.471  23.320  30.711  1.00  0.00     0.029 A 
ATOM     79  C   UNL A   1      44.549  24.144  30.390  1.00  0.00     0.049 A 
ATOM     80  H   UNL A   1      45.418  24.412  28.508  1.00  0.00     0.167 HD
ATOM     81  C   UNL A   1      46.347  25.849  30.662  1.00  0.00     0.074 A 
ATOM     82  C   UNL A   1      46.989  25.870  29.352  1.00  0.00     0.031 C 
ATOM     83  C   UNL A   1      45.329  25.094  31.167  1.00  0.00     0.034 A 
BRANCH  70  84
ATOM     84  C   UNL A   1      44.238  23.455  25.984  1.00  0.00     0.023 A 
ATOM     85  C   UNL A   1      44.141  22.147  25.470  1.00  0.00     0.031 A 
ATOM     86  C   UNL A   1      45.395  24.175  25.599  1.00  0.00     0.131 A 
ATOM     87  C   UNL A   1      45.183  21.585  24.712  1.00  0.00     0.055 A 
ATOM     88  C   UNL A   1      46.406  23.627  24.805  1.00  0.00     0.041 A 
ATOM     89  F   UNL A   1      45.671  25.409  26.031  1.00  0.00    -0.206 F 
ATOM     90  C   UNL A   1      46.318  22.317  24.379  1.00  0.00     0.022 A 
BRANCH  87  91
ATOM     91  S   UNL A   1      45.100  19.826  24.294  1.00  0.00     0.124 S 
ATOM     92  O   UNL A   1      44.222  19.312  25.339  1.00  0.00    -0.237 OA
ATOM     93  O   UNL A   1      44.545  19.866  22.945  1.00  0.00    -0.237 OA
ATOM     94  O   UNL A   1      46.493  19.393  24.380  1.00  0.00    -0.744 OA
ENDBRANCH  87  91
ENDBRANCH  70  84
BRANCH  71  95
ATOM     95  C   UNL A   1      47.682  30.324  29.928  1.00  0.00     0.023 A 
ATOM     96  C   UNL A   1      48.278  30.586  28.670  1.00  0.00     0.031 A 
ATOM     97  C   UNL A   1      47.852  31.312  30.922  1.00  0.00     0.131 A 
ATOM     98  C   UNL A   1      48.986  31.797  28.448  1.00  0.00     0.055 A 
ATOM     99  C   UNL A   1      48.540  32.507  30.694  1.00  0.00     0.041 A 
ATOM    100  F   UNL A   1      47.272  31.188  32.126  1.00  0.00    -0.206 F 
ATOM    101  C   UNL A   1      49.099  32.761  29.451  1.00  0.00     0.022 A 
BRANCH  98 102
ATOM    102  S   UNL A   1      49.713  32.185  26.816  1.00  0.00     0.124 S 
ATOM    103  O   UNL A   1      48.593  32.795  26.109  1.00  0.00    -0.237 OA
ATOM    104  O   UNL A   1      50.819  33.069  27.166  1.00  0.00    -0.237 OA
ATOM    105  O   UNL A   1      50.120  30.877  26.301  1.00  0.00    -0.744 OA
ENDBRANCH  98 102
ENDBRANCH  71  95
BRANCH  83 106
ATOM    106  C   UNL A   1      44.936  25.341  32.604  1.00  0.00     0.023 A 
ATOM    107  C   UNL A   1      43.877  26.171  33.036  1.00  0.00     0.031 A 
ATOM    108  C   UNL A   1      45.674  24.657  33.585  1.00  0.00     0.131 A 
ATOM    109  C   UNL A   1      43.601  26.297  34.413  1.00  0.00     0.055 A 
ATOM    110  C   UNL A   1      45.384  24.765  34.943  1.00  0.00     0.041 A 
ATOM    111  F   UNL A   1      46.686  23.846  33.232  1.00  0.00    -0.206 F 
ATOM    112  C   UNL A   1      44.349  25.591  35.363  1.00  0.00     0.022 A 
BRANCH 109 113
ATOM    113  S   UNL A   1      42.277  27.403  35.002  1.00  0.00     0.124 S 
ATOM    114  O   UNL A   1      42.674  27.713  36.370  1.00  0.00    -0.237 OA
ATOM    115  O   UNL A   1      42.344  28.510  34.051  1.00  0.00    -0.237 OA
ATOM    116  O   UNL A   1      41.070  26.581  34.889  1.00  0.00    -0.744 OA
ENDBRANCH 109 113
ENDBRANCH  83 106
ENDBRANCH  57  58
ENDBRANCH  50  52
ENDBRANCH  49  50
ENDBRANCH  48  49
ENDBRANCH  47  48
ENDBRANCH  46  47
ENDBRANCH  45  46
ENDBRANCH  44  45
ENDBRANCH  43  44
ENDBRANCH  42  43
ENDBRANCH  41  42
ENDBRANCH  40  41
ENDBRANCH   1  40
TORSDOF 35
ENDMDL
MODEL 3
REMARK VINA RESULT:      -5.7      3.141      8.769
REMARK SMILES NS(=O)(=O)c1ccc(-n2nc(C(=O)NCCCCCCCCCCC(=O)OCCOCCOCCOC(=O)c3ccc(-c4c5nc(c(-c6cc(S(=O)(=O)[O-])ccc6F)c6ccc([nH]6)c(-c6cc(S(=O)(=O)[O-])ccc6F)c6nc(c(-c7cc(S(=O)(=O)[O-])ccc7F)c7ccc4[nH]7)C=C6)C=C5)cc3)cc2-c2ccccc2)cc1
REMARK SMILES IDX 25 1 26 2 24 3 23 4 22 5 21 6 20 7 19 8 18 9 17 10 16 11
REMARK SMILES IDX 15 12 14 13 12 14 13 15 11 17 9 18 10 19 103 20 102 21 8 22
REMARK SMILES IDX 5 23 6 24 111 25 7 26 110 27 2 28 3 29 4 30 1 31 104 34
REMARK SMILES IDX 105 35 109 36 106 37 108 38 107 39 27 40 28 41 29 42 30 43
REMARK SMILES IDX 31 44 32 45 33 46 34 47 35 48 36 49 37 50 38 51 39 52 40 53
REMARK SMILES IDX 101 54 41 55 100 56 42 57 43 58 44 59 94 60 45 61 99 62
REMARK SMILES IDX 93 63 95 64 46 65 98 66 92 67 91 68 47 70 79 71 59 72 78 73
REMARK SMILES IDX 60 74 63 75 77 76 96 77 61 78 62 79 76 81 97 82 64 83 48 84
REMARK SMILES IDX 49 85 57 86 50 87 56 88 58 89 55 90 51 91 52 92 53 93 54 94
REMARK SMILES IDX 80 95 81 96 89 97 82 98 88 99 90 100 87 101 83 102 84 103
REMARK SMILES IDX 85 104 86 105 65 106 66 107 74 108 67 109 73 110 75 111
REMARK SMILES IDX 72 112 68 113 69 114 70 115 71 116
REMARK H PARENT 14 16 1 32 1 33 95 69 63 80
REMARK Flexibility Score: inf
ROOT
ATOM      1  C   UNL A   1      49.114  30.507  34.230  1.00  0.00     0.305 C 
ATOM      2  O   UNL A   1      49.283  30.521  35.444  1.00  0.00    -0.252 OA
ENDROOT
BRANCH   1   3
ATOM      3  C   UNL A   1      49.919  31.388  33.285  1.00  0.00     0.123 C 
BRANCH   3   4
ATOM      4  C   UNL A   1      49.282  31.783  31.949  1.00  0.00     0.012 C 
BRANCH   4   5
ATOM      5  C   UNL A   1      50.207  32.525  30.984  1.00  0.00     0.001 C 
BRANCH   5   6
ATOM      6  C   UNL A   1      51.118  33.519  31.702  1.00  0.00     0.000 C 
BRANCH   6   7
ATOM      7  C   UNL A   1      50.359  34.769  32.150  1.00  0.00     0.000 C 
BRANCH   7   8
ATOM      8  C   UNL A   1      50.679  35.155  33.597  1.00  0.00     0.000 C 
BRANCH   8   9
ATOM      9  C   UNL A   1      50.281  36.601  33.915  1.00  0.00     0.000 C 
BRANCH   9  10
ATOM     10  C   UNL A   1      49.897  36.799  35.388  1.00  0.00     0.002 C 
BRANCH  10  11
ATOM     11  C   UNL A   1      48.544  37.497  35.553  1.00  0.00     0.021 C 
BRANCH  11  12
ATOM     12  C   UNL A   1      47.409  36.579  35.111  1.00  0.00     0.116 C 
BRANCH  12  13
ATOM     13  N   UNL A   1      47.557  35.305  35.768  1.00  0.00    -0.351 N 
ATOM     14  C   UNL A   1      46.727  34.215  35.839  1.00  0.00     0.271 C 
ATOM     15  O   UNL A   1      47.086  33.308  36.594  1.00  0.00    -0.267 OA
ATOM     16  H   UNL A   1      48.406  35.197  36.253  1.00  0.00     0.163 HD
BRANCH  14  17
ATOM     17  C   UNL A   1      45.520  34.118  34.994  1.00  0.00     0.151 A 
ATOM     18  N   UNL A   1      43.473  33.638  34.585  1.00  0.00    -0.232 N 
ATOM     19  N   UNL A   1      44.310  34.007  35.574  1.00  0.00    -0.162 NA
ATOM     20  C   UNL A   1      44.073  33.685  33.342  1.00  0.00     0.075 A 
ATOM     21  C   UNL A   1      45.356  34.122  33.587  1.00  0.00     0.065 A 
BRANCH  18  22
ATOM     22  C   UNL A   1      42.133  33.311  34.882  1.00  0.00     0.065 A 
ATOM     23  C   UNL A   1      39.515  32.863  35.648  1.00  0.00     0.082 A 
ATOM     24  C   UNL A   1      39.776  33.637  34.513  1.00  0.00     0.024 A 
ATOM     25  C   UNL A   1      40.553  32.275  36.378  1.00  0.00     0.024 A 
ATOM     26  C   UNL A   1      41.092  33.875  34.137  1.00  0.00     0.030 A 
ATOM     27  C   UNL A   1      41.872  32.472  35.972  1.00  0.00     0.030 A 
BRANCH  23  28
ATOM     28  S   UNL A   1      37.852  32.691  36.215  1.00  0.00     0.238 S 
ATOM     29  O   UNL A   1      37.373  33.963  36.682  1.00  0.00    -0.207 OA
ATOM     30  O   UNL A   1      37.757  31.475  36.998  1.00  0.00    -0.207 OA
BRANCH  28  31
ATOM     31  N   UNL A   1      37.001  32.398  34.794  1.00  0.00    -0.225 NA
ATOM     32  H   UNL A   1      36.020  32.647  34.928  1.00  0.00     0.137 HD
ATOM     33  H   UNL A   1      37.070  31.409  34.554  1.00  0.00     0.137 HD
ENDBRANCH  28  31
ENDBRANCH  23  28
ENDBRANCH  18  22
BRANCH  20  34
ATOM     34  C   UNL A   1      43.426  33.442  32.060  1.00  0.00     0.000 A 
ATOM     35  C   UNL A   1      43.480  32.177  31.465  1.00  0.00     0.010 A 
ATOM     36  C   UNL A   1      42.743  34.479  31.413  1.00  0.00     0.010 A 
ATOM     37  C   UNL A   1      42.877  31.958  30.227  1.00  0.00     0.001 A 
ATOM     38  C   UNL A   1      42.144  34.260  30.172  1.00  0.00     0.001 A 
ATOM     39  C   UNL A   1      42.214  32.999  29.579  1.00  0.00     0.000 A 
ENDBRANCH  20  34
ENDBRANCH  14  17
ENDBRANCH  12  13
ENDBRANCH  11  12
ENDBRANCH  10  11
ENDBRANCH   9  10
ENDBRANCH   8   9
ENDBRANCH   7   8
ENDBRANCH   6   7
ENDBRANCH   5   6
ENDBRANCH   4   5
ENDBRANCH   3   4
ENDBRANCH   1   3
BRANCH   1  40
ATOM     40  O   UNL A   1      48.273  29.676  33.576  1.00  0.00    -0.463 OA
BRANCH  40  41
ATOM     41  C   UNL A   1      46.911  30.082  33.382  1.00  0.00     0.261 C 
BRANCH  41  42
ATOM     42  C   UNL A   1      46.189  30.352  34.711  1.00  0.00     0.202 C 
BRANCH  42  43
ATOM     43  O   UNL A   1      44.899  29.752  34.850  1.00  0.00    -0.376 OA
BRANCH  43  44
ATOM     44  C   UNL A   1      44.029  29.820  33.714  1.00  0.00     0.188 C 
BRANCH  44  45
ATOM     45  C   UNL A   1      42.582  29.386  33.970  1.00  0.00     0.188 C 
BRANCH  45  46
ATOM     46  O   UNL A   1      42.235  29.440  35.346  1.00  0.00    -0.376 OA
BRANCH  46  47
ATOM     47  C   UNL A   1      42.337  28.298  36.190  1.00  0.00     0.202 C 
BRANCH  47  48
ATOM     48  C   UNL A   1      42.982  26.979  35.750  1.00  0.00     0.261 C 
BRANCH  48  49
ATOM     49  O   UNL A   1      44.294  26.717  36.207  1.00  0.00    -0.460 OA
BRANCH  49  50
ATOM     50  C   UNL A   1      44.780  25.460  36.162  1.00  0.00     0.338 C 
ATOM     51  O   UNL A   1      44.674  24.597  37.009  1.00  0.00    -0.246 OA
BRANCH  50  52
ATOM     52  C   UNL A   1      45.431  25.336  34.842  1.00  0.00     0.060 A 
ATOM     53  C   UNL A   1      45.983  26.480  34.272  1.00  0.00     0.016 A 
ATOM     54  C   UNL A   1      45.330  24.133  34.118  1.00  0.00     0.016 A 
ATOM     55  C   UNL A   1      46.150  26.498  32.902  1.00  0.00     0.010 A 
ATOM     56  C   UNL A   1      45.478  24.157  32.755  1.00  0.00     0.010 A 
ATOM     57  C   UNL A   1      45.769  25.374  32.156  1.00  0.00    -0.014 A 
BRANCH  57  58
ATOM     58  C   UNL A   1      45.767  25.448  30.710  1.00  0.00     0.031 A 
ATOM     59  C   UNL A   1      46.911  26.233  30.217  1.00  0.00     0.074 A 
ATOM     60  C   UNL A   1      44.862  24.799  29.946  1.00  0.00     0.049 A 
ATOM     61  N   UNL A   1      46.890  27.475  29.866  1.00  0.00    -0.248 NA
ATOM     62  C   UNL A   1      48.268  25.686  30.385  1.00  0.00     0.031 C 
ATOM     63  C   UNL A   1      43.842  23.841  30.390  1.00  0.00     0.029 A 
ATOM     64  N   UNL A   1      44.695  24.805  28.592  1.00  0.00    -0.354 N 
ATOM     65  C   UNL A   1      48.184  27.745  29.446  1.00  0.00     0.074 A 
ATOM     66  C   UNL A   1      49.010  26.748  30.064  1.00  0.00     0.031 C 
ATOM     67  C   UNL A   1      43.310  23.209  29.315  1.00  0.00     0.029 A 
ATOM     68  C   UNL A   1      43.839  23.814  28.103  1.00  0.00     0.049 A 
ATOM     69  H   UNL A   1      45.143  25.457  28.006  1.00  0.00     0.167 HD
ATOM     70  C   UNL A   1      48.382  28.504  28.334  1.00  0.00     0.034 A 
ATOM     71  C   UNL A   1      43.580  23.519  26.796  1.00  0.00     0.034 A 
ATOM     72  C   UNL A   1      47.157  29.193  27.981  1.00  0.00     0.049 A 
ATOM     73  C   UNL A   1      43.861  24.752  26.029  1.00  0.00     0.074 A 
ATOM     74  C   UNL A   1      46.414  30.234  28.494  1.00  0.00     0.029 A 
ATOM     75  N   UNL A   1      46.331  28.476  27.147  1.00  0.00    -0.354 N 
ATOM     76  N   UNL A   1      43.156  25.841  26.174  1.00  0.00    -0.248 NA
ATOM     77  C   UNL A   1      45.173  24.943  25.421  1.00  0.00     0.031 C 
ATOM     78  C   UNL A   1      45.063  29.983  28.108  1.00  0.00     0.029 A 
ATOM     79  C   UNL A   1      45.019  28.837  27.315  1.00  0.00     0.049 A 
ATOM     80  H   UNL A   1      46.641  27.791  26.513  1.00  0.00     0.167 HD
ATOM     81  C   UNL A   1      44.083  26.864  26.112  1.00  0.00     0.074 A 
ATOM     82  C   UNL A   1      45.254  26.278  25.470  1.00  0.00     0.031 C 
ATOM     83  C   UNL A   1      43.926  27.986  26.873  1.00  0.00     0.034 A 
BRANCH  70  84
ATOM     84  C   UNL A   1      49.449  28.237  27.285  1.00  0.00     0.023 A 
ATOM     85  C   UNL A   1      50.277  29.322  26.936  1.00  0.00     0.031 A 
ATOM     86  C   UNL A   1      49.512  27.120  26.419  1.00  0.00     0.131 A 
ATOM     87  C   UNL A   1      51.029  29.308  25.747  1.00  0.00     0.055 A 
ATOM     88  C   UNL A   1      50.298  27.093  25.264  1.00  0.00     0.041 A 
ATOM     89  F   UNL A   1      48.761  26.026  26.574  1.00  0.00    -0.206 F 
ATOM     90  C   UNL A   1      51.041  28.201  24.906  1.00  0.00     0.022 A 
BRANCH  87  91
ATOM     91  S   UNL A   1      51.874  30.825  25.239  1.00  0.00     0.124 S 
ATOM     92  O   UNL A   1      52.019  30.620  23.802  1.00  0.00    -0.237 OA
ATOM     93  O   UNL A   1      50.923  31.851  25.653  1.00  0.00    -0.237 OA
ATOM     94  O   UNL A   1      53.120  30.788  26.002  1.00  0.00    -0.744 OA
ENDBRANCH  87  91
ENDBRANCH  70  84
BRANCH  71  95
ATOM     95  C   UNL A   1      43.390  22.188  26.146  1.00  0.00     0.023 A 
ATOM     96  C   UNL A   1      44.440  21.443  25.555  1.00  0.00     0.031 A 
ATOM     97  C   UNL A   1      42.177  21.500  26.367  1.00  0.00     0.131 A 
ATOM     98  C   UNL A   1      44.255  20.072  25.233  1.00  0.00     0.055 A 
ATOM     99  C   UNL A   1      42.005  20.148  26.059  1.00  0.00     0.041 A 
ATOM    100  F   UNL A   1      41.145  22.100  26.980  1.00  0.00    -0.206 F 
ATOM    101  C   UNL A   1      43.047  19.424  25.502  1.00  0.00     0.022 A 
BRANCH  98 102
ATOM    102  S   UNL A   1      45.612  19.072  24.525  1.00  0.00     0.124 S 
ATOM    103  O   UNL A   1      45.140  18.818  23.169  1.00  0.00    -0.237 OA
ATOM    104  O   UNL A   1      46.761  19.959  24.659  1.00  0.00    -0.237 OA
ATOM    105  O   UNL A   1      45.653  17.889  25.388  1.00  0.00    -0.744 OA
ENDBRANCH  98 102
ENDBRANCH  71  95
BRANCH  83 106
ATOM    106  C   UNL A   1      42.530  28.297  27.362  1.00  0.00     0.023 A 
ATOM    107  C   UNL A   1      42.108  28.278  28.710  1.00  0.00     0.031 A 
ATOM    108  C   UNL A   1      41.590  28.667  26.386  1.00  0.00     0.131 A 
ATOM    109  C   UNL A   1      40.776  28.612  29.032  1.00  0.00     0.055 A 
ATOM    110  C   UNL A   1      40.283  29.021  26.710  1.00  0.00     0.041 A 
ATOM    111  F   UNL A   1      41.939  28.713  25.089  1.00  0.00    -0.206 F 
ATOM    112  C   UNL A   1      39.869  28.988  28.035  1.00  0.00     0.022 A 
BRANCH 109 113
ATOM    113  S   UNL A   1      40.189  28.541  30.757  1.00  0.00     0.124 S 
ATOM    114  O   UNL A   1      41.223  27.772  31.438  1.00  0.00    -0.237 OA
ATOM    115  O   UNL A   1      40.099  29.953  31.119  1.00  0.00    -0.237 OA
ATOM    116  O   UNL A   1      38.896  27.861  30.649  1.00  0.00    -0.744 OA
ENDBRANCH 109 113
ENDBRANCH  83 106
ENDBRANCH  57  58
ENDBRANCH  50  52
ENDBRANCH  49  50
ENDBRANCH  48  49
ENDBRANCH  47  48
ENDBRANCH  46  47
ENDBRANCH  45  46
ENDBRANCH  44  45
ENDBRANCH  43  44
ENDBRANCH  42  43
ENDBRANCH  41  42
ENDBRANCH  40  41
ENDBRANCH   1  40
TORSDOF 35
ENDMDL
