MODEL 1
REMARK VINA RESULT:      -8.2      0.000      0.000
REMARK SMILES O=C(COCCNC(=O)[C@@H]1CCCCO1)OCCOCCOCCOC(=O)c1ccc(-c2c3nc(c(-c4cc(S(=O)(=O)[O-])ccc4F)c4ccc([nH]4)c(-c4cc(S(=O)(=O)[O-])ccc4F)c4nc(c(-c5cc(S(=O)(=O)[O-])ccc5F)c5ccc2[nH]5)C=C4)C=C3)cc1
REMARK SMILES IDX 20 1 19 2 18 3 17 4 16 5 2 6 1 7 3 8 4 9 5 10 6 11 7 12 8 13
REMARK SMILES IDX 9 15 10 16 11 17 15 18 12 19 14 20 13 21 21 22 22 23 23 24
REMARK SMILES IDX 24 25 25 26 26 27 27 28 28 29 29 30 90 31 30 32 89 33 31 34
REMARK SMILES IDX 32 35 33 36 83 37 34 38 88 39 82 40 84 41 35 42 87 43 81 44
REMARK SMILES IDX 80 45 36 47 68 48 48 49 67 50 49 51 52 52 66 53 85 54 50 55
REMARK SMILES IDX 51 56 65 58 86 59 53 60 37 61 38 62 46 63 39 64 45 65 47 66
REMARK SMILES IDX 44 67 40 68 41 69 42 70 43 71 69 72 70 73 78 74 71 75 77 76
REMARK SMILES IDX 79 77 76 78 72 79 73 80 74 81 75 82 54 83 55 84 63 85 56 86
REMARK SMILES IDX 62 87 64 88 61 89 57 90 58 91 59 92 60 93
REMARK H PARENT 7 14 84 46 52 57
REMARK Flexibility Score: inf
ROOT
ATOM      1  C   UNL A   1      32.775  28.118  24.372  1.00  0.00     0.188 C 
ENDROOT
BRANCH   1   2
ATOM      2  O   UNL A   1      32.113  29.253  23.812  1.00  0.00    -0.376 OA
BRANCH   2   3
ATOM      3  C   UNL A   1      31.370  30.105  24.681  1.00  0.00     0.202 C 
BRANCH   3   4
ATOM      4  C   UNL A   1      29.902  30.423  24.372  1.00  0.00     0.261 C 
BRANCH   4   5
ATOM      5  O   UNL A   1      29.459  30.626  23.020  1.00  0.00    -0.462 OA
BRANCH   5   6
ATOM      6  C   UNL A   1      28.912  29.698  22.215  1.00  0.00     0.332 C 
ATOM      7  O   UNL A   1      28.463  30.046  21.127  1.00  0.00    -0.250 OA
BRANCH   6   8
ATOM      8  C   UNL A   1      29.008  28.234  22.619  1.00  0.00     0.282 C 
BRANCH   8   9
ATOM      9  O   UNL A   1      27.893  27.690  23.302  1.00  0.00    -0.368 OA
BRANCH   9  10
ATOM     10  C   UNL A   1      28.171  26.521  24.077  1.00  0.00     0.182 C 
BRANCH  10  11
ATOM     11  C   UNL A   1      29.646  26.349  24.470  1.00  0.00     0.144 C 
BRANCH  11  12
ATOM     12  N   UNL A   1      30.168  25.012  24.244  1.00  0.00    -0.352 N 
ATOM     13  C   UNL A   1      31.112  24.233  24.823  1.00  0.00     0.249 C 
ATOM     14  H   UNL A   1      29.729  24.564  23.485  1.00  0.00     0.163 HD
ATOM     15  O   UNL A   1      31.260  23.128  24.277  1.00  0.00    -0.272 OA
BRANCH  13  16
ATOM     16  C   UNL A   1      32.010  24.594  26.044  1.00  0.00     0.207 C 
ATOM     17  C   UNL A   1      33.533  24.514  26.026  1.00  0.00     0.042 C 
ATOM     18  O   UNL A   1      31.518  24.052  27.278  1.00  0.00    -0.368 OA
ATOM     19  C   UNL A   1      34.116  23.169  26.455  1.00  0.00     0.006 C 
ATOM     20  C   UNL A   1      31.837  22.679  27.433  1.00  0.00     0.161 C 
ATOM     21  C   UNL A   1      33.336  22.496  27.579  1.00  0.00     0.029 C 
ENDBRANCH  13  16
ENDBRANCH  11  12
ENDBRANCH  10  11
ENDBRANCH   9  10
ENDBRANCH   8   9
ENDBRANCH   6   8
ENDBRANCH   5   6
ENDBRANCH   4   5
ENDBRANCH   3   4
ENDBRANCH   2   3
ENDBRANCH   1   2
BRANCH   1  22
ATOM     22  C   UNL A   1      32.945  28.189  25.891  1.00  0.00     0.188 C 
BRANCH  22  23
ATOM     23  O   UNL A   1      34.287  28.083  26.359  1.00  0.00    -0.376 OA
BRANCH  23  24
ATOM     24  C   UNL A   1      34.755  29.135  27.194  1.00  0.00     0.202 C 
BRANCH  24  25
ATOM     25  C   UNL A   1      33.922  30.422  27.227  1.00  0.00     0.261 C 
BRANCH  25  26
ATOM     26  O   UNL A   1      34.154  31.252  28.383  1.00  0.00    -0.460 OA
BRANCH  26  27
ATOM     27  C   UNL A   1      35.195  32.111  28.267  1.00  0.00     0.338 C 
ATOM     28  O   UNL A   1      35.221  33.144  27.602  1.00  0.00    -0.246 OA
BRANCH  27  29
ATOM     29  C   UNL A   1      36.337  31.701  29.100  1.00  0.00     0.060 A 
ATOM     30  C   UNL A   1      37.609  32.210  28.806  1.00  0.00     0.016 A 
ATOM     31  C   UNL A   1      36.193  30.653  30.012  1.00  0.00     0.016 A 
ATOM     32  C   UNL A   1      38.746  31.635  29.384  1.00  0.00     0.010 A 
ATOM     33  C   UNL A   1      37.334  30.076  30.586  1.00  0.00     0.010 A 
ATOM     34  C   UNL A   1      38.620  30.533  30.241  1.00  0.00    -0.014 A 
BRANCH  34  35
ATOM     35  C   UNL A   1      39.817  29.743  30.641  1.00  0.00     0.031 A 
ATOM     36  C   UNL A   1      40.601  30.168  31.857  1.00  0.00     0.074 A 
ATOM     37  C   UNL A   1      40.217  28.668  29.936  1.00  0.00     0.049 A 
ATOM     38  N   UNL A   1      41.732  29.703  32.326  1.00  0.00    -0.248 NA
ATOM     39  C   UNL A   1      40.033  31.274  32.643  1.00  0.00     0.031 C 
ATOM     40  C   UNL A   1      39.526  28.118  28.772  1.00  0.00     0.029 A 
ATOM     41  N   UNL A   1      41.315  27.858  30.091  1.00  0.00    -0.354 N 
ATOM     42  C   UNL A   1      42.017  30.462  33.458  1.00  0.00     0.074 A 
ATOM     43  C   UNL A   1      40.954  31.440  33.581  1.00  0.00     0.031 C 
ATOM     44  C   UNL A   1      40.229  27.072  28.304  1.00  0.00     0.029 A 
ATOM     45  C   UNL A   1      41.439  26.903  29.109  1.00  0.00     0.049 A 
ATOM     46  H   UNL A   1      41.954  27.952  30.834  1.00  0.00     0.167 HD
ATOM     47  C   UNL A   1      43.060  30.353  34.318  1.00  0.00     0.034 A 
ATOM     48  C   UNL A   1      42.429  26.019  28.866  1.00  0.00     0.034 A 
ATOM     49  C   UNL A   1      44.120  29.382  34.186  1.00  0.00     0.049 A 
ATOM     50  C   UNL A   1      43.631  25.975  29.781  1.00  0.00     0.074 A 
ATOM     51  C   UNL A   1      45.213  29.181  35.012  1.00  0.00     0.029 A 
ATOM     52  N   UNL A   1      44.230  28.456  33.156  1.00  0.00    -0.354 N 
ATOM     53  N   UNL A   1      43.891  26.701  30.843  1.00  0.00    -0.248 NA
ATOM     54  C   UNL A   1      44.672  24.986  29.463  1.00  0.00     0.031 C 
ATOM     55  C   UNL A   1      46.017  28.184  34.446  1.00  0.00     0.029 A 
ATOM     56  C   UNL A   1      45.387  27.708  33.308  1.00  0.00     0.049 A 
ATOM     57  H   UNL A   1      43.580  28.347  32.425  1.00  0.00     0.167 HD
ATOM     58  C   UNL A   1      45.106  26.230  31.339  1.00  0.00     0.074 A 
ATOM     59  C   UNL A   1      45.524  25.157  30.463  1.00  0.00     0.031 C 
ATOM     60  C   UNL A   1      45.806  26.643  32.426  1.00  0.00     0.034 A 
BRANCH  47  61
ATOM     61  C   UNL A   1      43.133  31.350  35.449  1.00  0.00     0.023 A 
ATOM     62  C   UNL A   1      43.788  32.587  35.308  1.00  0.00     0.031 A 
ATOM     63  C   UNL A   1      42.555  31.049  36.695  1.00  0.00     0.131 A 
ATOM     64  C   UNL A   1      43.907  33.445  36.413  1.00  0.00     0.055 A 
ATOM     65  C   UNL A   1      42.612  31.940  37.769  1.00  0.00     0.041 A 
ATOM     66  F   UNL A   1      41.934  29.876  36.895  1.00  0.00    -0.206 F 
ATOM     67  C   UNL A   1      43.304  33.139  37.635  1.00  0.00     0.022 A 
BRANCH  64  68
ATOM     68  S   UNL A   1      44.979  34.901  36.270  1.00  0.00     0.124 S 
ATOM     69  O   UNL A   1      44.003  35.968  36.063  1.00  0.00    -0.237 OA
ATOM     70  O   UNL A   1      45.675  34.908  37.551  1.00  0.00    -0.237 OA
ATOM     71  O   UNL A   1      45.814  34.598  35.108  1.00  0.00    -0.744 OA
ENDBRANCH  64  68
ENDBRANCH  47  61
BRANCH  48  72
ATOM     72  C   UNL A   1      42.367  25.129  27.670  1.00  0.00     0.023 A 
ATOM     73  C   UNL A   1      41.669  23.913  27.704  1.00  0.00     0.031 A 
ATOM     74  C   UNL A   1      43.063  25.459  26.494  1.00  0.00     0.131 A 
ATOM     75  C   UNL A   1      41.721  23.047  26.600  1.00  0.00     0.055 A 
ATOM     76  C   UNL A   1      43.071  24.617  25.380  1.00  0.00     0.041 A 
ATOM     77  F   UNL A   1      43.747  26.611  26.408  1.00  0.00    -0.206 F 
ATOM     78  C   UNL A   1      42.407  23.397  25.435  1.00  0.00     0.022 A 
BRANCH  75  79
ATOM     79  S   UNL A   1      40.939  21.415  26.735  1.00  0.00     0.124 S 
ATOM     80  O   UNL A   1      39.749  21.587  25.912  1.00  0.00    -0.237 OA
ATOM     81  O   UNL A   1      41.975  20.541  26.197  1.00  0.00    -0.237 OA
ATOM     82  O   UNL A   1      40.694  21.276  28.169  1.00  0.00    -0.744 OA
ENDBRANCH  75  79
ENDBRANCH  48  72
BRANCH  60  83
ATOM     83  C   UNL A   1      47.072  25.891  32.762  1.00  0.00     0.023 A 
ATOM     84  C   UNL A   1      47.087  24.826  33.680  1.00  0.00     0.031 A 
ATOM     85  C   UNL A   1      48.287  26.251  32.151  1.00  0.00     0.131 A 
ATOM     86  C   UNL A   1      48.299  24.191  33.997  1.00  0.00     0.055 A 
ATOM     87  C   UNL A   1      49.480  25.582  32.429  1.00  0.00     0.041 A 
ATOM     88  F   UNL A   1      48.333  27.262  31.268  1.00  0.00    -0.206 F 
ATOM     89  C   UNL A   1      49.493  24.553  33.365  1.00  0.00     0.022 A 
BRANCH  86  90
ATOM     90  S   UNL A   1      48.315  22.936  35.307  1.00  0.00     0.124 S 
ATOM     91  O   UNL A   1      47.477  23.555  36.331  1.00  0.00    -0.237 OA
ATOM     92  O   UNL A   1      47.744  21.773  34.634  1.00  0.00    -0.237 OA
ATOM     93  O   UNL A   1      49.730  22.817  35.654  1.00  0.00    -0.744 OA
ENDBRANCH  86  90
ENDBRANCH  60  83
ENDBRANCH  34  35
ENDBRANCH  27  29
ENDBRANCH  26  27
ENDBRANCH  25  26
ENDBRANCH  24  25
ENDBRANCH  23  24
ENDBRANCH  22  23
ENDBRANCH   1  22
TORSDOF 25
ENDMDL
MODEL 2
REMARK VINA RESULT:      -7.8      9.039     15.236
REMARK SMILES O=C(COCCNC(=O)[C@@H]1CCCCO1)OCCOCCOCCOC(=O)c1ccc(-c2c3nc(c(-c4cc(S(=O)(=O)[O-])ccc4F)c4ccc([nH]4)c(-c4cc(S(=O)(=O)[O-])ccc4F)c4nc(c(-c5cc(S(=O)(=O)[O-])ccc5F)c5ccc2[nH]5)C=C4)C=C3)cc1
REMARK SMILES IDX 20 1 19 2 18 3 17 4 16 5 2 6 1 7 3 8 4 9 5 10 6 11 7 12 8 13
REMARK SMILES IDX 9 15 10 16 11 17 15 18 12 19 14 20 13 21 21 22 22 23 23 24
REMARK SMILES IDX 24 25 25 26 26 27 27 28 28 29 29 30 90 31 30 32 89 33 31 34
REMARK SMILES IDX 32 35 33 36 83 37 34 38 88 39 82 40 84 41 35 42 87 43 81 44
REMARK SMILES IDX 80 45 36 47 68 48 48 49 67 50 49 51 52 52 66 53 85 54 50 55
REMARK SMILES IDX 51 56 65 58 86 59 53 60 37 61 38 62 46 63 39 64 45 65 47 66
REMARK SMILES IDX 44 67 40 68 41 69 42 70 43 71 69 72 70 73 78 74 71 75 77 76
REMARK SMILES IDX 79 77 76 78 72 79 73 80 74 81 75 82 54 83 55 84 63 85 56 86
REMARK SMILES IDX 62 87 64 88 61 89 57 90 58 91 59 92 60 93
REMARK H PARENT 7 14 84 46 52 57
REMARK Flexibility Score: inf
ROOT
ATOM      1  C   UNL A   1      47.753  41.738  27.116  1.00  0.00     0.188 C 
ENDROOT
BRANCH   1   2
ATOM      2  O   UNL A   1      46.340  41.845  26.933  1.00  0.00    -0.376 OA
BRANCH   2   3
ATOM      3  C   UNL A   1      45.759  41.261  25.769  1.00  0.00     0.202 C 
BRANCH   3   4
ATOM      4  C   UNL A   1      44.893  42.115  24.834  1.00  0.00     0.261 C 
BRANCH   4   5
ATOM      5  O   UNL A   1      43.523  42.405  25.156  1.00  0.00    -0.462 OA
BRANCH   5   6
ATOM      6  C   UNL A   1      42.446  42.070  24.423  1.00  0.00     0.332 C 
ATOM      7  O   UNL A   1      41.556  41.405  24.946  1.00  0.00    -0.250 OA
BRANCH   6   8
ATOM      8  C   UNL A   1      42.303  42.656  23.026  1.00  0.00     0.282 C 
BRANCH   8   9
ATOM      9  O   UNL A   1      42.235  41.731  21.955  1.00  0.00    -0.368 OA
BRANCH   9  10
ATOM     10  C   UNL A   1      42.912  42.137  20.763  1.00  0.00     0.182 C 
BRANCH  10  11
ATOM     11  C   UNL A   1      42.073  43.006  19.814  1.00  0.00     0.144 C 
BRANCH  11  12
ATOM     12  N   UNL A   1      42.557  43.025  18.444  1.00  0.00    -0.352 N 
ATOM     13  C   UNL A   1      43.285  43.882  17.690  1.00  0.00     0.249 C 
ATOM     14  H   UNL A   1      42.289  42.221  17.943  1.00  0.00     0.163 HD
ATOM     15  O   UNL A   1      43.451  43.506  16.518  1.00  0.00    -0.272 OA
BRANCH  13  16
ATOM     16  C   UNL A   1      43.885  45.250  18.132  1.00  0.00     0.207 C 
ATOM     17  C   UNL A   1      44.567  46.223  17.175  1.00  0.00     0.042 C 
ATOM     18  O   UNL A   1      44.646  45.160  19.344  1.00  0.00    -0.368 OA
ATOM     19  C   UNL A   1      46.073  46.024  17.016  1.00  0.00     0.006 C 
ATOM     20  C   UNL A   1      45.949  44.644  19.129  1.00  0.00     0.161 C 
ATOM     21  C   UNL A   1      46.775  45.614  18.306  1.00  0.00     0.029 C 
ENDBRANCH  13  16
ENDBRANCH  11  12
ENDBRANCH  10  11
ENDBRANCH   9  10
ENDBRANCH   8   9
ENDBRANCH   6   8
ENDBRANCH   5   6
ENDBRANCH   4   5
ENDBRANCH   3   4
ENDBRANCH   2   3
ENDBRANCH   1   2
BRANCH   1  22
ATOM     22  C   UNL A   1      48.164  40.701  28.162  1.00  0.00     0.188 C 
BRANCH  22  23
ATOM     23  O   UNL A   1      48.313  39.370  27.676  1.00  0.00    -0.376 OA
BRANCH  23  24
ATOM     24  C   UNL A   1      47.236  38.476  27.926  1.00  0.00     0.202 C 
BRANCH  24  25
ATOM     25  C   UNL A   1      46.920  37.443  26.837  1.00  0.00     0.261 C 
BRANCH  25  26
ATOM     26  O   UNL A   1      46.549  36.144  27.339  1.00  0.00    -0.460 OA
BRANCH  26  27
ATOM     27  C   UNL A   1      45.414  35.631  26.807  1.00  0.00     0.338 C 
ATOM     28  O   UNL A   1      45.219  35.356  25.626  1.00  0.00    -0.246 OA
BRANCH  27  29
ATOM     29  C   UNL A   1      44.398  35.366  27.838  1.00  0.00     0.060 A 
ATOM     30  C   UNL A   1      43.863  36.444  28.558  1.00  0.00     0.016 A 
ATOM     31  C   UNL A   1      44.145  34.054  28.246  1.00  0.00     0.016 A 
ATOM     32  C   UNL A   1      43.119  36.212  29.719  1.00  0.00     0.010 A 
ATOM     33  C   UNL A   1      43.403  33.826  29.413  1.00  0.00     0.010 A 
ATOM     34  C   UNL A   1      42.924  34.904  30.182  1.00  0.00    -0.014 A 
BRANCH  34  35
ATOM     35  C   UNL A   1      42.381  34.655  31.546  1.00  0.00     0.031 A 
ATOM     36  C   UNL A   1      40.890  34.503  31.723  1.00  0.00     0.074 A 
ATOM     37  C   UNL A   1      43.189  34.573  32.619  1.00  0.00     0.049 A 
ATOM     38  N   UNL A   1      40.188  34.393  32.822  1.00  0.00    -0.248 NA
ATOM     39  C   UNL A   1      40.088  34.481  30.491  1.00  0.00     0.031 C 
ATOM     40  C   UNL A   1      44.647  34.652  32.585  1.00  0.00     0.029 A 
ATOM     41  N   UNL A   1      42.889  34.423  33.951  1.00  0.00    -0.354 N 
ATOM     42  C   UNL A   1      38.860  34.295  32.418  1.00  0.00     0.074 A 
ATOM     43  C   UNL A   1      38.857  34.395  30.972  1.00  0.00     0.031 C 
ATOM     44  C   UNL A   1      45.116  34.570  33.843  1.00  0.00     0.029 A 
ATOM     45  C   UNL A   1      43.991  34.475  34.774  1.00  0.00     0.049 A 
ATOM     46  H   UNL A   1      41.973  34.292  34.287  1.00  0.00     0.167 HD
ATOM     47  C   UNL A   1      37.746  34.133  33.176  1.00  0.00     0.034 A 
ATOM     48  C   UNL A   1      44.080  34.480  36.120  1.00  0.00     0.034 A 
ATOM     49  C   UNL A   1      37.754  34.042  34.617  1.00  0.00     0.049 A 
ATOM     50  C   UNL A   1      42.821  34.393  36.951  1.00  0.00     0.074 A 
ATOM     51  C   UNL A   1      36.682  33.862  35.475  1.00  0.00     0.029 A 
ATOM     52  N   UNL A   1      38.886  34.137  35.415  1.00  0.00    -0.354 N 
ATOM     53  N   UNL A   1      41.571  34.308  36.557  1.00  0.00    -0.248 NA
ATOM     54  C   UNL A   1      42.988  34.400  38.412  1.00  0.00     0.031 C 
ATOM     55  C   UNL A   1      37.157  33.918  36.791  1.00  0.00     0.029 A 
ATOM     56  C   UNL A   1      38.534  34.054  36.754  1.00  0.00     0.049 A 
ATOM     57  H   UNL A   1      39.805  34.246  35.079  1.00  0.00     0.167 HD
ATOM     58  C   UNL A   1      40.810  34.214  37.721  1.00  0.00     0.074 A 
ATOM     59  C   UNL A   1      41.740  34.248  38.830  1.00  0.00     0.031 C 
ATOM     60  C   UNL A   1      39.465  34.098  37.858  1.00  0.00     0.034 A 
BRANCH  47  61
ATOM     61  C   UNL A   1      36.418  34.099  32.458  1.00  0.00     0.023 A 
ATOM     62  C   UNL A   1      35.511  35.171  32.524  1.00  0.00     0.031 A 
ATOM     63  C   UNL A   1      36.045  32.966  31.714  1.00  0.00     0.131 A 
ATOM     64  C   UNL A   1      34.251  35.060  31.915  1.00  0.00     0.055 A 
ATOM     65  C   UNL A   1      34.820  32.891  31.047  1.00  0.00     0.041 A 
ATOM     66  F   UNL A   1      36.862  31.903  31.631  1.00  0.00    -0.206 F 
ATOM     67  C   UNL A   1      33.910  33.937  31.158  1.00  0.00     0.022 A 
BRANCH  64  68
ATOM     68  S   UNL A   1      33.012  36.345  32.241  1.00  0.00     0.124 S 
ATOM     69  O   UNL A   1      31.813  35.546  32.481  1.00  0.00    -0.237 OA
ATOM     70  O   UNL A   1      33.569  37.031  33.401  1.00  0.00    -0.237 OA
ATOM     71  O   UNL A   1      32.995  37.124  31.004  1.00  0.00    -0.744 OA
ENDBRANCH  64  68
ENDBRANCH  47  61
BRANCH  48  72
ATOM     72  C   UNL A   1      45.407  34.629  36.785  1.00  0.00     0.023 A 
ATOM     73  C   UNL A   1      46.161  33.508  37.163  1.00  0.00     0.031 A 
ATOM     74  C   UNL A   1      45.908  35.902  37.110  1.00  0.00     0.131 A 
ATOM     75  C   UNL A   1      47.353  33.679  37.885  1.00  0.00     0.055 A 
ATOM     76  C   UNL A   1      47.118  36.069  37.785  1.00  0.00     0.041 A 
ATOM     77  F   UNL A   1      45.226  37.008  36.771  1.00  0.00    -0.206 F 
ATOM     78  C   UNL A   1      47.841  34.952  38.188  1.00  0.00     0.022 A 
BRANCH  75  79
ATOM     79  S   UNL A   1      48.220  32.207  38.495  1.00  0.00     0.124 S 
ATOM     80  O   UNL A   1      47.369  31.800  39.607  1.00  0.00    -0.237 OA
ATOM     81  O   UNL A   1      48.204  31.342  37.321  1.00  0.00    -0.237 OA
ATOM     82  O   UNL A   1      49.536  32.720  38.869  1.00  0.00    -0.744 OA
ENDBRANCH  75  79
ENDBRANCH  48  72
BRANCH  60  83
ATOM     83  C   UNL A   1      38.921  33.944  39.260  1.00  0.00     0.023 A 
ATOM     84  C   UNL A   1      38.694  32.683  39.838  1.00  0.00     0.031 A 
ATOM     85  C   UNL A   1      38.624  35.084  40.028  1.00  0.00     0.131 A 
ATOM     86  C   UNL A   1      38.140  32.592  41.126  1.00  0.00     0.055 A 
ATOM     87  C   UNL A   1      38.124  34.989  41.327  1.00  0.00     0.041 A 
ATOM     88  F   UNL A   1      38.819  36.315  39.526  1.00  0.00    -0.206 F 
ATOM     89  C   UNL A   1      37.868  33.737  41.879  1.00  0.00     0.022 A 
BRANCH  86  90
ATOM     90  S   UNL A   1      37.702  30.956  41.777  1.00  0.00     0.124 S 
ATOM     91  O   UNL A   1      36.484  31.244  42.529  1.00  0.00    -0.237 OA
ATOM     92  O   UNL A   1      37.528  30.171  40.560  1.00  0.00    -0.237 OA
ATOM     93  O   UNL A   1      38.859  30.588  42.590  1.00  0.00    -0.744 OA
ENDBRANCH  86  90
ENDBRANCH  60  83
ENDBRANCH  34  35
ENDBRANCH  27  29
ENDBRANCH  26  27
ENDBRANCH  25  26
ENDBRANCH  24  25
ENDBRANCH  23  24
ENDBRANCH  22  23
ENDBRANCH   1  22
TORSDOF 25
ENDMDL
MODEL 3
REMARK VINA RESULT:      -7.6      3.241      4.993
REMARK SMILES O=C(COCCNC(=O)[C@@H]1CCCCO1)OCCOCCOCCOC(=O)c1ccc(-c2c3nc(c(-c4cc(S(=O)(=O)[O-])ccc4F)c4ccc([nH]4)c(-c4cc(S(=O)(=O)[O-])ccc4F)c4nc(c(-c5cc(S(=O)(=O)[O-])ccc5F)c5ccc2[nH]5)C=C4)C=C3)cc1
REMARK SMILES IDX 20 1 19 2 18 3 17 4 16 5 2 6 1 7 3 8 4 9 5 10 6 11 7 12 8 13
REMARK SMILES IDX 9 15 10 16 11 17 15 18 12 19 14 20 13 21 21 22 22 23 23 24
REMARK SMILES IDX 24 25 25 26 26 27 27 28 28 29 29 30 90 31 30 32 89 33 31 34
REMARK SMILES IDX 32 35 33 36 83 37 34 38 88 39 82 40 84 41 35 42 87 43 81 44
REMARK SMILES IDX 80 45 36 47 68 48 48 49 67 50 49 51 52 52 66 53 85 54 50 55
REMARK SMILES IDX 51 56 65 58 86 59 53 60 37 61 38 62 46 63 39 64 45 65 47 66
REMARK SMILES IDX 44 67 40 68 41 69 42 70 43 71 69 72 70 73 78 74 71 75 77 76
REMARK SMILES IDX 79 77 76 78 72 79 73 80 74 81 75 82 54 83 55 84 63 85 56 86
REMARK SMILES IDX 62 87 64 88 61 89 57 90 58 91 59 92 60 93
REMARK H PARENT 7 14 84 46 52 57
REMARK Flexibility Score: inf
ROOT
ATOM      1  C   UNL A   1      33.592  34.387  29.780  1.00  0.00     0.188 C 
ENDROOT
BRANCH   1   2
ATOM      2  O   UNL A   1      33.779  33.885  28.456  1.00  0.00    -0.376 OA
BRANCH   2   3
ATOM      3  C   UNL A   1      35.108  33.765  27.955  1.00  0.00     0.202 C 
BRANCH   3   4
ATOM      4  C   UNL A   1      35.682  32.381  27.629  1.00  0.00     0.261 C 
BRANCH   4   5
ATOM      5  O   UNL A   1      35.395  31.247  28.464  1.00  0.00    -0.462 OA
BRANCH   5   6
ATOM      6  C   UNL A   1      35.354  29.961  28.072  1.00  0.00     0.332 C 
ATOM      7  O   UNL A   1      36.300  29.227  28.342  1.00  0.00    -0.250 OA
BRANCH   6   8
ATOM      8  C   UNL A   1      34.073  29.430  27.445  1.00  0.00     0.282 C 
BRANCH   8   9
ATOM      9  O   UNL A   1      34.057  29.318  26.033  1.00  0.00    -0.368 OA
BRANCH   9  10
ATOM     10  C   UNL A   1      32.879  29.823  25.401  1.00  0.00     0.182 C 
BRANCH  10  11
ATOM     11  C   UNL A   1      32.068  28.774  24.625  1.00  0.00     0.144 C 
BRANCH  11  12
ATOM     12  N   UNL A   1      31.263  27.906  25.466  1.00  0.00    -0.352 N 
ATOM     13  C   UNL A   1      31.215  26.575  25.713  1.00  0.00     0.249 C 
ATOM     14  H   UNL A   1      30.588  28.405  25.980  1.00  0.00     0.163 HD
ATOM     15  O   UNL A   1      30.323  26.242  26.510  1.00  0.00    -0.272 OA
BRANCH  13  16
ATOM     16  C   UNL A   1      32.121  25.469  25.094  1.00  0.00     0.207 C 
ATOM     17  C   UNL A   1      31.663  24.522  23.989  1.00  0.00     0.042 C 
ATOM     18  O   UNL A   1      32.855  24.732  26.081  1.00  0.00    -0.368 OA
ATOM     19  C   UNL A   1      31.027  23.221  24.475  1.00  0.00     0.006 C 
ATOM     20  C   UNL A   1      32.064  23.743  26.720  1.00  0.00     0.161 C 
ATOM     21  C   UNL A   1      31.675  22.657  25.734  1.00  0.00     0.029 C 
ENDBRANCH  13  16
ENDBRANCH  11  12
ENDBRANCH  10  11
ENDBRANCH   9  10
ENDBRANCH   8   9
ENDBRANCH   6   8
ENDBRANCH   5   6
ENDBRANCH   4   5
ENDBRANCH   3   4
ENDBRANCH   2   3
ENDBRANCH   1   2
BRANCH   1  22
ATOM     22  C   UNL A   1      34.413  33.651  30.841  1.00  0.00     0.188 C 
BRANCH  22  23
ATOM     23  O   UNL A   1      33.907  33.737  32.171  1.00  0.00    -0.376 OA
BRANCH  23  24
ATOM     24  C   UNL A   1      34.858  33.617  33.223  1.00  0.00     0.202 C 
BRANCH  24  25
ATOM     25  C   UNL A   1      36.218  33.007  32.865  1.00  0.00     0.261 C 
BRANCH  25  26
ATOM     26  O   UNL A   1      36.453  31.703  33.435  1.00  0.00    -0.460 OA
BRANCH  26  27
ATOM     27  C   UNL A   1      36.816  30.750  32.545  1.00  0.00     0.338 C 
ATOM     28  O   UNL A   1      36.288  30.522  31.460  1.00  0.00    -0.246 OA
BRANCH  27  29
ATOM     29  C   UNL A   1      38.003  30.004  32.997  1.00  0.00     0.060 A 
ATOM     30  C   UNL A   1      39.101  30.716  33.500  1.00  0.00     0.016 A 
ATOM     31  C   UNL A   1      38.119  28.642  32.714  1.00  0.00     0.016 A 
ATOM     32  C   UNL A   1      40.333  30.076  33.671  1.00  0.00     0.010 A 
ATOM     33  C   UNL A   1      39.356  28.005  32.881  1.00  0.00     0.010 A 
ATOM     34  C   UNL A   1      40.482  28.728  33.317  1.00  0.00    -0.014 A 
BRANCH  34  35
ATOM     35  C   UNL A   1      41.836  28.113  33.229  1.00  0.00     0.031 A 
ATOM     36  C   UNL A   1      42.611  27.868  34.500  1.00  0.00     0.074 A 
ATOM     37  C   UNL A   1      42.381  27.782  32.044  1.00  0.00     0.049 A 
ATOM     38  N   UNL A   1      43.842  27.450  34.659  1.00  0.00    -0.248 NA
ATOM     39  C   UNL A   1      41.901  28.141  35.758  1.00  0.00     0.031 C 
ATOM     40  C   UNL A   1      41.724  27.916  30.746  1.00  0.00     0.029 A 
ATOM     41  N   UNL A   1      43.623  27.278  31.744  1.00  0.00    -0.354 N 
ATOM     42  C   UNL A   1      44.058  27.416  36.033  1.00  0.00     0.074 A 
ATOM     43  C   UNL A   1      42.840  27.889  36.658  1.00  0.00     0.031 C 
ATOM     44  C   UNL A   1      42.579  27.525  29.785  1.00  0.00     0.029 A 
ATOM     45  C   UNL A   1      43.855  27.151  30.394  1.00  0.00     0.049 A 
ATOM     46  H   UNL A   1      44.285  27.031  32.430  1.00  0.00     0.167 HD
ATOM     47  C   UNL A   1      45.164  27.022  36.713  1.00  0.00     0.034 A 
ATOM     48  C   UNL A   1      44.976  26.807  29.726  1.00  0.00     0.034 A 
ATOM     49  C   UNL A   1      46.379  26.558  36.085  1.00  0.00     0.049 A 
ATOM     50  C   UNL A   1      46.228  26.462  30.498  1.00  0.00     0.074 A 
ATOM     51  C   UNL A   1      47.548  26.122  36.686  1.00  0.00     0.029 A 
ATOM     52  N   UNL A   1      46.588  26.480  34.714  1.00  0.00    -0.354 N 
ATOM     53  N   UNL A   1      46.422  26.439  31.796  1.00  0.00    -0.248 NA
ATOM     54  C   UNL A   1      47.413  26.092  29.710  1.00  0.00     0.031 C 
ATOM     55  C   UNL A   1      48.485  25.848  35.681  1.00  0.00     0.029 A 
ATOM     56  C   UNL A   1      47.876  26.037  34.452  1.00  0.00     0.049 A 
ATOM     57  H   UNL A   1      45.918  26.705  34.029  1.00  0.00     0.167 HD
ATOM     58  C   UNL A   1      47.738  26.017  31.978  1.00  0.00     0.074 A 
ATOM     59  C   UNL A   1      48.289  25.793  30.658  1.00  0.00     0.031 C 
ATOM     60  C   UNL A   1      48.424  25.823  33.133  1.00  0.00     0.034 A 
BRANCH  47  61
ATOM     61  C   UNL A   1      45.127  27.131  38.219  1.00  0.00     0.023 A 
ATOM     62  C   UNL A   1      45.543  28.295  38.890  1.00  0.00     0.031 A 
ATOM     63  C   UNL A   1      44.688  26.044  38.996  1.00  0.00     0.131 A 
ATOM     64  C   UNL A   1      45.576  28.319  40.293  1.00  0.00     0.055 A 
ATOM     65  C   UNL A   1      44.652  26.102  40.391  1.00  0.00     0.041 A 
ATOM     66  F   UNL A   1      44.298  24.899  38.412  1.00  0.00    -0.206 F 
ATOM     67  C   UNL A   1      45.111  27.239  41.047  1.00  0.00     0.022 A 
BRANCH  64  68
ATOM     68  S   UNL A   1      46.363  29.730  41.119  1.00  0.00     0.124 S 
ATOM     69  O   UNL A   1      45.808  30.856  40.372  1.00  0.00    -0.237 OA
ATOM     70  O   UNL A   1      45.904  29.584  42.495  1.00  0.00    -0.237 OA
ATOM     71  O   UNL A   1      47.790  29.496  40.909  1.00  0.00    -0.744 OA
ENDBRANCH  64  68
ENDBRANCH  47  61
BRANCH  48  72
ATOM     72  C   UNL A   1      44.997  26.822  28.234  1.00  0.00     0.023 A 
ATOM     73  C   UNL A   1      44.845  25.642  27.492  1.00  0.00     0.031 A 
ATOM     74  C   UNL A   1      45.235  28.018  27.533  1.00  0.00     0.131 A 
ATOM     75  C   UNL A   1      44.980  25.673  26.095  1.00  0.00     0.055 A 
ATOM     76  C   UNL A   1      45.319  28.052  26.140  1.00  0.00     0.041 A 
ATOM     77  F   UNL A   1      45.387  29.176  28.194  1.00  0.00    -0.206 F 
ATOM     78  C   UNL A   1      45.204  26.871  25.414  1.00  0.00     0.022 A 
BRANCH  75  79
ATOM     79  S   UNL A   1      44.936  24.106  25.181  1.00  0.00     0.124 S 
ATOM     80  O   UNL A   1      45.142  23.134  26.249  1.00  0.00    -0.237 OA
ATOM     81  O   UNL A   1      43.603  24.141  24.590  1.00  0.00    -0.237 OA
ATOM     82  O   UNL A   1      46.039  24.236  24.232  1.00  0.00    -0.744 OA
ENDBRANCH  75  79
ENDBRANCH  48  72
BRANCH  60  83
ATOM     83  C   UNL A   1      49.833  25.289  33.021  1.00  0.00     0.023 A 
ATOM     84  C   UNL A   1      50.122  23.917  33.122  1.00  0.00     0.031 A 
ATOM     85  C   UNL A   1      50.906  26.175  32.811  1.00  0.00     0.131 A 
ATOM     86  C   UNL A   1      51.454  23.475  33.062  1.00  0.00     0.055 A 
ATOM     87  C   UNL A   1      52.222  25.725  32.699  1.00  0.00     0.041 A 
ATOM     88  F   UNL A   1      50.690  27.497  32.710  1.00  0.00    -0.206 F 
ATOM     89  C   UNL A   1      52.504  24.369  32.836  1.00  0.00     0.022 A 
BRANCH  86  90
ATOM     90  S   UNL A   1      51.809  21.721  33.364  1.00  0.00     0.124 S 
ATOM     91  O   UNL A   1      52.145  21.719  34.785  1.00  0.00    -0.237 OA
ATOM     92  O   UNL A   1      50.548  21.080  33.006  1.00  0.00    -0.237 OA
ATOM     93  O   UNL A   1      52.924  21.436  32.463  1.00  0.00    -0.744 OA
ENDBRANCH  86  90
ENDBRANCH  60  83
ENDBRANCH  34  35
ENDBRANCH  27  29
ENDBRANCH  26  27
ENDBRANCH  25  26
ENDBRANCH  24  25
ENDBRANCH  23  24
ENDBRANCH  22  23
ENDBRANCH   1  22
TORSDOF 25
ENDMDL
