MODEL 1
REMARK VINA RESULT:     -10.4      0.000      0.000
REMARK SMILES Cc1cccc2nc([C@@H]3CCCC[C@@H]3C(=O)OCCOCCOCCOC(=O)c3ccc(-c4c5nc(c(-c6cc(S(=O)(=O)[O-])ccc6F)c6ccc([nH]6)c(-c6cc(S(=O)(=O)[O-])ccc6F)c6nc(c(-c7cc(S(=O)(=O)[O-])ccc7F)c7ccc4[nH]7)C=C6)C=C5)cc3)oc12
REMARK SMILES IDX 22 1 21 2 20 3 19 4 18 5 17 6 15 7 16 8 14 9 9 10 10 11
REMARK SMILES IDX 11 12 13 13 12 14 8 15 1 16 2 17 3 18 93 19 4 20 6 21 92 22
REMARK SMILES IDX 5 23 7 24 23 25 24 26 25 27 26 28 27 29 28 30 29 31 30 32
REMARK SMILES IDX 91 33 31 34 90 35 32 36 33 37 34 38 84 39 35 40 89 41 83 42
REMARK SMILES IDX 85 43 36 44 88 45 82 46 81 47 37 49 69 50 49 51 68 52 50 53
REMARK SMILES IDX 53 54 67 55 86 56 51 57 52 58 66 60 87 61 54 62 38 63 39 64
REMARK SMILES IDX 47 65 40 66 46 67 48 68 45 69 41 70 42 71 43 72 44 73 70 74
REMARK SMILES IDX 71 75 79 76 72 77 78 78 80 79 77 80 73 81 74 82 75 83 76 84
REMARK SMILES IDX 55 85 56 86 64 87 57 88 63 89 65 90 62 91 58 92 59 93 60 94
REMARK SMILES IDX 61 95
REMARK H PARENT 85 48 53 59
REMARK Flexibility Score: inf
ROOT
ATOM      1  C   UNL A   1      32.363  28.339  27.476  1.00  0.00     0.188 C 
ENDROOT
BRANCH   1   2
ATOM      2  C   UNL A   1      32.098  27.263  26.407  1.00  0.00     0.188 C 
BRANCH   2   3
ATOM      3  O   UNL A   1      31.675  26.006  26.905  1.00  0.00    -0.376 OA
BRANCH   3   4
ATOM      4  C   UNL A   1      32.133  24.887  26.152  1.00  0.00     0.202 C 
BRANCH   4   5
ATOM      5  C   UNL A   1      32.029  23.536  26.888  1.00  0.00     0.261 C 
BRANCH   5   6
ATOM      6  O   UNL A   1      32.245  22.365  26.076  1.00  0.00    -0.463 OA
BRANCH   6   7
ATOM      7  C   UNL A   1      33.539  21.953  25.992  1.00  0.00     0.309 C 
ATOM      8  O   UNL A   1      34.234  21.853  26.974  1.00  0.00    -0.252 OA
BRANCH   7   9
ATOM      9  C   UNL A   1      33.930  21.488  24.571  1.00  0.00     0.111 C 
ATOM     10  C   UNL A   1      35.197  22.183  24.013  1.00  0.00     0.090 C 
ATOM     11  C   UNL A   1      34.906  23.654  23.694  1.00  0.00     0.014 C 
ATOM     12  C   UNL A   1      33.760  23.791  22.691  1.00  0.00     0.001 C 
ATOM     13  C   UNL A   1      32.797  21.617  23.525  1.00  0.00     0.016 C 
ATOM     14  C   UNL A   1      32.503  23.062  23.143  1.00  0.00     0.001 C 
BRANCH  10  15
ATOM     15  C   UNL A   1      36.391  22.021  24.902  1.00  0.00     0.199 A 
ATOM     16  C   UNL A   1      38.844  24.900  27.167  1.00  0.00     0.048 C 
ATOM     17  C   UNL A   1      39.064  23.510  26.666  1.00  0.00    -0.006 A 
ATOM     18  C   UNL A   1      40.295  22.854  26.875  1.00  0.00     0.007 A 
ATOM     19  C   UNL A   1      38.107  22.748  25.993  1.00  0.00     0.157 A 
ATOM     20  C   UNL A   1      40.520  21.536  26.457  1.00  0.00     0.003 A 
ATOM     21  C   UNL A   1      38.266  21.416  25.648  1.00  0.00     0.110 A 
ATOM     22  O   UNL A   1      36.885  23.149  25.513  1.00  0.00    -0.440 OA
ATOM     23  C   UNL A   1      39.498  20.789  25.861  1.00  0.00     0.032 A 
ATOM     24  N   UNL A   1      37.108  20.937  25.108  1.00  0.00    -0.213 NA
ENDBRANCH  10  15
ENDBRANCH   7   9
ENDBRANCH   6   7
ENDBRANCH   5   6
ENDBRANCH   4   5
ENDBRANCH   3   4
ENDBRANCH   2   3
ENDBRANCH   1   2
BRANCH   1  25
ATOM     25  O   UNL A   1      32.951  29.605  27.187  1.00  0.00    -0.376 OA
BRANCH  25  26
ATOM     26  C   UNL A   1      34.347  29.851  27.314  1.00  0.00     0.202 C 
BRANCH  26  27
ATOM     27  C   UNL A   1      34.867  31.049  28.105  1.00  0.00     0.261 C 
BRANCH  27  28
ATOM     28  O   UNL A   1      36.263  31.207  27.979  1.00  0.00    -0.460 OA
BRANCH  28  29
ATOM     29  C   UNL A   1      36.928  30.618  28.988  1.00  0.00     0.338 C 
ATOM     30  O   UNL A   1      36.974  30.972  30.160  1.00  0.00    -0.246 OA
BRANCH  29  31
ATOM     31  C   UNL A   1      37.590  29.417  28.480  1.00  0.00     0.060 A 
ATOM     32  C   UNL A   1      37.876  28.448  29.444  1.00  0.00     0.016 A 
ATOM     33  C   UNL A   1      38.249  29.497  27.250  1.00  0.00     0.016 A 
ATOM     34  C   UNL A   1      39.095  27.839  29.358  1.00  0.00     0.010 A 
ATOM     35  C   UNL A   1      39.482  28.915  27.179  1.00  0.00     0.010 A 
ATOM     36  C   UNL A   1      39.927  28.227  28.306  1.00  0.00    -0.014 A 
BRANCH  36  37
ATOM     37  C   UNL A   1      41.340  28.077  28.530  1.00  0.00     0.031 A 
ATOM     38  C   UNL A   1      41.946  26.955  27.814  1.00  0.00     0.074 A 
ATOM     39  C   UNL A   1      42.018  28.966  29.275  1.00  0.00     0.049 A 
ATOM     40  N   UNL A   1      42.348  25.828  28.296  1.00  0.00    -0.248 NA
ATOM     41  C   UNL A   1      41.923  27.037  26.349  1.00  0.00     0.031 C 
ATOM     42  C   UNL A   1      41.588  30.301  29.707  1.00  0.00     0.029 A 
ATOM     43  N   UNL A   1      43.302  28.898  29.696  1.00  0.00    -0.354 N 
ATOM     44  C   UNL A   1      42.818  25.130  27.194  1.00  0.00     0.074 A 
ATOM     45  C   UNL A   1      42.304  25.804  26.028  1.00  0.00     0.031 C 
ATOM     46  C   UNL A   1      42.675  30.996  30.116  1.00  0.00     0.029 A 
ATOM     47  C   UNL A   1      43.830  30.112  30.094  1.00  0.00     0.049 A 
ATOM     48  H   UNL A   1      43.816  28.057  29.717  1.00  0.00     0.167 HD
ATOM     49  C   UNL A   1      43.823  24.218  27.289  1.00  0.00     0.034 A 
ATOM     50  C   UNL A   1      45.148  30.376  30.254  1.00  0.00     0.034 A 
ATOM     51  C   UNL A   1      44.083  23.837  28.648  1.00  0.00     0.049 A 
ATOM     52  C   UNL A   1      45.870  29.077  30.344  1.00  0.00     0.074 A 
ATOM     53  C   UNL A   1      43.357  23.205  29.636  1.00  0.00     0.029 A 
ATOM     54  N   UNL A   1      45.145  24.443  29.274  1.00  0.00    -0.354 N 
ATOM     55  N   UNL A   1      45.777  28.237  31.338  1.00  0.00    -0.248 NA
ATOM     56  C   UNL A   1      46.410  28.515  29.112  1.00  0.00     0.031 C 
ATOM     57  C   UNL A   1      43.800  23.780  30.861  1.00  0.00     0.029 A 
ATOM     58  C   UNL A   1      44.777  24.735  30.563  1.00  0.00     0.049 A 
ATOM     59  H   UNL A   1      46.021  24.636  28.867  1.00  0.00     0.167 HD
ATOM     60  C   UNL A   1      45.856  26.977  30.756  1.00  0.00     0.074 A 
ATOM     61  C   UNL A   1      46.373  27.215  29.414  1.00  0.00     0.031 C 
ATOM     62  C   UNL A   1      45.234  25.893  31.310  1.00  0.00     0.034 A 
BRANCH  49  63
ATOM     63  C   UNL A   1      44.779  23.963  26.158  1.00  0.00     0.023 A 
ATOM     64  C   UNL A   1      45.787  24.881  25.804  1.00  0.00     0.031 A 
ATOM     65  C   UNL A   1      44.828  22.716  25.520  1.00  0.00     0.131 A 
ATOM     66  C   UNL A   1      46.718  24.607  24.801  1.00  0.00     0.055 A 
ATOM     67  C   UNL A   1      45.818  22.401  24.579  1.00  0.00     0.041 A 
ATOM     68  F   UNL A   1      43.943  21.753  25.822  1.00  0.00    -0.206 F 
ATOM     69  C   UNL A   1      46.757  23.356  24.201  1.00  0.00     0.022 A 
BRANCH  66  70
ATOM     70  S   UNL A   1      47.857  25.904  24.248  1.00  0.00     0.124 S 
ATOM     71  O   UNL A   1      46.969  27.057  24.146  1.00  0.00    -0.237 OA
ATOM     72  O   UNL A   1      48.824  25.939  25.342  1.00  0.00    -0.237 OA
ATOM     73  O   UNL A   1      48.378  25.384  22.986  1.00  0.00    -0.744 OA
ENDBRANCH  66  70
ENDBRANCH  49  63
BRANCH  50  74
ATOM     74  C   UNL A   1      45.827  31.641  29.888  1.00  0.00     0.023 A 
ATOM     75  C   UNL A   1      45.712  32.166  28.586  1.00  0.00     0.031 A 
ATOM     76  C   UNL A   1      46.801  32.204  30.725  1.00  0.00     0.131 A 
ATOM     77  C   UNL A   1      46.563  33.189  28.147  1.00  0.00     0.055 A 
ATOM     78  C   UNL A   1      47.650  33.227  30.287  1.00  0.00     0.041 A 
ATOM     79  F   UNL A   1      46.986  31.732  31.967  1.00  0.00    -0.206 F 
ATOM     80  C   UNL A   1      47.539  33.720  28.989  1.00  0.00     0.022 A 
BRANCH  77  81
ATOM     81  S   UNL A   1      46.419  33.822  26.452  1.00  0.00     0.124 S 
ATOM     82  O   UNL A   1      47.811  34.076  26.088  1.00  0.00    -0.237 OA
ATOM     83  O   UNL A   1      45.784  32.702  25.767  1.00  0.00    -0.237 OA
ATOM     84  O   UNL A   1      45.599  35.021  26.609  1.00  0.00    -0.744 OA
ENDBRANCH  77  81
ENDBRANCH  50  74
BRANCH  62  85
ATOM     85  C   UNL A   1      44.729  26.000  32.732  1.00  0.00     0.023 A 
ATOM     86  C   UNL A   1      45.355  25.206  33.711  1.00  0.00     0.031 A 
ATOM     87  C   UNL A   1      43.545  26.668  33.091  1.00  0.00     0.131 A 
ATOM     88  C   UNL A   1      44.789  25.081  34.985  1.00  0.00     0.055 A 
ATOM     89  C   UNL A   1      43.017  26.590  34.384  1.00  0.00     0.041 A 
ATOM     90  F   UNL A   1      42.821  27.338  32.184  1.00  0.00    -0.206 F 
ATOM     91  C   UNL A   1      43.633  25.784  35.335  1.00  0.00     0.022 A 
BRANCH  88  92
ATOM     92  S   UNL A   1      45.462  23.898  36.181  1.00  0.00     0.124 S 
ATOM     93  O   UNL A   1      46.894  23.953  35.903  1.00  0.00    -0.237 OA
ATOM     94  O   UNL A   1      45.050  24.482  37.457  1.00  0.00    -0.237 OA
ATOM     95  O   UNL A   1      44.809  22.637  35.840  1.00  0.00    -0.744 OA
ENDBRANCH  88  92
ENDBRANCH  62  85
ENDBRANCH  36  37
ENDBRANCH  29  31
ENDBRANCH  28  29
ENDBRANCH  27  28
ENDBRANCH  26  27
ENDBRANCH  25  26
ENDBRANCH   1  25
TORSDOF 21
ENDMDL
MODEL 2
REMARK VINA RESULT:     -10.3      2.540      7.654
REMARK SMILES Cc1cccc2nc([C@@H]3CCCC[C@@H]3C(=O)OCCOCCOCCOC(=O)c3ccc(-c4c5nc(c(-c6cc(S(=O)(=O)[O-])ccc6F)c6ccc([nH]6)c(-c6cc(S(=O)(=O)[O-])ccc6F)c6nc(c(-c7cc(S(=O)(=O)[O-])ccc7F)c7ccc4[nH]7)C=C6)C=C5)cc3)oc12
REMARK SMILES IDX 22 1 21 2 20 3 19 4 18 5 17 6 15 7 16 8 14 9 9 10 10 11
REMARK SMILES IDX 11 12 13 13 12 14 8 15 1 16 2 17 3 18 93 19 4 20 6 21 92 22
REMARK SMILES IDX 5 23 7 24 23 25 24 26 25 27 26 28 27 29 28 30 29 31 30 32
REMARK SMILES IDX 91 33 31 34 90 35 32 36 33 37 34 38 84 39 35 40 89 41 83 42
REMARK SMILES IDX 85 43 36 44 88 45 82 46 81 47 37 49 69 50 49 51 68 52 50 53
REMARK SMILES IDX 53 54 67 55 86 56 51 57 52 58 66 60 87 61 54 62 38 63 39 64
REMARK SMILES IDX 47 65 40 66 46 67 48 68 45 69 41 70 42 71 43 72 44 73 70 74
REMARK SMILES IDX 71 75 79 76 72 77 78 78 80 79 77 80 73 81 74 82 75 83 76 84
REMARK SMILES IDX 55 85 56 86 64 87 57 88 63 89 65 90 62 91 58 92 59 93 60 94
REMARK SMILES IDX 61 95
REMARK H PARENT 85 48 53 59
REMARK Flexibility Score: inf
ROOT
ATOM      1  C   UNL A   1      33.785  32.613  28.045  1.00  0.00     0.188 C 
ENDROOT
BRANCH   1   2
ATOM      2  C   UNL A   1      34.323  31.260  27.545  1.00  0.00     0.188 C 
BRANCH   2   3
ATOM      3  O   UNL A   1      33.351  30.240  27.393  1.00  0.00    -0.376 OA
BRANCH   3   4
ATOM      4  C   UNL A   1      33.885  28.952  27.103  1.00  0.00     0.202 C 
BRANCH   4   5
ATOM      5  C   UNL A   1      32.841  27.818  27.079  1.00  0.00     0.261 C 
BRANCH   5   6
ATOM      6  O   UNL A   1      32.368  27.433  25.773  1.00  0.00    -0.463 OA
BRANCH   6   7
ATOM      7  C   UNL A   1      32.628  26.144  25.423  1.00  0.00     0.309 C 
ATOM      8  O   UNL A   1      33.598  25.560  25.840  1.00  0.00    -0.252 OA
BRANCH   7   9
ATOM      9  C   UNL A   1      31.486  25.504  24.600  1.00  0.00     0.111 C 
ATOM     10  C   UNL A   1      31.921  25.031  23.191  1.00  0.00     0.090 C 
ATOM     11  C   UNL A   1      32.202  26.234  22.283  1.00  0.00     0.014 C 
ATOM     12  C   UNL A   1      30.976  27.142  22.166  1.00  0.00     0.001 C 
ATOM     13  C   UNL A   1      30.230  26.395  24.453  1.00  0.00     0.016 C 
ATOM     14  C   UNL A   1      30.448  27.582  23.524  1.00  0.00     0.001 C 
BRANCH  10  15
ATOM     15  C   UNL A   1      33.067  24.069  23.226  1.00  0.00     0.199 A 
ATOM     16  C   UNL A   1      33.726  20.282  25.386  1.00  0.00     0.048 C 
ATOM     17  C   UNL A   1      34.627  21.286  24.743  1.00  0.00    -0.006 A 
ATOM     18  C   UNL A   1      36.027  21.125  24.776  1.00  0.00     0.007 A 
ATOM     19  C   UNL A   1      34.188  22.420  24.056  1.00  0.00     0.157 A 
ATOM     20  C   UNL A   1      36.898  22.024  24.147  1.00  0.00     0.003 A 
ATOM     21  C   UNL A   1      35.016  23.276  23.348  1.00  0.00     0.110 A 
ATOM     22  O   UNL A   1      32.916  22.927  23.978  1.00  0.00    -0.440 OA
ATOM     23  C   UNL A   1      36.402  23.098  23.401  1.00  0.00     0.032 A 
ATOM     24  N   UNL A   1      34.264  24.214  22.700  1.00  0.00    -0.213 NA
ENDBRANCH  10  15
ENDBRANCH   7   9
ENDBRANCH   6   7
ENDBRANCH   5   6
ENDBRANCH   4   5
ENDBRANCH   3   4
ENDBRANCH   2   3
ENDBRANCH   1   2
BRANCH   1  25
ATOM     25  O   UNL A   1      34.586  33.571  28.731  1.00  0.00    -0.376 OA
BRANCH  25  26
ATOM     26  C   UNL A   1      34.194  34.156  29.968  1.00  0.00     0.202 C 
BRANCH  26  27
ATOM     27  C   UNL A   1      34.631  33.551  31.300  1.00  0.00     0.261 C 
BRANCH  27  28
ATOM     28  O   UNL A   1      35.982  33.146  31.285  1.00  0.00    -0.460 OA
BRANCH  28  29
ATOM     29  C   UNL A   1      36.111  31.820  31.466  1.00  0.00     0.338 C 
ATOM     30  O   UNL A   1      35.791  31.166  32.451  1.00  0.00    -0.246 OA
BRANCH  29  31
ATOM     31  C   UNL A   1      36.676  31.230  30.254  1.00  0.00     0.060 A 
ATOM     32  C   UNL A   1      36.475  29.855  30.117  1.00  0.00     0.016 A 
ATOM     33  C   UNL A   1      37.687  31.930  29.588  1.00  0.00     0.016 A 
ATOM     34  C   UNL A   1      37.534  29.123  29.662  1.00  0.00     0.010 A 
ATOM     35  C   UNL A   1      38.759  31.198  29.164  1.00  0.00     0.010 A 
ATOM     36  C   UNL A   1      38.705  29.820  29.357  1.00  0.00    -0.014 A 
BRANCH  36  37
ATOM     37  C   UNL A   1      39.930  29.073  29.466  1.00  0.00     0.031 A 
ATOM     38  C   UNL A   1      40.389  28.869  30.839  1.00  0.00     0.074 A 
ATOM     39  C   UNL A   1      40.521  28.558  28.375  1.00  0.00     0.049 A 
ATOM     40  N   UNL A   1      41.375  29.442  31.442  1.00  0.00    -0.248 NA
ATOM     41  C   UNL A   1      39.516  28.060  31.697  1.00  0.00     0.031 C 
ATOM     42  C   UNL A   1      39.953  28.382  27.033  1.00  0.00     0.029 A 
ATOM     43  N   UNL A   1      41.733  27.960  28.284  1.00  0.00    -0.354 N 
ATOM     44  C   UNL A   1      41.359  28.902  32.719  1.00  0.00     0.074 A 
ATOM     45  C   UNL A   1      40.072  28.274  32.885  1.00  0.00     0.031 C 
ATOM     46  C   UNL A   1      40.729  27.514  26.343  1.00  0.00     0.029 A 
ATOM     47  C   UNL A   1      41.897  27.190  27.148  1.00  0.00     0.049 A 
ATOM     48  H   UNL A   1      42.434  28.064  28.967  1.00  0.00     0.167 HD
ATOM     49  C   UNL A   1      42.492  28.755  33.457  1.00  0.00     0.034 A 
ATOM     50  C   UNL A   1      42.862  26.258  26.969  1.00  0.00     0.034 A 
ATOM     51  C   UNL A   1      43.590  29.504  32.919  1.00  0.00     0.049 A 
ATOM     52  C   UNL A   1      43.927  26.498  27.982  1.00  0.00     0.074 A 
ATOM     53  C   UNL A   1      43.846  30.844  32.714  1.00  0.00     0.029 A 
ATOM     54  N   UNL A   1      44.504  28.815  32.158  1.00  0.00    -0.354 N 
ATOM     55  N   UNL A   1      44.730  27.526  27.994  1.00  0.00    -0.248 NA
ATOM     56  C   UNL A   1      43.839  25.772  29.242  1.00  0.00     0.031 C 
ATOM     57  C   UNL A   1      44.651  30.904  31.541  1.00  0.00     0.029 A 
ATOM     58  C   UNL A   1      44.851  29.597  31.086  1.00  0.00     0.049 A 
ATOM     59  H   UNL A   1      44.850  27.913  32.349  1.00  0.00     0.167 HD
ATOM     60  C   UNL A   1      44.926  27.817  29.339  1.00  0.00     0.074 A 
ATOM     61  C   UNL A   1      44.463  26.631  30.050  1.00  0.00     0.031 C 
ATOM     62  C   UNL A   1      45.181  29.090  29.766  1.00  0.00     0.034 A 
BRANCH  49  63
ATOM     63  C   UNL A   1      42.655  27.645  34.457  1.00  0.00     0.023 A 
ATOM     64  C   UNL A   1      43.316  26.442  34.144  1.00  0.00     0.031 A 
ATOM     65  C   UNL A   1      42.315  27.830  35.805  1.00  0.00     0.131 A 
ATOM     66  C   UNL A   1      43.528  25.444  35.097  1.00  0.00     0.055 A 
ATOM     67  C   UNL A   1      42.609  26.871  36.783  1.00  0.00     0.041 A 
ATOM     68  F   UNL A   1      41.725  28.963  36.216  1.00  0.00    -0.206 F 
ATOM     69  C   UNL A   1      43.201  25.663  36.428  1.00  0.00     0.022 A 
BRANCH  66  70
ATOM     70  S   UNL A   1      44.196  23.838  34.589  1.00  0.00     0.124 S 
ATOM     71  O   UNL A   1      44.885  24.179  33.350  1.00  0.00    -0.237 OA
ATOM     72  O   UNL A   1      45.054  23.499  35.722  1.00  0.00    -0.237 OA
ATOM     73  O   UNL A   1      43.005  23.003  34.450  1.00  0.00    -0.744 OA
ENDBRANCH  66  70
ENDBRANCH  49  63
BRANCH  50  74
ATOM     74  C   UNL A   1      42.689  24.953  26.290  1.00  0.00     0.023 A 
ATOM     75  C   UNL A   1      41.702  24.045  26.721  1.00  0.00     0.031 A 
ATOM     76  C   UNL A   1      43.653  24.476  25.389  1.00  0.00     0.131 A 
ATOM     77  C   UNL A   1      41.713  22.713  26.284  1.00  0.00     0.055 A 
ATOM     78  C   UNL A   1      43.662  23.146  24.952  1.00  0.00     0.041 A 
ATOM     79  F   UNL A   1      44.640  25.278  24.960  1.00  0.00    -0.206 F 
ATOM     80  C   UNL A   1      42.692  22.255  25.405  1.00  0.00     0.022 A 
BRANCH  77  81
ATOM     81  S   UNL A   1      40.452  21.554  26.884  1.00  0.00     0.124 S 
ATOM     82  O   UNL A   1      40.830  21.368  28.283  1.00  0.00    -0.237 OA
ATOM     83  O   UNL A   1      39.223  22.307  26.660  1.00  0.00    -0.237 OA
ATOM     84  O   UNL A   1      40.643  20.380  26.037  1.00  0.00    -0.744 OA
ENDBRANCH  77  81
ENDBRANCH  50  74
BRANCH  62  85
ATOM     85  C   UNL A   1      45.570  30.131  28.740  1.00  0.00     0.023 A 
ATOM     86  C   UNL A   1      46.938  30.428  28.594  1.00  0.00     0.031 A 
ATOM     87  C   UNL A   1      44.646  30.968  28.089  1.00  0.00     0.131 A 
ATOM     88  C   UNL A   1      47.343  31.536  27.841  1.00  0.00     0.055 A 
ATOM     89  C   UNL A   1      45.058  32.036  27.286  1.00  0.00     0.041 A 
ATOM     90  F   UNL A   1      43.327  30.831  28.280  1.00  0.00    -0.206 F 
ATOM     91  C   UNL A   1      46.411  32.332  27.169  1.00  0.00     0.022 A 
BRANCH  88  92
ATOM     92  S   UNL A   1      49.079  32.055  27.822  1.00  0.00     0.124 S 
ATOM     93  O   UNL A   1      48.975  33.498  28.015  1.00  0.00    -0.237 OA
ATOM     94  O   UNL A   1      49.635  31.312  28.952  1.00  0.00    -0.237 OA
ATOM     95  O   UNL A   1      49.561  31.635  26.510  1.00  0.00    -0.744 OA
ENDBRANCH  88  92
ENDBRANCH  62  85
ENDBRANCH  36  37
ENDBRANCH  29  31
ENDBRANCH  28  29
ENDBRANCH  27  28
ENDBRANCH  26  27
ENDBRANCH  25  26
ENDBRANCH   1  25
TORSDOF 21
ENDMDL
MODEL 3
REMARK VINA RESULT:     -10.3      3.368      8.091
REMARK SMILES Cc1cccc2nc([C@@H]3CCCC[C@@H]3C(=O)OCCOCCOCCOC(=O)c3ccc(-c4c5nc(c(-c6cc(S(=O)(=O)[O-])ccc6F)c6ccc([nH]6)c(-c6cc(S(=O)(=O)[O-])ccc6F)c6nc(c(-c7cc(S(=O)(=O)[O-])ccc7F)c7ccc4[nH]7)C=C6)C=C5)cc3)oc12
REMARK SMILES IDX 22 1 21 2 20 3 19 4 18 5 17 6 15 7 16 8 14 9 9 10 10 11
REMARK SMILES IDX 11 12 13 13 12 14 8 15 1 16 2 17 3 18 93 19 4 20 6 21 92 22
REMARK SMILES IDX 5 23 7 24 23 25 24 26 25 27 26 28 27 29 28 30 29 31 30 32
REMARK SMILES IDX 91 33 31 34 90 35 32 36 33 37 34 38 84 39 35 40 89 41 83 42
REMARK SMILES IDX 85 43 36 44 88 45 82 46 81 47 37 49 69 50 49 51 68 52 50 53
REMARK SMILES IDX 53 54 67 55 86 56 51 57 52 58 66 60 87 61 54 62 38 63 39 64
REMARK SMILES IDX 47 65 40 66 46 67 48 68 45 69 41 70 42 71 43 72 44 73 70 74
REMARK SMILES IDX 71 75 79 76 72 77 78 78 80 79 77 80 73 81 74 82 75 83 76 84
REMARK SMILES IDX 55 85 56 86 64 87 57 88 63 89 65 90 62 91 58 92 59 93 60 94
REMARK SMILES IDX 61 95
REMARK H PARENT 85 48 53 59
REMARK Flexibility Score: inf
ROOT
ATOM      1  C   UNL A   1      40.343  21.086  26.216  1.00  0.00     0.188 C 
ENDROOT
BRANCH   1   2
ATOM      2  C   UNL A   1      39.310  22.224  26.113  1.00  0.00     0.188 C 
BRANCH   2   3
ATOM      3  O   UNL A   1      37.999  21.821  25.757  1.00  0.00    -0.376 OA
BRANCH   3   4
ATOM      4  C   UNL A   1      37.138  22.887  25.368  1.00  0.00     0.202 C 
BRANCH   4   5
ATOM      5  C   UNL A   1      35.647  22.504  25.282  1.00  0.00     0.261 C 
BRANCH   5   6
ATOM      6  O   UNL A   1      35.092  22.453  23.953  1.00  0.00    -0.463 OA
BRANCH   6   7
ATOM      7  C   UNL A   1      34.194  23.433  23.665  1.00  0.00     0.309 C 
ATOM      8  O   UNL A   1      34.517  24.597  23.635  1.00  0.00    -0.252 OA
BRANCH   7   9
ATOM      9  C   UNL A   1      32.817  22.878  23.235  1.00  0.00     0.111 C 
ATOM     10  C   UNL A   1      31.619  23.584  23.917  1.00  0.00     0.090 C 
ATOM     11  C   UNL A   1      31.553  23.214  25.403  1.00  0.00     0.014 C 
ATOM     12  C   UNL A   1      31.438  21.701  25.597  1.00  0.00     0.001 C 
ATOM     13  C   UNL A   1      32.659  21.351  23.422  1.00  0.00     0.016 C 
ATOM     14  C   UNL A   1      32.545  20.939  24.884  1.00  0.00     0.001 C 
BRANCH  10  15
ATOM     15  C   UNL A   1      31.613  25.066  23.701  1.00  0.00     0.199 A 
ATOM     16  C   UNL A   1      31.949  28.490  26.458  1.00  0.00     0.048 C 
ATOM     17  C   UNL A   1      31.418  28.315  25.073  1.00  0.00    -0.006 A 
ATOM     18  C   UNL A   1      30.847  29.400  24.377  1.00  0.00     0.007 A 
ATOM     19  C   UNL A   1      31.455  27.118  24.354  1.00  0.00     0.157 A 
ATOM     20  C   UNL A   1      30.378  29.282  23.061  1.00  0.00     0.003 A 
ATOM     21  C   UNL A   1      31.084  26.991  23.025  1.00  0.00     0.110 A 
ATOM     22  O   UNL A   1      31.804  25.869  24.801  1.00  0.00    -0.440 OA
ATOM     23  C   UNL A   1      30.516  28.080  22.358  1.00  0.00     0.032 A 
ATOM     24  N   UNL A   1      31.347  25.723  22.592  1.00  0.00    -0.213 NA
ENDBRANCH  10  15
ENDBRANCH   7   9
ENDBRANCH   6   7
ENDBRANCH   5   6
ENDBRANCH   4   5
ENDBRANCH   3   4
ENDBRANCH   2   3
ENDBRANCH   1   2
BRANCH   1  25
ATOM     25  O   UNL A   1      41.658  21.265  26.735  1.00  0.00    -0.376 OA
BRANCH  25  26
ATOM     26  C   UNL A   1      42.826  21.118  25.934  1.00  0.00     0.202 C 
BRANCH  26  27
ATOM     27  C   UNL A   1      43.662  22.330  25.530  1.00  0.00     0.261 C 
BRANCH  27  28
ATOM     28  O   UNL A   1      42.880  23.344  24.939  1.00  0.00    -0.460 OA
BRANCH  28  29
ATOM     29  C   UNL A   1      43.094  24.542  25.513  1.00  0.00     0.338 C 
ATOM     30  O   UNL A   1      43.992  25.338  25.268  1.00  0.00    -0.246 OA
BRANCH  29  31
ATOM     31  C   UNL A   1      42.034  24.794  26.489  1.00  0.00     0.060 A 
ATOM     32  C   UNL A   1      40.976  25.578  26.023  1.00  0.00     0.016 A 
ATOM     33  C   UNL A   1      42.334  24.633  27.845  1.00  0.00     0.016 A 
ATOM     34  C   UNL A   1      40.496  26.528  26.877  1.00  0.00     0.010 A 
ATOM     35  C   UNL A   1      41.879  25.604  28.690  1.00  0.00     0.010 A 
ATOM     36  C   UNL A   1      41.091  26.611  28.137  1.00  0.00    -0.014 A 
BRANCH  36  37
ATOM     37  C   UNL A   1      41.041  27.899  28.776  1.00  0.00     0.031 A 
ATOM     38  C   UNL A   1      42.054  28.843  28.305  1.00  0.00     0.074 A 
ATOM     39  C   UNL A   1      40.076  28.190  29.664  1.00  0.00     0.049 A 
ATOM     40  N   UNL A   1      43.119  29.238  28.916  1.00  0.00    -0.248 NA
ATOM     41  C   UNL A   1      41.953  29.247  26.898  1.00  0.00     0.031 C 
ATOM     42  C   UNL A   1      38.823  27.468  29.911  1.00  0.00     0.029 A 
ATOM     43  N   UNL A   1      39.967  29.287  30.450  1.00  0.00    -0.354 N 
ATOM     44  C   UNL A   1      43.726  30.109  28.024  1.00  0.00     0.074 A 
ATOM     45  C   UNL A   1      43.114  29.876  26.739  1.00  0.00     0.031 C 
ATOM     46  C   UNL A   1      37.986  28.274  30.605  1.00  0.00     0.029 A 
ATOM     47  C   UNL A   1      38.696  29.495  30.953  1.00  0.00     0.049 A 
ATOM     48  H   UNL A   1      40.725  29.884  30.647  1.00  0.00     0.167 HD
ATOM     49  C   UNL A   1      44.485  31.157  28.439  1.00  0.00     0.034 A 
ATOM     50  C   UNL A   1      38.249  30.654  31.490  1.00  0.00     0.034 A 
ATOM     51  C   UNL A   1      44.847  31.050  29.824  1.00  0.00     0.049 A 
ATOM     52  C   UNL A   1      39.432  31.492  31.828  1.00  0.00     0.074 A 
ATOM     53  C   UNL A   1      45.591  30.160  30.568  1.00  0.00     0.029 A 
ATOM     54  N   UNL A   1      44.105  31.781  30.721  1.00  0.00    -0.354 N 
ATOM     55  N   UNL A   1      40.292  31.226  32.773  1.00  0.00    -0.248 NA
ATOM     56  C   UNL A   1      39.892  32.448  30.829  1.00  0.00     0.031 C 
ATOM     57  C   UNL A   1      44.978  30.131  31.853  1.00  0.00     0.029 A 
ATOM     58  C   UNL A   1      43.889  31.008  31.833  1.00  0.00     0.049 A 
ATOM     59  H   UNL A   1      43.783  32.702  30.588  1.00  0.00     0.167 HD
ATOM     60  C   UNL A   1      41.519  31.652  32.275  1.00  0.00     0.074 A 
ATOM     61  C   UNL A   1      41.188  32.507  31.143  1.00  0.00     0.031 C 
ATOM     62  C   UNL A   1      42.689  31.052  32.650  1.00  0.00     0.034 A 
BRANCH  49  63
ATOM     63  C   UNL A   1      44.584  32.434  27.652  1.00  0.00     0.023 A 
ATOM     64  C   UNL A   1      43.857  33.589  27.998  1.00  0.00     0.031 A 
ATOM     65  C   UNL A   1      45.544  32.588  26.642  1.00  0.00     0.131 A 
ATOM     66  C   UNL A   1      44.007  34.793  27.308  1.00  0.00     0.055 A 
ATOM     67  C   UNL A   1      45.764  33.819  26.009  1.00  0.00     0.041 A 
ATOM     68  F   UNL A   1      46.323  31.561  26.270  1.00  0.00    -0.206 F 
ATOM     69  C   UNL A   1      44.980  34.924  26.327  1.00  0.00     0.022 A 
BRANCH  66  70
ATOM     70  S   UNL A   1      42.897  36.182  27.664  1.00  0.00     0.124 S 
ATOM     71  O   UNL A   1      41.711  35.496  28.161  1.00  0.00    -0.237 OA
ATOM     72  O   UNL A   1      43.665  36.929  28.658  1.00  0.00    -0.237 OA
ATOM     73  O   UNL A   1      42.758  36.846  26.370  1.00  0.00    -0.744 OA
ENDBRANCH  66  70
ENDBRANCH  49  63
BRANCH  50  74
ATOM     74  C   UNL A   1      36.894  31.226  31.308  1.00  0.00     0.023 A 
ATOM     75  C   UNL A   1      36.389  31.476  30.017  1.00  0.00     0.031 A 
ATOM     76  C   UNL A   1      36.191  31.774  32.391  1.00  0.00     0.131 A 
ATOM     77  C   UNL A   1      35.247  32.268  29.834  1.00  0.00     0.055 A 
ATOM     78  C   UNL A   1      35.050  32.563  32.208  1.00  0.00     0.041 A 
ATOM     79  F   UNL A   1      36.633  31.601  33.646  1.00  0.00    -0.206 F 
ATOM     80  C   UNL A   1      34.576  32.820  30.924  1.00  0.00     0.022 A 
BRANCH  77  81
ATOM     81  S   UNL A   1      34.639  32.606  28.158  1.00  0.00     0.124 S 
ATOM     82  O   UNL A   1      34.359  31.267  27.645  1.00  0.00    -0.237 OA
ATOM     83  O   UNL A   1      33.468  33.433  28.427  1.00  0.00    -0.237 OA
ATOM     84  O   UNL A   1      35.765  33.283  27.521  1.00  0.00    -0.744 OA
ENDBRANCH  77  81
ENDBRANCH  50  74
BRANCH  62  85
ATOM     85  C   UNL A   1      42.678  30.136  33.853  1.00  0.00     0.023 A 
ATOM     86  C   UNL A   1      43.202  30.634  35.060  1.00  0.00     0.031 A 
ATOM     87  C   UNL A   1      42.383  28.762  33.784  1.00  0.00     0.131 A 
ATOM     88  C   UNL A   1      43.437  29.770  36.137  1.00  0.00     0.055 A 
ATOM     89  C   UNL A   1      42.560  27.915  34.883  1.00  0.00     0.041 A 
ATOM     90  F   UNL A   1      42.003  28.188  32.635  1.00  0.00    -0.206 F 
ATOM     91  C   UNL A   1      43.101  28.415  36.062  1.00  0.00     0.022 A 
BRANCH  88  92
ATOM     92  S   UNL A   1      44.309  30.352  37.614  1.00  0.00     0.124 S 
ATOM     93  O   UNL A   1      45.438  31.080  37.043  1.00  0.00    -0.237 OA
ATOM     94  O   UNL A   1      43.295  31.181  38.264  1.00  0.00    -0.237 OA
ATOM     95  O   UNL A   1      44.655  29.126  38.328  1.00  0.00    -0.744 OA
ENDBRANCH  88  92
ENDBRANCH  62  85
ENDBRANCH  36  37
ENDBRANCH  29  31
ENDBRANCH  28  29
ENDBRANCH  27  28
ENDBRANCH  26  27
ENDBRANCH  25  26
ENDBRANCH   1  25
TORSDOF 21
ENDMDL
