MODEL 1
REMARK VINA RESULT:      -9.3      0.000      0.000
REMARK SMILES C[C@H](C(=O)OCCOCCOCCOC(=O)c1ccc(-c2c3nc(c(-c4cc(S(=O)(=O)[O-])ccc4F)c4ccc([nH]4)c(-c4cc(S(=O)(=O)[O-])ccc4F)c4nc(c(-c5cc(S(=O)(=O)[O-])ccc5F)c5ccc2[nH]5)C=C4)C=C3)cc1)c1cccc(C(=O)c2ccccc2)c1
REMARK SMILES IDX 9 1 8 2 7 3 6 4 5 5 3 6 4 7 2 8 1 9 80 10 81 11 93 12 82 13
REMARK SMILES IDX 84 14 83 15 85 16 86 17 87 18 88 19 92 20 89 21 91 22 90 23
REMARK SMILES IDX 10 24 11 25 12 26 13 27 14 28 15 29 16 30 17 31 18 32 79 33
REMARK SMILES IDX 19 34 78 35 20 36 21 37 22 38 72 39 23 40 77 41 71 42 73 43
REMARK SMILES IDX 24 44 76 45 70 46 69 47 25 49 57 50 37 51 56 52 38 53 41 54
REMARK SMILES IDX 55 55 74 56 39 57 40 58 54 60 75 61 42 62 26 63 27 64 35 65
REMARK SMILES IDX 28 66 34 67 36 68 33 69 29 70 30 71 31 72 32 73 58 74 59 75
REMARK SMILES IDX 67 76 60 77 66 78 68 79 65 80 61 81 62 82 63 83 64 84 43 85
REMARK SMILES IDX 44 86 52 87 45 88 51 89 53 90 50 91 46 92 47 93 48 94 49 95
REMARK H PARENT 73 48 41 59
REMARK Flexibility Score: inf
ROOT
ATOM      1  C   UNL A   1      39.406  23.068  26.895  1.00  0.00     0.188 C 
ENDROOT
BRANCH   1   2
ATOM      2  O   UNL A   1      38.555  23.101  25.757  1.00  0.00    -0.376 OA
BRANCH   2   3
ATOM      3  C   UNL A   1      37.616  22.046  25.575  1.00  0.00     0.202 C 
BRANCH   3   4
ATOM      4  C   UNL A   1      36.124  22.408  25.471  1.00  0.00     0.261 C 
BRANCH   4   5
ATOM      5  O   UNL A   1      35.253  21.746  26.423  1.00  0.00    -0.463 OA
BRANCH   5   6
ATOM      6  C   UNL A   1      34.144  21.139  25.920  1.00  0.00     0.313 C 
ATOM      7  O   UNL A   1      34.163  20.027  25.400  1.00  0.00    -0.252 OA
BRANCH   6   8
ATOM      8  C   UNL A   1      32.820  21.894  26.108  1.00  0.00     0.126 C 
ATOM      9  C   UNL A   1      32.797  22.578  27.483  1.00  0.00     0.025 C 
BRANCH   8  10
ATOM     10  C   UNL A   1      32.278  22.763  24.970  1.00  0.00    -0.033 A 
ATOM     11  C   UNL A   1      32.538  22.548  23.605  1.00  0.00     0.004 A 
ATOM     12  C   UNL A   1      31.627  23.955  25.318  1.00  0.00     0.016 A 
ATOM     13  C   UNL A   1      32.165  23.484  22.632  1.00  0.00     0.001 A 
ATOM     14  C   UNL A   1      31.361  24.948  24.362  1.00  0.00     0.023 A 
ATOM     15  C   UNL A   1      31.592  24.695  23.011  1.00  0.00     0.012 A 
BRANCH  14  16
ATOM     16  C   UNL A   1      30.897  26.302  24.780  1.00  0.00     0.193 C 
ATOM     17  O   UNL A   1      29.768  26.697  24.509  1.00  0.00    -0.289 OA
BRANCH  16  18
ATOM     18  C   UNL A   1      31.810  27.179  25.553  1.00  0.00     0.022 A 
ATOM     19  C   UNL A   1      31.397  27.612  26.815  1.00  0.00     0.012 A 
ATOM     20  C   UNL A   1      33.091  27.496  25.077  1.00  0.00     0.012 A 
ATOM     21  C   UNL A   1      32.291  28.309  27.627  1.00  0.00     0.001 A 
ATOM     22  C   UNL A   1      33.981  28.185  25.898  1.00  0.00     0.001 A 
ATOM     23  C   UNL A   1      33.584  28.581  27.176  1.00  0.00     0.000 A 
ENDBRANCH  16  18
ENDBRANCH  14  16
ENDBRANCH   8  10
ENDBRANCH   6   8
ENDBRANCH   5   6
ENDBRANCH   4   5
ENDBRANCH   3   4
ENDBRANCH   2   3
ENDBRANCH   1   2
BRANCH   1  24
ATOM     24  C   UNL A   1      40.729  22.305  26.786  1.00  0.00     0.188 C 
BRANCH  24  25
ATOM     25  O   UNL A   1      40.599  21.006  26.251  1.00  0.00    -0.376 OA
BRANCH  25  26
ATOM     26  C   UNL A   1      41.143  19.938  27.000  1.00  0.00     0.202 C 
BRANCH  26  27
ATOM     27  C   UNL A   1      42.147  19.094  26.204  1.00  0.00     0.261 C 
BRANCH  27  28
ATOM     28  O   UNL A   1      42.654  19.704  25.002  1.00  0.00    -0.460 OA
BRANCH  28  29
ATOM     29  C   UNL A   1      43.965  20.048  24.988  1.00  0.00     0.338 C 
ATOM     30  O   UNL A   1      44.869  19.439  24.435  1.00  0.00    -0.246 OA
BRANCH  29  31
ATOM     31  C   UNL A   1      44.077  21.430  25.514  1.00  0.00     0.060 A 
ATOM     32  C   UNL A   1      43.815  22.507  24.653  1.00  0.00     0.016 A 
ATOM     33  C   UNL A   1      44.398  21.665  26.851  1.00  0.00     0.016 A 
ATOM     34  C   UNL A   1      43.900  23.821  25.122  1.00  0.00     0.010 A 
ATOM     35  C   UNL A   1      44.504  22.980  27.314  1.00  0.00     0.010 A 
ATOM     36  C   UNL A   1      44.284  24.067  26.446  1.00  0.00    -0.014 A 
BRANCH  36  37
ATOM     37  C   UNL A   1      44.653  25.442  26.877  1.00  0.00     0.031 A 
ATOM     38  C   UNL A   1      43.571  26.319  27.451  1.00  0.00     0.074 A 
ATOM     39  C   UNL A   1      45.910  25.908  26.776  1.00  0.00     0.049 A 
ATOM     40  N   UNL A   1      43.615  27.577  27.803  1.00  0.00    -0.248 NA
ATOM     41  C   UNL A   1      42.258  25.684  27.644  1.00  0.00     0.031 C 
ATOM     42  C   UNL A   1      47.059  25.144  26.293  1.00  0.00     0.029 A 
ATOM     43  N   UNL A   1      46.430  27.147  27.064  1.00  0.00    -0.354 N 
ATOM     44  C   UNL A   1      42.338  27.889  28.254  1.00  0.00     0.074 A 
ATOM     45  C   UNL A   1      41.533  26.697  28.091  1.00  0.00     0.031 C 
ATOM     46  C   UNL A   1      48.145  25.937  26.303  1.00  0.00     0.029 A 
ATOM     47  C   UNL A   1      47.762  27.278  26.746  1.00  0.00     0.049 A 
ATOM     48  H   UNL A   1      45.897  27.875  27.461  1.00  0.00     0.167 HD
ATOM     49  C   UNL A   1      41.878  29.056  28.767  1.00  0.00     0.034 A 
ATOM     50  C   UNL A   1      48.568  28.361  26.774  1.00  0.00     0.034 A 
ATOM     51  C   UNL A   1      42.686  30.243  28.909  1.00  0.00     0.049 A 
ATOM     52  C   UNL A   1      48.007  29.685  27.245  1.00  0.00     0.074 A 
ATOM     53  C   UNL A   1      42.319  31.478  29.416  1.00  0.00     0.029 A 
ATOM     54  N   UNL A   1      44.018  30.350  28.531  1.00  0.00    -0.354 N 
ATOM     55  N   UNL A   1      46.795  29.970  27.665  1.00  0.00    -0.248 NA
ATOM     56  C   UNL A   1      48.926  30.834  27.250  1.00  0.00     0.031 C 
ATOM     57  C   UNL A   1      43.401  32.352  29.267  1.00  0.00     0.029 A 
ATOM     58  C   UNL A   1      44.475  31.640  28.758  1.00  0.00     0.049 A 
ATOM     59  H   UNL A   1      44.559  29.618  28.155  1.00  0.00     0.167 HD
ATOM     60  C   UNL A   1      46.821  31.320  28.019  1.00  0.00     0.074 A 
ATOM     61  C   UNL A   1      48.169  31.787  27.774  1.00  0.00     0.031 C 
ATOM     62  C   UNL A   1      45.822  32.101  28.507  1.00  0.00     0.034 A 
BRANCH  49  63
ATOM     63  C   UNL A   1      40.421  29.116  29.158  1.00  0.00     0.023 A 
ATOM     64  C   UNL A   1      40.009  29.017  30.499  1.00  0.00     0.031 A 
ATOM     65  C   UNL A   1      39.426  29.241  28.172  1.00  0.00     0.131 A 
ATOM     66  C   UNL A   1      38.642  28.970  30.810  1.00  0.00     0.055 A 
ATOM     67  C   UNL A   1      38.068  29.283  28.497  1.00  0.00     0.041 A 
ATOM     68  F   UNL A   1      39.755  29.311  26.874  1.00  0.00    -0.206 F 
ATOM     69  C   UNL A   1      37.669  29.130  29.821  1.00  0.00     0.022 A 
BRANCH  66  70
ATOM     70  S   UNL A   1      38.155  28.538  32.503  1.00  0.00     0.124 S 
ATOM     71  O   UNL A   1      38.154  27.078  32.446  1.00  0.00    -0.237 OA
ATOM     72  O   UNL A   1      39.213  29.146  33.300  1.00  0.00    -0.237 OA
ATOM     73  O   UNL A   1      36.835  29.149  32.645  1.00  0.00    -0.744 OA
ENDBRANCH  66  70
ENDBRANCH  49  63
BRANCH  50  74
ATOM     74  C   UNL A   1      49.979  28.272  26.293  1.00  0.00     0.023 A 
ATOM     75  C   UNL A   1      50.305  28.467  24.940  1.00  0.00     0.031 A 
ATOM     76  C   UNL A   1      51.019  27.916  27.173  1.00  0.00     0.131 A 
ATOM     77  C   UNL A   1      51.621  28.255  24.498  1.00  0.00     0.055 A 
ATOM     78  C   UNL A   1      52.337  27.768  26.739  1.00  0.00     0.041 A 
ATOM     79  F   UNL A   1      50.766  27.705  28.474  1.00  0.00    -0.206 F 
ATOM     80  C   UNL A   1      52.642  27.924  25.391  1.00  0.00     0.022 A 
BRANCH  77  81
ATOM     81  S   UNL A   1      51.961  28.316  22.716  1.00  0.00     0.124 S 
ATOM     82  O   UNL A   1      51.320  27.092  22.251  1.00  0.00    -0.237 OA
ATOM     83  O   UNL A   1      51.317  29.567  22.328  1.00  0.00    -0.237 OA
ATOM     84  O   UNL A   1      53.421  28.322  22.649  1.00  0.00    -0.744 OA
ENDBRANCH  77  81
ENDBRANCH  50  74
BRANCH  62  85
ATOM     85  C   UNL A   1      46.164  33.529  28.868  1.00  0.00     0.023 A 
ATOM     86  C   UNL A   1      46.627  33.885  30.147  1.00  0.00     0.031 A 
ATOM     87  C   UNL A   1      46.025  34.551  27.911  1.00  0.00     0.131 A 
ATOM     88  C   UNL A   1      46.877  35.233  30.451  1.00  0.00     0.055 A 
ATOM     89  C   UNL A   1      46.341  35.879  28.198  1.00  0.00     0.041 A 
ATOM     90  F   UNL A   1      45.583  34.272  26.674  1.00  0.00    -0.206 F 
ATOM     91  C   UNL A   1      46.757  36.229  29.478  1.00  0.00     0.022 A 
BRANCH  88  92
ATOM     92  S   UNL A   1      47.264  35.685  32.165  1.00  0.00     0.124 S 
ATOM     93  O   UNL A   1      48.148  36.833  31.981  1.00  0.00    -0.237 OA
ATOM     94  O   UNL A   1      45.946  35.977  32.716  1.00  0.00    -0.237 OA
ATOM     95  O   UNL A   1      47.909  34.487  32.699  1.00  0.00    -0.744 OA
ENDBRANCH  88  92
ENDBRANCH  62  85
ENDBRANCH  36  37
ENDBRANCH  29  31
ENDBRANCH  28  29
ENDBRANCH  27  28
ENDBRANCH  26  27
ENDBRANCH  25  26
ENDBRANCH  24  25
ENDBRANCH   1  24
TORSDOF 23
ENDMDL
MODEL 2
REMARK VINA RESULT:      -9.3      3.240      4.373
REMARK SMILES C[C@H](C(=O)OCCOCCOCCOC(=O)c1ccc(-c2c3nc(c(-c4cc(S(=O)(=O)[O-])ccc4F)c4ccc([nH]4)c(-c4cc(S(=O)(=O)[O-])ccc4F)c4nc(c(-c5cc(S(=O)(=O)[O-])ccc5F)c5ccc2[nH]5)C=C4)C=C3)cc1)c1cccc(C(=O)c2ccccc2)c1
REMARK SMILES IDX 9 1 8 2 7 3 6 4 5 5 3 6 4 7 2 8 1 9 80 10 81 11 93 12 82 13
REMARK SMILES IDX 84 14 83 15 85 16 86 17 87 18 88 19 92 20 89 21 91 22 90 23
REMARK SMILES IDX 10 24 11 25 12 26 13 27 14 28 15 29 16 30 17 31 18 32 79 33
REMARK SMILES IDX 19 34 78 35 20 36 21 37 22 38 72 39 23 40 77 41 71 42 73 43
REMARK SMILES IDX 24 44 76 45 70 46 69 47 25 49 57 50 37 51 56 52 38 53 41 54
REMARK SMILES IDX 55 55 74 56 39 57 40 58 54 60 75 61 42 62 26 63 27 64 35 65
REMARK SMILES IDX 28 66 34 67 36 68 33 69 29 70 30 71 31 72 32 73 58 74 59 75
REMARK SMILES IDX 67 76 60 77 66 78 68 79 65 80 61 81 62 82 63 83 64 84 43 85
REMARK SMILES IDX 44 86 52 87 45 88 51 89 53 90 50 91 46 92 47 93 48 94 49 95
REMARK H PARENT 73 48 41 59
REMARK Flexibility Score: inf
ROOT
ATOM      1  C   UNL A   1      39.365  23.176  26.636  1.00  0.00     0.188 C 
ENDROOT
BRANCH   1   2
ATOM      2  O   UNL A   1      38.547  22.297  25.874  1.00  0.00    -0.376 OA
BRANCH   2   3
ATOM      3  C   UNL A   1      37.327  22.795  25.333  1.00  0.00     0.202 C 
BRANCH   3   4
ATOM      4  C   UNL A   1      36.006  22.358  25.990  1.00  0.00     0.261 C 
BRANCH   4   5
ATOM      5  O   UNL A   1      35.106  23.433  26.359  1.00  0.00    -0.463 OA
BRANCH   5   6
ATOM      6  C   UNL A   1      34.035  23.642  25.545  1.00  0.00     0.313 C 
ATOM      7  O   UNL A   1      33.048  22.910  25.532  1.00  0.00    -0.252 OA
BRANCH   6   8
ATOM      8  C   UNL A   1      34.084  24.908  24.679  1.00  0.00     0.126 C 
ATOM      9  C   UNL A   1      34.144  24.524  23.193  1.00  0.00     0.025 C 
BRANCH   8  10
ATOM     10  C   UNL A   1      33.137  26.071  24.985  1.00  0.00    -0.033 A 
ATOM     11  C   UNL A   1      32.731  26.454  26.276  1.00  0.00     0.004 A 
ATOM     12  C   UNL A   1      32.489  26.682  23.903  1.00  0.00     0.016 A 
ATOM     13  C   UNL A   1      31.722  27.405  26.475  1.00  0.00     0.001 A 
ATOM     14  C   UNL A   1      31.397  27.543  24.096  1.00  0.00     0.023 A 
ATOM     15  C   UNL A   1      31.039  27.938  25.384  1.00  0.00     0.012 A 
BRANCH  14  16
ATOM     16  C   UNL A   1      30.566  27.989  22.942  1.00  0.00     0.193 C 
ATOM     17  O   UNL A   1      30.597  27.393  21.870  1.00  0.00    -0.289 OA
BRANCH  16  18
ATOM     18  C   UNL A   1      29.671  29.161  23.097  1.00  0.00     0.022 A 
ATOM     19  C   UNL A   1      28.365  29.064  22.612  1.00  0.00     0.012 A 
ATOM     20  C   UNL A   1      30.087  30.307  23.791  1.00  0.00     0.012 A 
ATOM     21  C   UNL A   1      27.456  30.088  22.877  1.00  0.00     0.001 A 
ATOM     22  C   UNL A   1      29.170  31.322  24.061  1.00  0.00     0.001 A 
ATOM     23  C   UNL A   1      27.854  31.206  23.613  1.00  0.00     0.000 A 
ENDBRANCH  16  18
ENDBRANCH  14  16
ENDBRANCH   8  10
ENDBRANCH   6   8
ENDBRANCH   5   6
ENDBRANCH   4   5
ENDBRANCH   3   4
ENDBRANCH   2   3
ENDBRANCH   1   2
BRANCH   1  24
ATOM     24  C   UNL A   1      40.385  22.562  27.598  1.00  0.00     0.188 C 
BRANCH  24  25
ATOM     25  O   UNL A   1      40.455  21.155  27.539  1.00  0.00    -0.376 OA
BRANCH  25  26
ATOM     26  C   UNL A   1      41.733  20.575  27.369  1.00  0.00     0.202 C 
BRANCH  26  27
ATOM     27  C   UNL A   1      42.389  20.945  26.032  1.00  0.00     0.261 C 
BRANCH  27  28
ATOM     28  O   UNL A   1      43.458  21.908  26.112  1.00  0.00    -0.460 OA
BRANCH  28  29
ATOM     29  C   UNL A   1      43.468  22.900  25.188  1.00  0.00     0.338 C 
ATOM     30  O   UNL A   1      43.340  22.767  23.981  1.00  0.00    -0.246 OA
BRANCH  29  31
ATOM     31  C   UNL A   1      43.376  24.193  25.910  1.00  0.00     0.060 A 
ATOM     32  C   UNL A   1      43.079  25.356  25.182  1.00  0.00     0.016 A 
ATOM     33  C   UNL A   1      43.542  24.255  27.293  1.00  0.00     0.016 A 
ATOM     34  C   UNL A   1      42.973  26.587  25.835  1.00  0.00     0.010 A 
ATOM     35  C   UNL A   1      43.458  25.491  27.942  1.00  0.00     0.010 A 
ATOM     36  C   UNL A   1      43.202  26.669  27.214  1.00  0.00    -0.014 A 
BRANCH  36  37
ATOM     37  C   UNL A   1      43.374  27.994  27.869  1.00  0.00     0.031 A 
ATOM     38  C   UNL A   1      42.153  28.666  28.440  1.00  0.00     0.074 A 
ATOM     39  C   UNL A   1      44.576  28.589  27.968  1.00  0.00     0.049 A 
ATOM     40  N   UNL A   1      42.026  29.856  28.966  1.00  0.00    -0.248 NA
ATOM     41  C   UNL A   1      40.908  27.885  28.402  1.00  0.00     0.031 C 
ATOM     42  C   UNL A   1      45.842  28.020  27.509  1.00  0.00     0.029 A 
ATOM     43  N   UNL A   1      44.926  29.816  28.479  1.00  0.00    -0.354 N 
ATOM     44  C   UNL A   1      40.685  29.971  29.318  1.00  0.00     0.074 A 
ATOM     45  C   UNL A   1      40.036  28.745  28.906  1.00  0.00     0.031 C 
ATOM     46  C   UNL A   1      46.828  28.905  27.744  1.00  0.00     0.029 A 
ATOM     47  C   UNL A   1      46.259  30.121  28.326  1.00  0.00     0.049 A 
ATOM     48  H   UNL A   1      44.282  30.421  28.914  1.00  0.00     0.167 HD
ATOM     49  C   UNL A   1      40.054  30.999  29.936  1.00  0.00     0.034 A 
ATOM     50  C   UNL A   1      46.934  31.261  28.590  1.00  0.00     0.034 A 
ATOM     51  C   UNL A   1      40.708  32.224  30.326  1.00  0.00     0.049 A 
ATOM     52  C   UNL A   1      46.188  32.439  29.178  1.00  0.00     0.074 A 
ATOM     53  C   UNL A   1      40.162  33.328  30.958  1.00  0.00     0.029 A 
ATOM     54  N   UNL A   1      42.049  32.515  30.111  1.00  0.00    -0.354 N 
ATOM     55  N   UNL A   1      44.918  32.539  29.502  1.00  0.00    -0.248 NA
ATOM     56  C   UNL A   1      46.969  33.657  29.440  1.00  0.00     0.031 C 
ATOM     57  C   UNL A   1      41.148  34.315  31.048  1.00  0.00     0.029 A 
ATOM     58  C   UNL A   1      42.337  33.794  30.562  1.00  0.00     0.049 A 
ATOM     59  H   UNL A   1      42.700  31.903  29.697  1.00  0.00     0.167 HD
ATOM     60  C   UNL A   1      44.761  33.817  30.040  1.00  0.00     0.074 A 
ATOM     61  C   UNL A   1      46.066  34.444  30.008  1.00  0.00     0.031 C 
ATOM     62  C   UNL A   1      43.641  34.416  30.522  1.00  0.00     0.034 A 
BRANCH  49  63
ATOM     63  C   UNL A   1      38.569  30.858  30.174  1.00  0.00     0.023 A 
ATOM     64  C   UNL A   1      37.622  31.378  29.274  1.00  0.00     0.031 A 
ATOM     65  C   UNL A   1      38.094  30.223  31.335  1.00  0.00     0.131 A 
ATOM     66  C   UNL A   1      36.256  31.320  29.584  1.00  0.00     0.055 A 
ATOM     67  C   UNL A   1      36.728  30.090  31.595  1.00  0.00     0.041 A 
ATOM     68  F   UNL A   1      38.948  29.731  32.245  1.00  0.00    -0.206 F 
ATOM     69  C   UNL A   1      35.800  30.654  30.725  1.00  0.00     0.022 A 
BRANCH  66  70
ATOM     70  S   UNL A   1      35.095  32.262  28.558  1.00  0.00     0.124 S 
ATOM     71  O   UNL A   1      34.295  31.194  27.962  1.00  0.00    -0.237 OA
ATOM     72  O   UNL A   1      34.413  33.098  29.539  1.00  0.00    -0.237 OA
ATOM     73  O   UNL A   1      35.963  32.975  27.625  1.00  0.00    -0.744 OA
ENDBRANCH  66  70
ENDBRANCH  49  63
BRANCH  50  74
ATOM     74  C   UNL A   1      48.384  31.381  28.254  1.00  0.00     0.023 A 
ATOM     75  C   UNL A   1      49.378  30.869  29.104  1.00  0.00     0.031 A 
ATOM     76  C   UNL A   1      48.800  32.081  27.105  1.00  0.00     0.131 A 
ATOM     77  C   UNL A   1      50.733  31.106  28.822  1.00  0.00     0.055 A 
ATOM     78  C   UNL A   1      50.150  32.259  26.797  1.00  0.00     0.041 A 
ATOM     79  F   UNL A   1      47.896  32.602  26.262  1.00  0.00    -0.206 F 
ATOM     80  C   UNL A   1      51.126  31.783  27.666  1.00  0.00     0.022 A 
BRANCH  77  81
ATOM     81  S   UNL A   1      51.977  30.608  30.046  1.00  0.00     0.124 S 
ATOM     82  O   UNL A   1      53.206  31.099  29.434  1.00  0.00    -0.237 OA
ATOM     83  O   UNL A   1      51.526  31.315  31.240  1.00  0.00    -0.237 OA
ATOM     84  O   UNL A   1      51.841  29.153  30.096  1.00  0.00    -0.744 OA
ENDBRANCH  77  81
ENDBRANCH  50  74
BRANCH  62  85
ATOM     85  C   UNL A   1      43.788  35.800  31.113  1.00  0.00     0.023 A 
ATOM     86  C   UNL A   1      43.771  36.958  30.316  1.00  0.00     0.031 A 
ATOM     87  C   UNL A   1      43.949  35.960  32.502  1.00  0.00     0.131 A 
ATOM     88  C   UNL A   1      43.969  38.218  30.905  1.00  0.00     0.055 A 
ATOM     89  C   UNL A   1      44.076  37.220  33.090  1.00  0.00     0.041 A 
ATOM     90  F   UNL A   1      43.978  34.891  33.314  1.00  0.00    -0.206 F 
ATOM     91  C   UNL A   1      44.100  38.356  32.290  1.00  0.00     0.022 A 
BRANCH  88  92
ATOM     92  S   UNL A   1      44.154  39.666  29.830  1.00  0.00     0.124 S 
ATOM     93  O   UNL A   1      43.136  39.419  28.812  1.00  0.00    -0.237 OA
ATOM     94  O   UNL A   1      43.887  40.770  30.744  1.00  0.00    -0.237 OA
ATOM     95  O   UNL A   1      45.535  39.572  29.360  1.00  0.00    -0.744 OA
ENDBRANCH  88  92
ENDBRANCH  62  85
ENDBRANCH  36  37
ENDBRANCH  29  31
ENDBRANCH  28  29
ENDBRANCH  27  28
ENDBRANCH  26  27
ENDBRANCH  25  26
ENDBRANCH  24  25
ENDBRANCH   1  24
TORSDOF 23
ENDMDL
MODEL 3
REMARK VINA RESULT:      -9.2      6.131     11.616
REMARK SMILES C[C@H](C(=O)OCCOCCOCCOC(=O)c1ccc(-c2c3nc(c(-c4cc(S(=O)(=O)[O-])ccc4F)c4ccc([nH]4)c(-c4cc(S(=O)(=O)[O-])ccc4F)c4nc(c(-c5cc(S(=O)(=O)[O-])ccc5F)c5ccc2[nH]5)C=C4)C=C3)cc1)c1cccc(C(=O)c2ccccc2)c1
REMARK SMILES IDX 9 1 8 2 7 3 6 4 5 5 3 6 4 7 2 8 1 9 80 10 81 11 93 12 82 13
REMARK SMILES IDX 84 14 83 15 85 16 86 17 87 18 88 19 92 20 89 21 91 22 90 23
REMARK SMILES IDX 10 24 11 25 12 26 13 27 14 28 15 29 16 30 17 31 18 32 79 33
REMARK SMILES IDX 19 34 78 35 20 36 21 37 22 38 72 39 23 40 77 41 71 42 73 43
REMARK SMILES IDX 24 44 76 45 70 46 69 47 25 49 57 50 37 51 56 52 38 53 41 54
REMARK SMILES IDX 55 55 74 56 39 57 40 58 54 60 75 61 42 62 26 63 27 64 35 65
REMARK SMILES IDX 28 66 34 67 36 68 33 69 29 70 30 71 31 72 32 73 58 74 59 75
REMARK SMILES IDX 67 76 60 77 66 78 68 79 65 80 61 81 62 82 63 83 64 84 43 85
REMARK SMILES IDX 44 86 52 87 45 88 51 89 53 90 50 91 46 92 47 93 48 94 49 95
REMARK H PARENT 73 48 41 59
REMARK Flexibility Score: inf
ROOT
ATOM      1  C   UNL A   1      33.992  37.184  32.479  1.00  0.00     0.188 C 
ENDROOT
BRANCH   1   2
ATOM      2  O   UNL A   1      33.010  37.465  31.490  1.00  0.00    -0.376 OA
BRANCH   2   3
ATOM      3  C   UNL A   1      33.269  37.087  30.142  1.00  0.00     0.202 C 
BRANCH   3   4
ATOM      4  C   UNL A   1      32.979  35.635  29.723  1.00  0.00     0.261 C 
BRANCH   4   5
ATOM      5  O   UNL A   1      34.095  34.717  29.839  1.00  0.00    -0.463 OA
BRANCH   5   6
ATOM      6  C   UNL A   1      34.383  33.961  28.744  1.00  0.00     0.313 C 
ATOM      7  O   UNL A   1      34.362  34.402  27.598  1.00  0.00    -0.252 OA
BRANCH   6   8
ATOM      8  C   UNL A   1      34.823  32.517  29.021  1.00  0.00     0.126 C 
ATOM      9  C   UNL A   1      34.305  31.590  27.910  1.00  0.00     0.025 C 
BRANCH   8  10
ATOM     10  C   UNL A   1      36.266  32.234  29.447  1.00  0.00    -0.033 A 
ATOM     11  C   UNL A   1      37.336  33.132  29.294  1.00  0.00     0.004 A 
ATOM     12  C   UNL A   1      36.579  30.929  29.851  1.00  0.00     0.016 A 
ATOM     13  C   UNL A   1      38.660  32.743  29.534  1.00  0.00     0.001 A 
ATOM     14  C   UNL A   1      37.910  30.501  29.974  1.00  0.00     0.023 A 
ATOM     15  C   UNL A   1      38.952  31.420  29.856  1.00  0.00     0.012 A 
BRANCH  14  16
ATOM     16  C   UNL A   1      38.232  29.058  30.162  1.00  0.00     0.193 C 
ATOM     17  O   UNL A   1      37.930  28.469  31.195  1.00  0.00    -0.289 OA
BRANCH  16  18
ATOM     18  C   UNL A   1      38.913  28.315  29.073  1.00  0.00     0.022 A 
ATOM     19  C   UNL A   1      39.236  29.007  27.904  1.00  0.00     0.012 A 
ATOM     20  C   UNL A   1      39.305  26.979  29.239  1.00  0.00     0.012 A 
ATOM     21  C   UNL A   1      40.009  28.380  26.927  1.00  0.00     0.001 A 
ATOM     22  C   UNL A   1      40.086  26.362  28.263  1.00  0.00     0.001 A 
ATOM     23  C   UNL A   1      40.445  27.067  27.113  1.00  0.00     0.000 A 
ENDBRANCH  16  18
ENDBRANCH  14  16
ENDBRANCH   8  10
ENDBRANCH   6   8
ENDBRANCH   5   6
ENDBRANCH   4   5
ENDBRANCH   3   4
ENDBRANCH   2   3
ENDBRANCH   1   2
BRANCH   1  24
ATOM     24  C   UNL A   1      33.699  36.080  33.498  1.00  0.00     0.188 C 
BRANCH  24  25
ATOM     25  O   UNL A   1      33.949  34.777  33.018  1.00  0.00    -0.376 OA
BRANCH  25  26
ATOM     26  C   UNL A   1      34.781  33.945  33.803  1.00  0.00     0.202 C 
BRANCH  26  27
ATOM     27  C   UNL A   1      35.675  33.023  32.964  1.00  0.00     0.261 C 
BRANCH  27  28
ATOM     28  O   UNL A   1      36.923  32.645  33.576  1.00  0.00    -0.460 OA
BRANCH  28  29
ATOM     29  C   UNL A   1      37.951  33.523  33.480  1.00  0.00     0.338 C 
ATOM     30  O   UNL A   1      37.926  34.705  33.788  1.00  0.00    -0.246 OA
BRANCH  29  31
ATOM     31  C   UNL A   1      39.186  32.748  33.207  1.00  0.00     0.060 A 
ATOM     32  C   UNL A   1      39.210  31.379  33.515  1.00  0.00     0.016 A 
ATOM     33  C   UNL A   1      40.296  33.353  32.617  1.00  0.00     0.016 A 
ATOM     34  C   UNL A   1      40.355  30.619  33.257  1.00  0.00     0.010 A 
ATOM     35  C   UNL A   1      41.448  32.597  32.380  1.00  0.00     0.010 A 
ATOM     36  C   UNL A   1      41.495  31.232  32.725  1.00  0.00    -0.014 A 
BRANCH  36  37
ATOM     37  C   UNL A   1      42.797  30.512  32.712  1.00  0.00     0.031 A 
ATOM     38  C   UNL A   1      43.126  29.666  31.510  1.00  0.00     0.074 A 
ATOM     39  C   UNL A   1      43.673  30.605  33.727  1.00  0.00     0.049 A 
ATOM     40  N   UNL A   1      44.142  28.869  31.304  1.00  0.00    -0.248 NA
ATOM     41  C   UNL A   1      42.170  29.727  30.394  1.00  0.00     0.031 C 
ATOM     42  C   UNL A   1      43.502  31.433  34.919  1.00  0.00     0.029 A 
ATOM     43  N   UNL A   1      44.883  29.983  33.923  1.00  0.00    -0.354 N 
ATOM     44  C   UNL A   1      43.946  28.328  30.038  1.00  0.00     0.074 A 
ATOM     45  C   UNL A   1      42.693  28.858  29.544  1.00  0.00     0.031 C 
ATOM     46  C   UNL A   1      44.561  31.254  35.730  1.00  0.00     0.029 A 
ATOM     47  C   UNL A   1      45.462  30.265  35.139  1.00  0.00     0.049 A 
ATOM     48  H   UNL A   1      45.298  29.390  33.254  1.00  0.00     0.167 HD
ATOM     49  C   UNL A   1      44.741  27.476  29.345  1.00  0.00     0.034 A 
ATOM     50  C   UNL A   1      46.569  29.756  35.722  1.00  0.00     0.034 A 
ATOM     51  C   UNL A   1      45.980  26.941  29.854  1.00  0.00     0.049 A 
ATOM     52  C   UNL A   1      47.384  28.721  34.979  1.00  0.00     0.074 A 
ATOM     53  C   UNL A   1      46.861  26.071  29.236  1.00  0.00     0.029 A 
ATOM     54  N   UNL A   1      46.508  27.212  31.110  1.00  0.00    -0.354 N 
ATOM     55  N   UNL A   1      47.187  28.212  33.783  1.00  0.00    -0.248 NA
ATOM     56  C   UNL A   1      48.576  28.195  35.662  1.00  0.00     0.031 C 
ATOM     57  C   UNL A   1      47.875  25.752  30.145  1.00  0.00     0.029 A 
ATOM     58  C   UNL A   1      47.682  26.497  31.297  1.00  0.00     0.049 A 
ATOM     59  H   UNL A   1      46.108  27.822  31.772  1.00  0.00     0.167 HD
ATOM     60  C   UNL A   1      48.251  27.337  33.560  1.00  0.00     0.074 A 
ATOM     61  C   UNL A   1      49.091  27.397  34.739  1.00  0.00     0.031 C 
ATOM     62  C   UNL A   1      48.513  26.558  32.479  1.00  0.00     0.034 A 
BRANCH  49  63
ATOM     63  C   UNL A   1      44.261  27.031  27.985  1.00  0.00     0.023 A 
ATOM     64  C   UNL A   1      43.709  25.754  27.775  1.00  0.00     0.031 A 
ATOM     65  C   UNL A   1      44.385  27.883  26.873  1.00  0.00     0.131 A 
ATOM     66  C   UNL A   1      43.374  25.340  26.478  1.00  0.00     0.055 A 
ATOM     67  C   UNL A   1      43.966  27.498  25.598  1.00  0.00     0.041 A 
ATOM     68  F   UNL A   1      44.928  29.103  27.004  1.00  0.00    -0.206 F 
ATOM     69  C   UNL A   1      43.472  26.213  25.391  1.00  0.00     0.022 A 
BRANCH  66  70
ATOM     70  S   UNL A   1      42.957  23.597  26.206  1.00  0.00     0.124 S 
ATOM     71  O   UNL A   1      44.003  22.921  26.971  1.00  0.00    -0.237 OA
ATOM     72  O   UNL A   1      41.608  23.506  26.751  1.00  0.00    -0.237 OA
ATOM     73  O   UNL A   1      43.058  23.442  24.757  1.00  0.00    -0.744 OA
ENDBRANCH  66  70
ENDBRANCH  49  63
BRANCH  50  74
ATOM     74  C   UNL A   1      46.954  30.163  37.107  1.00  0.00     0.023 A 
ATOM     75  C   UNL A   1      46.436  29.505  38.234  1.00  0.00     0.031 A 
ATOM     76  C   UNL A   1      47.795  31.271  37.324  1.00  0.00     0.131 A 
ATOM     77  C   UNL A   1      46.720  29.988  39.521  1.00  0.00     0.055 A 
ATOM     78  C   UNL A   1      48.125  31.709  38.607  1.00  0.00     0.041 A 
ATOM     79  F   UNL A   1      48.310  31.946  36.285  1.00  0.00    -0.206 F 
ATOM     80  C   UNL A   1      47.575  31.075  39.716  1.00  0.00     0.022 A 
BRANCH  77  81
ATOM     81  S   UNL A   1      45.871  29.239  40.940  1.00  0.00     0.124 S 
ATOM     82  O   UNL A   1      45.219  30.398  41.540  1.00  0.00    -0.237 OA
ATOM     83  O   UNL A   1      44.991  28.273  40.291  1.00  0.00    -0.237 OA
ATOM     84  O   UNL A   1      46.961  28.660  41.723  1.00  0.00    -0.744 OA
ENDBRANCH  77  81
ENDBRANCH  50  74
BRANCH  62  85
ATOM     85  C   UNL A   1      49.793  25.753  32.491  1.00  0.00     0.023 A 
ATOM     86  C   UNL A   1      49.825  24.407  32.895  1.00  0.00     0.031 A 
ATOM     87  C   UNL A   1      51.003  26.348  32.088  1.00  0.00     0.131 A 
ATOM     88  C   UNL A   1      51.048  23.719  32.943  1.00  0.00     0.055 A 
ATOM     89  C   UNL A   1      52.205  25.639  32.072  1.00  0.00     0.041 A 
ATOM     90  F   UNL A   1      51.036  27.632  31.696  1.00  0.00    -0.206 F 
ATOM     91  C   UNL A   1      52.235  24.320  32.514  1.00  0.00     0.022 A 
BRANCH  88  92
ATOM     92  S   UNL A   1      51.088  22.057  33.669  1.00  0.00     0.124 S 
ATOM     93  O   UNL A   1      49.701  21.877  34.087  1.00  0.00    -0.237 OA
ATOM     94  O   UNL A   1      51.528  21.236  32.547  1.00  0.00    -0.237 OA
ATOM     95  O   UNL A   1      52.052  22.182  34.761  1.00  0.00    -0.744 OA
ENDBRANCH  88  92
ENDBRANCH  62  85
ENDBRANCH  36  37
ENDBRANCH  29  31
ENDBRANCH  28  29
ENDBRANCH  27  28
ENDBRANCH  26  27
ENDBRANCH  25  26
ENDBRANCH  24  25
ENDBRANCH   1  24
TORSDOF 23
ENDMDL
