MODEL 1
REMARK VINA RESULT:      -9.1      0.000      0.000
REMARK SMILES COCCNC(=O)Cn1ccc(C(=O)OCCOCCOCCOC(=O)c2ccc(-c3c4nc(c(-c5cc(S(=O)(=O)[O-])ccc5F)c5ccc([nH]5)c(-c5cc(S(=O)(=O)[O-])ccc5F)c5nc(c(-c6cc(S(=O)(=O)[O-])ccc6F)c6ccc3[nH]6)C=C5)C=C4)cc2)c1
REMARK SMILES IDX 19 1 18 2 17 3 16 4 15 5 13 6 14 7 12 8 9 9 10 10 90 11
REMARK SMILES IDX 11 12 8 13 6 14 5 15 7 17 4 18 3 19 2 20 1 21 20 22 21 23
REMARK SMILES IDX 22 24 23 25 24 26 25 27 26 28 27 29 28 30 89 31 29 32 88 33
REMARK SMILES IDX 30 34 31 35 32 36 82 37 33 38 87 39 81 40 83 41 34 42 86 43
REMARK SMILES IDX 80 44 79 45 35 47 67 48 47 49 66 50 48 51 51 52 65 53 84 54
REMARK SMILES IDX 49 55 50 56 64 58 85 59 52 60 36 61 37 62 45 63 38 64 44 65
REMARK SMILES IDX 46 66 43 67 39 68 40 69 41 70 42 71 68 72 69 73 77 74 70 75
REMARK SMILES IDX 76 76 78 77 75 78 71 79 72 80 73 81 74 82 53 83 54 84 62 85
REMARK SMILES IDX 55 86 61 87 63 88 60 89 56 90 57 91 58 92 59 93
REMARK H PARENT 5 16 83 46 51 57
REMARK Flexibility Score: inf
ROOT
ATOM      1  C   UNL A   1      40.722  21.705  26.608  1.00  0.00     0.188 C 
ENDROOT
BRANCH   1   2
ATOM      2  O   UNL A   1      39.437  21.126  26.425  1.00  0.00    -0.376 OA
BRANCH   2   3
ATOM      3  C   UNL A   1      38.410  21.843  25.762  1.00  0.00     0.202 C 
BRANCH   3   4
ATOM      4  C   UNL A   1      38.240  23.337  26.077  1.00  0.00     0.261 C 
BRANCH   4   5
ATOM      5  O   UNL A   1      36.878  23.794  26.146  1.00  0.00    -0.460 OA
BRANCH   5   6
ATOM      6  C   UNL A   1      36.063  23.384  25.131  1.00  0.00     0.339 C 
ATOM      7  O   UNL A   1      36.218  23.680  23.954  1.00  0.00    -0.246 OA
BRANCH   6   8
ATOM      8  C   UNL A   1      35.052  22.414  25.558  1.00  0.00     0.077 A 
ATOM      9  N   UNL A   1      33.457  20.838  25.636  1.00  0.00    -0.344 N 
ATOM     10  C   UNL A   1      33.653  21.268  26.925  1.00  0.00     0.087 A 
ATOM     11  C   UNL A   1      34.276  21.553  24.792  1.00  0.00     0.101 A 
ATOM     12  C   UNL A   1      34.649  22.214  26.912  1.00  0.00     0.035 A 
BRANCH   9  13
ATOM     13  C   UNL A   1      32.651  19.669  25.308  1.00  0.00     0.221 C 
BRANCH  13  14
ATOM     14  C   UNL A   1      32.813  19.110  23.915  1.00  0.00     0.239 C 
ATOM     15  N   UNL A   1      33.773  18.177  23.657  1.00  0.00    -0.352 N 
ATOM     16  H   UNL A   1      34.003  18.059  22.708  1.00  0.00     0.163 HD
ATOM     17  O   UNL A   1      32.153  19.549  22.970  1.00  0.00    -0.273 OA
BRANCH  15  18
ATOM     18  C   UNL A   1      34.508  17.329  24.586  1.00  0.00     0.144 C 
BRANCH  18  19
ATOM     19  C   UNL A   1      34.339  15.847  24.243  1.00  0.00     0.181 C 
BRANCH  19  20
ATOM     20  O   UNL A   1      33.934  15.084  25.378  1.00  0.00    -0.383 OA
ATOM     21  C   UNL A   1      32.529  15.009  25.566  1.00  0.00     0.194 C 
ENDBRANCH  19  20
ENDBRANCH  18  19
ENDBRANCH  15  18
ENDBRANCH  13  14
ENDBRANCH   9  13
ENDBRANCH   6   8
ENDBRANCH   5   6
ENDBRANCH   4   5
ENDBRANCH   3   4
ENDBRANCH   2   3
ENDBRANCH   1   2
BRANCH   1  22
ATOM     22  C   UNL A   1      41.737  21.161  27.636  1.00  0.00     0.188 C 
BRANCH  22  23
ATOM     23  O   UNL A   1      42.232  19.852  27.403  1.00  0.00    -0.376 OA
BRANCH  23  24
ATOM     24  C   UNL A   1      42.078  19.349  26.081  1.00  0.00     0.202 C 
BRANCH  24  25
ATOM     25  C   UNL A   1      43.404  19.044  25.377  1.00  0.00     0.261 C 
BRANCH  25  26
ATOM     26  O   UNL A   1      44.379  20.082  25.479  1.00  0.00    -0.460 OA
BRANCH  26  27
ATOM     27  C   UNL A   1      44.519  20.793  24.343  1.00  0.00     0.338 C 
ATOM     28  O   UNL A   1      44.560  20.375  23.201  1.00  0.00    -0.246 OA
BRANCH  27  29
ATOM     29  C   UNL A   1      44.685  22.203  24.647  1.00  0.00     0.060 A 
ATOM     30  C   UNL A   1      45.921  22.584  25.176  1.00  0.00     0.016 A 
ATOM     31  C   UNL A   1      43.515  22.945  24.815  1.00  0.00     0.016 A 
ATOM     32  C   UNL A   1      45.947  23.637  26.057  1.00  0.00     0.010 A 
ATOM     33  C   UNL A   1      43.532  23.959  25.743  1.00  0.00     0.010 A 
ATOM     34  C   UNL A   1      44.734  24.245  26.403  1.00  0.00    -0.014 A 
BRANCH  34  35
ATOM     35  C   UNL A   1      44.753  25.202  27.510  1.00  0.00     0.031 A 
ATOM     36  C   UNL A   1      45.052  26.609  27.000  1.00  0.00     0.074 A 
ATOM     37  C   UNL A   1      44.592  24.648  28.755  1.00  0.00     0.049 A 
ATOM     38  N   UNL A   1      45.726  27.564  27.559  1.00  0.00    -0.248 NA
ATOM     39  C   UNL A   1      44.661  26.973  25.608  1.00  0.00     0.031 C 
ATOM     40  C   UNL A   1      44.334  23.208  29.029  1.00  0.00     0.029 A 
ATOM     41  N   UNL A   1      44.623  25.154  30.033  1.00  0.00    -0.354 N 
ATOM     42  C   UNL A   1      45.631  28.690  26.714  1.00  0.00     0.074 A 
ATOM     43  C   UNL A   1      45.116  28.219  25.467  1.00  0.00     0.031 C 
ATOM     44  C   UNL A   1      44.315  22.957  30.359  1.00  0.00     0.029 A 
ATOM     45  C   UNL A   1      44.530  24.195  31.082  1.00  0.00     0.049 A 
ATOM     46  H   UNL A   1      44.705  26.118  30.213  1.00  0.00     0.167 HD
ATOM     47  C   UNL A   1      45.830  29.966  27.151  1.00  0.00     0.034 A 
ATOM     48  C   UNL A   1      44.664  24.384  32.432  1.00  0.00     0.034 A 
ATOM     49  C   UNL A   1      46.143  29.952  28.542  1.00  0.00     0.049 A 
ATOM     50  C   UNL A   1      44.830  25.841  32.574  1.00  0.00     0.074 A 
ATOM     51  C   UNL A   1      47.263  29.606  29.246  1.00  0.00     0.029 A 
ATOM     52  N   UNL A   1      45.087  30.079  29.414  1.00  0.00    -0.354 N 
ATOM     53  N   UNL A   1      43.883  26.717  32.435  1.00  0.00    -0.248 NA
ATOM     54  C   UNL A   1      46.180  26.369  32.805  1.00  0.00     0.031 C 
ATOM     55  C   UNL A   1      46.753  29.109  30.463  1.00  0.00     0.029 A 
ATOM     56  C   UNL A   1      45.363  29.291  30.504  1.00  0.00     0.049 A 
ATOM     57  H   UNL A   1      44.282  30.630  29.282  1.00  0.00     0.167 HD
ATOM     58  C   UNL A   1      44.578  27.890  32.265  1.00  0.00     0.074 A 
ATOM     59  C   UNL A   1      45.893  27.668  32.821  1.00  0.00     0.031 C 
ATOM     60  C   UNL A   1      44.249  28.729  31.248  1.00  0.00     0.034 A 
BRANCH  47  61
ATOM     61  C   UNL A   1      45.567  31.312  26.532  1.00  0.00     0.023 A 
ATOM     62  C   UNL A   1      46.675  32.193  26.479  1.00  0.00     0.031 A 
ATOM     63  C   UNL A   1      44.312  31.876  26.272  1.00  0.00     0.131 A 
ATOM     64  C   UNL A   1      46.511  33.572  26.315  1.00  0.00     0.055 A 
ATOM     65  C   UNL A   1      44.157  33.250  26.032  1.00  0.00     0.041 A 
ATOM     66  F   UNL A   1      43.187  31.151  26.322  1.00  0.00    -0.206 F 
ATOM     67  C   UNL A   1      45.252  34.112  26.090  1.00  0.00     0.022 A 
BRANCH  64  68
ATOM     68  S   UNL A   1      47.955  34.638  26.585  1.00  0.00     0.124 S 
ATOM     69  O   UNL A   1      48.931  34.084  25.653  1.00  0.00    -0.237 OA
ATOM     70  O   UNL A   1      47.426  35.956  26.246  1.00  0.00    -0.237 OA
ATOM     71  O   UNL A   1      48.263  34.438  28.000  1.00  0.00    -0.744 OA
ENDBRANCH  64  68
ENDBRANCH  47  61
BRANCH  48  72
ATOM     72  C   UNL A   1      44.773  23.576  33.719  1.00  0.00     0.023 A 
ATOM     73  C   UNL A   1      45.584  22.449  33.943  1.00  0.00     0.031 A 
ATOM     74  C   UNL A   1      44.018  23.996  34.862  1.00  0.00     0.131 A 
ATOM     75  C   UNL A   1      45.657  21.864  35.244  1.00  0.00     0.055 A 
ATOM     76  C   UNL A   1      44.158  23.473  36.147  1.00  0.00     0.041 A 
ATOM     77  F   UNL A   1      43.086  24.954  34.794  1.00  0.00    -0.206 F 
ATOM     78  C   UNL A   1      44.994  22.404  36.348  1.00  0.00     0.022 A 
BRANCH  75  79
ATOM     79  S   UNL A   1      46.634  20.363  35.566  1.00  0.00     0.124 S 
ATOM     80  O   UNL A   1      47.337  20.184  34.299  1.00  0.00    -0.237 OA
ATOM     81  O   UNL A   1      47.456  20.740  36.710  1.00  0.00    -0.237 OA
ATOM     82  O   UNL A   1      45.609  19.356  35.851  1.00  0.00    -0.744 OA
ENDBRANCH  75  79
ENDBRANCH  48  72
BRANCH  60  83
ATOM     83  C   UNL A   1      42.806  28.589  30.764  1.00  0.00     0.023 A 
ATOM     84  C   UNL A   1      42.481  27.694  29.726  1.00  0.00     0.031 A 
ATOM     85  C   UNL A   1      41.753  29.406  31.215  1.00  0.00     0.131 A 
ATOM     86  C   UNL A   1      41.182  27.664  29.174  1.00  0.00     0.055 A 
ATOM     87  C   UNL A   1      40.462  29.377  30.675  1.00  0.00     0.041 A 
ATOM     88  F   UNL A   1      41.941  30.277  32.202  1.00  0.00    -0.206 F 
ATOM     89  C   UNL A   1      40.171  28.505  29.641  1.00  0.00     0.022 A 
BRANCH  86  90
ATOM     90  S   UNL A   1      40.804  26.486  27.848  1.00  0.00     0.124 S 
ATOM     91  O   UNL A   1      39.353  26.581  27.737  1.00  0.00    -0.237 OA
ATOM     92  O   UNL A   1      41.569  27.019  26.724  1.00  0.00    -0.237 OA
ATOM     93  O   UNL A   1      41.300  25.212  28.371  1.00  0.00    -0.744 OA
ENDBRANCH  86  90
ENDBRANCH  60  83
ENDBRANCH  34  35
ENDBRANCH  27  29
ENDBRANCH  26  27
ENDBRANCH  25  26
ENDBRANCH  24  25
ENDBRANCH  23  24
ENDBRANCH  22  23
ENDBRANCH   1  22
TORSDOF 25
ENDMDL
MODEL 2
REMARK VINA RESULT:      -9.0      3.793      7.403
REMARK SMILES COCCNC(=O)Cn1ccc(C(=O)OCCOCCOCCOC(=O)c2ccc(-c3c4nc(c(-c5cc(S(=O)(=O)[O-])ccc5F)c5ccc([nH]5)c(-c5cc(S(=O)(=O)[O-])ccc5F)c5nc(c(-c6cc(S(=O)(=O)[O-])ccc6F)c6ccc3[nH]6)C=C5)C=C4)cc2)c1
REMARK SMILES IDX 19 1 18 2 17 3 16 4 15 5 13 6 14 7 12 8 9 9 10 10 90 11
REMARK SMILES IDX 11 12 8 13 6 14 5 15 7 17 4 18 3 19 2 20 1 21 20 22 21 23
REMARK SMILES IDX 22 24 23 25 24 26 25 27 26 28 27 29 28 30 89 31 29 32 88 33
REMARK SMILES IDX 30 34 31 35 32 36 82 37 33 38 87 39 81 40 83 41 34 42 86 43
REMARK SMILES IDX 80 44 79 45 35 47 67 48 47 49 66 50 48 51 51 52 65 53 84 54
REMARK SMILES IDX 49 55 50 56 64 58 85 59 52 60 36 61 37 62 45 63 38 64 44 65
REMARK SMILES IDX 46 66 43 67 39 68 40 69 41 70 42 71 68 72 69 73 77 74 70 75
REMARK SMILES IDX 76 76 78 77 75 78 71 79 72 80 73 81 74 82 53 83 54 84 62 85
REMARK SMILES IDX 55 86 61 87 63 88 60 89 56 90 57 91 58 92 59 93
REMARK H PARENT 5 16 83 46 51 57
REMARK Flexibility Score: inf
ROOT
ATOM      1  C   UNL A   1      32.566  29.336  24.495  1.00  0.00     0.188 C 
ENDROOT
BRANCH   1   2
ATOM      2  O   UNL A   1      31.985  28.138  23.998  1.00  0.00    -0.376 OA
BRANCH   2   3
ATOM      3  C   UNL A   1      32.733  27.263  23.171  1.00  0.00     0.202 C 
BRANCH   3   4
ATOM      4  C   UNL A   1      32.087  26.747  21.876  1.00  0.00     0.261 C 
BRANCH   4   5
ATOM      5  O   UNL A   1      31.568  25.409  21.944  1.00  0.00    -0.460 OA
BRANCH   5   6
ATOM      6  C   UNL A   1      32.497  24.420  22.094  1.00  0.00     0.339 C 
ATOM      7  O   UNL A   1      33.460  24.254  21.359  1.00  0.00    -0.246 OA
BRANCH   6   8
ATOM      8  C   UNL A   1      32.324  23.649  23.328  1.00  0.00     0.077 A 
ATOM      9  N   UNL A   1      32.513  22.166  25.001  1.00  0.00    -0.344 N 
ATOM     10  C   UNL A   1      31.408  22.934  25.274  1.00  0.00     0.087 A 
ATOM     11  C   UNL A   1      33.056  22.567  23.803  1.00  0.00     0.101 A 
ATOM     12  C   UNL A   1      31.285  23.874  24.280  1.00  0.00     0.035 A 
BRANCH   9  13
ATOM     13  C   UNL A   1      33.085  21.235  25.966  1.00  0.00     0.221 C 
BRANCH  13  14
ATOM     14  C   UNL A   1      34.447  20.677  25.636  1.00  0.00     0.239 C 
ATOM     15  N   UNL A   1      34.566  19.434  25.089  1.00  0.00    -0.352 N 
ATOM     16  H   UNL A   1      35.462  19.030  25.149  1.00  0.00     0.163 HD
ATOM     17  O   UNL A   1      35.477  21.285  25.938  1.00  0.00    -0.273 OA
BRANCH  15  18
ATOM     18  C   UNL A   1      33.558  18.618  24.426  1.00  0.00     0.144 C 
BRANCH  18  19
ATOM     19  C   UNL A   1      32.755  17.793  25.435  1.00  0.00     0.181 C 
BRANCH  19  20
ATOM     20  O   UNL A   1      32.521  16.467  24.966  1.00  0.00    -0.383 OA
ATOM     21  C   UNL A   1      33.530  15.531  25.318  1.00  0.00     0.194 C 
ENDBRANCH  19  20
ENDBRANCH  18  19
ENDBRANCH  15  18
ENDBRANCH  13  14
ENDBRANCH   9  13
ENDBRANCH   6   8
ENDBRANCH   5   6
ENDBRANCH   4   5
ENDBRANCH   3   4
ENDBRANCH   2   3
ENDBRANCH   1   2
BRANCH   1  22
ATOM     22  C   UNL A   1      31.866  30.221  25.548  1.00  0.00     0.188 C 
BRANCH  22  23
ATOM     23  O   UNL A   1      31.862  29.735  26.881  1.00  0.00    -0.376 OA
BRANCH  23  24
ATOM     24  C   UNL A   1      33.060  29.931  27.623  1.00  0.00     0.202 C 
BRANCH  24  25
ATOM     25  C   UNL A   1      33.531  31.388  27.666  1.00  0.00     0.261 C 
BRANCH  25  26
ATOM     26  O   UNL A   1      34.950  31.550  27.662  1.00  0.00    -0.460 OA
BRANCH  26  27
ATOM     27  C   UNL A   1      35.520  31.261  28.849  1.00  0.00     0.338 C 
ATOM     28  O   UNL A   1      35.392  31.855  29.903  1.00  0.00    -0.246 OA
BRANCH  27  29
ATOM     29  C   UNL A   1      36.409  30.121  28.717  1.00  0.00     0.060 A 
ATOM     30  C   UNL A   1      36.762  29.467  29.901  1.00  0.00     0.016 A 
ATOM     31  C   UNL A   1      37.166  30.054  27.546  1.00  0.00     0.016 A 
ATOM     32  C   UNL A   1      38.005  28.887  29.969  1.00  0.00     0.010 A 
ATOM     33  C   UNL A   1      38.433  29.526  27.636  1.00  0.00     0.010 A 
ATOM     34  C   UNL A   1      38.860  29.013  28.867  1.00  0.00    -0.014 A 
BRANCH  34  35
ATOM     35  C   UNL A   1      40.252  28.597  29.045  1.00  0.00     0.031 A 
ATOM     36  C   UNL A   1      41.120  29.784  29.453  1.00  0.00     0.074 A 
ATOM     37  C   UNL A   1      40.507  27.286  28.733  1.00  0.00     0.049 A 
ATOM     38  N   UNL A   1      42.349  30.052  29.145  1.00  0.00    -0.248 NA
ATOM     39  C   UNL A   1      40.498  30.912  30.206  1.00  0.00     0.031 C 
ATOM     40  C   UNL A   1      39.486  26.285  28.317  1.00  0.00     0.029 A 
ATOM     41  N   UNL A   1      41.651  26.525  28.682  1.00  0.00    -0.354 N 
ATOM     42  C   UNL A   1      42.709  31.221  29.849  1.00  0.00     0.074 A 
ATOM     43  C   UNL A   1      41.493  31.789  30.340  1.00  0.00     0.031 C 
ATOM     44  C   UNL A   1      40.060  25.105  27.989  1.00  0.00     0.029 A 
ATOM     45  C   UNL A   1      41.494  25.202  28.177  1.00  0.00     0.049 A 
ATOM     46  H   UNL A   1      42.524  26.871  28.974  1.00  0.00     0.167 HD
ATOM     47  C   UNL A   1      44.003  31.557  30.119  1.00  0.00     0.034 A 
ATOM     48  C   UNL A   1      42.459  24.273  27.890  1.00  0.00     0.034 A 
ATOM     49  C   UNL A   1      44.876  30.567  29.581  1.00  0.00     0.049 A 
ATOM     50  C   UNL A   1      43.712  24.916  28.319  1.00  0.00     0.074 A 
ATOM     51  C   UNL A   1      45.288  30.272  28.311  1.00  0.00     0.029 A 
ATOM     52  N   UNL A   1      45.228  29.532  30.417  1.00  0.00    -0.354 N 
ATOM     53  N   UNL A   1      44.084  25.081  29.551  1.00  0.00    -0.248 NA
ATOM     54  C   UNL A   1      44.584  25.499  27.291  1.00  0.00     0.031 C 
ATOM     55  C   UNL A   1      45.487  28.876  28.339  1.00  0.00     0.029 A 
ATOM     56  C   UNL A   1      45.317  28.400  29.647  1.00  0.00     0.049 A 
ATOM     57  H   UNL A   1      45.385  29.592  31.387  1.00  0.00     0.167 HD
ATOM     58  C   UNL A   1      45.063  26.038  29.448  1.00  0.00     0.074 A 
ATOM     59  C   UNL A   1      45.532  25.994  28.081  1.00  0.00     0.031 C 
ATOM     60  C   UNL A   1      45.044  27.118  30.273  1.00  0.00     0.034 A 
BRANCH  47  61
ATOM     61  C   UNL A   1      44.624  32.586  31.023  1.00  0.00     0.023 A 
ATOM     62  C   UNL A   1      45.140  33.740  30.382  1.00  0.00     0.031 A 
ATOM     63  C   UNL A   1      44.995  32.402  32.361  1.00  0.00     0.131 A 
ATOM     64  C   UNL A   1      46.076  34.571  31.004  1.00  0.00     0.055 A 
ATOM     65  C   UNL A   1      45.877  33.281  33.010  1.00  0.00     0.041 A 
ATOM     66  F   UNL A   1      44.596  31.335  33.065  1.00  0.00    -0.206 F 
ATOM     67  C   UNL A   1      46.452  34.349  32.322  1.00  0.00     0.022 A 
BRANCH  64  68
ATOM     68  S   UNL A   1      46.910  35.823  29.988  1.00  0.00     0.124 S 
ATOM     69  O   UNL A   1      47.254  35.070  28.787  1.00  0.00    -0.237 OA
ATOM     70  O   UNL A   1      45.866  36.831  29.831  1.00  0.00    -0.237 OA
ATOM     71  O   UNL A   1      48.045  36.228  30.815  1.00  0.00    -0.744 OA
ENDBRANCH  64  68
ENDBRANCH  47  61
BRANCH  48  72
ATOM     72  C   UNL A   1      42.606  22.911  27.224  1.00  0.00     0.023 A 
ATOM     73  C   UNL A   1      43.560  22.539  26.261  1.00  0.00     0.031 A 
ATOM     74  C   UNL A   1      41.726  21.851  27.620  1.00  0.00     0.131 A 
ATOM     75  C   UNL A   1      43.637  21.187  25.810  1.00  0.00     0.055 A 
ATOM     76  C   UNL A   1      41.861  20.517  27.240  1.00  0.00     0.041 A 
ATOM     77  F   UNL A   1      40.667  22.057  28.413  1.00  0.00    -0.206 F 
ATOM     78  C   UNL A   1      42.832  20.174  26.335  1.00  0.00     0.022 A 
BRANCH  75  79
ATOM     79  S   UNL A   1      44.805  20.674  24.512  1.00  0.00     0.124 S 
ATOM     80  O   UNL A   1      46.077  20.689  25.229  1.00  0.00    -0.237 OA
ATOM     81  O   UNL A   1      44.307  19.362  24.115  1.00  0.00    -0.237 OA
ATOM     82  O   UNL A   1      44.655  21.721  23.499  1.00  0.00    -0.744 OA
ENDBRANCH  75  79
ENDBRANCH  48  72
BRANCH  60  83
ATOM     83  C   UNL A   1      44.304  26.883  31.591  1.00  0.00     0.023 A 
ATOM     84  C   UNL A   1      43.175  27.654  31.926  1.00  0.00     0.031 A 
ATOM     85  C   UNL A   1      44.757  26.000  32.588  1.00  0.00     0.131 A 
ATOM     86  C   UNL A   1      42.576  27.547  33.200  1.00  0.00     0.055 A 
ATOM     87  C   UNL A   1      44.164  25.885  33.851  1.00  0.00     0.041 A 
ATOM     88  F   UNL A   1      45.806  25.211  32.375  1.00  0.00    -0.206 F 
ATOM     89  C   UNL A   1      43.068  26.669  34.166  1.00  0.00     0.022 A 
BRANCH  86  90
ATOM     90  S   UNL A   1      41.114  28.548  33.585  1.00  0.00     0.124 S 
ATOM     91  O   UNL A   1      40.155  28.119  32.574  1.00  0.00    -0.237 OA
ATOM     92  O   UNL A   1      40.815  28.156  34.959  1.00  0.00    -0.237 OA
ATOM     93  O   UNL A   1      41.593  29.923  33.436  1.00  0.00    -0.744 OA
ENDBRANCH  86  90
ENDBRANCH  60  83
ENDBRANCH  34  35
ENDBRANCH  27  29
ENDBRANCH  26  27
ENDBRANCH  25  26
ENDBRANCH  24  25
ENDBRANCH  23  24
ENDBRANCH  22  23
ENDBRANCH   1  22
TORSDOF 25
ENDMDL
MODEL 3
REMARK VINA RESULT:      -9.0      4.085      7.682
REMARK SMILES COCCNC(=O)Cn1ccc(C(=O)OCCOCCOCCOC(=O)c2ccc(-c3c4nc(c(-c5cc(S(=O)(=O)[O-])ccc5F)c5ccc([nH]5)c(-c5cc(S(=O)(=O)[O-])ccc5F)c5nc(c(-c6cc(S(=O)(=O)[O-])ccc6F)c6ccc3[nH]6)C=C5)C=C4)cc2)c1
REMARK SMILES IDX 19 1 18 2 17 3 16 4 15 5 13 6 14 7 12 8 9 9 10 10 90 11
REMARK SMILES IDX 11 12 8 13 6 14 5 15 7 17 4 18 3 19 2 20 1 21 20 22 21 23
REMARK SMILES IDX 22 24 23 25 24 26 25 27 26 28 27 29 28 30 89 31 29 32 88 33
REMARK SMILES IDX 30 34 31 35 32 36 82 37 33 38 87 39 81 40 83 41 34 42 86 43
REMARK SMILES IDX 80 44 79 45 35 47 67 48 47 49 66 50 48 51 51 52 65 53 84 54
REMARK SMILES IDX 49 55 50 56 64 58 85 59 52 60 36 61 37 62 45 63 38 64 44 65
REMARK SMILES IDX 46 66 43 67 39 68 40 69 41 70 42 71 68 72 69 73 77 74 70 75
REMARK SMILES IDX 76 76 78 77 75 78 71 79 72 80 73 81 74 82 53 83 54 84 62 85
REMARK SMILES IDX 55 86 61 87 63 88 60 89 56 90 57 91 58 92 59 93
REMARK H PARENT 5 16 83 46 51 57
REMARK Flexibility Score: inf
ROOT
ATOM      1  C   UNL A   1      32.510  29.354  24.532  1.00  0.00     0.188 C 
ENDROOT
BRANCH   1   2
ATOM      2  O   UNL A   1      32.584  28.097  23.873  1.00  0.00    -0.376 OA
BRANCH   2   3
ATOM      3  C   UNL A   1      32.689  26.896  24.619  1.00  0.00     0.202 C 
BRANCH   3   4
ATOM      4  C   UNL A   1      33.913  25.996  24.389  1.00  0.00     0.261 C 
BRANCH   4   5
ATOM      5  O   UNL A   1      34.272  25.795  23.012  1.00  0.00    -0.460 OA
BRANCH   5   6
ATOM      6  C   UNL A   1      33.452  24.968  22.300  1.00  0.00     0.339 C 
ATOM      7  O   UNL A   1      32.966  25.241  21.211  1.00  0.00    -0.246 OA
BRANCH   6   8
ATOM      8  C   UNL A   1      33.323  23.634  22.892  1.00  0.00     0.077 A 
ATOM      9  N   UNL A   1      33.694  21.672  23.914  1.00  0.00    -0.344 N 
ATOM     10  C   UNL A   1      32.396  21.647  23.468  1.00  0.00     0.087 A 
ATOM     11  C   UNL A   1      34.278  22.859  23.539  1.00  0.00     0.101 A 
ATOM     12  C   UNL A   1      32.130  22.852  22.864  1.00  0.00     0.035 A 
BRANCH   9  13
ATOM     13  C   UNL A   1      34.239  20.662  24.813  1.00  0.00     0.221 C 
BRANCH  13  14
ATOM     14  C   UNL A   1      35.297  21.126  25.784  1.00  0.00     0.239 C 
ATOM     15  N   UNL A   1      34.963  21.940  26.826  1.00  0.00    -0.352 N 
ATOM     16  H   UNL A   1      35.714  22.415  27.248  1.00  0.00     0.163 HD
ATOM     17  O   UNL A   1      36.488  20.863  25.606  1.00  0.00    -0.273 OA
BRANCH  15  18
ATOM     18  C   UNL A   1      33.652  22.207  27.403  1.00  0.00     0.144 C 
BRANCH  18  19
ATOM     19  C   UNL A   1      33.175  23.623  27.076  1.00  0.00     0.181 C 
BRANCH  19  20
ATOM     20  O   UNL A   1      31.959  23.613  26.331  1.00  0.00    -0.383 OA
ATOM     21  C   UNL A   1      31.054  22.581  26.696  1.00  0.00     0.194 C 
ENDBRANCH  19  20
ENDBRANCH  18  19
ENDBRANCH  15  18
ENDBRANCH  13  14
ENDBRANCH   9  13
ENDBRANCH   6   8
ENDBRANCH   5   6
ENDBRANCH   4   5
ENDBRANCH   3   4
ENDBRANCH   2   3
ENDBRANCH   1   2
BRANCH   1  22
ATOM     22  C   UNL A   1      31.661  29.574  25.802  1.00  0.00     0.188 C 
BRANCH  22  23
ATOM     23  O   UNL A   1      32.217  29.114  27.023  1.00  0.00    -0.376 OA
BRANCH  23  24
ATOM     24  C   UNL A   1      33.539  29.553  27.314  1.00  0.00     0.202 C 
BRANCH  24  25
ATOM     25  C   UNL A   1      33.639  31.050  27.626  1.00  0.00     0.261 C 
BRANCH  25  26
ATOM     26  O   UNL A   1      34.975  31.540  27.737  1.00  0.00    -0.460 OA
BRANCH  26  27
ATOM     27  C   UNL A   1      35.552  31.245  28.919  1.00  0.00     0.338 C 
ATOM     28  O   UNL A   1      35.433  31.836  29.976  1.00  0.00    -0.246 OA
BRANCH  27  29
ATOM     29  C   UNL A   1      36.437  30.103  28.777  1.00  0.00     0.060 A 
ATOM     30  C   UNL A   1      36.832  29.471  29.960  1.00  0.00     0.016 A 
ATOM     31  C   UNL A   1      37.151  30.013  27.581  1.00  0.00     0.016 A 
ATOM     32  C   UNL A   1      38.078  28.894  29.994  1.00  0.00     0.010 A 
ATOM     33  C   UNL A   1      38.420  29.488  27.636  1.00  0.00     0.010 A 
ATOM     34  C   UNL A   1      38.892  28.998  28.860  1.00  0.00    -0.014 A 
BRANCH  34  35
ATOM     35  C   UNL A   1      40.290  28.585  28.995  1.00  0.00     0.031 A 
ATOM     36  C   UNL A   1      41.172  29.781  29.346  1.00  0.00     0.074 A 
ATOM     37  C   UNL A   1      40.534  27.268  28.702  1.00  0.00     0.049 A 
ATOM     38  N   UNL A   1      42.389  30.042  28.988  1.00  0.00    -0.248 NA
ATOM     39  C   UNL A   1      40.577  30.924  30.098  1.00  0.00     0.031 C 
ATOM     40  C   UNL A   1      39.499  26.260  28.344  1.00  0.00     0.029 A 
ATOM     41  N   UNL A   1      41.676  26.506  28.624  1.00  0.00    -0.354 N 
ATOM     42  C   UNL A   1      42.773  31.225  29.654  1.00  0.00     0.074 A 
ATOM     43  C   UNL A   1      41.576  31.804  30.177  1.00  0.00     0.031 C 
ATOM     44  C   UNL A   1      40.061  25.072  28.020  1.00  0.00     0.029 A 
ATOM     45  C   UNL A   1      41.501  25.173  28.154  1.00  0.00     0.049 A 
ATOM     46  H   UNL A   1      42.559  26.858  28.877  1.00  0.00     0.167 HD
ATOM     47  C   UNL A   1      44.076  31.566  29.870  1.00  0.00     0.034 A 
ATOM     48  C   UNL A   1      42.456  24.238  27.851  1.00  0.00     0.034 A 
ATOM     49  C   UNL A   1      44.930  30.565  29.321  1.00  0.00     0.049 A 
ATOM     50  C   UNL A   1      43.724  24.889  28.220  1.00  0.00     0.074 A 
ATOM     51  C   UNL A   1      45.295  30.243  28.043  1.00  0.00     0.029 A 
ATOM     52  N   UNL A   1      45.312  29.548  30.165  1.00  0.00    -0.354 N 
ATOM     53  N   UNL A   1      44.139  25.080  29.434  1.00  0.00    -0.248 NA
ATOM     54  C   UNL A   1      44.556  25.451  27.149  1.00  0.00     0.031 C 
ATOM     55  C   UNL A   1      45.496  28.849  28.093  1.00  0.00     0.029 A 
ATOM     56  C   UNL A   1      45.374  28.400  29.416  1.00  0.00     0.049 A 
ATOM     57  H   UNL A   1      45.505  29.628  31.127  1.00  0.00     0.167 HD
ATOM     58  C   UNL A   1      45.114  26.035  29.275  1.00  0.00     0.074 A 
ATOM     59  C   UNL A   1      45.533  25.962  27.894  1.00  0.00     0.031 C 
ATOM     60  C   UNL A   1      45.124  27.131  30.078  1.00  0.00     0.034 A 
BRANCH  47  61
ATOM     61  C   UNL A   1      44.730  32.614  30.729  1.00  0.00     0.023 A 
ATOM     62  C   UNL A   1      44.432  32.551  32.112  1.00  0.00     0.031 A 
ATOM     63  C   UNL A   1      45.355  33.784  30.281  1.00  0.00     0.131 A 
ATOM     64  C   UNL A   1      44.623  33.649  32.956  1.00  0.00     0.055 A 
ATOM     65  C   UNL A   1      45.616  34.859  31.146  1.00  0.00     0.041 A 
ATOM     66  F   UNL A   1      45.660  33.974  28.991  1.00  0.00    -0.206 F 
ATOM     67  C   UNL A   1      45.216  34.811  32.481  1.00  0.00     0.022 A 
BRANCH  64  68
ATOM     68  S   UNL A   1      43.912  33.573  34.625  1.00  0.00     0.124 S 
ATOM     69  O   UNL A   1      42.939  34.659  34.599  1.00  0.00    -0.237 OA
ATOM     70  O   UNL A   1      43.359  32.222  34.657  1.00  0.00    -0.237 OA
ATOM     71  O   UNL A   1      45.066  33.792  35.494  1.00  0.00    -0.744 OA
ENDBRANCH  64  68
ENDBRANCH  47  61
BRANCH  48  72
ATOM     72  C   UNL A   1      42.579  22.862  27.209  1.00  0.00     0.023 A 
ATOM     73  C   UNL A   1      43.575  22.433  26.314  1.00  0.00     0.031 A 
ATOM     74  C   UNL A   1      41.623  21.852  27.554  1.00  0.00     0.131 A 
ATOM     75  C   UNL A   1      43.615  21.072  25.882  1.00  0.00     0.055 A 
ATOM     76  C   UNL A   1      41.716  20.508  27.196  1.00  0.00     0.041 A 
ATOM     77  F   UNL A   1      40.525  22.119  28.273  1.00  0.00    -0.206 F 
ATOM     78  C   UNL A   1      42.728  20.107  26.361  1.00  0.00     0.022 A 
BRANCH  75  79
ATOM     79  S   UNL A   1      44.840  20.488  24.669  1.00  0.00     0.124 S 
ATOM     80  O   UNL A   1      44.419  19.106  24.460  1.00  0.00    -0.237 OA
ATOM     81  O   UNL A   1      44.652  21.395  23.543  1.00  0.00    -0.237 OA
ATOM     82  O   UNL A   1      46.111  20.646  25.380  1.00  0.00    -0.744 OA
ENDBRANCH  75  79
ENDBRANCH  48  72
BRANCH  60  83
ATOM     83  C   UNL A   1      44.434  26.924  31.426  1.00  0.00     0.023 A 
ATOM     84  C   UNL A   1      43.257  27.629  31.745  1.00  0.00     0.031 A 
ATOM     85  C   UNL A   1      44.973  26.140  32.462  1.00  0.00     0.131 A 
ATOM     86  C   UNL A   1      42.696  27.556  33.038  1.00  0.00     0.055 A 
ATOM     87  C   UNL A   1      44.419  26.059  33.745  1.00  0.00     0.041 A 
ATOM     88  F   UNL A   1      46.074  25.419  32.269  1.00  0.00    -0.206 F 
ATOM     89  C   UNL A   1      43.274  26.778  34.042  1.00  0.00     0.022 A 
BRANCH  86  90
ATOM     90  S   UNL A   1      41.171  28.469  33.401  1.00  0.00     0.124 S 
ATOM     91  O   UNL A   1      40.275  28.035  32.336  1.00  0.00    -0.237 OA
ATOM     92  O   UNL A   1      40.840  28.008  34.746  1.00  0.00    -0.237 OA
ATOM     93  O   UNL A   1      41.586  29.871  33.325  1.00  0.00    -0.744 OA
ENDBRANCH  86  90
ENDBRANCH  60  83
ENDBRANCH  34  35
ENDBRANCH  27  29
ENDBRANCH  26  27
ENDBRANCH  25  26
ENDBRANCH  24  25
ENDBRANCH  23  24
ENDBRANCH  22  23
ENDBRANCH   1  22
TORSDOF 25
ENDMDL
