MODEL 1
REMARK VINA RESULT:     -10.2      0.000      0.000
REMARK SMILES CC(C)[C@H](CO)NS(=O)(=O)c1ccc(Cl)c(C(=O)OCCOCCOCCOC(=O)c2ccc(-c3c4nc(c(-c5cc(S(=O)(=O)[O-])ccc5F)c5ccc([nH]5)c(-c5cc(S(=O)(=O)[O-])ccc5F)c5nc(c(-c6cc(S(=O)(=O)[O-])ccc6F)c6ccc3[nH]6)C=C5)C=C4)cc2)c1
REMARK SMILES IDX 23 1 22 2 21 3 20 4 19 5 17 6 18 7 16 8 11 9 12 10 94 11
REMARK SMILES IDX 13 12 14 13 15 14 8 15 9 16 10 17 7 18 4 20 2 21 1 22 3 23
REMARK SMILES IDX 5 24 6 25 24 27 25 28 26 29 27 30 28 31 29 32 30 33 31 34
REMARK SMILES IDX 32 35 93 36 33 37 92 38 34 39 35 40 36 41 86 42 37 43 91 44
REMARK SMILES IDX 85 45 87 46 38 47 90 48 84 49 83 50 39 52 71 53 51 54 70 55
REMARK SMILES IDX 52 56 55 57 69 58 88 59 53 60 54 61 68 63 89 64 56 65 40 66
REMARK SMILES IDX 41 67 49 68 42 69 48 70 50 71 47 72 43 73 44 74 45 75 46 76
REMARK SMILES IDX 72 77 73 78 81 79 74 80 80 81 82 82 79 83 75 84 76 85 77 86
REMARK SMILES IDX 78 87 57 88 58 89 66 90 59 91 65 92 67 93 64 94 60 95 61 96
REMARK SMILES IDX 62 97 63 98
REMARK H PARENT 7 19 6 26 87 51 55 62
REMARK Flexibility Score: inf
ROOT
ATOM      1  C   UNL A   1      34.135  26.276  25.289  1.00  0.00     0.188 C 
ENDROOT
BRANCH   1   2
ATOM      2  O   UNL A   1      33.356  26.547  24.135  1.00  0.00    -0.376 OA
BRANCH   2   3
ATOM      3  C   UNL A   1      33.960  26.431  22.852  1.00  0.00     0.202 C 
BRANCH   3   4
ATOM      4  C   UNL A   1      33.050  26.164  21.657  1.00  0.00     0.261 C 
BRANCH   4   5
ATOM      5  O   UNL A   1      32.072  25.155  21.962  1.00  0.00    -0.460 OA
BRANCH   5   6
ATOM      6  C   UNL A   1      32.563  23.901  22.102  1.00  0.00     0.339 C 
ATOM      7  O   UNL A   1      33.378  23.351  21.381  1.00  0.00    -0.246 OA
BRANCH   6   8
ATOM      8  C   UNL A   1      32.114  23.322  23.382  1.00  0.00     0.080 A 
ATOM      9  C   UNL A   1      32.375  21.534  25.004  1.00  0.00     0.083 A 
ATOM     10  C   UNL A   1      31.302  22.032  25.742  1.00  0.00     0.023 A 
ATOM     11  C   UNL A   1      32.785  22.172  23.826  1.00  0.00     0.039 A 
ATOM     12  C   UNL A   1      30.647  23.189  25.303  1.00  0.00     0.023 A 
ATOM     13  C   UNL A   1      31.047  23.835  24.124  1.00  0.00     0.055 A 
ATOM     14  Cl  UNL A   1      30.144  25.220  23.625  1.00  0.00    -0.083 Cl
BRANCH   9  15
ATOM     15  S   UNL A   1      33.214  20.046  25.499  1.00  0.00     0.240 S 
ATOM     16  O   UNL A   1      33.520  20.194  26.904  1.00  0.00    -0.207 OA
ATOM     17  O   UNL A   1      34.231  19.828  24.499  1.00  0.00    -0.207 OA
BRANCH  15  18
ATOM     18  N   UNL A   1      32.096  18.818  25.298  1.00  0.00    -0.206 NA
ATOM     19  H   UNL A   1      31.840  18.531  26.243  1.00  0.00     0.141 HD
BRANCH  18  20
ATOM     20  C   UNL A   1      32.323  17.557  24.553  1.00  0.00     0.098 C 
BRANCH  20  21
ATOM     21  C   UNL A   1      33.273  16.572  25.259  1.00  0.00     0.003 C 
ATOM     22  C   UNL A   1      32.622  15.199  25.471  1.00  0.00     0.009 C 
ATOM     23  C   UNL A   1      34.638  16.391  24.592  1.00  0.00     0.009 C 
ENDBRANCH  20  21
BRANCH  20  24
ATOM     24  C   UNL A   1      32.813  17.926  23.130  1.00  0.00     0.176 C 
BRANCH  24  25
ATOM     25  O   UNL A   1      31.811  17.668  22.142  1.00  0.00    -0.395 OA
ATOM     26  H   UNL A   1      31.337  16.853  22.370  1.00  0.00     0.210 HD
ENDBRANCH  24  25
ENDBRANCH  20  24
ENDBRANCH  18  20
ENDBRANCH  15  18
ENDBRANCH   9  15
ENDBRANCH   6   8
ENDBRANCH   5   6
ENDBRANCH   4   5
ENDBRANCH   3   4
ENDBRANCH   2   3
ENDBRANCH   1   2
BRANCH   1  27
ATOM     27  C   UNL A   1      34.266  24.826  25.810  1.00  0.00     0.188 C 
BRANCH  27  28
ATOM     28  O   UNL A   1      35.437  24.077  25.532  1.00  0.00    -0.376 OA
BRANCH  28  29
ATOM     29  C   UNL A   1      35.646  22.875  26.270  1.00  0.00     0.202 C 
BRANCH  29  30
ATOM     30  C   UNL A   1      36.553  21.812  25.652  1.00  0.00     0.261 C 
BRANCH  30  31
ATOM     31  O   UNL A   1      37.815  22.368  25.243  1.00  0.00    -0.460 OA
BRANCH  31  32
ATOM     32  C   UNL A   1      38.873  21.963  25.983  1.00  0.00     0.338 C 
ATOM     33  O   UNL A   1      39.363  20.848  26.017  1.00  0.00    -0.246 OA
BRANCH  32  34
ATOM     34  C   UNL A   1      39.444  23.107  26.712  1.00  0.00     0.060 A 
ATOM     35  C   UNL A   1      38.942  24.384  26.468  1.00  0.00     0.016 A 
ATOM     36  C   UNL A   1      40.581  22.939  27.504  1.00  0.00     0.016 A 
ATOM     37  C   UNL A   1      39.605  25.492  26.981  1.00  0.00     0.010 A 
ATOM     38  C   UNL A   1      41.255  24.067  27.997  1.00  0.00     0.010 A 
ATOM     39  C   UNL A   1      40.809  25.360  27.680  1.00  0.00    -0.014 A 
BRANCH  39  40
ATOM     40  C   UNL A   1      41.663  26.575  27.854  1.00  0.00     0.031 A 
ATOM     41  C   UNL A   1      41.139  27.735  28.674  1.00  0.00     0.074 A 
ATOM     42  C   UNL A   1      42.950  26.592  27.451  1.00  0.00     0.049 A 
ATOM     43  N   UNL A   1      41.685  28.901  28.915  1.00  0.00    -0.248 NA
ATOM     44  C   UNL A   1      39.828  27.550  29.316  1.00  0.00     0.031 C 
ATOM     45  C   UNL A   1      43.636  25.490  26.775  1.00  0.00     0.029 A 
ATOM     46  N   UNL A   1      43.922  27.553  27.587  1.00  0.00    -0.354 N 
ATOM     47  C   UNL A   1      40.768  29.602  29.694  1.00  0.00     0.074 A 
ATOM     48  C   UNL A   1      39.628  28.731  29.880  1.00  0.00     0.031 C 
ATOM     49  C   UNL A   1      44.925  25.820  26.597  1.00  0.00     0.029 A 
ATOM     50  C   UNL A   1      45.140  27.188  27.058  1.00  0.00     0.049 A 
ATOM     51  H   UNL A   1      43.763  28.421  28.024  1.00  0.00     0.167 HD
ATOM     52  C   UNL A   1      40.866  30.855  30.206  1.00  0.00     0.034 A 
ATOM     53  C   UNL A   1      46.287  27.884  26.919  1.00  0.00     0.034 A 
ATOM     54  C   UNL A   1      42.021  31.704  30.047  1.00  0.00     0.049 A 
ATOM     55  C   UNL A   1      46.340  29.309  27.414  1.00  0.00     0.074 A 
ATOM     56  C   UNL A   1      42.205  33.004  30.490  1.00  0.00     0.029 A 
ATOM     57  N   UNL A   1      43.198  31.338  29.405  1.00  0.00    -0.354 N 
ATOM     58  N   UNL A   1      45.419  30.003  28.043  1.00  0.00    -0.248 NA
ATOM     59  C   UNL A   1      47.586  30.046  27.169  1.00  0.00     0.031 C 
ATOM     60  C   UNL A   1      43.464  33.443  30.063  1.00  0.00     0.029 A 
ATOM     61  C   UNL A   1      44.100  32.392  29.422  1.00  0.00     0.049 A 
ATOM     62  H   UNL A   1      43.367  30.458  28.998  1.00  0.00     0.167 HD
ATOM     63  C   UNL A   1      45.984  31.254  28.281  1.00  0.00     0.074 A 
ATOM     64  C   UNL A   1      47.333  31.206  27.757  1.00  0.00     0.031 C 
ATOM     65  C   UNL A   1      45.436  32.345  28.877  1.00  0.00     0.034 A 
BRANCH  52  66
ATOM     66  C   UNL A   1      39.650  31.411  30.911  1.00  0.00     0.023 A 
ATOM     67  C   UNL A   1      38.504  31.838  30.218  1.00  0.00     0.031 A 
ATOM     68  C   UNL A   1      39.661  31.548  32.312  1.00  0.00     0.131 A 
ATOM     69  C   UNL A   1      37.446  32.437  30.921  1.00  0.00     0.055 A 
ATOM     70  C   UNL A   1      38.574  32.074  33.012  1.00  0.00     0.041 A 
ATOM     71  F   UNL A   1      40.738  31.182  33.025  1.00  0.00    -0.206 F 
ATOM     72  C   UNL A   1      37.463  32.536  32.314  1.00  0.00     0.022 A 
BRANCH  69  73
ATOM     73  S   UNL A   1      36.108  33.219  29.977  1.00  0.00     0.124 S 
ATOM     74  O   UNL A   1      35.241  33.711  31.044  1.00  0.00    -0.237 OA
ATOM     75  O   UNL A   1      36.816  34.236  29.208  1.00  0.00    -0.237 OA
ATOM     76  O   UNL A   1      35.552  32.117  29.193  1.00  0.00    -0.744 OA
ENDBRANCH  69  73
ENDBRANCH  52  66
BRANCH  53  77
ATOM     77  C   UNL A   1      47.454  27.288  26.203  1.00  0.00     0.023 A 
ATOM     78  C   UNL A   1      48.437  26.550  26.882  1.00  0.00     0.031 A 
ATOM     79  C   UNL A   1      47.635  27.511  24.825  1.00  0.00     0.131 A 
ATOM     80  C   UNL A   1      49.574  26.098  26.191  1.00  0.00     0.055 A 
ATOM     81  C   UNL A   1      48.734  27.003  24.130  1.00  0.00     0.041 A 
ATOM     82  F   UNL A   1      46.737  28.224  24.127  1.00  0.00    -0.206 F 
ATOM     83  C   UNL A   1      49.719  26.304  24.817  1.00  0.00     0.022 A 
BRANCH  80  84
ATOM     84  S   UNL A   1      50.919  25.323  27.132  1.00  0.00     0.124 S 
ATOM     85  O   UNL A   1      51.741  24.763  26.066  1.00  0.00    -0.237 OA
ATOM     86  O   UNL A   1      51.485  26.461  27.848  1.00  0.00    -0.237 OA
ATOM     87  O   UNL A   1      50.229  24.343  27.968  1.00  0.00    -0.744 OA
ENDBRANCH  80  84
ENDBRANCH  53  77
BRANCH  65  88
ATOM     88  C   UNL A   1      46.322  33.560  29.018  1.00  0.00     0.023 A 
ATOM     89  C   UNL A   1      46.472  34.491  27.976  1.00  0.00     0.031 A 
ATOM     90  C   UNL A   1      47.061  33.767  30.197  1.00  0.00     0.131 A 
ATOM     91  C   UNL A   1      47.394  35.542  28.101  1.00  0.00     0.055 A 
ATOM     92  C   UNL A   1      47.928  34.851  30.343  1.00  0.00     0.041 A 
ATOM     93  F   UNL A   1      46.958  32.911  31.227  1.00  0.00    -0.206 F 
ATOM     94  C   UNL A   1      48.112  35.735  29.283  1.00  0.00     0.022 A 
BRANCH  91  95
ATOM     95  S   UNL A   1      47.737  36.579  26.652  1.00  0.00     0.124 S 
ATOM     96  O   UNL A   1      46.408  36.741  26.072  1.00  0.00    -0.237 OA
ATOM     97  O   UNL A   1      48.318  37.773  27.256  1.00  0.00    -0.237 OA
ATOM     98  O   UNL A   1      48.664  35.771  25.862  1.00  0.00    -0.744 OA
ENDBRANCH  91  95
ENDBRANCH  65  88
ENDBRANCH  39  40
ENDBRANCH  32  34
ENDBRANCH  31  32
ENDBRANCH  30  31
ENDBRANCH  29  30
ENDBRANCH  28  29
ENDBRANCH  27  28
ENDBRANCH   1  27
TORSDOF 26
ENDMDL
MODEL 2
REMARK VINA RESULT:      -9.3      2.083      2.536
REMARK SMILES CC(C)[C@H](CO)NS(=O)(=O)c1ccc(Cl)c(C(=O)OCCOCCOCCOC(=O)c2ccc(-c3c4nc(c(-c5cc(S(=O)(=O)[O-])ccc5F)c5ccc([nH]5)c(-c5cc(S(=O)(=O)[O-])ccc5F)c5nc(c(-c6cc(S(=O)(=O)[O-])ccc6F)c6ccc3[nH]6)C=C5)C=C4)cc2)c1
REMARK SMILES IDX 23 1 22 2 21 3 20 4 19 5 17 6 18 7 16 8 11 9 12 10 94 11
REMARK SMILES IDX 13 12 14 13 15 14 8 15 9 16 10 17 7 18 4 20 2 21 1 22 3 23
REMARK SMILES IDX 5 24 6 25 24 27 25 28 26 29 27 30 28 31 29 32 30 33 31 34
REMARK SMILES IDX 32 35 93 36 33 37 92 38 34 39 35 40 36 41 86 42 37 43 91 44
REMARK SMILES IDX 85 45 87 46 38 47 90 48 84 49 83 50 39 52 71 53 51 54 70 55
REMARK SMILES IDX 52 56 55 57 69 58 88 59 53 60 54 61 68 63 89 64 56 65 40 66
REMARK SMILES IDX 41 67 49 68 42 69 48 70 50 71 47 72 43 73 44 74 45 75 46 76
REMARK SMILES IDX 72 77 73 78 81 79 74 80 80 81 82 82 79 83 75 84 76 85 77 86
REMARK SMILES IDX 78 87 57 88 58 89 66 90 59 91 65 92 67 93 64 94 60 95 61 96
REMARK SMILES IDX 62 97 63 98
REMARK H PARENT 7 19 6 26 87 51 55 62
REMARK Flexibility Score: inf
ROOT
ATOM      1  C   UNL A   1      34.258  26.152  25.413  1.00  0.00     0.188 C 
ENDROOT
BRANCH   1   2
ATOM      2  O   UNL A   1      33.539  26.479  24.235  1.00  0.00    -0.376 OA
BRANCH   2   3
ATOM      3  C   UNL A   1      34.135  26.220  22.969  1.00  0.00     0.202 C 
BRANCH   3   4
ATOM      4  C   UNL A   1      33.216  26.121  21.755  1.00  0.00     0.261 C 
BRANCH   4   5
ATOM      5  O   UNL A   1      32.182  25.144  21.964  1.00  0.00    -0.460 OA
BRANCH   5   6
ATOM      6  C   UNL A   1      32.611  23.862  22.052  1.00  0.00     0.339 C 
ATOM      7  O   UNL A   1      33.382  23.297  21.296  1.00  0.00    -0.246 OA
BRANCH   6   8
ATOM      8  C   UNL A   1      32.157  23.264  23.322  1.00  0.00     0.080 A 
ATOM      9  C   UNL A   1      32.418  21.456  24.921  1.00  0.00     0.083 A 
ATOM     10  C   UNL A   1      31.339  21.939  25.659  1.00  0.00     0.023 A 
ATOM     11  C   UNL A   1      32.832  22.111  23.754  1.00  0.00     0.039 A 
ATOM     12  C   UNL A   1      30.680  23.097  25.233  1.00  0.00     0.023 A 
ATOM     13  C   UNL A   1      31.083  23.762  24.064  1.00  0.00     0.055 A 
ATOM     14  Cl  UNL A   1      30.176  25.149  23.579  1.00  0.00    -0.083 Cl
BRANCH   9  15
ATOM     15  S   UNL A   1      33.263  19.965  25.401  1.00  0.00     0.240 S 
ATOM     16  O   UNL A   1      33.611  20.122  26.795  1.00  0.00    -0.207 OA
ATOM     17  O   UNL A   1      34.247  19.734  24.372  1.00  0.00    -0.207 OA
BRANCH  15  18
ATOM     18  N   UNL A   1      32.131  18.744  25.242  1.00  0.00    -0.206 NA
ATOM     19  H   UNL A   1      32.201  18.199  26.102  1.00  0.00     0.141 HD
BRANCH  18  20
ATOM     20  C   UNL A   1      32.086  17.746  24.147  1.00  0.00     0.098 C 
BRANCH  20  21
ATOM     21  C   UNL A   1      33.021  16.541  24.357  1.00  0.00     0.003 C 
ATOM     22  C   UNL A   1      34.320  16.676  23.553  1.00  0.00     0.009 C 
ATOM     23  C   UNL A   1      33.356  16.221  25.815  1.00  0.00     0.009 C 
ENDBRANCH  20  21
BRANCH  20  24
ATOM     24  C   UNL A   1      32.371  18.486  22.816  1.00  0.00     0.176 C 
BRANCH  24  25
ATOM     25  O   UNL A   1      31.781  17.814  21.700  1.00  0.00    -0.395 OA
ATOM     26  H   UNL A   1      30.888  17.515  21.938  1.00  0.00     0.210 HD
ENDBRANCH  24  25
ENDBRANCH  20  24
ENDBRANCH  18  20
ENDBRANCH  15  18
ENDBRANCH   9  15
ENDBRANCH   6   8
ENDBRANCH   5   6
ENDBRANCH   4   5
ENDBRANCH   3   4
ENDBRANCH   2   3
ENDBRANCH   1   2
BRANCH   1  27
ATOM     27  C   UNL A   1      34.362  24.680  25.872  1.00  0.00     0.188 C 
BRANCH  27  28
ATOM     28  O   UNL A   1      35.546  23.942  25.622  1.00  0.00    -0.376 OA
BRANCH  28  29
ATOM     29  C   UNL A   1      35.598  22.594  26.082  1.00  0.00     0.202 C 
BRANCH  29  30
ATOM     30  C   UNL A   1      36.835  21.770  25.729  1.00  0.00     0.261 C 
BRANCH  30  31
ATOM     31  O   UNL A   1      37.961  22.612  25.426  1.00  0.00    -0.460 OA
BRANCH  31  32
ATOM     32  C   UNL A   1      39.089  22.306  26.108  1.00  0.00     0.338 C 
ATOM     33  O   UNL A   1      39.753  21.288  26.015  1.00  0.00    -0.246 OA
BRANCH  32  34
ATOM     34  C   UNL A   1      39.488  23.442  26.955  1.00  0.00     0.060 A 
ATOM     35  C   UNL A   1      38.738  24.615  26.911  1.00  0.00     0.016 A 
ATOM     36  C   UNL A   1      40.694  23.405  27.658  1.00  0.00     0.016 A 
ATOM     37  C   UNL A   1      39.217  25.761  27.535  1.00  0.00     0.010 A 
ATOM     38  C   UNL A   1      41.179  24.575  28.264  1.00  0.00     0.010 A 
ATOM     39  C   UNL A   1      40.474  25.783  28.147  1.00  0.00    -0.014 A 
BRANCH  39  40
ATOM     40  C   UNL A   1      41.094  27.112  28.440  1.00  0.00     0.031 A 
ATOM     41  C   UNL A   1      40.255  28.194  29.085  1.00  0.00     0.074 A 
ATOM     42  C   UNL A   1      42.422  27.311  28.307  1.00  0.00     0.049 A 
ATOM     43  N   UNL A   1      40.570  29.429  29.382  1.00  0.00    -0.248 NA
ATOM     44  C   UNL A   1      38.878  27.828  29.453  1.00  0.00     0.031 C 
ATOM     45  C   UNL A   1      43.381  26.312  27.833  1.00  0.00     0.029 A 
ATOM     46  N   UNL A   1      43.201  28.405  28.598  1.00  0.00    -0.354 N 
ATOM     47  C   UNL A   1      39.422  29.999  29.927  1.00  0.00     0.074 A 
ATOM     48  C   UNL A   1      38.402  28.974  29.913  1.00  0.00     0.031 C 
ATOM     49  C   UNL A   1      44.620  26.824  27.908  1.00  0.00     0.029 A 
ATOM     50  C   UNL A   1      44.540  28.215  28.345  1.00  0.00     0.049 A 
ATOM     51  H   UNL A   1      42.835  29.246  28.955  1.00  0.00     0.167 HD
ATOM     52  C   UNL A   1      39.235  31.260  30.394  1.00  0.00     0.034 A 
ATOM     53  C   UNL A   1      45.582  29.069  28.413  1.00  0.00     0.034 A 
ATOM     54  C   UNL A   1      40.268  32.266  30.438  1.00  0.00     0.049 A 
ATOM     55  C   UNL A   1      45.331  30.492  28.847  1.00  0.00     0.074 A 
ATOM     56  C   UNL A   1      40.172  33.585  30.854  1.00  0.00     0.029 A 
ATOM     57  N   UNL A   1      41.591  32.067  30.066  1.00  0.00    -0.354 N 
ATOM     58  N   UNL A   1      44.212  31.052  29.245  1.00  0.00    -0.248 NA
ATOM     59  C   UNL A   1      46.485  31.400  28.830  1.00  0.00     0.031 C 
ATOM     60  C   UNL A   1      41.418  34.197  30.674  1.00  0.00     0.029 A 
ATOM     61  C   UNL A   1      42.314  33.241  30.222  1.00  0.00     0.049 A 
ATOM     62  H   UNL A   1      41.963  31.216  29.741  1.00  0.00     0.167 HD
ATOM     63  C   UNL A   1      44.534  32.375  29.539  1.00  0.00     0.074 A 
ATOM     64  C   UNL A   1      45.956  32.518  29.304  1.00  0.00     0.031 C 
ATOM     65  C   UNL A   1      43.727  33.382  29.964  1.00  0.00     0.034 A 
BRANCH  52  66
ATOM     66  C   UNL A   1      37.834  31.642  30.812  1.00  0.00     0.023 A 
ATOM     67  C   UNL A   1      36.897  32.179  29.912  1.00  0.00     0.031 A 
ATOM     68  C   UNL A   1      37.445  31.496  32.157  1.00  0.00     0.131 A 
ATOM     69  C   UNL A   1      35.644  32.607  30.380  1.00  0.00     0.055 A 
ATOM     70  C   UNL A   1      36.170  31.852  32.601  1.00  0.00     0.041 A 
ATOM     71  F   UNL A   1      38.306  31.013  33.067  1.00  0.00    -0.206 F 
ATOM     72  C   UNL A   1      35.266  32.424  31.712  1.00  0.00     0.022 A 
BRANCH  69  73
ATOM     73  S   UNL A   1      34.567  33.538  29.255  1.00  0.00     0.124 S 
ATOM     74  O   UNL A   1      35.478  34.565  28.756  1.00  0.00    -0.237 OA
ATOM     75  O   UNL A   1      34.162  32.521  28.292  1.00  0.00    -0.237 OA
ATOM     76  O   UNL A   1      33.503  34.031  30.128  1.00  0.00    -0.744 OA
ENDBRANCH  69  73
ENDBRANCH  52  66
BRANCH  53  77
ATOM     77  C   UNL A   1      46.945  28.640  27.977  1.00  0.00     0.023 A 
ATOM     78  C   UNL A   1      47.879  28.117  28.884  1.00  0.00     0.031 A 
ATOM     79  C   UNL A   1      47.354  28.814  26.641  1.00  0.00     0.131 A 
ATOM     80  C   UNL A   1      49.185  27.826  28.455  1.00  0.00     0.055 A 
ATOM     81  C   UNL A   1      48.632  28.462  26.205  1.00  0.00     0.041 A 
ATOM     82  F   UNL A   1      46.509  29.326  25.732  1.00  0.00    -0.206 F 
ATOM     83  C   UNL A   1      49.561  27.978  27.118  1.00  0.00     0.022 A 
BRANCH  80  84
ATOM     84  S   UNL A   1      50.425  27.342  29.689  1.00  0.00     0.124 S 
ATOM     85  O   UNL A   1      50.558  28.565  30.471  1.00  0.00    -0.237 OA
ATOM     86  O   UNL A   1      49.770  26.223  30.356  1.00  0.00    -0.237 OA
ATOM     87  O   UNL A   1      51.590  26.988  28.881  1.00  0.00    -0.744 OA
ENDBRANCH  80  84
ENDBRANCH  53  77
BRANCH  65  88
ATOM     88  C   UNL A   1      44.385  34.716  30.231  1.00  0.00     0.023 A 
ATOM     89  C   UNL A   1      44.863  35.062  31.507  1.00  0.00     0.031 A 
ATOM     90  C   UNL A   1      44.496  35.671  29.204  1.00  0.00     0.131 A 
ATOM     91  C   UNL A   1      45.359  36.354  31.743  1.00  0.00     0.055 A 
ATOM     92  C   UNL A   1      45.051  36.932  29.428  1.00  0.00     0.041 A 
ATOM     93  F   UNL A   1      44.057  35.396  27.965  1.00  0.00    -0.206 F 
ATOM     94  C   UNL A   1      45.469  37.286  30.708  1.00  0.00     0.022 A 
BRANCH  91  95
ATOM     95  S   UNL A   1      45.743  36.843  33.448  1.00  0.00     0.124 S 
ATOM     96  O   UNL A   1      47.197  36.957  33.412  1.00  0.00    -0.237 OA
ATOM     97  O   UNL A   1      45.008  38.096  33.583  1.00  0.00    -0.237 OA
ATOM     98  O   UNL A   1      45.227  35.733  34.247  1.00  0.00    -0.744 OA
ENDBRANCH  91  95
ENDBRANCH  65  88
ENDBRANCH  39  40
ENDBRANCH  32  34
ENDBRANCH  31  32
ENDBRANCH  30  31
ENDBRANCH  29  30
ENDBRANCH  28  29
ENDBRANCH  27  28
ENDBRANCH   1  27
TORSDOF 26
ENDMDL
MODEL 3
REMARK VINA RESULT:      -9.3      5.241      8.648
REMARK SMILES CC(C)[C@H](CO)NS(=O)(=O)c1ccc(Cl)c(C(=O)OCCOCCOCCOC(=O)c2ccc(-c3c4nc(c(-c5cc(S(=O)(=O)[O-])ccc5F)c5ccc([nH]5)c(-c5cc(S(=O)(=O)[O-])ccc5F)c5nc(c(-c6cc(S(=O)(=O)[O-])ccc6F)c6ccc3[nH]6)C=C5)C=C4)cc2)c1
REMARK SMILES IDX 23 1 22 2 21 3 20 4 19 5 17 6 18 7 16 8 11 9 12 10 94 11
REMARK SMILES IDX 13 12 14 13 15 14 8 15 9 16 10 17 7 18 4 20 2 21 1 22 3 23
REMARK SMILES IDX 5 24 6 25 24 27 25 28 26 29 27 30 28 31 29 32 30 33 31 34
REMARK SMILES IDX 32 35 93 36 33 37 92 38 34 39 35 40 36 41 86 42 37 43 91 44
REMARK SMILES IDX 85 45 87 46 38 47 90 48 84 49 83 50 39 52 71 53 51 54 70 55
REMARK SMILES IDX 52 56 55 57 69 58 88 59 53 60 54 61 68 63 89 64 56 65 40 66
REMARK SMILES IDX 41 67 49 68 42 69 48 70 50 71 47 72 43 73 44 74 45 75 46 76
REMARK SMILES IDX 72 77 73 78 81 79 74 80 80 81 82 82 79 83 75 84 76 85 77 86
REMARK SMILES IDX 78 87 57 88 58 89 66 90 59 91 65 92 67 93 64 94 60 95 61 96
REMARK SMILES IDX 62 97 63 98
REMARK H PARENT 7 19 6 26 87 51 55 62
REMARK Flexibility Score: inf
ROOT
ATOM      1  C   UNL A   1      32.247  28.326  26.992  1.00  0.00     0.188 C 
ENDROOT
BRANCH   1   2
ATOM      2  O   UNL A   1      31.255  27.881  26.082  1.00  0.00    -0.376 OA
BRANCH   2   3
ATOM      3  C   UNL A   1      30.722  26.569  26.227  1.00  0.00     0.202 C 
BRANCH   3   4
ATOM      4  C   UNL A   1      31.696  25.434  26.530  1.00  0.00     0.261 C 
BRANCH   4   5
ATOM      5  O   UNL A   1      31.049  24.372  27.251  1.00  0.00    -0.460 OA
BRANCH   5   6
ATOM      6  C   UNL A   1      31.050  23.169  26.629  1.00  0.00     0.339 C 
ATOM      7  O   UNL A   1      30.086  22.449  26.431  1.00  0.00    -0.246 OA
BRANCH   6   8
ATOM      8  C   UNL A   1      32.375  22.907  26.036  1.00  0.00     0.080 A 
ATOM      9  C   UNL A   1      33.787  23.072  24.068  1.00  0.00     0.083 A 
ATOM     10  C   UNL A   1      34.803  22.381  24.726  1.00  0.00     0.023 A 
ATOM     11  C   UNL A   1      32.573  23.338  24.715  1.00  0.00     0.039 A 
ATOM     12  C   UNL A   1      34.607  21.969  26.049  1.00  0.00     0.023 A 
ATOM     13  C   UNL A   1      33.395  22.227  26.708  1.00  0.00     0.055 A 
ATOM     14  Cl  UNL A   1      33.215  21.629  28.317  1.00  0.00    -0.083 Cl
BRANCH   9  15
ATOM     15  S   UNL A   1      33.974  23.582  22.374  1.00  0.00     0.240 S 
ATOM     16  O   UNL A   1      32.904  22.953  21.635  1.00  0.00    -0.207 OA
ATOM     17  O   UNL A   1      35.367  23.371  22.062  1.00  0.00    -0.207 OA
BRANCH  15  18
ATOM     18  N   UNL A   1      33.748  25.239  22.382  1.00  0.00    -0.206 NA
ATOM     19  H   UNL A   1      33.302  25.446  23.277  1.00  0.00     0.141 HD
BRANCH  18  20
ATOM     20  C   UNL A   1      32.981  26.011  21.375  1.00  0.00     0.098 C 
BRANCH  20  21
ATOM     21  C   UNL A   1      31.652  26.584  21.902  1.00  0.00     0.003 C 
ATOM     22  C   UNL A   1      30.883  25.563  22.750  1.00  0.00     0.009 C 
ATOM     23  C   UNL A   1      31.769  27.900  22.673  1.00  0.00     0.009 C 
ENDBRANCH  20  21
BRANCH  20  24
ATOM     24  C   UNL A   1      32.779  25.105  20.134  1.00  0.00     0.176 C 
BRANCH  24  25
ATOM     25  O   UNL A   1      31.685  25.549  19.328  1.00  0.00    -0.395 OA
ATOM     26  H   UNL A   1      30.957  24.909  19.390  1.00  0.00     0.210 HD
ENDBRANCH  24  25
ENDBRANCH  20  24
ENDBRANCH  18  20
ENDBRANCH  15  18
ENDBRANCH   9  15
ENDBRANCH   6   8
ENDBRANCH   5   6
ENDBRANCH   4   5
ENDBRANCH   3   4
ENDBRANCH   2   3
ENDBRANCH   1   2
BRANCH   1  27
ATOM     27  C   UNL A   1      33.110  29.563  26.653  1.00  0.00     0.188 C 
BRANCH  27  28
ATOM     28  O   UNL A   1      32.533  30.662  25.968  1.00  0.00    -0.376 OA
BRANCH  28  29
ATOM     29  C   UNL A   1      31.560  31.439  26.662  1.00  0.00     0.202 C 
BRANCH  29  30
ATOM     30  C   UNL A   1      31.917  32.886  26.999  1.00  0.00     0.261 C 
BRANCH  30  31
ATOM     31  O   UNL A   1      33.206  32.978  27.630  1.00  0.00    -0.460 OA
BRANCH  31  32
ATOM     32  C   UNL A   1      33.373  34.074  28.406  1.00  0.00     0.338 C 
ATOM     33  O   UNL A   1      32.701  35.091  28.399  1.00  0.00    -0.246 OA
BRANCH  32  34
ATOM     34  C   UNL A   1      34.462  33.847  29.370  1.00  0.00     0.060 A 
ATOM     35  C   UNL A   1      35.764  34.191  29.012  1.00  0.00     0.016 A 
ATOM     36  C   UNL A   1      34.221  33.141  30.550  1.00  0.00     0.016 A 
ATOM     37  C   UNL A   1      36.826  33.791  29.815  1.00  0.00     0.010 A 
ATOM     38  C   UNL A   1      35.303  32.722  31.340  1.00  0.00     0.010 A 
ATOM     39  C   UNL A   1      36.622  32.986  30.940  1.00  0.00    -0.014 A 
BRANCH  39  40
ATOM     40  C   UNL A   1      37.801  32.271  31.520  1.00  0.00     0.031 A 
ATOM     41  C   UNL A   1      38.214  32.561  32.947  1.00  0.00     0.074 A 
ATOM     42  C   UNL A   1      38.393  31.251  30.866  1.00  0.00     0.049 A 
ATOM     43  N   UNL A   1      39.227  32.096  33.634  1.00  0.00    -0.248 NA
ATOM     44  C   UNL A   1      37.361  33.492  33.703  1.00  0.00     0.031 C 
ATOM     45  C   UNL A   1      38.010  30.763  29.540  1.00  0.00     0.029 A 
ATOM     46  N   UNL A   1      39.416  30.413  31.243  1.00  0.00    -0.354 N 
ATOM     47  C   UNL A   1      39.160  32.711  34.882  1.00  0.00     0.074 A 
ATOM     48  C   UNL A   1      38.010  33.587  34.853  1.00  0.00     0.031 C 
ATOM     49  C   UNL A   1      38.755  29.688  29.236  1.00  0.00     0.029 A 
ATOM     50  C   UNL A   1      39.732  29.463  30.298  1.00  0.00     0.049 A 
ATOM     51  H   UNL A   1      39.878  30.485  32.109  1.00  0.00     0.167 HD
ATOM     52  C   UNL A   1      39.983  32.562  35.951  1.00  0.00     0.034 A 
ATOM     53  C   UNL A   1      40.718  28.544  30.265  1.00  0.00     0.034 A 
ATOM     54  C   UNL A   1      41.108  31.659  35.985  1.00  0.00     0.049 A 
ATOM     55  C   UNL A   1      41.677  28.461  31.428  1.00  0.00     0.074 A 
ATOM     56  C   UNL A   1      42.027  31.462  37.003  1.00  0.00     0.029 A 
ATOM     57  N   UNL A   1      41.463  30.790  34.961  1.00  0.00    -0.354 N 
ATOM     58  N   UNL A   1      41.674  29.137  32.554  1.00  0.00    -0.248 NA
ATOM     59  C   UNL A   1      42.776  27.496  31.307  1.00  0.00     0.031 C 
ATOM     60  C   UNL A   1      42.971  30.523  36.570  1.00  0.00     0.029 A 
ATOM     61  C   UNL A   1      42.598  30.074  35.314  1.00  0.00     0.049 A 
ATOM     62  H   UNL A   1      40.980  30.696  34.109  1.00  0.00     0.167 HD
ATOM     63  C   UNL A   1      42.765  28.665  33.281  1.00  0.00     0.074 A 
ATOM     64  C   UNL A   1      43.380  27.628  32.479  1.00  0.00     0.031 C 
ATOM     65  C   UNL A   1      43.219  29.056  34.500  1.00  0.00     0.034 A 
BRANCH  52  66
ATOM     66  C   UNL A   1      39.742  33.463  37.141  1.00  0.00     0.023 A 
ATOM     67  C   UNL A   1      39.077  33.022  38.298  1.00  0.00     0.031 A 
ATOM     68  C   UNL A   1      40.161  34.805  37.093  1.00  0.00     0.131 A 
ATOM     69  C   UNL A   1      38.795  33.932  39.330  1.00  0.00     0.055 A 
ATOM     70  C   UNL A   1      39.946  35.685  38.155  1.00  0.00     0.041 A 
ATOM     71  F   UNL A   1      40.778  35.289  36.003  1.00  0.00    -0.206 F 
ATOM     72  C   UNL A   1      39.246  35.253  39.277  1.00  0.00     0.022 A 
BRANCH  69  73
ATOM     73  S   UNL A   1      37.704  33.404  40.681  1.00  0.00     0.124 S 
ATOM     74  O   UNL A   1      38.513  32.373  41.328  1.00  0.00    -0.237 OA
ATOM     75  O   UNL A   1      37.517  34.637  41.436  1.00  0.00    -0.237 OA
ATOM     76  O   UNL A   1      36.516  32.908  39.989  1.00  0.00    -0.744 OA
ENDBRANCH  69  73
ENDBRANCH  52  66
BRANCH  53  77
ATOM     77  C   UNL A   1      40.916  27.686  29.058  1.00  0.00     0.023 A 
ATOM     78  C   UNL A   1      41.891  27.986  28.093  1.00  0.00     0.031 A 
ATOM     79  C   UNL A   1      40.076  26.581  28.822  1.00  0.00     0.131 A 
ATOM     80  C   UNL A   1      41.973  27.218  26.920  1.00  0.00     0.055 A 
ATOM     81  C   UNL A   1      40.206  25.781  27.686  1.00  0.00     0.041 A 
ATOM     82  F   UNL A   1      39.115  26.257  29.701  1.00  0.00    -0.206 F 
ATOM     83  C   UNL A   1      41.151  26.106  26.720  1.00  0.00     0.022 A 
BRANCH  80  84
ATOM     84  S   UNL A   1      43.105  27.748  25.604  1.00  0.00     0.124 S 
ATOM     85  O   UNL A   1      43.931  28.727  26.301  1.00  0.00    -0.237 OA
ATOM     86  O   UNL A   1      43.762  26.497  25.243  1.00  0.00    -0.237 OA
ATOM     87  O   UNL A   1      42.211  28.298  24.587  1.00  0.00    -0.744 OA
ENDBRANCH  80  84
ENDBRANCH  53  77
BRANCH  65  88
ATOM     88  C   UNL A   1      44.423  28.325  35.045  1.00  0.00     0.023 A 
ATOM     89  C   UNL A   1      44.292  27.164  35.828  1.00  0.00     0.031 A 
ATOM     90  C   UNL A   1      45.719  28.821  34.815  1.00  0.00     0.131 A 
ATOM     91  C   UNL A   1      45.426  26.582  36.414  1.00  0.00     0.055 A 
ATOM     92  C   UNL A   1      46.851  28.199  35.346  1.00  0.00     0.041 A 
ATOM     93  F   UNL A   1      45.907  29.926  34.074  1.00  0.00    -0.206 F 
ATOM     94  C   UNL A   1      46.706  27.084  36.167  1.00  0.00     0.022 A 
BRANCH  91  95
ATOM     95  S   UNL A   1      45.197  25.234  37.608  1.00  0.00     0.124 S 
ATOM     96  O   UNL A   1      44.532  24.220  36.797  1.00  0.00    -0.237 OA
ATOM     97  O   UNL A   1      46.568  24.935  38.005  1.00  0.00    -0.237 OA
ATOM     98  O   UNL A   1      44.367  25.837  38.650  1.00  0.00    -0.744 OA
ENDBRANCH  91  95
ENDBRANCH  65  88
ENDBRANCH  39  40
ENDBRANCH  32  34
ENDBRANCH  31  32
ENDBRANCH  30  31
ENDBRANCH  29  30
ENDBRANCH  28  29
ENDBRANCH  27  28
ENDBRANCH   1  27
TORSDOF 26
ENDMDL
