MODEL 1
REMARK VINA RESULT:     -12.6      0.000      0.000
REMARK SMILES Cc1cccc(OCC(=O)Nc2cc(C(=O)OCCOCCOCCOC(=O)c3ccc(-c4c5nc(c(-c6cc(S(=O)(=O)[O-])ccc6F)c6ccc([nH]6)c(-c6cc(S(=O)(=O)[O-])ccc6F)c6nc(c(-c7cc(S(=O)(=O)[O-])ccc7F)c7ccc4[nH]7)C=C6)C=C5)cc3)c(Cl)cc2Cl)c1
REMARK SMILES IDX 21 1 20 2 19 3 18 4 17 5 15 6 16 7 14 8 12 9 13 10 95 11
REMARK SMILES IDX 94 12 96 13 92 14 93 15 11 16 9 17 10 18 8 20 7 21 6 22 1 23
REMARK SMILES IDX 2 24 3 25 97 26 4 27 5 28 22 29 23 30 24 31 25 32 26 33
REMARK SMILES IDX 27 34 28 35 29 36 30 37 91 38 31 39 90 40 32 41 33 42 34 43
REMARK SMILES IDX 84 44 35 45 89 46 83 47 85 48 36 49 88 50 82 51 81 52 37 54
REMARK SMILES IDX 69 55 49 56 68 57 50 58 53 59 67 60 86 61 51 62 52 63 66 65
REMARK SMILES IDX 87 66 54 67 38 68 39 69 47 70 40 71 46 72 48 73 45 74 41 75
REMARK SMILES IDX 42 76 43 77 44 78 70 79 71 80 79 81 72 82 78 83 80 84 77 85
REMARK SMILES IDX 73 86 74 87 75 88 76 89 55 90 56 91 64 92 57 93 63 94 65 95
REMARK SMILES IDX 62 96 58 97 59 98 60 99 61 100
REMARK H PARENT 11 19 85 53 53 64
REMARK Flexibility Score: inf
ROOT
ATOM      1  C   UNL A   1      31.915  29.469  26.611  1.00  0.00     0.188 C 
ENDROOT
BRANCH   1   2
ATOM      2  O   UNL A   1      31.926  29.196  25.215  1.00  0.00    -0.376 OA
BRANCH   2   3
ATOM      3  C   UNL A   1      32.836  28.198  24.818  1.00  0.00     0.202 C 
BRANCH   3   4
ATOM      4  C   UNL A   1      33.540  28.394  23.432  1.00  0.00     0.261 C 
BRANCH   4   5
ATOM      5  O   UNL A   1      33.797  27.195  22.408  1.00  0.00    -0.460 OA
BRANCH   5   6
ATOM      6  C   UNL A   1      33.620  25.807  22.014  1.00  0.00     0.339 C 
ATOM      7  O   UNL A   1      33.087  25.596  20.920  1.00  0.00    -0.246 OA
BRANCH   6   8
ATOM      8  C   UNL A   1      33.796  24.276  23.167  1.00  0.00     0.080 A 
ATOM      9  C   UNL A   1      34.190  23.963  25.475  1.00  0.00     0.061 A 
ATOM     10  C   UNL A   1      34.511  24.632  24.292  1.00  0.00     0.045 A 
ATOM     11  C   UNL A   1      34.254  22.578  25.500  1.00  0.00     0.066 A 
ATOM     12  C   UNL A   1      33.805  21.957  24.383  1.00  0.00     0.044 A 
ATOM     13  Cl  UNL A   1      34.356  21.684  26.965  1.00  0.00    -0.082 Cl
ATOM     14  C   UNL A   1      33.359  22.788  23.333  1.00  0.00     0.057 A 
ATOM     15  Cl  UNL A   1      32.091  21.715  22.619  1.00  0.00    -0.083 Cl
BRANCH   9  16
ATOM     16  N   UNL A   1      33.087  24.453  26.238  1.00  0.00    -0.322 N 
ATOM     17  C   UNL A   1      31.754  24.750  25.932  1.00  0.00     0.262 C 
ATOM     18  O   UNL A   1      31.047  24.838  26.955  1.00  0.00    -0.271 OA
ATOM     19  H   UNL A   1      33.312  24.615  27.182  1.00  0.00     0.170 HD
BRANCH  17  20
ATOM     20  C   UNL A   1      30.952  25.102  24.290  1.00  0.00     0.329 C 
BRANCH  20  21
ATOM     21  O   UNL A   1      29.304  26.404  23.983  1.00  0.00    -0.484 OA
BRANCH  21  22
ATOM     22  C   UNL A   1      29.002  27.834  23.138  1.00  0.00     0.120 A 
ATOM     23  C   UNL A   1      27.392  31.339  23.641  1.00  0.00     0.044 C 
ATOM     24  C   UNL A   1      28.348  30.261  23.211  1.00  0.00    -0.047 A 
ATOM     25  C   UNL A   1      29.538  30.597  22.580  1.00  0.00     0.003 A 
ATOM     26  C   UNL A   1      28.081  28.894  23.472  1.00  0.00     0.049 A 
ATOM     27  C   UNL A   1      30.355  29.570  22.099  1.00  0.00     0.004 A 
ATOM     28  C   UNL A   1      30.028  28.200  22.298  1.00  0.00     0.046 A 
ENDBRANCH  21  22
ENDBRANCH  20  21
ENDBRANCH  17  20
ENDBRANCH   9  16
ENDBRANCH   6   8
ENDBRANCH   5   6
ENDBRANCH   4   5
ENDBRANCH   3   4
ENDBRANCH   2   3
ENDBRANCH   1   2
BRANCH   1  29
ATOM     29  C   UNL A   1      33.274  29.885  27.108  1.00  0.00     0.188 C 
BRANCH  29  30
ATOM     30  O   UNL A   1      33.309  31.205  27.611  1.00  0.00    -0.376 OA
BRANCH  30  31
ATOM     31  C   UNL A   1      34.558  31.748  27.988  1.00  0.00     0.202 C 
BRANCH  31  32
ATOM     32  C   UNL A   1      34.825  32.079  29.475  1.00  0.00     0.261 C 
BRANCH  32  33
ATOM     33  O   UNL A   1      34.361  33.414  29.779  1.00  0.00    -0.460 OA
BRANCH  33  34
ATOM     34  C   UNL A   1      34.485  33.945  31.049  1.00  0.00     0.338 C 
ATOM     35  O   UNL A   1      33.574  34.255  31.787  1.00  0.00    -0.246 OA
BRANCH  34  36
ATOM     36  C   UNL A   1      35.958  34.175  31.274  1.00  0.00     0.060 A 
ATOM     37  C   UNL A   1      36.943  34.424  30.309  1.00  0.00     0.016 A 
ATOM     38  C   UNL A   1      36.412  33.647  32.420  1.00  0.00     0.016 A 
ATOM     39  C   UNL A   1      38.224  33.711  30.299  1.00  0.00     0.010 A 
ATOM     40  C   UNL A   1      37.556  32.882  32.297  1.00  0.00     0.010 A 
ATOM     41  C   UNL A   1      38.506  32.688  31.203  1.00  0.00    -0.014 A 
BRANCH  41  42
ATOM     42  C   UNL A   1      39.843  31.462  31.037  1.00  0.00     0.031 A 
ATOM     43  C   UNL A   1      40.040  30.008  29.850  1.00  0.00     0.074 A 
ATOM     44  C   UNL A   1      40.955  31.760  31.766  1.00  0.00     0.049 A 
ATOM     45  N   UNL A   1      41.266  29.048  30.102  1.00  0.00    -0.248 NA
ATOM     46  C   UNL A   1      38.945  29.162  28.310  1.00  0.00     0.031 C 
ATOM     47  C   UNL A   1      42.306  31.204  31.704  1.00  0.00     0.029 A 
ATOM     48  N   UNL A   1      41.080  32.774  32.718  1.00  0.00    -0.354 N 
ATOM     49  C   UNL A   1      41.431  27.706  28.918  1.00  0.00     0.074 A 
ATOM     50  C   UNL A   1      39.845  27.753  27.825  1.00  0.00     0.031 C 
ATOM     51  C   UNL A   1      43.073  31.744  32.668  1.00  0.00     0.029 A 
ATOM     52  C   UNL A   1      42.198  32.512  33.524  1.00  0.00     0.049 A 
ATOM     53  H   UNL A   1      40.481  33.549  32.809  1.00  0.00     0.167 HD
ATOM     54  C   UNL A   1      42.592  27.009  28.975  1.00  0.00     0.034 A 
ATOM     55  C   UNL A   1      42.022  32.341  34.860  1.00  0.00     0.034 A 
ATOM     56  C   UNL A   1      43.320  27.399  30.194  1.00  0.00     0.049 A 
ATOM     57  C   UNL A   1      42.229  30.855  35.155  1.00  0.00     0.074 A 
ATOM     58  C   UNL A   1      44.415  28.209  30.444  1.00  0.00     0.029 A 
ATOM     59  N   UNL A   1      42.721  27.201  31.452  1.00  0.00    -0.354 N 
ATOM     60  N   UNL A   1      42.242  29.928  34.219  1.00  0.00    -0.248 NA
ATOM     61  C   UNL A   1      42.615  30.310  36.449  1.00  0.00     0.031 C 
ATOM     62  C   UNL A   1      44.445  28.505  31.848  1.00  0.00     0.029 A 
ATOM     63  C   UNL A   1      43.382  27.870  32.479  1.00  0.00     0.049 A 
ATOM     64  H   UNL A   1      41.918  26.647  31.591  1.00  0.00     0.167 HD
ATOM     65  C   UNL A   1      42.754  28.757  34.693  1.00  0.00     0.074 A 
ATOM     66  C   UNL A   1      42.935  29.043  36.117  1.00  0.00     0.031 C 
ATOM     67  C   UNL A   1      43.030  27.662  33.903  1.00  0.00     0.034 A 
BRANCH  54  68
ATOM     68  C   UNL A   1      43.107  26.223  27.801  1.00  0.00     0.023 A 
ATOM     69  C   UNL A   1      42.612  24.932  27.554  1.00  0.00     0.031 A 
ATOM     70  C   UNL A   1      44.128  26.647  26.926  1.00  0.00     0.131 A 
ATOM     71  C   UNL A   1      43.177  24.116  26.550  1.00  0.00     0.055 A 
ATOM     72  C   UNL A   1      44.757  25.807  25.997  1.00  0.00     0.041 A 
ATOM     73  F   UNL A   1      44.498  27.926  26.852  1.00  0.00    -0.206 F 
ATOM     74  C   UNL A   1      44.283  24.524  25.809  1.00  0.00     0.022 A 
BRANCH  71  75
ATOM     75  S   UNL A   1      42.383  22.537  26.154  1.00  0.00     0.124 S 
ATOM     76  O   UNL A   1      40.970  22.842  26.347  1.00  0.00    -0.237 OA
ATOM     77  O   UNL A   1      42.818  22.315  24.779  1.00  0.00    -0.237 OA
ATOM     78  O   UNL A   1      42.956  21.613  27.134  1.00  0.00    -0.744 OA
ENDBRANCH  71  75
ENDBRANCH  54  68
BRANCH  55  79
ATOM     79  C   UNL A   1      41.086  33.404  35.387  1.00  0.00     0.023 A 
ATOM     80  C   UNL A   1      39.800  32.947  35.829  1.00  0.00     0.031 A 
ATOM     81  C   UNL A   1      41.532  34.618  35.920  1.00  0.00     0.131 A 
ATOM     82  C   UNL A   1      39.127  33.566  36.903  1.00  0.00     0.055 A 
ATOM     83  C   UNL A   1      40.815  35.275  36.942  1.00  0.00     0.041 A 
ATOM     84  F   UNL A   1      42.748  35.093  35.615  1.00  0.00    -0.206 F 
ATOM     85  C   UNL A   1      39.653  34.713  37.483  1.00  0.00     0.022 A 
BRANCH  82  86
ATOM     86  S   UNL A   1      37.719  32.746  37.745  1.00  0.00     0.124 S 
ATOM     87  O   UNL A   1      36.579  33.215  36.966  1.00  0.00    -0.237 OA
ATOM     88  O   UNL A   1      38.027  31.324  37.623  1.00  0.00    -0.237 OA
ATOM     89  O   UNL A   1      37.806  33.266  39.109  1.00  0.00    -0.744 OA
ENDBRANCH  82  86
ENDBRANCH  55  79
BRANCH  67  90
ATOM     90  C   UNL A   1      43.120  26.257  34.477  1.00  0.00     0.023 A 
ATOM     91  C   UNL A   1      44.343  25.592  34.627  1.00  0.00     0.031 A 
ATOM     92  C   UNL A   1      41.997  25.564  34.993  1.00  0.00     0.131 A 
ATOM     93  C   UNL A   1      44.415  24.283  35.119  1.00  0.00     0.055 A 
ATOM     94  C   UNL A   1      42.088  24.314  35.610  1.00  0.00     0.041 A 
ATOM     95  F   UNL A   1      40.757  26.067  34.945  1.00  0.00    -0.206 F 
ATOM     96  C   UNL A   1      43.299  23.647  35.649  1.00  0.00     0.022 A 
BRANCH  93  97
ATOM     97  S   UNL A   1      45.986  23.410  34.937  1.00  0.00     0.124 S 
ATOM     98  O   UNL A   1      46.902  24.509  34.639  1.00  0.00    -0.237 OA
ATOM     99  O   UNL A   1      46.155  22.787  36.246  1.00  0.00    -0.237 OA
ATOM    100  O   UNL A   1      45.740  22.487  33.832  1.00  0.00    -0.744 OA
ENDBRANCH  93  97
ENDBRANCH  67  90
ENDBRANCH  41  42
ENDBRANCH  34  36
ENDBRANCH  33  34
ENDBRANCH  32  33
ENDBRANCH  31  32
ENDBRANCH  30  31
ENDBRANCH  29  30
ENDBRANCH   1  29
TORSDOF 24
ENDMDL
MODEL 2
REMARK VINA RESULT:     -11.7      4.252     10.828
REMARK SMILES Cc1cccc(OCC(=O)Nc2cc(C(=O)OCCOCCOCCOC(=O)c3ccc(-c4c5nc(c(-c6cc(S(=O)(=O)[O-])ccc6F)c6ccc([nH]6)c(-c6cc(S(=O)(=O)[O-])ccc6F)c6nc(c(-c7cc(S(=O)(=O)[O-])ccc7F)c7ccc4[nH]7)C=C6)C=C5)cc3)c(Cl)cc2Cl)c1
REMARK SMILES IDX 21 1 20 2 19 3 18 4 17 5 15 6 16 7 14 8 12 9 13 10 95 11
REMARK SMILES IDX 94 12 96 13 92 14 93 15 11 16 9 17 10 18 8 20 7 21 6 22 1 23
REMARK SMILES IDX 2 24 3 25 97 26 4 27 5 28 22 29 23 30 24 31 25 32 26 33
REMARK SMILES IDX 27 34 28 35 29 36 30 37 91 38 31 39 90 40 32 41 33 42 34 43
REMARK SMILES IDX 84 44 35 45 89 46 83 47 85 48 36 49 88 50 82 51 81 52 37 54
REMARK SMILES IDX 69 55 49 56 68 57 50 58 53 59 67 60 86 61 51 62 52 63 66 65
REMARK SMILES IDX 87 66 54 67 38 68 39 69 47 70 40 71 46 72 48 73 45 74 41 75
REMARK SMILES IDX 42 76 43 77 44 78 70 79 71 80 79 81 72 82 78 83 80 84 77 85
REMARK SMILES IDX 73 86 74 87 75 88 76 89 55 90 56 91 64 92 57 93 63 94 65 95
REMARK SMILES IDX 62 96 58 97 59 98 60 99 61 100
REMARK H PARENT 11 19 85 53 53 64
REMARK Flexibility Score: inf
ROOT
ATOM      1  C   UNL A   1      36.723  20.693  25.012  1.00  0.00     0.188 C 
ENDROOT
BRANCH   1   2
ATOM      2  O   UNL A   1      35.668  21.065  25.891  1.00  0.00    -0.376 OA
BRANCH   2   3
ATOM      3  C   UNL A   1      34.819  22.073  25.397  1.00  0.00     0.202 C 
BRANCH   3   4
ATOM      4  C   UNL A   1      34.799  23.428  26.183  1.00  0.00     0.261 C 
BRANCH   4   5
ATOM      5  O   UNL A   1      33.494  23.997  26.907  1.00  0.00    -0.460 OA
BRANCH   5   6
ATOM      6  C   UNL A   1      32.059  24.230  26.930  1.00  0.00     0.339 C 
ATOM      7  O   UNL A   1      31.378  23.479  27.637  1.00  0.00    -0.246 OA
BRANCH   6   8
ATOM      8  C   UNL A   1      31.077  25.339  25.703  1.00  0.00     0.080 A 
ATOM      9  C   UNL A   1      31.044  27.647  25.201  1.00  0.00     0.061 A 
ATOM     10  C   UNL A   1      31.072  26.639  26.166  1.00  0.00     0.045 A 
ATOM     11  C   UNL A   1      30.017  27.654  24.268  1.00  0.00     0.066 A 
ATOM     12  C   UNL A   1      29.655  26.436  23.796  1.00  0.00     0.044 A 
ATOM     13  Cl  UNL A   1      29.600  29.055  23.363  1.00  0.00    -0.082 Cl
ATOM     14  C   UNL A   1      30.341  25.323  24.327  1.00  0.00     0.057 A 
ATOM     15  Cl  UNL A   1      30.287  24.225  22.892  1.00  0.00    -0.083 Cl
BRANCH   9  16
ATOM     16  N   UNL A   1      32.285  28.047  24.620  1.00  0.00    -0.322 N 
ATOM     17  C   UNL A   1      33.561  28.296  25.138  1.00  0.00     0.262 C 
ATOM     18  O   UNL A   1      34.435  28.300  24.248  1.00  0.00    -0.271 OA
ATOM     19  H   UNL A   1      32.232  28.173  23.645  1.00  0.00     0.170 HD
BRANCH  17  20
ATOM     20  C   UNL A   1      34.092  28.689  26.877  1.00  0.00     0.329 C 
BRANCH  20  21
ATOM     21  O   UNL A   1      36.063  29.203  27.471  1.00  0.00    -0.484 OA
BRANCH  21  22
ATOM     22  C   UNL A   1      36.785  30.102  28.704  1.00  0.00     0.120 A 
ATOM     23  C   UNL A   1      38.289  33.629  29.367  1.00  0.00     0.044 C 
ATOM     24  C   UNL A   1      37.520  32.350  29.559  1.00  0.00    -0.047 A 
ATOM     25  C   UNL A   1      36.720  32.181  30.681  1.00  0.00     0.003 A 
ATOM     26  C   UNL A   1      37.560  31.316  28.592  1.00  0.00     0.049 A 
ATOM     27  C   UNL A   1      36.103  30.943  30.884  1.00  0.00     0.004 A 
ATOM     28  C   UNL A   1      36.223  29.885  29.941  1.00  0.00     0.046 A 
ENDBRANCH  21  22
ENDBRANCH  20  21
ENDBRANCH  17  20
ENDBRANCH   9  16
ENDBRANCH   6   8
ENDBRANCH   5   6
ENDBRANCH   4   5
ENDBRANCH   3   4
ENDBRANCH   2   3
ENDBRANCH   1   2
BRANCH   1  29
ATOM     29  C   UNL A   1      37.828  21.716  25.004  1.00  0.00     0.188 C 
BRANCH  29  30
ATOM     30  O   UNL A   1      38.358  21.981  26.287  1.00  0.00    -0.376 OA
BRANCH  30  31
ATOM     31  C   UNL A   1      39.701  22.411  26.384  1.00  0.00     0.202 C 
BRANCH  31  32
ATOM     32  C   UNL A   1      40.562  21.947  27.582  1.00  0.00     0.261 C 
BRANCH  32  33
ATOM     33  O   UNL A   1      41.643  22.881  27.810  1.00  0.00    -0.460 OA
BRANCH  33  34
ATOM     34  C   UNL A   1      42.887  22.693  27.238  1.00  0.00     0.338 C 
ATOM     35  O   UNL A   1      43.148  21.937  26.327  1.00  0.00    -0.246 OA
BRANCH  34  36
ATOM     36  C   UNL A   1      43.858  23.514  28.049  1.00  0.00     0.060 A 
ATOM     37  C   UNL A   1      43.894  23.670  29.441  1.00  0.00     0.016 A 
ATOM     38  C   UNL A   1      44.423  24.512  27.354  1.00  0.00     0.016 A 
ATOM     39  C   UNL A   1      44.025  24.985  30.075  1.00  0.00     0.010 A 
ATOM     40  C   UNL A   1      44.388  25.746  27.974  1.00  0.00     0.010 A 
ATOM     41  C   UNL A   1      44.045  26.164  29.332  1.00  0.00    -0.014 A 
BRANCH  41  42
ATOM     42  C   UNL A   1      43.777  27.841  29.993  1.00  0.00     0.031 A 
ATOM     43  C   UNL A   1      42.207  28.683  30.614  1.00  0.00     0.074 A 
ATOM     44  C   UNL A   1      44.930  28.523  30.244  1.00  0.00     0.049 A 
ATOM     45  N   UNL A   1      42.317  30.217  30.967  1.00  0.00    -0.248 NA
ATOM     46  C   UNL A   1      40.210  28.180  30.826  1.00  0.00     0.031 C 
ATOM     47  C   UNL A   1      45.158  29.749  31.007  1.00  0.00     0.029 A 
ATOM     48  N   UNL A   1      46.223  28.134  29.887  1.00  0.00    -0.354 N 
ATOM     49  C   UNL A   1      40.805  30.959  31.594  1.00  0.00     0.074 A 
ATOM     50  C   UNL A   1      39.427  29.627  31.395  1.00  0.00     0.031 C 
ATOM     51  C   UNL A   1      46.453  30.108  30.929  1.00  0.00     0.029 A 
ATOM     52  C   UNL A   1      47.071  29.250  29.943  1.00  0.00     0.049 A 
ATOM     53  H   UNL A   1      46.496  27.222  29.635  1.00  0.00     0.167 HD
ATOM     54  C   UNL A   1      40.931  32.203  32.115  1.00  0.00     0.034 A 
ATOM     55  C   UNL A   1      47.711  29.649  28.814  1.00  0.00     0.034 A 
ATOM     56  C   UNL A   1      42.270  32.721  31.789  1.00  0.00     0.049 A 
ATOM     57  C   UNL A   1      47.046  30.947  28.354  1.00  0.00     0.074 A 
ATOM     58  C   UNL A   1      43.443  32.880  32.507  1.00  0.00     0.029 A 
ATOM     59  N   UNL A   1      42.651  32.855  30.440  1.00  0.00    -0.354 N 
ATOM     60  N   UNL A   1      45.882  31.362  28.810  1.00  0.00    -0.248 NA
ATOM     61  C   UNL A   1      47.682  31.956  27.518  1.00  0.00     0.031 C 
ATOM     62  C   UNL A   1      44.517  33.087  31.579  1.00  0.00     0.029 A 
ATOM     63  C   UNL A   1      44.017  33.072  30.282  1.00  0.00     0.049 A 
ATOM     64  H   UNL A   1      42.018  32.801  29.688  1.00  0.00     0.167 HD
ATOM     65  C   UNL A   1      45.669  32.671  28.493  1.00  0.00     0.074 A 
ATOM     66  C   UNL A   1      46.818  32.984  27.643  1.00  0.00     0.031 C 
ATOM     67  C   UNL A   1      44.609  33.415  28.967  1.00  0.00     0.034 A 
BRANCH  54  68
ATOM     68  C   UNL A   1      39.939  32.759  33.099  1.00  0.00     0.023 A 
ATOM     69  C   UNL A   1      39.644  32.045  34.272  1.00  0.00     0.031 A 
ATOM     70  C   UNL A   1      39.196  33.944  32.921  1.00  0.00     0.131 A 
ATOM     71  C   UNL A   1      38.615  32.466  35.141  1.00  0.00     0.055 A 
ATOM     72  C   UNL A   1      38.110  34.312  33.726  1.00  0.00     0.041 A 
ATOM     73  F   UNL A   1      39.550  34.861  32.020  1.00  0.00    -0.206 F 
ATOM     74  C   UNL A   1      37.809  33.563  34.846  1.00  0.00     0.022 A 
BRANCH  71  75
ATOM     75  S   UNL A   1      38.400  31.614  36.725  1.00  0.00     0.124 S 
ATOM     76  O   UNL A   1      37.093  32.090  37.160  1.00  0.00    -0.237 OA
ATOM     77  O   UNL A   1      38.483  30.213  36.329  1.00  0.00    -0.237 OA
ATOM     78  O   UNL A   1      39.530  32.093  37.524  1.00  0.00    -0.744 OA
ENDBRANCH  71  75
ENDBRANCH  54  68
BRANCH  55  79
ATOM     79  C   UNL A   1      48.283  28.444  28.105  1.00  0.00     0.023 A 
ATOM     80  C   UNL A   1      47.629  28.062  26.886  1.00  0.00     0.031 A 
ATOM     81  C   UNL A   1      49.611  28.029  28.256  1.00  0.00     0.131 A 
ATOM     82  C   UNL A   1      48.346  27.498  25.811  1.00  0.00     0.055 A 
ATOM     83  C   UNL A   1      50.302  27.394  27.202  1.00  0.00     0.041 A 
ATOM     84  F   UNL A   1      50.324  28.392  29.331  1.00  0.00    -0.206 F 
ATOM     85  C   UNL A   1      49.694  27.194  25.957  1.00  0.00     0.022 A 
BRANCH  82  86
ATOM     86  S   UNL A   1      47.624  27.408  24.128  1.00  0.00     0.124 S 
ATOM     87  O   UNL A   1      46.408  28.200  24.271  1.00  0.00    -0.237 OA
ATOM     88  O   UNL A   1      48.660  27.987  23.278  1.00  0.00    -0.237 OA
ATOM     89  O   UNL A   1      47.421  25.973  23.935  1.00  0.00    -0.744 OA
ENDBRANCH  82  86
ENDBRANCH  55  79
BRANCH  67  90
ATOM     90  C   UNL A   1      44.115  34.661  28.250  1.00  0.00     0.023 A 
ATOM     91  C   UNL A   1      44.269  35.942  28.794  1.00  0.00     0.031 A 
ATOM     92  C   UNL A   1      43.562  34.629  26.946  1.00  0.00     0.131 A 
ATOM     93  C   UNL A   1      43.776  37.082  28.146  1.00  0.00     0.055 A 
ATOM     94  C   UNL A   1      43.196  35.780  26.242  1.00  0.00     0.041 A 
ATOM     95  F   UNL A   1      43.364  33.486  26.276  1.00  0.00    -0.206 F 
ATOM     96  C   UNL A   1      43.271  37.018  26.854  1.00  0.00     0.022 A 
BRANCH  93  97
ATOM     97  S   UNL A   1      43.716  38.618  29.095  1.00  0.00     0.124 S 
ATOM     98  O   UNL A   1      44.980  39.247  28.721  1.00  0.00    -0.237 OA
ATOM     99  O   UNL A   1      42.514  39.263  28.576  1.00  0.00    -0.237 OA
ATOM    100  O   UNL A   1      43.632  38.162  30.480  1.00  0.00    -0.744 OA
ENDBRANCH  93  97
ENDBRANCH  67  90
ENDBRANCH  41  42
ENDBRANCH  34  36
ENDBRANCH  33  34
ENDBRANCH  32  33
ENDBRANCH  31  32
ENDBRANCH  30  31
ENDBRANCH  29  30
ENDBRANCH   1  29
TORSDOF 24
ENDMDL
MODEL 3
REMARK VINA RESULT:     -11.7      1.594      1.903
REMARK SMILES Cc1cccc(OCC(=O)Nc2cc(C(=O)OCCOCCOCCOC(=O)c3ccc(-c4c5nc(c(-c6cc(S(=O)(=O)[O-])ccc6F)c6ccc([nH]6)c(-c6cc(S(=O)(=O)[O-])ccc6F)c6nc(c(-c7cc(S(=O)(=O)[O-])ccc7F)c7ccc4[nH]7)C=C6)C=C5)cc3)c(Cl)cc2Cl)c1
REMARK SMILES IDX 21 1 20 2 19 3 18 4 17 5 15 6 16 7 14 8 12 9 13 10 95 11
REMARK SMILES IDX 94 12 96 13 92 14 93 15 11 16 9 17 10 18 8 20 7 21 6 22 1 23
REMARK SMILES IDX 2 24 3 25 97 26 4 27 5 28 22 29 23 30 24 31 25 32 26 33
REMARK SMILES IDX 27 34 28 35 29 36 30 37 91 38 31 39 90 40 32 41 33 42 34 43
REMARK SMILES IDX 84 44 35 45 89 46 83 47 85 48 36 49 88 50 82 51 81 52 37 54
REMARK SMILES IDX 69 55 49 56 68 57 50 58 53 59 67 60 86 61 51 62 52 63 66 65
REMARK SMILES IDX 87 66 54 67 38 68 39 69 47 70 40 71 46 72 48 73 45 74 41 75
REMARK SMILES IDX 42 76 43 77 44 78 70 79 71 80 79 81 72 82 78 83 80 84 77 85
REMARK SMILES IDX 73 86 74 87 75 88 76 89 55 90 56 91 64 92 57 93 63 94 65 95
REMARK SMILES IDX 62 96 58 97 59 98 60 99 61 100
REMARK H PARENT 11 19 85 53 53 64
REMARK Flexibility Score: inf
ROOT
ATOM      1  C   UNL A   1      33.136  27.824  26.352  1.00  0.00     0.188 C 
ENDROOT
BRANCH   1   2
ATOM      2  O   UNL A   1      32.749  27.826  24.984  1.00  0.00    -0.376 OA
BRANCH   2   3
ATOM      3  C   UNL A   1      33.806  28.019  24.074  1.00  0.00     0.202 C 
BRANCH   3   4
ATOM      4  C   UNL A   1      33.426  28.102  22.557  1.00  0.00     0.261 C 
BRANCH   4   5
ATOM      5  O   UNL A   1      33.211  26.812  21.640  1.00  0.00    -0.460 OA
BRANCH   5   6
ATOM      6  C   UNL A   1      33.354  25.383  21.411  1.00  0.00     0.339 C 
ATOM      7  O   UNL A   1      33.059  24.960  20.288  1.00  0.00    -0.246 OA
BRANCH   6   8
ATOM      8  C   UNL A   1      33.603  24.043  22.769  1.00  0.00     0.080 A 
ATOM      9  C   UNL A   1      33.889  24.077  25.114  1.00  0.00     0.061 A 
ATOM     10  C   UNL A   1      34.215  24.613  23.866  1.00  0.00     0.045 A 
ATOM     11  C   UNL A   1      34.080  22.721  25.331  1.00  0.00     0.066 A 
ATOM     12  C   UNL A   1      33.756  21.916  24.290  1.00  0.00     0.044 A 
ATOM     13  Cl  UNL A   1      34.179  22.042  26.908  1.00  0.00    -0.082 Cl
ATOM     14  C   UNL A   1      33.297  22.553  23.118  1.00  0.00     0.057 A 
ATOM     15  Cl  UNL A   1      32.178  21.275  22.500  1.00  0.00    -0.083 Cl
BRANCH   9  16
ATOM     16  N   UNL A   1      32.703  24.551  25.752  1.00  0.00    -0.322 N 
ATOM     17  C   UNL A   1      31.399  24.802  25.309  1.00  0.00     0.262 C 
ATOM     18  O   UNL A   1      30.592  24.891  26.255  1.00  0.00    -0.271 OA
ATOM     19  H   UNL A   1      32.829  24.740  26.710  1.00  0.00     0.170 HD
BRANCH  17  20
ATOM     20  C   UNL A   1      30.754  25.093  23.588  1.00  0.00     0.329 C 
BRANCH  20  21
ATOM     21  O   UNL A   1      30.070  26.954  22.833  1.00  0.00    -0.484 OA
BRANCH  21  22
ATOM     22  C   UNL A   1      29.224  28.290  23.425  1.00  0.00     0.120 A 
ATOM     23  C   UNL A   1      29.527  32.159  23.695  1.00  0.00     0.044 C 
ATOM     24  C   UNL A   1      28.946  30.789  23.480  1.00  0.00    -0.047 A 
ATOM     25  C   UNL A   1      27.639  30.649  23.032  1.00  0.00     0.003 A 
ATOM     26  C   UNL A   1      29.721  29.621  23.685  1.00  0.00     0.049 A 
ATOM     27  C   UNL A   1      27.094  29.365  22.943  1.00  0.00     0.004 A 
ATOM     28  C   UNL A   1      27.865  28.205  23.235  1.00  0.00     0.046 A 
ENDBRANCH  21  22
ENDBRANCH  20  21
ENDBRANCH  17  20
ENDBRANCH   9  16
ENDBRANCH   6   8
ENDBRANCH   5   6
ENDBRANCH   4   5
ENDBRANCH   3   4
ENDBRANCH   2   3
ENDBRANCH   1   2
BRANCH   1  29
ATOM     29  C   UNL A   1      34.430  28.563  26.566  1.00  0.00     0.188 C 
BRANCH  29  30
ATOM     30  O   UNL A   1      34.466  29.299  27.772  1.00  0.00    -0.376 OA
BRANCH  30  31
ATOM     31  C   UNL A   1      35.220  30.493  27.809  1.00  0.00     0.202 C 
BRANCH  31  32
ATOM     32  C   UNL A   1      35.554  31.138  29.174  1.00  0.00     0.261 C 
BRANCH  32  33
ATOM     33  O   UNL A   1      35.160  32.530  29.178  1.00  0.00    -0.460 OA
BRANCH  33  34
ATOM     34  C   UNL A   1      35.184  33.280  30.339  1.00  0.00     0.338 C 
ATOM     35  O   UNL A   1      34.226  33.782  30.886  1.00  0.00    -0.246 OA
BRANCH  34  36
ATOM     36  C   UNL A   1      36.636  33.449  30.708  1.00  0.00     0.060 A 
ATOM     37  C   UNL A   1      37.710  33.733  29.854  1.00  0.00     0.016 A 
ATOM     38  C   UNL A   1      36.972  32.831  31.850  1.00  0.00     0.016 A 
ATOM     39  C   UNL A   1      38.969  32.983  29.907  1.00  0.00     0.010 A 
ATOM     40  C   UNL A   1      38.104  32.041  31.775  1.00  0.00     0.010 A 
ATOM     41  C   UNL A   1      39.144  31.894  30.758  1.00  0.00    -0.014 A 
BRANCH  41  42
ATOM     42  C   UNL A   1      40.461  30.641  30.625  1.00  0.00     0.031 A 
ATOM     43  C   UNL A   1      40.546  29.046  29.621  1.00  0.00     0.074 A 
ATOM     44  C   UNL A   1      41.637  31.018  31.201  1.00  0.00     0.049 A 
ATOM     45  N   UNL A   1      41.791  28.113  29.876  1.00  0.00    -0.248 NA
ATOM     46  C   UNL A   1      39.310  28.023  28.312  1.00  0.00     0.031 C 
ATOM     47  C   UNL A   1      42.976  30.443  31.084  1.00  0.00     0.029 A 
ATOM     48  N   UNL A   1      41.850  32.144  32.000  1.00  0.00    -0.354 N 
ATOM     49  C   UNL A   1      41.844  26.629  28.864  1.00  0.00     0.074 A 
ATOM     50  C   UNL A   1      40.162  26.553  27.928  1.00  0.00     0.031 C 
ATOM     51  C   UNL A   1      43.831  31.093  31.894  1.00  0.00     0.029 A 
ATOM     52  C   UNL A   1      43.040  31.974  32.724  1.00  0.00     0.049 A 
ATOM     53  H   UNL A   1      41.261  32.930  32.047  1.00  0.00     0.167 HD
ATOM     54  C   UNL A   1      43.006  25.932  28.899  1.00  0.00     0.034 A 
ATOM     55  C   UNL A   1      42.991  31.976  34.082  1.00  0.00     0.034 A 
ATOM     56  C   UNL A   1      43.846  26.466  29.984  1.00  0.00     0.049 A 
ATOM     57  C   UNL A   1      43.227  30.538  34.543  1.00  0.00     0.074 A 
ATOM     58  C   UNL A   1      44.959  27.290  30.024  1.00  0.00     0.029 A 
ATOM     59  N   UNL A   1      43.369  26.437  31.308  1.00  0.00    -0.354 N 
ATOM     60  N   UNL A   1      43.153  29.500  33.736  1.00  0.00    -0.248 NA
ATOM     61  C   UNL A   1      43.735  30.159  35.854  1.00  0.00     0.031 C 
ATOM     62  C   UNL A   1      45.122  27.761  31.369  1.00  0.00     0.029 A 
ATOM     63  C   UNL A   1      44.124  27.224  32.174  1.00  0.00     0.049 A 
ATOM     64  H   UNL A   1      42.584  25.914  31.592  1.00  0.00     0.167 HD
ATOM     65  C   UNL A   1      43.709  28.393  34.306  1.00  0.00     0.074 A 
ATOM     66  C   UNL A   1      44.024  28.856  35.658  1.00  0.00     0.031 C 
ATOM     67  C   UNL A   1      43.910  27.203  33.640  1.00  0.00     0.034 A 
BRANCH  54  68
ATOM     68  C   UNL A   1      43.408  24.998  27.792  1.00  0.00     0.023 A 
ATOM     69  C   UNL A   1      44.592  25.234  27.074  1.00  0.00     0.031 A 
ATOM     70  C   UNL A   1      42.648  23.898  27.342  1.00  0.00     0.131 A 
ATOM     71  C   UNL A   1      44.921  24.461  25.939  1.00  0.00     0.055 A 
ATOM     72  C   UNL A   1      42.919  23.195  26.161  1.00  0.00     0.041 A 
ATOM     73  F   UNL A   1      41.663  23.382  28.078  1.00  0.00    -0.206 F 
ATOM     74  C   UNL A   1      44.064  23.481  25.445  1.00  0.00     0.022 A 
BRANCH  71  75
ATOM     75  S   UNL A   1      46.542  24.689  25.164  1.00  0.00     0.124 S 
ATOM     76  O   UNL A   1      47.456  24.359  26.251  1.00  0.00    -0.237 OA
ATOM     77  O   UNL A   1      46.483  23.742  24.054  1.00  0.00    -0.237 OA
ATOM     78  O   UNL A   1      46.535  26.097  24.767  1.00  0.00    -0.744 OA
ENDBRANCH  71  75
ENDBRANCH  54  68
BRANCH  55  79
ATOM     79  C   UNL A   1      42.109  33.108  34.554  1.00  0.00     0.023 A 
ATOM     80  C   UNL A   1      40.953  32.729  35.315  1.00  0.00     0.031 A 
ATOM     81  C   UNL A   1      42.576  34.414  34.739  1.00  0.00     0.131 A 
ATOM     82  C   UNL A   1      40.454  33.544  36.351  1.00  0.00     0.055 A 
ATOM     83  C   UNL A   1      42.021  35.255  35.726  1.00  0.00     0.041 A 
ATOM     84  F   UNL A   1      43.686  34.838  34.120  1.00  0.00    -0.206 F 
ATOM     85  C   UNL A   1      41.010  34.796  36.581  1.00  0.00     0.022 A 
BRANCH  82  86
ATOM     86  S   UNL A   1      39.272  32.891  37.592  1.00  0.00     0.124 S 
ATOM     87  O   UNL A   1      40.157  32.471  38.671  1.00  0.00    -0.237 OA
ATOM     88  O   UNL A   1      38.415  34.035  37.885  1.00  0.00    -0.237 OA
ATOM     89  O   UNL A   1      38.604  31.809  36.869  1.00  0.00    -0.744 OA
ENDBRANCH  82  86
ENDBRANCH  55  79
BRANCH  67  90
ATOM     90  C   UNL A   1      44.056  25.882  34.377  1.00  0.00     0.023 A 
ATOM     91  C   UNL A   1      45.273  25.193  34.436  1.00  0.00     0.031 A 
ATOM     92  C   UNL A   1      43.008  25.307  35.139  1.00  0.00     0.131 A 
ATOM     93  C   UNL A   1      45.391  23.957  35.084  1.00  0.00     0.055 A 
ATOM     94  C   UNL A   1      43.164  24.144  35.899  1.00  0.00     0.041 A 
ATOM     95  F   UNL A   1      41.785  25.848  35.204  1.00  0.00    -0.206 F 
ATOM     96  C   UNL A   1      44.354  23.440  35.850  1.00  0.00     0.022 A 
BRANCH  93  97
ATOM     97  S   UNL A   1      46.899  23.006  34.794  1.00  0.00     0.124 S 
ATOM     98  O   UNL A   1      47.620  23.871  33.864  1.00  0.00    -0.237 OA
ATOM     99  O   UNL A   1      47.471  22.906  36.134  1.00  0.00    -0.237 OA
ATOM    100  O   UNL A   1      46.411  21.751  34.228  1.00  0.00    -0.744 OA
ENDBRANCH  93  97
ENDBRANCH  67  90
ENDBRANCH  41  42
ENDBRANCH  34  36
ENDBRANCH  33  34
ENDBRANCH  32  33
ENDBRANCH  31  32
ENDBRANCH  30  31
ENDBRANCH  29  30
ENDBRANCH   1  29
TORSDOF 24
ENDMDL
