MODEL 1
REMARK VINA RESULT:      -8.7      0.000      0.000
REMARK SMILES C#CCOc1ccccc1/C=C(\C#N)C(=O)OCCOCCOCCOC(=O)c1ccc(-c2c3nc(c(-c4cc(S(=O)(=O)[O-])ccc4F)c4ccc([nH]4)c(-c4cc(S(=O)(=O)[O-])ccc4F)c4nc(c(-c5cc(S(=O)(=O)[O-])ccc5F)c5ccc2[nH]5)C=C4)C=C3)cc1
REMARK SMILES IDX 21 1 20 2 19 3 18 4 17 5 15 6 16 7 12 8 11 9 10 10 5 11 6 12
REMARK SMILES IDX 7 13 9 14 8 15 4 16 3 17 2 18 1 19 13 20 14 21 22 22 23 23
REMARK SMILES IDX 24 24 25 25 26 26 27 27 28 28 29 29 30 30 91 31 31 32 90 33
REMARK SMILES IDX 32 34 33 35 34 36 84 37 35 38 89 39 83 40 85 41 36 42 88 43
REMARK SMILES IDX 82 44 81 45 37 47 69 48 49 49 68 50 50 51 53 52 67 53 86 54
REMARK SMILES IDX 51 55 52 56 66 58 87 59 54 60 38 61 39 62 47 63 40 64 46 65
REMARK SMILES IDX 48 66 45 67 41 68 42 69 43 70 44 71 70 72 71 73 79 74 72 75
REMARK SMILES IDX 78 76 80 77 77 78 73 79 74 80 75 81 76 82 55 83 56 84 64 85
REMARK SMILES IDX 57 86 63 87 65 88 62 89 58 90 59 91 60 92 61 93
REMARK H PARENT 85 46 53 57
REMARK Flexibility Score: inf
ROOT
ATOM      1  C   UNL A   1      33.514  25.599  25.065  1.00  0.00     0.188 C 
ENDROOT
BRANCH   1   2
ATOM      2  O   UNL A   1      33.682  26.120  23.763  1.00  0.00    -0.376 OA
BRANCH   2   3
ATOM      3  C   UNL A   1      32.486  26.367  23.048  1.00  0.00     0.202 C 
BRANCH   3   4
ATOM      4  C   UNL A   1      32.015  27.831  22.814  1.00  0.00     0.261 C 
BRANCH   4   5
ATOM      5  O   UNL A   1      32.573  28.868  23.666  1.00  0.00    -0.459 OA
BRANCH   5   6
ATOM      6  C   UNL A   1      31.827  29.381  24.700  1.00  0.00     0.348 C 
ATOM      7  O   UNL A   1      30.665  29.745  24.601  1.00  0.00    -0.245 OA
BRANCH   6   8
ATOM      8  C   UNL A   1      32.579  29.286  26.010  1.00  0.00     0.138 C 
ATOM      9  C   UNL A   1      33.781  29.924  26.151  1.00  0.00     0.039 C 
BRANCH   9  10
ATOM     10  C   UNL A   1      34.600  30.228  27.384  1.00  0.00     0.018 A 
ATOM     11  C   UNL A   1      34.625  31.442  28.182  1.00  0.00     0.128 A 
ATOM     12  C   UNL A   1      35.625  31.577  29.162  1.00  0.00     0.047 A 
ATOM     13  C   UNL A   1      36.544  30.559  29.421  1.00  0.00     0.004 A 
ATOM     14  C   UNL A   1      35.541  29.219  27.696  1.00  0.00     0.012 A 
ATOM     15  C   UNL A   1      36.489  29.374  28.704  1.00  0.00     0.001 A 
BRANCH  11  16
ATOM     16  O   UNL A   1      33.947  32.661  28.020  1.00  0.00    -0.480 OA
BRANCH  16  17
ATOM     17  C   UNL A   1      34.700  33.953  27.983  1.00  0.00     0.318 C 
BRANCH  17  18
ATOM     18  C   UNL A   1      33.787  34.712  28.932  1.00  0.00    -0.065 C 
ATOM     19  C   UNL A   1      33.004  35.363  29.746  1.00  0.00     0.007 C 
ENDBRANCH  17  18
ENDBRANCH  16  17
ENDBRANCH  11  16
ENDBRANCH   9  10
BRANCH   8  20
ATOM     20  C   UNL A   1      31.901  28.586  27.039  1.00  0.00     0.107 C 
ATOM     21  N   UNL A   1      31.368  27.930  27.849  1.00  0.00    -0.192 NA
ENDBRANCH   8  20
ENDBRANCH   6   8
ENDBRANCH   5   6
ENDBRANCH   4   5
ENDBRANCH   3   4
ENDBRANCH   2   3
ENDBRANCH   1   2
BRANCH   1  22
ATOM     22  C   UNL A   1      34.120  24.198  25.247  1.00  0.00     0.188 C 
BRANCH  22  23
ATOM     23  O   UNL A   1      34.922  23.658  24.206  1.00  0.00    -0.376 OA
BRANCH  23  24
ATOM     24  C   UNL A   1      35.298  22.294  24.287  1.00  0.00     0.202 C 
BRANCH  24  25
ATOM     25  C   UNL A   1      36.424  21.872  25.251  1.00  0.00     0.261 C 
BRANCH  25  26
ATOM     26  O   UNL A   1      37.342  22.891  25.694  1.00  0.00    -0.460 OA
BRANCH  26  27
ATOM     27  C   UNL A   1      38.571  22.448  26.069  1.00  0.00     0.338 C 
ATOM     28  O   UNL A   1      39.096  21.401  25.728  1.00  0.00    -0.246 OA
BRANCH  27  29
ATOM     29  C   UNL A   1      39.294  23.481  26.853  1.00  0.00     0.060 A 
ATOM     30  C   UNL A   1      38.915  24.820  26.693  1.00  0.00     0.016 A 
ATOM     31  C   UNL A   1      40.412  23.166  27.631  1.00  0.00     0.016 A 
ATOM     32  C   UNL A   1      39.664  25.842  27.285  1.00  0.00     0.010 A 
ATOM     33  C   UNL A   1      41.164  24.198  28.222  1.00  0.00     0.010 A 
ATOM     34  C   UNL A   1      40.804  25.545  28.041  1.00  0.00    -0.014 A 
BRANCH  34  35
ATOM     35  C   UNL A   1      41.695  26.655  28.484  1.00  0.00     0.031 A 
ATOM     36  C   UNL A   1      41.145  27.689  29.430  1.00  0.00     0.074 A 
ATOM     37  C   UNL A   1      42.988  26.719  28.110  1.00  0.00     0.049 A 
ATOM     38  N   UNL A   1      41.715  28.764  29.909  1.00  0.00    -0.248 NA
ATOM     39  C   UNL A   1      39.767  27.475  29.898  1.00  0.00     0.031 C 
ATOM     40  C   UNL A   1      43.664  25.748  27.253  1.00  0.00     0.029 A 
ATOM     41  N   UNL A   1      43.970  27.638  28.406  1.00  0.00    -0.354 N 
ATOM     42  C   UNL A   1      40.764  29.363  30.730  1.00  0.00     0.074 A 
ATOM     43  C   UNL A   1      39.576  28.537  30.665  1.00  0.00     0.031 C 
ATOM     44  C   UNL A   1      44.949  26.113  27.106  1.00  0.00     0.029 A 
ATOM     45  C   UNL A   1      45.177  27.383  27.794  1.00  0.00     0.049 A 
ATOM     46  H   UNL A   1      43.821  28.408  29.002  1.00  0.00     0.167 HD
ATOM     47  C   UNL A   1      40.870  30.497  31.466  1.00  0.00     0.034 A 
ATOM     48  C   UNL A   1      46.318  28.109  27.758  1.00  0.00     0.034 A 
ATOM     49  C   UNL A   1      42.048  31.328  31.505  1.00  0.00     0.049 A 
ATOM     50  C   UNL A   1      46.367  29.436  28.490  1.00  0.00     0.074 A 
ATOM     51  C   UNL A   1      42.245  32.509  32.200  1.00  0.00     0.029 A 
ATOM     52  N   UNL A   1      43.227  31.076  30.813  1.00  0.00    -0.354 N 
ATOM     53  N   UNL A   1      45.449  30.003  29.241  1.00  0.00    -0.248 NA
ATOM     54  C   UNL A   1      47.603  30.223  28.365  1.00  0.00     0.031 C 
ATOM     55  C   UNL A   1      43.506  33.011  31.866  1.00  0.00     0.029 A 
ATOM     56  C   UNL A   1      44.138  32.097  31.040  1.00  0.00     0.049 A 
ATOM     57  H   UNL A   1      43.390  30.289  30.246  1.00  0.00     0.167 HD
ATOM     58  C   UNL A   1      46.016  31.191  29.703  1.00  0.00     0.074 A 
ATOM     59  C   UNL A   1      47.357  31.250  29.164  1.00  0.00     0.031 C 
ATOM     60  C   UNL A   1      45.477  32.147  30.502  1.00  0.00     0.034 A 
BRANCH  47  61
ATOM     61  C   UNL A   1      39.652  30.939  32.237  1.00  0.00     0.023 A 
ATOM     62  C   UNL A   1      38.823  31.978  31.780  1.00  0.00     0.031 A 
ATOM     63  C   UNL A   1      39.321  30.317  33.455  1.00  0.00     0.131 A 
ATOM     64  C   UNL A   1      37.741  32.403  32.564  1.00  0.00     0.055 A 
ATOM     65  C   UNL A   1      38.197  30.691  34.190  1.00  0.00     0.041 A 
ATOM     66  F   UNL A   1      40.092  29.337  33.953  1.00  0.00    -0.206 F 
ATOM     67  C   UNL A   1      37.405  31.749  33.753  1.00  0.00     0.022 A 
BRANCH  64  68
ATOM     68  S   UNL A   1      36.856  33.908  32.077  1.00  0.00     0.124 S 
ATOM     69  O   UNL A   1      37.554  34.273  30.847  1.00  0.00    -0.237 OA
ATOM     70  O   UNL A   1      35.487  33.432  31.917  1.00  0.00    -0.237 OA
ATOM     71  O   UNL A   1      37.075  34.814  33.203  1.00  0.00    -0.744 OA
ENDBRANCH  64  68
ENDBRANCH  47  61
BRANCH  48  72
ATOM     72  C   UNL A   1      47.494  27.666  26.943  1.00  0.00     0.023 A 
ATOM     73  C   UNL A   1      47.553  27.897  25.557  1.00  0.00     0.031 A 
ATOM     74  C   UNL A   1      48.523  26.898  27.519  1.00  0.00     0.131 A 
ATOM     75  C   UNL A   1      48.574  27.312  24.789  1.00  0.00     0.055 A 
ATOM     76  C   UNL A   1      49.577  26.381  26.762  1.00  0.00     0.041 A 
ATOM     77  F   UNL A   1      48.515  26.626  28.833  1.00  0.00    -0.206 F 
ATOM     78  C   UNL A   1      49.596  26.570  25.385  1.00  0.00     0.022 A 
BRANCH  75  79
ATOM     79  S   UNL A   1      48.469  27.412  22.979  1.00  0.00     0.124 S 
ATOM     80  O   UNL A   1      49.722  28.081  22.649  1.00  0.00    -0.237 OA
ATOM     81  O   UNL A   1      48.370  26.007  22.603  1.00  0.00    -0.237 OA
ATOM     82  O   UNL A   1      47.260  28.203  22.753  1.00  0.00    -0.744 OA
ENDBRANCH  75  79
ENDBRANCH  48  72
BRANCH  60  83
ATOM     83  C   UNL A   1      46.361  33.309  30.899  1.00  0.00     0.023 A 
ATOM     84  C   UNL A   1      47.216  33.254  32.013  1.00  0.00     0.031 A 
ATOM     85  C   UNL A   1      46.345  34.495  30.140  1.00  0.00     0.131 A 
ATOM     86  C   UNL A   1      47.975  34.379  32.370  1.00  0.00     0.055 A 
ATOM     87  C   UNL A   1      47.155  35.586  30.459  1.00  0.00     0.041 A 
ATOM     88  F   UNL A   1      45.546  34.609  29.067  1.00  0.00    -0.206 F 
ATOM     89  C   UNL A   1      47.965  35.537  31.588  1.00  0.00     0.022 A 
BRANCH  86  90
ATOM     90  S   UNL A   1      48.904  34.348  33.929  1.00  0.00     0.124 S 
ATOM     91  O   UNL A   1      50.256  34.664  33.483  1.00  0.00    -0.237 OA
ATOM     92  O   UNL A   1      48.233  35.382  34.711  1.00  0.00    -0.237 OA
ATOM     93  O   UNL A   1      48.713  32.984  34.415  1.00  0.00    -0.744 OA
ENDBRANCH  86  90
ENDBRANCH  60  83
ENDBRANCH  34  35
ENDBRANCH  27  29
ENDBRANCH  26  27
ENDBRANCH  25  26
ENDBRANCH  24  25
ENDBRANCH  23  24
ENDBRANCH  22  23
ENDBRANCH   1  22
TORSDOF 25
ENDMDL
MODEL 2
REMARK VINA RESULT:      -8.2      4.662      6.654
REMARK SMILES C#CCOc1ccccc1/C=C(\C#N)C(=O)OCCOCCOCCOC(=O)c1ccc(-c2c3nc(c(-c4cc(S(=O)(=O)[O-])ccc4F)c4ccc([nH]4)c(-c4cc(S(=O)(=O)[O-])ccc4F)c4nc(c(-c5cc(S(=O)(=O)[O-])ccc5F)c5ccc2[nH]5)C=C4)C=C3)cc1
REMARK SMILES IDX 21 1 20 2 19 3 18 4 17 5 15 6 16 7 12 8 11 9 10 10 5 11 6 12
REMARK SMILES IDX 7 13 9 14 8 15 4 16 3 17 2 18 1 19 13 20 14 21 22 22 23 23
REMARK SMILES IDX 24 24 25 25 26 26 27 27 28 28 29 29 30 30 91 31 31 32 90 33
REMARK SMILES IDX 32 34 33 35 34 36 84 37 35 38 89 39 83 40 85 41 36 42 88 43
REMARK SMILES IDX 82 44 81 45 37 47 69 48 49 49 68 50 50 51 53 52 67 53 86 54
REMARK SMILES IDX 51 55 52 56 66 58 87 59 54 60 38 61 39 62 47 63 40 64 46 65
REMARK SMILES IDX 48 66 45 67 41 68 42 69 43 70 44 71 70 72 71 73 79 74 72 75
REMARK SMILES IDX 78 76 80 77 77 78 73 79 74 80 75 81 76 82 55 83 56 84 64 85
REMARK SMILES IDX 57 86 63 87 65 88 62 89 58 90 59 91 60 92 61 93
REMARK H PARENT 85 46 53 57
REMARK Flexibility Score: inf
ROOT
ATOM      1  C   UNL A   1      36.622  22.075  24.403  1.00  0.00     0.188 C 
ENDROOT
BRANCH   1   2
ATOM      2  O   UNL A   1      35.397  22.404  25.023  1.00  0.00    -0.376 OA
BRANCH   2   3
ATOM      3  C   UNL A   1      34.934  21.477  25.986  1.00  0.00     0.202 C 
BRANCH   3   4
ATOM      4  C   UNL A   1      33.698  21.827  26.864  1.00  0.00     0.261 C 
BRANCH   4   5
ATOM      5  O   UNL A   1      33.408  23.231  27.097  1.00  0.00    -0.459 OA
BRANCH   5   6
ATOM      6  C   UNL A   1      32.151  23.724  26.838  1.00  0.00     0.348 C 
ATOM      7  O   UNL A   1      31.113  23.206  27.219  1.00  0.00    -0.245 OA
BRANCH   6   8
ATOM      8  C   UNL A   1      32.228  25.074  26.159  1.00  0.00     0.138 C 
ATOM      9  C   UNL A   1      31.398  26.085  26.561  1.00  0.00     0.039 C 
BRANCH   9  10
ATOM     10  C   UNL A   1      31.433  27.567  26.271  1.00  0.00     0.018 A 
ATOM     11  C   UNL A   1      31.151  28.257  25.023  1.00  0.00     0.128 A 
ATOM     12  C   UNL A   1      31.456  29.627  24.934  1.00  0.00     0.047 A 
ATOM     13  C   UNL A   1      31.962  30.342  26.021  1.00  0.00     0.004 A 
ATOM     14  C   UNL A   1      31.928  28.339  27.349  1.00  0.00     0.012 A 
ATOM     15  C   UNL A   1      32.177  29.703  27.232  1.00  0.00     0.001 A 
BRANCH  11  16
ATOM     16  O   UNL A   1      30.815  27.758  23.755  1.00  0.00    -0.480 OA
BRANCH  16  17
ATOM     17  C   UNL A   1      30.459  28.689  22.639  1.00  0.00     0.318 C 
BRANCH  17  18
ATOM     18  C   UNL A   1      28.955  28.654  22.861  1.00  0.00    -0.065 C 
ATOM     19  C   UNL A   1      27.665  28.624  23.050  1.00  0.00     0.007 C 
ENDBRANCH  17  18
ENDBRANCH  16  17
ENDBRANCH  11  16
ENDBRANCH   9  10
BRANCH   8  20
ATOM     20  C   UNL A   1      33.250  25.197  25.185  1.00  0.00     0.107 C 
ATOM     21  N   UNL A   1      34.072  25.386  24.373  1.00  0.00    -0.192 NA
ENDBRANCH   8  20
ENDBRANCH   6   8
ENDBRANCH   5   6
ENDBRANCH   4   5
ENDBRANCH   3   4
ENDBRANCH   2   3
ENDBRANCH   1   2
BRANCH   1  22
ATOM     22  C   UNL A   1      37.649  21.456  25.364  1.00  0.00     0.188 C 
BRANCH  22  23
ATOM     23  O   UNL A   1      38.425  22.318  26.185  1.00  0.00    -0.376 OA
BRANCH  23  24
ATOM     24  C   UNL A   1      38.295  23.718  26.000  1.00  0.00     0.202 C 
BRANCH  24  25
ATOM     25  C   UNL A   1      39.088  24.680  26.907  1.00  0.00     0.261 C 
BRANCH  25  26
ATOM     26  O   UNL A   1      40.414  25.056  26.485  1.00  0.00    -0.460 OA
BRANCH  26  27
ATOM     27  C   UNL A   1      41.431  24.377  27.078  1.00  0.00     0.338 C 
ATOM     28  O   UNL A   1      41.360  23.272  27.588  1.00  0.00    -0.246 OA
BRANCH  27  29
ATOM     29  C   UNL A   1      42.722  25.091  26.904  1.00  0.00     0.060 A 
ATOM     30  C   UNL A   1      43.434  25.461  28.052  1.00  0.00     0.016 A 
ATOM     31  C   UNL A   1      43.168  25.510  25.648  1.00  0.00     0.016 A 
ATOM     32  C   UNL A   1      44.571  26.269  27.948  1.00  0.00     0.010 A 
ATOM     33  C   UNL A   1      44.310  26.326  25.548  1.00  0.00     0.010 A 
ATOM     34  C   UNL A   1      45.012  26.724  26.699  1.00  0.00    -0.014 A 
BRANCH  34  35
ATOM     35  C   UNL A   1      46.096  27.746  26.637  1.00  0.00     0.031 A 
ATOM     36  C   UNL A   1      45.717  29.202  26.681  1.00  0.00     0.074 A 
ATOM     37  C   UNL A   1      47.397  27.398  26.605  1.00  0.00     0.049 A 
ATOM     38  N   UNL A   1      46.479  30.261  26.592  1.00  0.00    -0.248 NA
ATOM     39  C   UNL A   1      44.287  29.499  26.851  1.00  0.00     0.031 C 
ATOM     40  C   UNL A   1      47.901  26.028  26.626  1.00  0.00     0.029 A 
ATOM     41  N   UNL A   1      48.536  28.169  26.555  1.00  0.00    -0.354 N 
ATOM     42  C   UNL A   1      45.622  31.353  26.687  1.00  0.00     0.074 A 
ATOM     43  C   UNL A   1      44.282  30.822  26.821  1.00  0.00     0.031 C 
ATOM     44  C   UNL A   1      49.245  26.054  26.605  1.00  0.00     0.029 A 
ATOM     45  C   UNL A   1      49.703  27.439  26.493  1.00  0.00     0.049 A 
ATOM     46  H   UNL A   1      48.518  29.154  26.562  1.00  0.00     0.167 HD
ATOM     47  C   UNL A   1      45.924  32.675  26.662  1.00  0.00     0.034 A 
ATOM     48  C   UNL A   1      50.985  27.837  26.323  1.00  0.00     0.034 A 
ATOM     49  C   UNL A   1      47.259  33.196  26.502  1.00  0.00     0.049 A 
ATOM     50  C   UNL A   1      51.279  29.317  26.174  1.00  0.00     0.074 A 
ATOM     51  C   UNL A   1      47.664  34.519  26.438  1.00  0.00     0.029 A 
ATOM     52  N   UNL A   1      48.407  32.426  26.368  1.00  0.00    -0.354 N 
ATOM     53  N   UNL A   1      50.454  30.337  26.238  1.00  0.00    -0.248 NA
ATOM     54  C   UNL A   1      52.677  29.698  25.921  1.00  0.00     0.031 C 
ATOM     55  C   UNL A   1      49.038  34.547  26.186  1.00  0.00     0.029 A 
ATOM     56  C   UNL A   1      49.512  33.245  26.189  1.00  0.00     0.049 A 
ATOM     57  H   UNL A   1      48.432  31.442  26.396  1.00  0.00     0.167 HD
ATOM     58  C   UNL A   1      51.242  31.477  26.072  1.00  0.00     0.074 A 
ATOM     59  C   UNL A   1      52.607  31.020  25.924  1.00  0.00     0.031 C 
ATOM     60  C   UNL A   1      50.872  32.783  26.046  1.00  0.00     0.034 A 
BRANCH  47  61
ATOM     61  C   UNL A   1      44.776  33.650  26.743  1.00  0.00     0.023 A 
ATOM     62  C   UNL A   1      44.338  34.178  27.969  1.00  0.00     0.031 A 
ATOM     63  C   UNL A   1      44.102  34.047  25.574  1.00  0.00     0.131 A 
ATOM     64  C   UNL A   1      43.221  35.026  28.005  1.00  0.00     0.055 A 
ATOM     65  C   UNL A   1      43.043  34.955  25.608  1.00  0.00     0.041 A 
ATOM     66  F   UNL A   1      44.460  33.554  24.377  1.00  0.00    -0.206 F 
ATOM     67  C   UNL A   1      42.588  35.440  26.830  1.00  0.00     0.022 A 
BRANCH  64  68
ATOM     68  S   UNL A   1      42.526  35.475  29.617  1.00  0.00     0.124 S 
ATOM     69  O   UNL A   1      43.093  34.443  30.480  1.00  0.00    -0.237 OA
ATOM     70  O   UNL A   1      43.037  36.827  29.816  1.00  0.00    -0.237 OA
ATOM     71  O   UNL A   1      41.082  35.379  29.407  1.00  0.00    -0.744 OA
ENDBRANCH  64  68
ENDBRANCH  47  61
BRANCH  48  72
ATOM     72  C   UNL A   1      52.096  26.841  26.199  1.00  0.00     0.023 A 
ATOM     73  C   UNL A   1      52.977  26.591  27.265  1.00  0.00     0.031 A 
ATOM     74  C   UNL A   1      52.367  26.212  24.970  1.00  0.00     0.131 A 
ATOM     75  C   UNL A   1      54.118  25.795  27.063  1.00  0.00     0.055 A 
ATOM     76  C   UNL A   1      53.461  25.362  24.796  1.00  0.00     0.041 A 
ATOM     77  F   UNL A   1      51.575  26.424  23.907  1.00  0.00    -0.206 F 
ATOM     78  C   UNL A   1      54.356  25.164  25.841  1.00  0.00     0.022 A 
BRANCH  75  79
ATOM     79  S   UNL A   1      55.365  25.710  28.381  1.00  0.00     0.124 S 
ATOM     80  O   UNL A   1      56.211  26.853  28.059  1.00  0.00    -0.237 OA
ATOM     81  O   UNL A   1      54.546  25.832  29.581  1.00  0.00    -0.237 OA
ATOM     82  O   UNL A   1      55.982  24.400  28.180  1.00  0.00    -0.744 OA
ENDBRANCH  75  79
ENDBRANCH  48  72
BRANCH  60  83
ATOM     83  C   UNL A   1      51.967  33.818  25.916  1.00  0.00     0.023 A 
ATOM     84  C   UNL A   1      52.562  34.424  27.037  1.00  0.00     0.031 A 
ATOM     85  C   UNL A   1      52.422  34.203  24.641  1.00  0.00     0.131 A 
ATOM     86  C   UNL A   1      53.536  35.420  26.861  1.00  0.00     0.055 A 
ATOM     87  C   UNL A   1      53.441  35.143  24.474  1.00  0.00     0.041 A 
ATOM     88  F   UNL A   1      51.890  33.664  23.533  1.00  0.00    -0.206 F 
ATOM     89  C   UNL A   1      53.993  35.768  25.587  1.00  0.00     0.022 A 
BRANCH  86  90
ATOM     90  S   UNL A   1      54.129  36.329  28.314  1.00  0.00     0.124 S 
ATOM     91  O   UNL A   1      55.204  37.137  27.749  1.00  0.00    -0.237 OA
ATOM     92  O   UNL A   1      52.936  37.058  28.734  1.00  0.00    -0.237 OA
ATOM     93  O   UNL A   1      54.561  35.273  29.227  1.00  0.00    -0.744 OA
ENDBRANCH  86  90
ENDBRANCH  60  83
ENDBRANCH  34  35
ENDBRANCH  27  29
ENDBRANCH  26  27
ENDBRANCH  25  26
ENDBRANCH  24  25
ENDBRANCH  23  24
ENDBRANCH  22  23
ENDBRANCH   1  22
TORSDOF 25
ENDMDL
MODEL 3
REMARK VINA RESULT:      -8.0      2.370      2.705
REMARK SMILES C#CCOc1ccccc1/C=C(\C#N)C(=O)OCCOCCOCCOC(=O)c1ccc(-c2c3nc(c(-c4cc(S(=O)(=O)[O-])ccc4F)c4ccc([nH]4)c(-c4cc(S(=O)(=O)[O-])ccc4F)c4nc(c(-c5cc(S(=O)(=O)[O-])ccc5F)c5ccc2[nH]5)C=C4)C=C3)cc1
REMARK SMILES IDX 21 1 20 2 19 3 18 4 17 5 15 6 16 7 12 8 11 9 10 10 5 11 6 12
REMARK SMILES IDX 7 13 9 14 8 15 4 16 3 17 2 18 1 19 13 20 14 21 22 22 23 23
REMARK SMILES IDX 24 24 25 25 26 26 27 27 28 28 29 29 30 30 91 31 31 32 90 33
REMARK SMILES IDX 32 34 33 35 34 36 84 37 35 38 89 39 83 40 85 41 36 42 88 43
REMARK SMILES IDX 82 44 81 45 37 47 69 48 49 49 68 50 50 51 53 52 67 53 86 54
REMARK SMILES IDX 51 55 52 56 66 58 87 59 54 60 38 61 39 62 47 63 40 64 46 65
REMARK SMILES IDX 48 66 45 67 41 68 42 69 43 70 44 71 70 72 71 73 79 74 72 75
REMARK SMILES IDX 78 76 80 77 77 78 73 79 74 80 75 81 76 82 55 83 56 84 64 85
REMARK SMILES IDX 57 86 63 87 65 88 62 89 58 90 59 91 60 92 61 93
REMARK H PARENT 85 46 53 57
REMARK Flexibility Score: inf
ROOT
ATOM      1  C   UNL A   1      33.337  25.669  24.209  1.00  0.00     0.188 C 
ENDROOT
BRANCH   1   2
ATOM      2  O   UNL A   1      33.910  26.347  23.111  1.00  0.00    -0.376 OA
BRANCH   2   3
ATOM      3  C   UNL A   1      32.993  27.007  22.259  1.00  0.00     0.202 C 
BRANCH   3   4
ATOM      4  C   UNL A   1      32.577  28.475  22.561  1.00  0.00     0.261 C 
BRANCH   4   5
ATOM      5  O   UNL A   1      33.032  29.066  23.808  1.00  0.00    -0.459 OA
BRANCH   5   6
ATOM      6  C   UNL A   1      32.147  29.245  24.845  1.00  0.00     0.348 C 
ATOM      7  O   UNL A   1      30.935  29.325  24.713  1.00  0.00    -0.245 OA
BRANCH   6   8
ATOM      8  C   UNL A   1      32.854  29.169  26.181  1.00  0.00     0.138 C 
ATOM      9  C   UNL A   1      34.098  29.720  26.323  1.00  0.00     0.039 C 
BRANCH   9  10
ATOM     10  C   UNL A   1      34.905  30.032  27.561  1.00  0.00     0.018 A 
ATOM     11  C   UNL A   1      34.756  31.140  28.490  1.00  0.00     0.128 A 
ATOM     12  C   UNL A   1      35.760  31.344  29.454  1.00  0.00     0.047 A 
ATOM     13  C   UNL A   1      36.851  30.482  29.575  1.00  0.00     0.004 A 
ATOM     14  C   UNL A   1      36.019  29.177  27.736  1.00  0.00     0.012 A 
ATOM     15  C   UNL A   1      36.969  29.389  28.732  1.00  0.00     0.001 A 
BRANCH  11  16
ATOM     16  O   UNL A   1      33.872  32.231  28.481  1.00  0.00    -0.480 OA
BRANCH  16  17
ATOM     17  C   UNL A   1      34.313  33.565  27.966  1.00  0.00     0.318 C 
BRANCH  17  18
ATOM     18  C   UNL A   1      33.863  34.373  29.172  1.00  0.00    -0.065 C 
ATOM     19  C   UNL A   1      33.477  35.065  30.207  1.00  0.00     0.007 C 
ENDBRANCH  17  18
ENDBRANCH  16  17
ENDBRANCH  11  16
ENDBRANCH   9  10
BRANCH   8  20
ATOM     20  C   UNL A   1      32.097  28.583  27.225  1.00  0.00     0.107 C 
ATOM     21  N   UNL A   1      31.537  28.037  28.097  1.00  0.00    -0.192 NA
ENDBRANCH   8  20
ENDBRANCH   6   8
ENDBRANCH   5   6
ENDBRANCH   4   5
ENDBRANCH   3   4
ENDBRANCH   2   3
ENDBRANCH   1   2
BRANCH   1  22
ATOM     22  C   UNL A   1      33.870  24.239  24.392  1.00  0.00     0.188 C 
BRANCH  22  23
ATOM     23  O   UNL A   1      35.145  23.910  23.860  1.00  0.00    -0.376 OA
BRANCH  23  24
ATOM     24  C   UNL A   1      35.598  22.572  23.980  1.00  0.00     0.202 C 
BRANCH  24  25
ATOM     25  C   UNL A   1      36.494  22.177  25.171  1.00  0.00     0.261 C 
BRANCH  25  26
ATOM     26  O   UNL A   1      37.487  23.127  25.606  1.00  0.00    -0.460 OA
BRANCH  26  27
ATOM     27  C   UNL A   1      38.595  22.592  26.183  1.00  0.00     0.338 C 
ATOM     28  O   UNL A   1      38.969  21.435  26.092  1.00  0.00    -0.246 OA
BRANCH  27  29
ATOM     29  C   UNL A   1      39.411  23.641  26.846  1.00  0.00     0.060 A 
ATOM     30  C   UNL A   1      39.168  24.979  26.511  1.00  0.00     0.016 A 
ATOM     31  C   UNL A   1      40.485  23.321  27.681  1.00  0.00     0.016 A 
ATOM     32  C   UNL A   1      40.010  25.990  26.984  1.00  0.00     0.010 A 
ATOM     33  C   UNL A   1      41.331  24.341  28.152  1.00  0.00     0.010 A 
ATOM     34  C   UNL A   1      41.108  25.682  27.796  1.00  0.00    -0.014 A 
BRANCH  34  35
ATOM     35  C   UNL A   1      42.102  26.748  28.114  1.00  0.00     0.031 A 
ATOM     36  C   UNL A   1      41.714  27.830  29.086  1.00  0.00     0.074 A 
ATOM     37  C   UNL A   1      43.348  26.730  27.603  1.00  0.00     0.049 A 
ATOM     38  N   UNL A   1      42.390  28.880  29.474  1.00  0.00    -0.248 NA
ATOM     39  C   UNL A   1      40.384  27.705  29.702  1.00  0.00     0.031 C 
ATOM     40  C   UNL A   1      43.874  25.705  26.705  1.00  0.00     0.029 A 
ATOM     41  N   UNL A   1      44.405  27.596  27.771  1.00  0.00    -0.354 N 
ATOM     42  C   UNL A   1      41.568  29.548  30.376  1.00  0.00     0.074 A 
ATOM     43  C   UNL A   1      40.335  28.791  30.458  1.00  0.00     0.031 C 
ATOM     44  C   UNL A   1      45.155  25.992  26.413  1.00  0.00     0.029 A 
ATOM     45  C   UNL A   1      45.525  27.260  27.041  1.00  0.00     0.049 A 
ATOM     46  H   UNL A   1      44.364  28.385  28.359  1.00  0.00     0.167 HD
ATOM     47  C   UNL A   1      41.815  30.688  31.068  1.00  0.00     0.034 A 
ATOM     48  C   UNL A   1      46.693  27.918  26.865  1.00  0.00     0.034 A 
ATOM     49  C   UNL A   1      43.034  31.450  30.961  1.00  0.00     0.049 A 
ATOM     50  C   UNL A   1      46.894  29.254  27.555  1.00  0.00     0.074 A 
ATOM     51  C   UNL A   1      43.369  32.631  31.601  1.00  0.00     0.029 A 
ATOM     52  N   UNL A   1      44.116  31.118  30.155  1.00  0.00    -0.354 N 
ATOM     53  N   UNL A   1      46.095  29.887  28.384  1.00  0.00    -0.248 NA
ATOM     54  C   UNL A   1      48.151  29.966  27.280  1.00  0.00     0.031 C 
ATOM     55  C   UNL A   1      44.613  33.053  31.123  1.00  0.00     0.029 A 
ATOM     56  C   UNL A   1      45.101  32.088  30.258  1.00  0.00     0.049 A 
ATOM     57  H   UNL A   1      44.174  30.311  29.593  1.00  0.00     0.167 HD
ATOM     58  C   UNL A   1      46.772  31.050  28.753  1.00  0.00     0.074 A 
ATOM     59  C   UNL A   1      48.049  31.021  28.074  1.00  0.00     0.031 C 
ATOM     60  C   UNL A   1      46.375  32.051  29.580  1.00  0.00     0.034 A 
BRANCH  47  61
ATOM     61  C   UNL A   1      40.712  31.214  31.952  1.00  0.00     0.023 A 
ATOM     62  C   UNL A   1      40.701  30.984  33.339  1.00  0.00     0.031 A 
ATOM     63  C   UNL A   1      39.649  31.948  31.396  1.00  0.00     0.131 A 
ATOM     64  C   UNL A   1      39.620  31.432  34.112  1.00  0.00     0.055 A 
ATOM     65  C   UNL A   1      38.618  32.460  32.183  1.00  0.00     0.041 A 
ATOM     66  F   UNL A   1      39.594  32.175  30.074  1.00  0.00    -0.206 F 
ATOM     67  C   UNL A   1      38.592  32.192  33.548  1.00  0.00     0.022 A 
BRANCH  64  68
ATOM     68  S   UNL A   1      39.508  30.893  35.839  1.00  0.00     0.124 S 
ATOM     69  O   UNL A   1      38.221  30.203  35.848  1.00  0.00    -0.237 OA
ATOM     70  O   UNL A   1      40.688  30.048  35.983  1.00  0.00    -0.237 OA
ATOM     71  O   UNL A   1      39.542  32.146  36.591  1.00  0.00    -0.744 OA
ENDBRANCH  64  68
ENDBRANCH  47  61
BRANCH  48  72
ATOM     72  C   UNL A   1      47.749  27.392  25.942  1.00  0.00     0.023 A 
ATOM     73  C   UNL A   1      48.968  26.894  26.434  1.00  0.00     0.031 A 
ATOM     74  C   UNL A   1      47.601  27.490  24.546  1.00  0.00     0.131 A 
ATOM     75  C   UNL A   1      50.010  26.581  25.544  1.00  0.00     0.055 A 
ATOM     76  C   UNL A   1      48.614  27.107  23.664  1.00  0.00     0.041 A 
ATOM     77  F   UNL A   1      46.469  27.975  24.014  1.00  0.00    -0.206 F 
ATOM     78  C   UNL A   1      49.834  26.667  24.162  1.00  0.00     0.022 A 
BRANCH  75  79
ATOM     79  S   UNL A   1      51.649  26.195  26.223  1.00  0.00     0.124 S 
ATOM     80  O   UNL A   1      51.621  24.737  26.247  1.00  0.00    -0.237 OA
ATOM     81  O   UNL A   1      52.536  26.806  25.239  1.00  0.00    -0.237 OA
ATOM     82  O   UNL A   1      51.634  26.842  27.533  1.00  0.00    -0.744 OA
ENDBRANCH  75  79
ENDBRANCH  48  72
BRANCH  60  83
ATOM     83  C   UNL A   1      47.360  33.167  29.851  1.00  0.00     0.023 A 
ATOM     84  C   UNL A   1      47.428  34.318  29.047  1.00  0.00     0.031 A 
ATOM     85  C   UNL A   1      48.248  33.071  30.940  1.00  0.00     0.131 A 
ATOM     86  C   UNL A   1      48.397  35.300  29.309  1.00  0.00     0.055 A 
ATOM     87  C   UNL A   1      49.162  34.083  31.237  1.00  0.00     0.041 A 
ATOM     88  F   UNL A   1      48.234  31.994  31.741  1.00  0.00    -0.206 F 
ATOM     89  C   UNL A   1      49.250  35.199  30.411  1.00  0.00     0.022 A 
BRANCH  86  90
ATOM     90  S   UNL A   1      48.597  36.665  28.132  1.00  0.00     0.124 S 
ATOM     91  O   UNL A   1      49.259  36.006  27.012  1.00  0.00    -0.237 OA
ATOM     92  O   UNL A   1      47.218  37.082  27.901  1.00  0.00    -0.237 OA
ATOM     93  O   UNL A   1      49.421  37.628  28.860  1.00  0.00    -0.744 OA
ENDBRANCH  86  90
ENDBRANCH  60  83
ENDBRANCH  34  35
ENDBRANCH  27  29
ENDBRANCH  26  27
ENDBRANCH  25  26
ENDBRANCH  24  25
ENDBRANCH  23  24
ENDBRANCH  22  23
ENDBRANCH   1  22
TORSDOF 25
ENDMDL
