MODEL 1
REMARK VINA RESULT:     -10.2      0.000      0.000
REMARK SMILES Cc1ccc(OCC(=O)NNC(=O)[C@H]2CCCC[C@@H]2C(=O)OCCOCCOCCOC(=O)c2ccc(-c3c4nc(c(-c5cc(S(=O)(=O)[O-])ccc5F)c5ccc([nH]5)c(-c5cc(S(=O)(=O)[O-])ccc5F)c5nc(c(-c6cc(S(=O)(=O)[O-])ccc6F)c6ccc3[nH]6)C=C5)C=C4)cc2)cc1
REMARK SMILES IDX 26 1 25 2 24 3 23 4 22 5 20 6 21 7 19 8 14 9 15 10 16 11
REMARK SMILES IDX 18 12 17 13 12 14 11 15 13 17 10 18 8 19 9 20 7 22 6 23 5 24
REMARK SMILES IDX 1 25 2 26 3 27 98 28 4 29 97 30 27 31 28 32 29 33 30 34
REMARK SMILES IDX 31 35 32 36 33 37 34 38 35 39 96 40 36 41 95 42 37 43 38 44
REMARK SMILES IDX 39 45 89 46 40 47 94 48 88 49 90 50 41 51 93 52 87 53 86 54
REMARK SMILES IDX 42 56 74 57 54 58 73 59 55 60 58 61 72 62 91 63 56 64 57 65
REMARK SMILES IDX 71 67 92 68 59 69 43 70 44 71 52 72 45 73 51 74 53 75 50 76
REMARK SMILES IDX 46 77 47 78 48 79 49 80 75 81 76 82 84 83 77 84 83 85 85 86
REMARK SMILES IDX 82 87 78 88 79 89 80 90 81 91 60 92 61 93 69 94 62 95 68 96
REMARK SMILES IDX 70 97 67 98 63 99 64 100 65 101 66 102
REMARK H PARENT 11 16 10 21 90 55 58 66
REMARK Flexibility Score: inf
ROOT
ATOM      1  C   UNL A   1      31.838  28.893  27.098  1.00  0.00     0.188 C 
ENDROOT
BRANCH   1   2
ATOM      2  O   UNL A   1      32.025  27.719  26.295  1.00  0.00    -0.376 OA
BRANCH   2   3
ATOM      3  C   UNL A   1      31.087  27.502  25.259  1.00  0.00     0.202 C 
BRANCH   3   4
ATOM      4  C   UNL A   1      30.191  26.207  25.368  1.00  0.00     0.261 C 
BRANCH   4   5
ATOM      5  O   UNL A   1      30.283  25.311  26.546  1.00  0.00    -0.463 OA
BRANCH   5   6
ATOM      6  C   UNL A   1      30.892  24.103  26.488  1.00  0.00     0.309 C 
ATOM      7  O   UNL A   1      30.464  23.154  27.149  1.00  0.00    -0.252 OA
BRANCH   6   8
ATOM      8  C   UNL A   1      32.268  23.922  25.641  1.00  0.00     0.111 C 
ATOM      9  C   UNL A   1      33.604  24.770  25.393  1.00  0.00     0.094 C 
ATOM     10  C   UNL A   1      33.837  25.408  23.974  1.00  0.00     0.014 C 
ATOM     11  C   UNL A   1      33.023  24.887  22.808  1.00  0.00     0.001 C 
ATOM     12  C   UNL A   1      31.867  23.197  24.352  1.00  0.00     0.016 C 
ATOM     13  C   UNL A   1      31.777  24.092  23.135  1.00  0.00     0.001 C 
BRANCH   9  14
ATOM     14  C   UNL A   1      34.839  23.834  25.425  1.00  0.00     0.242 C 
ATOM     15  N   UNL A   1      34.733  22.560  25.942  1.00  0.00    -0.267 N 
ATOM     16  H   UNL A   1      35.252  22.344  26.750  1.00  0.00     0.191 HD
ATOM     17  O   UNL A   1      35.980  24.298  25.323  1.00  0.00    -0.273 OA
BRANCH  15  18
ATOM     18  N   UNL A   1      33.931  21.556  25.388  1.00  0.00    -0.265 N 
ATOM     19  C   UNL A   1      34.462  20.351  24.956  1.00  0.00     0.276 C 
ATOM     20  O   UNL A   1      33.729  19.442  24.563  1.00  0.00    -0.269 OA
ATOM     21  H   UNL A   1      32.962  21.709  25.302  1.00  0.00     0.191 HD
BRANCH  19  22
ATOM     22  C   UNL A   1      35.985  20.114  25.070  1.00  0.00     0.331 C 
BRANCH  22  23
ATOM     23  O   UNL A   1      36.872  21.169  24.744  1.00  0.00    -0.484 OA
BRANCH  23  24
ATOM     24  C   UNL A   1      38.082  21.213  25.381  1.00  0.00     0.120 A 
ATOM     25  C   UNL A   1      41.941  20.887  27.284  1.00  0.00     0.044 C 
ATOM     26  C   UNL A   1      40.598  21.006  26.630  1.00  0.00    -0.051 A 
ATOM     27  C   UNL A   1      40.042  19.904  25.976  1.00  0.00     0.007 A 
ATOM     28  C   UNL A   1      39.881  22.207  26.659  1.00  0.00     0.007 A 
ATOM     29  C   UNL A   1      38.798  20.013  25.352  1.00  0.00     0.047 A 
ATOM     30  C   UNL A   1      38.628  22.311  26.043  1.00  0.00     0.047 A 
ENDBRANCH  23  24
ENDBRANCH  22  23
ENDBRANCH  19  22
ENDBRANCH  15  18
ENDBRANCH   9  14
ENDBRANCH   6   8
ENDBRANCH   5   6
ENDBRANCH   4   5
ENDBRANCH   3   4
ENDBRANCH   2   3
ENDBRANCH   1   2
BRANCH   1  31
ATOM     31  C   UNL A   1      32.053  30.191  26.314  1.00  0.00     0.188 C 
BRANCH  31  32
ATOM     32  O   UNL A   1      33.299  30.769  26.685  1.00  0.00    -0.376 OA
BRANCH  32  33
ATOM     33  C   UNL A   1      33.268  31.708  27.743  1.00  0.00     0.202 C 
BRANCH  33  34
ATOM     34  C   UNL A   1      34.634  32.265  28.168  1.00  0.00     0.261 C 
BRANCH  34  35
ATOM     35  O   UNL A   1      34.802  32.082  29.586  1.00  0.00    -0.460 OA
BRANCH  35  36
ATOM     36  C   UNL A   1      34.889  33.232  30.316  1.00  0.00     0.338 C 
ATOM     37  O   UNL A   1      33.984  34.047  30.425  1.00  0.00    -0.246 OA
BRANCH  36  38
ATOM     38  C   UNL A   1      36.310  33.404  30.758  1.00  0.00     0.060 A 
ATOM     39  C   UNL A   1      37.279  33.947  29.921  1.00  0.00     0.016 A 
ATOM     40  C   UNL A   1      36.761  32.729  31.867  1.00  0.00     0.016 A 
ATOM     41  C   UNL A   1      38.664  33.623  30.095  1.00  0.00     0.010 A 
ATOM     42  C   UNL A   1      38.119  32.357  31.925  1.00  0.00     0.010 A 
ATOM     43  C   UNL A   1      39.140  32.692  31.035  1.00  0.00    -0.014 A 
BRANCH  43  44
ATOM     44  C   UNL A   1      40.473  31.851  30.903  1.00  0.00     0.031 A 
ATOM     45  C   UNL A   1      40.758  30.501  30.204  1.00  0.00     0.074 A 
ATOM     46  C   UNL A   1      41.629  32.347  31.393  1.00  0.00     0.049 A 
ATOM     47  N   UNL A   1      41.636  30.160  29.286  1.00  0.00    -0.248 NA
ATOM     48  C   UNL A   1      40.059  29.326  30.683  1.00  0.00     0.031 C 
ATOM     49  C   UNL A   1      42.982  31.815  31.257  1.00  0.00     0.029 A 
ATOM     50  N   UNL A   1      41.754  33.314  32.373  1.00  0.00    -0.354 N 
ATOM     51  C   UNL A   1      41.463  28.800  28.949  1.00  0.00     0.074 A 
ATOM     52  C   UNL A   1      40.335  28.378  29.782  1.00  0.00     0.031 C 
ATOM     53  C   UNL A   1      43.695  32.198  32.326  1.00  0.00     0.029 A 
ATOM     54  C   UNL A   1      42.794  32.905  33.214  1.00  0.00     0.049 A 
ATOM     55  H   UNL A   1      41.214  34.132  32.462  1.00  0.00     0.167 HD
ATOM     56  C   UNL A   1      42.483  27.882  28.868  1.00  0.00     0.034 A 
ATOM     57  C   UNL A   1      42.461  32.551  34.489  1.00  0.00     0.034 A 
ATOM     58  C   UNL A   1      43.368  27.943  30.012  1.00  0.00     0.049 A 
ATOM     59  C   UNL A   1      42.639  31.063  34.735  1.00  0.00     0.074 A 
ATOM     60  C   UNL A   1      44.649  28.396  30.245  1.00  0.00     0.029 A 
ATOM     61  N   UNL A   1      42.852  27.600  31.252  1.00  0.00    -0.354 N 
ATOM     62  N   UNL A   1      42.876  30.166  33.808  1.00  0.00    -0.248 NA
ATOM     63  C   UNL A   1      42.529  30.466  36.060  1.00  0.00     0.031 C 
ATOM     64  C   UNL A   1      44.831  28.455  31.661  1.00  0.00     0.029 A 
ATOM     65  C   UNL A   1      43.687  27.979  32.279  1.00  0.00     0.049 A 
ATOM     66  H   UNL A   1      41.992  27.139  31.383  1.00  0.00     0.167 HD
ATOM     67  C   UNL A   1      42.966  28.921  34.379  1.00  0.00     0.074 A 
ATOM     68  C   UNL A   1      42.681  29.159  35.786  1.00  0.00     0.031 C 
ATOM     69  C   UNL A   1      43.274  27.792  33.667  1.00  0.00     0.034 A 
BRANCH  56  70
ATOM     70  C   UNL A   1      42.453  26.729  27.859  1.00  0.00     0.023 A 
ATOM     71  C   UNL A   1      43.495  25.768  27.815  1.00  0.00     0.031 A 
ATOM     72  C   UNL A   1      41.454  26.581  26.867  1.00  0.00     0.131 A 
ATOM     73  C   UNL A   1      43.517  24.744  26.831  1.00  0.00     0.055 A 
ATOM     74  C   UNL A   1      41.465  25.549  25.910  1.00  0.00     0.041 A 
ATOM     75  F   UNL A   1      40.425  27.439  26.785  1.00  0.00    -0.206 F 
ATOM     76  C   UNL A   1      42.502  24.626  25.885  1.00  0.00     0.022 A 
BRANCH  73  77
ATOM     77  S   UNL A   1      44.945  23.612  26.718  1.00  0.00     0.124 S 
ATOM     78  O   UNL A   1      44.503  22.646  25.718  1.00  0.00    -0.237 OA
ATOM     79  O   UNL A   1      46.022  24.511  26.319  1.00  0.00    -0.237 OA
ATOM     80  O   UNL A   1      45.065  23.073  28.073  1.00  0.00    -0.744 OA
ENDBRANCH  73  77
ENDBRANCH  56  70
BRANCH  57  81
ATOM     81  C   UNL A   1      41.425  33.474  35.083  1.00  0.00     0.023 A 
ATOM     82  C   UNL A   1      40.098  32.966  35.123  1.00  0.00     0.031 A 
ATOM     83  C   UNL A   1      41.707  34.571  35.907  1.00  0.00     0.131 A 
ATOM     84  C   UNL A   1      39.194  33.379  36.111  1.00  0.00     0.055 A 
ATOM     85  C   UNL A   1      40.745  35.079  36.803  1.00  0.00     0.041 A 
ATOM     86  F   UNL A   1      42.944  35.085  35.967  1.00  0.00    -0.206 F 
ATOM     87  C   UNL A   1      39.502  34.453  36.945  1.00  0.00     0.022 A 
BRANCH  84  88
ATOM     88  S   UNL A   1      37.839  32.234  36.555  1.00  0.00     0.124 S 
ATOM     89  O   UNL A   1      38.563  31.122  37.159  1.00  0.00    -0.237 OA
ATOM     90  O   UNL A   1      37.025  33.041  37.462  1.00  0.00    -0.237 OA
ATOM     91  O   UNL A   1      37.201  31.954  35.273  1.00  0.00    -0.744 OA
ENDBRANCH  84  88
ENDBRANCH  57  81
BRANCH  69  92
ATOM     92  C   UNL A   1      43.273  26.401  34.261  1.00  0.00     0.023 A 
ATOM     93  C   UNL A   1      44.411  25.583  34.250  1.00  0.00     0.031 A 
ATOM     94  C   UNL A   1      42.104  25.827  34.816  1.00  0.00     0.131 A 
ATOM     95  C   UNL A   1      44.392  24.308  34.841  1.00  0.00     0.055 A 
ATOM     96  C   UNL A   1      42.059  24.515  35.301  1.00  0.00     0.041 A 
ATOM     97  F   UNL A   1      40.973  26.534  34.955  1.00  0.00    -0.206 F 
ATOM     98  C   UNL A   1      43.215  23.751  35.333  1.00  0.00     0.022 A 
BRANCH  95  99
ATOM     99  S   UNL A   1      45.967  23.435  35.036  1.00  0.00     0.124 S 
ATOM    100  O   UNL A   1      45.589  22.045  34.810  1.00  0.00    -0.237 OA
ATOM    101  O   UNL A   1      46.772  24.049  33.982  1.00  0.00    -0.237 OA
ATOM    102  O   UNL A   1      46.377  23.760  36.399  1.00  0.00    -0.744 OA
ENDBRANCH  95  99
ENDBRANCH  69  92
ENDBRANCH  43  44
ENDBRANCH  36  38
ENDBRANCH  35  36
ENDBRANCH  34  35
ENDBRANCH  33  34
ENDBRANCH  32  33
ENDBRANCH  31  32
ENDBRANCH   1  31
TORSDOF 25
ENDMDL
MODEL 2
REMARK VINA RESULT:     -10.1      2.389      3.685
REMARK SMILES Cc1ccc(OCC(=O)NNC(=O)[C@H]2CCCC[C@@H]2C(=O)OCCOCCOCCOC(=O)c2ccc(-c3c4nc(c(-c5cc(S(=O)(=O)[O-])ccc5F)c5ccc([nH]5)c(-c5cc(S(=O)(=O)[O-])ccc5F)c5nc(c(-c6cc(S(=O)(=O)[O-])ccc6F)c6ccc3[nH]6)C=C5)C=C4)cc2)cc1
REMARK SMILES IDX 26 1 25 2 24 3 23 4 22 5 20 6 21 7 19 8 14 9 15 10 16 11
REMARK SMILES IDX 18 12 17 13 12 14 11 15 13 17 10 18 8 19 9 20 7 22 6 23 5 24
REMARK SMILES IDX 1 25 2 26 3 27 98 28 4 29 97 30 27 31 28 32 29 33 30 34
REMARK SMILES IDX 31 35 32 36 33 37 34 38 35 39 96 40 36 41 95 42 37 43 38 44
REMARK SMILES IDX 39 45 89 46 40 47 94 48 88 49 90 50 41 51 93 52 87 53 86 54
REMARK SMILES IDX 42 56 74 57 54 58 73 59 55 60 58 61 72 62 91 63 56 64 57 65
REMARK SMILES IDX 71 67 92 68 59 69 43 70 44 71 52 72 45 73 51 74 53 75 50 76
REMARK SMILES IDX 46 77 47 78 48 79 49 80 75 81 76 82 84 83 77 84 83 85 85 86
REMARK SMILES IDX 82 87 78 88 79 89 80 90 81 91 60 92 61 93 69 94 62 95 68 96
REMARK SMILES IDX 70 97 67 98 63 99 64 100 65 101 66 102
REMARK H PARENT 11 16 10 21 90 55 58 66
REMARK Flexibility Score: inf
ROOT
ATOM      1  C   UNL A   1      35.597  29.703  27.557  1.00  0.00     0.188 C 
ENDROOT
BRANCH   1   2
ATOM      2  O   UNL A   1      34.858  30.923  27.400  1.00  0.00    -0.376 OA
BRANCH   2   3
ATOM      3  C   UNL A   1      33.472  30.798  27.149  1.00  0.00     0.202 C 
BRANCH   3   4
ATOM      4  C   UNL A   1      32.868  29.340  27.194  1.00  0.00     0.261 C 
BRANCH   4   5
ATOM      5  O   UNL A   1      31.574  29.029  26.539  1.00  0.00    -0.463 OA
BRANCH   5   6
ATOM      6  C   UNL A   1      31.487  28.726  25.222  1.00  0.00     0.309 C 
ATOM      7  O   UNL A   1      30.827  29.435  24.458  1.00  0.00    -0.252 OA
BRANCH   6   8
ATOM      8  C   UNL A   1      32.149  27.353  24.655  1.00  0.00     0.111 C 
ATOM      9  C   UNL A   1      33.585  26.886  24.123  1.00  0.00     0.094 C 
ATOM     10  C   UNL A   1      33.753  26.576  22.589  1.00  0.00     0.014 C 
ATOM     11  C   UNL A   1      32.506  26.344  21.761  1.00  0.00     0.001 C 
ATOM     12  C   UNL A   1      31.046  26.667  23.843  1.00  0.00     0.016 C 
ATOM     13  C   UNL A   1      31.191  26.815  22.344  1.00  0.00     0.001 C 
BRANCH   9  14
ATOM     14  C   UNL A   1      33.923  25.479  24.676  1.00  0.00     0.242 C 
ATOM     15  N   UNL A   1      33.526  25.116  25.946  1.00  0.00    -0.267 N 
ATOM     16  H   UNL A   1      34.224  24.929  26.614  1.00  0.00     0.191 HD
ATOM     17  O   UNL A   1      34.821  24.802  24.162  1.00  0.00    -0.273 OA
BRANCH  15  18
ATOM     18  N   UNL A   1      32.188  25.000  26.342  1.00  0.00    -0.265 N 
ATOM     19  C   UNL A   1      31.693  23.837  26.912  1.00  0.00     0.276 C 
ATOM     20  O   UNL A   1      30.541  23.786  27.345  1.00  0.00    -0.269 OA
ATOM     21  H   UNL A   1      31.581  25.764  26.213  1.00  0.00     0.191 HD
BRANCH  19  22
ATOM     22  C   UNL A   1      32.638  22.627  27.098  1.00  0.00     0.331 C 
BRANCH  22  23
ATOM     23  O   UNL A   1      33.561  22.311  26.072  1.00  0.00    -0.484 OA
BRANCH  23  24
ATOM     24  C   UNL A   1      33.208  21.350  25.164  1.00  0.00     0.120 A 
ATOM     25  C   UNL A   1      32.216  18.000  22.632  1.00  0.00     0.044 C 
ATOM     26  C   UNL A   1      32.564  19.168  23.504  1.00  0.00    -0.051 A 
ATOM     27  C   UNL A   1      33.006  18.954  24.812  1.00  0.00     0.007 A 
ATOM     28  C   UNL A   1      32.455  20.481  23.034  1.00  0.00     0.007 A 
ATOM     29  C   UNL A   1      33.317  20.038  25.633  1.00  0.00     0.047 A 
ATOM     30  C   UNL A   1      32.779  21.567  23.856  1.00  0.00     0.047 A 
ENDBRANCH  23  24
ENDBRANCH  22  23
ENDBRANCH  19  22
ENDBRANCH  15  18
ENDBRANCH   9  14
ENDBRANCH   6   8
ENDBRANCH   5   6
ENDBRANCH   4   5
ENDBRANCH   3   4
ENDBRANCH   2   3
ENDBRANCH   1   2
BRANCH   1  31
ATOM     31  C   UNL A   1      36.740  29.823  28.569  1.00  0.00     0.188 C 
BRANCH  31  32
ATOM     32  O   UNL A   1      36.656  31.079  29.232  1.00  0.00    -0.376 OA
BRANCH  32  33
ATOM     33  C   UNL A   1      35.902  31.110  30.430  1.00  0.00     0.202 C 
BRANCH  33  34
ATOM     34  C   UNL A   1      35.006  32.343  30.612  1.00  0.00     0.261 C 
BRANCH  34  35
ATOM     35  O   UNL A   1      35.133  32.828  31.961  1.00  0.00    -0.460 OA
BRANCH  35  36
ATOM     36  C   UNL A   1      35.591  34.109  32.078  1.00  0.00     0.338 C 
ATOM     37  O   UNL A   1      34.903  35.104  31.904  1.00  0.00    -0.246 OA
BRANCH  36  38
ATOM     38  C   UNL A   1      37.080  34.065  32.240  1.00  0.00     0.060 A 
ATOM     39  C   UNL A   1      37.940  34.513  31.244  1.00  0.00     0.016 A 
ATOM     40  C   UNL A   1      37.632  33.282  33.225  1.00  0.00     0.016 A 
ATOM     41  C   UNL A   1      39.273  33.996  31.139  1.00  0.00     0.010 A 
ATOM     42  C   UNL A   1      38.909  32.727  33.010  1.00  0.00     0.010 A 
ATOM     43  C   UNL A   1      39.780  32.964  31.947  1.00  0.00    -0.014 A 
BRANCH  43  44
ATOM     44  C   UNL A   1      40.931  31.958  31.540  1.00  0.00     0.031 A 
ATOM     45  C   UNL A   1      40.876  30.580  30.839  1.00  0.00     0.074 A 
ATOM     46  C   UNL A   1      42.222  32.303  31.733  1.00  0.00     0.049 A 
ATOM     47  N   UNL A   1      41.467  30.125  29.756  1.00  0.00    -0.248 NA
ATOM     48  C   UNL A   1      40.167  29.506  31.505  1.00  0.00     0.031 C 
ATOM     49  C   UNL A   1      43.429  31.600  31.307  1.00  0.00     0.029 A 
ATOM     50  N   UNL A   1      42.690  33.249  32.626  1.00  0.00    -0.354 N 
ATOM     51  C   UNL A   1      41.052  28.798  29.513  1.00  0.00     0.074 A 
ATOM     52  C   UNL A   1      40.105  28.527  30.596  1.00  0.00     0.031 C 
ATOM     53  C   UNL A   1      44.413  31.892  32.171  1.00  0.00     0.029 A 
ATOM     54  C   UNL A   1      43.838  32.713  33.218  1.00  0.00     0.049 A 
ATOM     55  H   UNL A   1      42.293  34.130  32.809  1.00  0.00     0.167 HD
ATOM     56  C   UNL A   1      41.904  27.756  29.229  1.00  0.00     0.034 A 
ATOM     57  C   UNL A   1      43.770  32.408  34.546  1.00  0.00     0.034 A 
ATOM     58  C   UNL A   1      43.031  27.707  30.137  1.00  0.00     0.049 A 
ATOM     59  C   UNL A   1      43.813  30.911  34.795  1.00  0.00     0.074 A 
ATOM     60  C   UNL A   1      44.376  27.992  30.053  1.00  0.00     0.029 A 
ATOM     61  N   UNL A   1      42.778  27.437  31.473  1.00  0.00    -0.354 N 
ATOM     62  N   UNL A   1      43.715  29.988  33.868  1.00  0.00    -0.248 NA
ATOM     63  C   UNL A   1      43.941  30.338  36.128  1.00  0.00     0.031 C 
ATOM     64  C   UNL A   1      44.889  28.032  31.387  1.00  0.00     0.029 A 
ATOM     65  C   UNL A   1      43.869  27.710  32.267  1.00  0.00     0.049 A 
ATOM     66  H   UNL A   1      41.922  27.091  31.814  1.00  0.00     0.167 HD
ATOM     67  C   UNL A   1      43.779  28.744  34.444  1.00  0.00     0.074 A 
ATOM     68  C   UNL A   1      43.861  29.021  35.870  1.00  0.00     0.031 C 
ATOM     69  C   UNL A   1      43.771  27.582  33.718  1.00  0.00     0.034 A 
BRANCH  56  70
ATOM     70  C   UNL A   1      41.496  26.613  28.293  1.00  0.00     0.023 A 
ATOM     71  C   UNL A   1      41.846  25.270  28.583  1.00  0.00     0.031 A 
ATOM     72  C   UNL A   1      40.828  26.809  27.062  1.00  0.00     0.131 A 
ATOM     73  C   UNL A   1      41.544  24.214  27.683  1.00  0.00     0.055 A 
ATOM     74  C   UNL A   1      40.506  25.758  26.183  1.00  0.00     0.041 A 
ATOM     75  F   UNL A   1      40.462  28.036  26.658  1.00  0.00    -0.206 F 
ATOM     76  C   UNL A   1      40.868  24.452  26.489  1.00  0.00     0.022 A 
BRANCH  73  77
ATOM     77  S   UNL A   1      42.134  22.521  28.024  1.00  0.00     0.124 S 
ATOM     78  O   UNL A   1      42.863  22.687  29.277  1.00  0.00    -0.237 OA
ATOM     79  O   UNL A   1      40.887  21.767  28.096  1.00  0.00    -0.237 OA
ATOM     80  O   UNL A   1      42.975  22.210  26.867  1.00  0.00    -0.744 OA
ENDBRANCH  73  77
ENDBRANCH  56  70
BRANCH  57  81
ATOM     81  C   UNL A   1      43.022  33.459  35.332  1.00  0.00     0.023 A 
ATOM     82  C   UNL A   1      43.665  34.723  35.436  1.00  0.00     0.031 A 
ATOM     83  C   UNL A   1      41.652  33.421  35.621  1.00  0.00     0.131 A 
ATOM     84  C   UNL A   1      42.922  35.903  35.577  1.00  0.00     0.055 A 
ATOM     85  C   UNL A   1      40.931  34.598  35.904  1.00  0.00     0.041 A 
ATOM     86  F   UNL A   1      40.957  32.280  35.503  1.00  0.00    -0.206 F 
ATOM     87  C   UNL A   1      41.553  35.849  35.833  1.00  0.00     0.022 A 
BRANCH  84  88
ATOM     88  S   UNL A   1      43.685  37.461  34.996  1.00  0.00     0.124 S 
ATOM     89  O   UNL A   1      42.643  38.011  34.138  1.00  0.00    -0.237 OA
ATOM     90  O   UNL A   1      43.936  38.177  36.245  1.00  0.00    -0.237 OA
ATOM     91  O   UNL A   1      44.894  37.009  34.316  1.00  0.00    -0.744 OA
ENDBRANCH  84  88
ENDBRANCH  57  81
BRANCH  69  92
ATOM     92  C   UNL A   1      43.735  26.204  34.343  1.00  0.00     0.023 A 
ATOM     93  C   UNL A   1      44.880  25.406  34.455  1.00  0.00     0.031 A 
ATOM     94  C   UNL A   1      42.528  25.623  34.801  1.00  0.00     0.131 A 
ATOM     95  C   UNL A   1      44.825  24.144  35.073  1.00  0.00     0.055 A 
ATOM     96  C   UNL A   1      42.457  24.323  35.311  1.00  0.00     0.041 A 
ATOM     97  F   UNL A   1      41.379  26.315  34.819  1.00  0.00    -0.206 F 
ATOM     98  C   UNL A   1      43.616  23.579  35.468  1.00  0.00     0.022 A 
BRANCH  95  99
ATOM     99  S   UNL A   1      46.388  23.302  35.433  1.00  0.00     0.124 S 
ATOM    100  O   UNL A   1      46.788  23.904  36.700  1.00  0.00    -0.237 OA
ATOM    101  O   UNL A   1      45.957  21.907  35.504  1.00  0.00    -0.237 OA
ATOM    102  O   UNL A   1      47.232  23.634  34.288  1.00  0.00    -0.744 OA
ENDBRANCH  95  99
ENDBRANCH  69  92
ENDBRANCH  43  44
ENDBRANCH  36  38
ENDBRANCH  35  36
ENDBRANCH  34  35
ENDBRANCH  33  34
ENDBRANCH  32  33
ENDBRANCH  31  32
ENDBRANCH   1  31
TORSDOF 25
ENDMDL
MODEL 3
REMARK VINA RESULT:      -9.9      3.657      8.951
REMARK SMILES Cc1ccc(OCC(=O)NNC(=O)[C@H]2CCCC[C@@H]2C(=O)OCCOCCOCCOC(=O)c2ccc(-c3c4nc(c(-c5cc(S(=O)(=O)[O-])ccc5F)c5ccc([nH]5)c(-c5cc(S(=O)(=O)[O-])ccc5F)c5nc(c(-c6cc(S(=O)(=O)[O-])ccc6F)c6ccc3[nH]6)C=C5)C=C4)cc2)cc1
REMARK SMILES IDX 26 1 25 2 24 3 23 4 22 5 20 6 21 7 19 8 14 9 15 10 16 11
REMARK SMILES IDX 18 12 17 13 12 14 11 15 13 17 10 18 8 19 9 20 7 22 6 23 5 24
REMARK SMILES IDX 1 25 2 26 3 27 98 28 4 29 97 30 27 31 28 32 29 33 30 34
REMARK SMILES IDX 31 35 32 36 33 37 34 38 35 39 96 40 36 41 95 42 37 43 38 44
REMARK SMILES IDX 39 45 89 46 40 47 94 48 88 49 90 50 41 51 93 52 87 53 86 54
REMARK SMILES IDX 42 56 74 57 54 58 73 59 55 60 58 61 72 62 91 63 56 64 57 65
REMARK SMILES IDX 71 67 92 68 59 69 43 70 44 71 52 72 45 73 51 74 53 75 50 76
REMARK SMILES IDX 46 77 47 78 48 79 49 80 75 81 76 82 84 83 77 84 83 85 85 86
REMARK SMILES IDX 82 87 78 88 79 89 80 90 81 91 60 92 61 93 69 94 62 95 68 96
REMARK SMILES IDX 70 97 67 98 63 99 64 100 65 101 66 102
REMARK H PARENT 11 16 10 21 90 55 58 66
REMARK Flexibility Score: inf
ROOT
ATOM      1  C   UNL A   1      43.415  23.481  25.052  1.00  0.00     0.188 C 
ENDROOT
BRANCH   1   2
ATOM      2  O   UNL A   1      43.373  22.494  26.093  1.00  0.00    -0.376 OA
BRANCH   2   3
ATOM      3  C   UNL A   1      42.170  22.400  26.831  1.00  0.00     0.202 C 
BRANCH   3   4
ATOM      4  C   UNL A   1      40.837  22.234  26.003  1.00  0.00     0.261 C 
BRANCH   4   5
ATOM      5  O   UNL A   1      39.622  21.650  26.620  1.00  0.00    -0.463 OA
BRANCH   5   6
ATOM      6  C   UNL A   1      38.708  20.957  25.900  1.00  0.00     0.309 C 
ATOM      7  O   UNL A   1      39.041  19.949  25.271  1.00  0.00    -0.252 OA
BRANCH   6   8
ATOM      8  C   UNL A   1      37.188  21.516  25.755  1.00  0.00     0.111 C 
ATOM      9  C   UNL A   1      35.984  21.359  24.711  1.00  0.00     0.094 C 
ATOM     10  C   UNL A   1      35.598  22.595  23.818  1.00  0.00     0.014 C 
ATOM     11  C   UNL A   1      36.087  23.967  24.237  1.00  0.00     0.001 C 
ATOM     12  C   UNL A   1      37.221  22.947  26.299  1.00  0.00     0.016 C 
ATOM     13  C   UNL A   1      37.228  24.020  25.231  1.00  0.00     0.001 C 
BRANCH   9  14
ATOM     14  C   UNL A   1      34.642  21.201  25.470  1.00  0.00     0.242 C 
ATOM     15  N   UNL A   1      33.455  21.556  24.866  1.00  0.00    -0.267 N 
ATOM     16  H   UNL A   1      32.940  22.299  25.257  1.00  0.00     0.191 HD
ATOM     17  O   UNL A   1      34.627  21.094  26.701  1.00  0.00    -0.273 OA
BRANCH  15  18
ATOM     18  N   UNL A   1      32.937  20.925  23.729  1.00  0.00    -0.265 N 
ATOM     19  C   UNL A   1      32.028  21.555  22.893  1.00  0.00     0.276 C 
ATOM     20  O   UNL A   1      31.660  21.023  21.845  1.00  0.00    -0.269 OA
ATOM     21  H   UNL A   1      33.225  20.008  23.517  1.00  0.00     0.191 HD
BRANCH  19  22
ATOM     22  C   UNL A   1      31.558  22.987  23.234  1.00  0.00     0.331 C 
BRANCH  22  23
ATOM     23  O   UNL A   1      32.486  24.054  23.152  1.00  0.00    -0.484 OA
BRANCH  23  24
ATOM     24  C   UNL A   1      32.434  25.026  24.114  1.00  0.00     0.120 A 
ATOM     25  C   UNL A   1      31.886  27.868  27.314  1.00  0.00     0.044 C 
ATOM     26  C   UNL A   1      32.079  26.887  26.197  1.00  0.00    -0.051 A 
ATOM     27  C   UNL A   1      31.227  25.787  26.081  1.00  0.00     0.007 A 
ATOM     28  C   UNL A   1      33.104  27.051  25.258  1.00  0.00     0.007 A 
ATOM     29  C   UNL A   1      31.411  24.863  25.051  1.00  0.00     0.047 A 
ATOM     30  C   UNL A   1      33.279  26.129  24.219  1.00  0.00     0.047 A 
ENDBRANCH  23  24
ENDBRANCH  22  23
ENDBRANCH  19  22
ENDBRANCH  15  18
ENDBRANCH   9  14
ENDBRANCH   6   8
ENDBRANCH   5   6
ENDBRANCH   4   5
ENDBRANCH   3   4
ENDBRANCH   2   3
ENDBRANCH   1   2
BRANCH   1  31
ATOM     31  C   UNL A   1      43.537  24.910  25.590  1.00  0.00     0.188 C 
BRANCH  31  32
ATOM     32  O   UNL A   1      42.714  25.778  24.820  1.00  0.00    -0.376 OA
BRANCH  32  33
ATOM     33  C   UNL A   1      41.894  26.676  25.546  1.00  0.00     0.202 C 
BRANCH  33  34
ATOM     34  C   UNL A   1      40.831  26.022  26.438  1.00  0.00     0.261 C 
BRANCH  34  35
ATOM     35  O   UNL A   1      40.758  26.731  27.688  1.00  0.00    -0.460 OA
BRANCH  35  36
ATOM     36  C   UNL A   1      39.722  26.371  28.502  1.00  0.00     0.338 C 
ATOM     37  O   UNL A   1      39.227  25.254  28.532  1.00  0.00    -0.246 OA
BRANCH  36  38
ATOM     38  C   UNL A   1      39.190  27.606  29.162  1.00  0.00     0.060 A 
ATOM     39  C   UNL A   1      39.257  28.853  28.551  1.00  0.00     0.016 A 
ATOM     40  C   UNL A   1      38.930  27.595  30.512  1.00  0.00     0.016 A 
ATOM     41  C   UNL A   1      39.275  30.054  29.333  1.00  0.00     0.010 A 
ATOM     42  C   UNL A   1      39.064  28.796  31.235  1.00  0.00     0.010 A 
ATOM     43  C   UNL A   1      39.317  30.075  30.738  1.00  0.00    -0.014 A 
BRANCH  43  44
ATOM     44  C   UNL A   1      39.928  31.235  31.623  1.00  0.00     0.031 A 
ATOM     45  C   UNL A   1      41.004  31.206  32.733  1.00  0.00     0.074 A 
ATOM     46  C   UNL A   1      39.561  32.514  31.396  1.00  0.00     0.049 A 
ATOM     47  N   UNL A   1      42.134  31.865  32.874  1.00  0.00    -0.248 NA
ATOM     48  C   UNL A   1      40.728  30.434  33.928  1.00  0.00     0.031 C 
ATOM     49  C   UNL A   1      40.098  33.736  31.988  1.00  0.00     0.029 A 
ATOM     50  N   UNL A   1      38.403  32.934  30.769  1.00  0.00    -0.354 N 
ATOM     51  C   UNL A   1      42.780  31.446  34.057  1.00  0.00     0.074 A 
ATOM     52  C   UNL A   1      41.886  30.421  34.597  1.00  0.00     0.031 C 
ATOM     53  C   UNL A   1      39.127  34.661  31.997  1.00  0.00     0.029 A 
ATOM     54  C   UNL A   1      37.923  34.028  31.496  1.00  0.00     0.049 A 
ATOM     55  H   UNL A   1      37.995  32.539  29.966  1.00  0.00     0.167 HD
ATOM     56  C   UNL A   1      43.303  32.298  35.002  1.00  0.00     0.034 A 
ATOM     57  C   UNL A   1      36.750  33.861  32.171  1.00  0.00     0.034 A 
ATOM     58  C   UNL A   1      42.381  33.358  35.354  1.00  0.00     0.049 A 
ATOM     59  C   UNL A   1      36.949  33.862  33.677  1.00  0.00     0.074 A 
ATOM     60  C   UNL A   1      42.292  34.710  35.106  1.00  0.00     0.029 A 
ATOM     61  N   UNL A   1      41.201  33.007  35.992  1.00  0.00    -0.354 N 
ATOM     62  N   UNL A   1      38.109  33.814  34.286  1.00  0.00    -0.248 NA
ATOM     63  C   UNL A   1      35.836  33.886  34.617  1.00  0.00     0.031 C 
ATOM     64  C   UNL A   1      40.976  35.128  35.475  1.00  0.00     0.029 A 
ATOM     65  C   UNL A   1      40.295  34.043  36.003  1.00  0.00     0.049 A 
ATOM     66  H   UNL A   1      41.031  32.123  36.391  1.00  0.00     0.167 HD
ATOM     67  C   UNL A   1      37.920  33.817  35.645  1.00  0.00     0.074 A 
ATOM     68  C   UNL A   1      36.473  33.803  35.798  1.00  0.00     0.031 C 
ATOM     69  C   UNL A   1      38.955  33.841  36.544  1.00  0.00     0.034 A 
BRANCH  56  70
ATOM     70  C   UNL A   1      44.556  31.940  35.807  1.00  0.00     0.023 A 
ATOM     71  C   UNL A   1      44.485  31.696  37.202  1.00  0.00     0.031 A 
ATOM     72  C   UNL A   1      45.858  31.901  35.254  1.00  0.00     0.131 A 
ATOM     73  C   UNL A   1      45.651  31.443  37.971  1.00  0.00     0.055 A 
ATOM     74  C   UNL A   1      47.010  31.623  36.013  1.00  0.00     0.041 A 
ATOM     75  F   UNL A   1      46.066  32.137  33.949  1.00  0.00    -0.206 F 
ATOM     76  C   UNL A   1      46.912  31.397  37.380  1.00  0.00     0.022 A 
BRANCH  73  77
ATOM     77  S   UNL A   1      45.536  31.274  39.785  1.00  0.00     0.124 S 
ATOM     78  O   UNL A   1      46.736  30.509  40.107  1.00  0.00    -0.237 OA
ATOM     79  O   UNL A   1      45.518  32.665  40.224  1.00  0.00    -0.237 OA
ATOM     80  O   UNL A   1      44.280  30.550  39.983  1.00  0.00    -0.744 OA
ENDBRANCH  73  77
ENDBRANCH  56  70
BRANCH  57  81
ATOM     81  C   UNL A   1      35.739  33.077  31.368  1.00  0.00     0.023 A 
ATOM     82  C   UNL A   1      34.867  33.850  30.554  1.00  0.00     0.031 A 
ATOM     83  C   UNL A   1      35.834  31.711  31.074  1.00  0.00     0.131 A 
ATOM     84  C   UNL A   1      34.328  33.325  29.372  1.00  0.00     0.055 A 
ATOM     85  C   UNL A   1      35.173  31.155  29.961  1.00  0.00     0.041 A 
ATOM     86  F   UNL A   1      36.668  30.917  31.761  1.00  0.00    -0.206 F 
ATOM     87  C   UNL A   1      34.458  31.969  29.076  1.00  0.00     0.022 A 
BRANCH  84  88
ATOM     88  S   UNL A   1      33.850  34.507  28.059  1.00  0.00     0.124 S 
ATOM     89  O   UNL A   1      32.552  33.994  27.641  1.00  0.00    -0.237 OA
ATOM     90  O   UNL A   1      33.839  35.785  28.770  1.00  0.00    -0.237 OA
ATOM     91  O   UNL A   1      34.928  34.379  27.084  1.00  0.00    -0.744 OA
ENDBRANCH  84  88
ENDBRANCH  57  81
BRANCH  69  92
ATOM     92  C   UNL A   1      38.764  33.738  38.042  1.00  0.00     0.023 A 
ATOM     93  C   UNL A   1      38.084  32.667  38.635  1.00  0.00     0.031 A 
ATOM     94  C   UNL A   1      39.218  34.747  38.923  1.00  0.00     0.131 A 
ATOM     95  C   UNL A   1      37.952  32.578  40.032  1.00  0.00     0.055 A 
ATOM     96  C   UNL A   1      38.986  34.712  40.303  1.00  0.00     0.041 A 
ATOM     97  F   UNL A   1      39.950  35.784  38.486  1.00  0.00    -0.206 F 
ATOM     98  C   UNL A   1      38.364  33.611  40.870  1.00  0.00     0.022 A 
BRANCH  95  99
ATOM     99  S   UNL A   1      37.315  31.033  40.732  1.00  0.00     0.124 S 
ATOM    100  O   UNL A   1      36.042  31.450  41.311  1.00  0.00    -0.237 OA
ATOM    101  O   UNL A   1      37.221  30.192  39.541  1.00  0.00    -0.237 OA
ATOM    102  O   UNL A   1      38.341  30.638  41.692  1.00  0.00    -0.744 OA
ENDBRANCH  95  99
ENDBRANCH  69  92
ENDBRANCH  43  44
ENDBRANCH  36  38
ENDBRANCH  35  36
ENDBRANCH  34  35
ENDBRANCH  33  34
ENDBRANCH  32  33
ENDBRANCH  31  32
ENDBRANCH   1  31
TORSDOF 25
ENDMDL
