MODEL 1
REMARK VINA RESULT:     -11.3      0.000      0.000
REMARK SMILES C[N@@H+]1CCN(C(=O)c2cnn3c2CCCC3)C[C@@H]1C(=O)OCCOCCOCCOC(=O)c1ccc(-c2c3nc(c(-c4cc(S(=O)(=O)[O-])ccc4F)c4ccc([nH]4)c(-c4cc(S(=O)(=O)[O-])ccc4F)c4nc(c(-c5cc(S(=O)(=O)[O-])ccc5F)c5ccc2[nH]5)C=C4)C=C3)cc1
REMARK SMILES IDX 26 1 25 2 24 3 23 4 22 5 21 6 19 7 20 8 18 9 1 10 2 11 3 12
REMARK SMILES IDX 4 14 17 15 5 16 6 17 7 18 8 19 9 20 12 21 10 22 11 23 13 24
REMARK SMILES IDX 16 25 14 26 15 27 27 28 28 29 29 30 30 31 31 32 32 33 33 34
REMARK SMILES IDX 34 35 95 36 35 37 94 38 36 39 37 40 38 41 88 42 39 43 93 44
REMARK SMILES IDX 87 45 89 46 40 47 92 48 86 49 85 50 41 52 73 53 53 54 72 55
REMARK SMILES IDX 54 56 57 57 71 58 90 59 55 60 56 61 70 63 91 64 58 65 42 66
REMARK SMILES IDX 43 67 51 68 44 69 50 70 52 71 49 72 45 73 46 74 47 75 48 76
REMARK SMILES IDX 74 77 75 78 83 79 76 80 82 81 84 82 81 83 77 84 78 85 79 86
REMARK SMILES IDX 80 87 59 88 60 89 68 90 61 91 67 92 69 93 66 94 62 95 63 96
REMARK SMILES IDX 64 97 65 98
REMARK H PARENT 2 13 89 51 57 62
REMARK Flexibility Score: inf
ROOT
ATOM      1  C   UNL A   1      37.979  21.695  25.137  1.00  0.00     0.188 C 
ENDROOT
BRANCH   1   2
ATOM      2  C   UNL A   1      36.770  22.348  24.447  1.00  0.00     0.188 C 
BRANCH   2   3
ATOM      3  O   UNL A   1      35.733  22.865  25.268  1.00  0.00    -0.376 OA
BRANCH   3   4
ATOM      4  C   UNL A   1      35.346  24.203  24.990  1.00  0.00     0.202 C 
BRANCH   4   5
ATOM      5  C   UNL A   1      34.725  24.504  23.607  1.00  0.00     0.261 C 
BRANCH   5   6
ATOM      6  O   UNL A   1      33.716  25.546  23.564  1.00  0.00    -0.459 OA
BRANCH   6   7
ATOM      7  C   UNL A   1      33.300  25.924  22.330  1.00  0.00     0.366 C 
ATOM      8  O   UNL A   1      33.466  25.213  21.336  1.00  0.00    -0.245 OA
BRANCH   7   9
ATOM      9  C   UNL A   1      32.663  27.320  22.181  1.00  0.00     0.314 C 
ATOM     10  C   UNL A   1      34.490  28.843  23.008  1.00  0.00     0.333 C 
ATOM     11  N   UNL A   1      33.090  28.473  23.014  1.00  0.00    -0.323 N 
ATOM     12  C   UNL A   1      32.396  28.742  24.275  1.00  0.00     0.284 C 
ATOM     13  H   UNL A   1      32.667  29.171  22.402  1.00  0.00     0.348 HD
ATOM     14  C   UNL A   1      30.889  28.448  24.265  1.00  0.00     0.181 C 
ATOM     15  C   UNL A   1      31.119  27.126  22.223  1.00  0.00     0.197 C 
ATOM     16  N   UNL A   1      30.593  27.191  23.593  1.00  0.00    -0.326 N 
BRANCH  16  17
ATOM     17  C   UNL A   1      29.806  26.244  24.237  1.00  0.00     0.257 C 
ATOM     18  O   UNL A   1      28.605  26.123  24.010  1.00  0.00    -0.269 OA
BRANCH  17  19
ATOM     19  C   UNL A   1      30.471  25.313  25.121  1.00  0.00     0.081 A 
ATOM     20  C   UNL A   1      30.712  25.378  26.513  1.00  0.00     0.149 A 
ATOM     21  C   UNL A   1      30.966  24.076  24.751  1.00  0.00     0.051 A 
ATOM     22  N   UNL A   1      31.380  24.312  26.971  1.00  0.00    -0.180 NA
ATOM     23  N   UNL A   1      31.514  23.540  25.881  1.00  0.00    -0.269 N 
ATOM     24  C   UNL A   1      30.945  23.339  23.458  1.00  0.00     0.057 C 
ATOM     25  C   UNL A   1      32.269  22.304  25.932  1.00  0.00     0.144 C 
ATOM     26  C   UNL A   1      31.988  22.220  23.426  1.00  0.00     0.008 C 
ATOM     27  C   UNL A   1      31.974  21.410  24.727  1.00  0.00     0.024 C 
ENDBRANCH  17  19
ENDBRANCH  16  17
ENDBRANCH   7   9
ENDBRANCH   6   7
ENDBRANCH   5   6
ENDBRANCH   4   5
ENDBRANCH   3   4
ENDBRANCH   2   3
ENDBRANCH   1   2
BRANCH   1  28
ATOM     28  O   UNL A   1      38.684  22.466  26.112  1.00  0.00    -0.376 OA
BRANCH  28  29
ATOM     29  C   UNL A   1      39.879  21.877  26.647  1.00  0.00     0.202 C 
BRANCH  29  30
ATOM     30  C   UNL A   1      41.020  22.831  27.026  1.00  0.00     0.261 C 
BRANCH  30  31
ATOM     31  O   UNL A   1      40.596  24.090  27.538  1.00  0.00    -0.460 OA
BRANCH  31  32
ATOM     32  C   UNL A   1      40.935  25.223  26.885  1.00  0.00     0.338 C 
ATOM     33  O   UNL A   1      41.724  25.348  25.968  1.00  0.00    -0.246 OA
BRANCH  32  34
ATOM     34  C   UNL A   1      40.074  26.285  27.431  1.00  0.00     0.060 A 
ATOM     35  C   UNL A   1      40.183  27.557  26.870  1.00  0.00     0.016 A 
ATOM     36  C   UNL A   1      39.315  26.050  28.596  1.00  0.00     0.016 A 
ATOM     37  C   UNL A   1      39.801  28.628  27.645  1.00  0.00     0.010 A 
ATOM     38  C   UNL A   1      38.924  27.114  29.362  1.00  0.00     0.010 A 
ATOM     39  C   UNL A   1      39.316  28.373  28.931  1.00  0.00    -0.014 A 
BRANCH  39  40
ATOM     40  C   UNL A   1      39.545  29.386  29.937  1.00  0.00     0.031 A 
ATOM     41  C   UNL A   1      38.429  30.296  30.219  1.00  0.00     0.074 A 
ATOM     42  C   UNL A   1      40.690  29.363  30.648  1.00  0.00     0.049 A 
ATOM     43  N   UNL A   1      38.377  31.566  30.007  1.00  0.00    -0.248 NA
ATOM     44  C   UNL A   1      37.167  29.703  30.678  1.00  0.00     0.031 C 
ATOM     45  C   UNL A   1      41.699  28.296  30.695  1.00  0.00     0.029 A 
ATOM     46  N   UNL A   1      41.123  30.238  31.591  1.00  0.00    -0.354 N 
ATOM     47  C   UNL A   1      37.144  31.975  30.496  1.00  0.00     0.074 A 
ATOM     48  C   UNL A   1      36.378  30.776  30.695  1.00  0.00     0.031 C 
ATOM     49  C   UNL A   1      42.485  28.479  31.778  1.00  0.00     0.029 A 
ATOM     50  C   UNL A   1      42.109  29.727  32.422  1.00  0.00     0.049 A 
ATOM     51  H   UNL A   1      40.770  31.153  31.677  1.00  0.00     0.167 HD
ATOM     52  C   UNL A   1      36.935  33.255  30.908  1.00  0.00     0.034 A 
ATOM     53  C   UNL A   1      42.493  30.235  33.619  1.00  0.00     0.034 A 
ATOM     54  C   UNL A   1      37.971  34.136  30.414  1.00  0.00     0.049 A 
ATOM     55  C   UNL A   1      42.067  31.661  33.644  1.00  0.00     0.074 A 
ATOM     56  C   UNL A   1      38.429  34.465  29.151  1.00  0.00     0.029 A 
ATOM     57  N   UNL A   1      38.960  34.546  31.281  1.00  0.00    -0.354 N 
ATOM     58  N   UNL A   1      42.550  32.575  32.843  1.00  0.00    -0.248 NA
ATOM     59  C   UNL A   1      40.767  31.980  34.220  1.00  0.00     0.031 C 
ATOM     60  C   UNL A   1      39.842  34.593  29.290  1.00  0.00     0.029 A 
ATOM     61  C   UNL A   1      40.162  34.391  30.633  1.00  0.00     0.049 A 
ATOM     62  H   UNL A   1      38.829  34.887  32.196  1.00  0.00     0.167 HD
ATOM     63  C   UNL A   1      41.462  33.362  32.487  1.00  0.00     0.074 A 
ATOM     64  C   UNL A   1      40.417  33.013  33.447  1.00  0.00     0.031 C 
ATOM     65  C   UNL A   1      41.404  34.007  31.282  1.00  0.00     0.034 A 
BRANCH  52  66
ATOM     66  C   UNL A   1      35.973  33.661  31.999  1.00  0.00     0.023 A 
ATOM     67  C   UNL A   1      34.994  34.614  31.665  1.00  0.00     0.031 A 
ATOM     68  C   UNL A   1      36.102  33.376  33.378  1.00  0.00     0.131 A 
ATOM     69  C   UNL A   1      34.271  35.290  32.662  1.00  0.00     0.055 A 
ATOM     70  C   UNL A   1      35.321  33.991  34.361  1.00  0.00     0.041 A 
ATOM     71  F   UNL A   1      37.047  32.567  33.872  1.00  0.00    -0.206 F 
ATOM     72  C   UNL A   1      34.421  34.978  34.009  1.00  0.00     0.022 A 
BRANCH  69  73
ATOM     73  S   UNL A   1      33.274  36.719  32.174  1.00  0.00     0.124 S 
ATOM     74  O   UNL A   1      33.929  37.801  32.903  1.00  0.00    -0.237 OA
ATOM     75  O   UNL A   1      33.446  36.721  30.725  1.00  0.00    -0.237 OA
ATOM     76  O   UNL A   1      31.935  36.373  32.646  1.00  0.00    -0.744 OA
ENDBRANCH  69  73
ENDBRANCH  52  66
BRANCH  53  77
ATOM     77  C   UNL A   1      42.835  29.426  34.821  1.00  0.00     0.023 A 
ATOM     78  C   UNL A   1      42.061  28.333  35.249  1.00  0.00     0.031 A 
ATOM     79  C   UNL A   1      44.078  29.617  35.476  1.00  0.00     0.131 A 
ATOM     80  C   UNL A   1      42.522  27.506  36.301  1.00  0.00     0.055 A 
ATOM     81  C   UNL A   1      44.516  28.814  36.529  1.00  0.00     0.041 A 
ATOM     82  F   UNL A   1      44.951  30.548  35.060  1.00  0.00    -0.206 F 
ATOM     83  C   UNL A   1      43.739  27.748  36.945  1.00  0.00     0.022 A 
BRANCH  80  84
ATOM     84  S   UNL A   1      41.579  26.025  36.782  1.00  0.00     0.124 S 
ATOM     85  O   UNL A   1      41.019  25.590  35.508  1.00  0.00    -0.237 OA
ATOM     86  O   UNL A   1      42.613  25.174  37.361  1.00  0.00    -0.237 OA
ATOM     87  O   UNL A   1      40.602  26.539  37.741  1.00  0.00    -0.744 OA
ENDBRANCH  80  84
ENDBRANCH  53  77
BRANCH  65  88
ATOM     88  C   UNL A   1      42.662  34.100  30.438  1.00  0.00     0.023 A 
ATOM     89  C   UNL A   1      43.622  35.130  30.552  1.00  0.00     0.031 A 
ATOM     90  C   UNL A   1      42.974  33.010  29.606  1.00  0.00     0.131 A 
ATOM     91  C   UNL A   1      44.838  35.044  29.845  1.00  0.00     0.055 A 
ATOM     92  C   UNL A   1      44.186  32.919  28.921  1.00  0.00     0.041 A 
ATOM     93  F   UNL A   1      42.119  31.981  29.483  1.00  0.00    -0.206 F 
ATOM     94  C   UNL A   1      45.122  33.940  29.035  1.00  0.00     0.022 A 
BRANCH  91  95
ATOM     95  S   UNL A   1      46.080  36.371  29.975  1.00  0.00     0.124 S 
ATOM     96  O   UNL A   1      46.760  36.080  31.231  1.00  0.00    -0.237 OA
ATOM     97  O   UNL A   1      46.869  36.183  28.760  1.00  0.00    -0.237 OA
ATOM     98  O   UNL A   1      45.271  37.592  29.989  1.00  0.00    -0.744 OA
ENDBRANCH  91  95
ENDBRANCH  65  88
ENDBRANCH  39  40
ENDBRANCH  32  34
ENDBRANCH  31  32
ENDBRANCH  30  31
ENDBRANCH  29  30
ENDBRANCH  28  29
ENDBRANCH   1  28
TORSDOF 22
ENDMDL
MODEL 2
REMARK VINA RESULT:     -11.3      4.244     10.189
REMARK SMILES C[N@@H+]1CCN(C(=O)c2cnn3c2CCCC3)C[C@@H]1C(=O)OCCOCCOCCOC(=O)c1ccc(-c2c3nc(c(-c4cc(S(=O)(=O)[O-])ccc4F)c4ccc([nH]4)c(-c4cc(S(=O)(=O)[O-])ccc4F)c4nc(c(-c5cc(S(=O)(=O)[O-])ccc5F)c5ccc2[nH]5)C=C4)C=C3)cc1
REMARK SMILES IDX 26 1 25 2 24 3 23 4 22 5 21 6 19 7 20 8 18 9 1 10 2 11 3 12
REMARK SMILES IDX 4 14 17 15 5 16 6 17 7 18 8 19 9 20 12 21 10 22 11 23 13 24
REMARK SMILES IDX 16 25 14 26 15 27 27 28 28 29 29 30 30 31 31 32 32 33 33 34
REMARK SMILES IDX 34 35 95 36 35 37 94 38 36 39 37 40 38 41 88 42 39 43 93 44
REMARK SMILES IDX 87 45 89 46 40 47 92 48 86 49 85 50 41 52 73 53 53 54 72 55
REMARK SMILES IDX 54 56 57 57 71 58 90 59 55 60 56 61 70 63 91 64 58 65 42 66
REMARK SMILES IDX 43 67 51 68 44 69 50 70 52 71 49 72 45 73 46 74 47 75 48 76
REMARK SMILES IDX 74 77 75 78 83 79 76 80 82 81 84 82 81 83 77 84 78 85 79 86
REMARK SMILES IDX 80 87 59 88 60 89 68 90 61 91 67 92 69 93 66 94 62 95 63 96
REMARK SMILES IDX 64 97 65 98
REMARK H PARENT 2 13 89 51 57 62
REMARK Flexibility Score: inf
ROOT
ATOM      1  C   UNL A   1      33.561  30.611  26.928  1.00  0.00     0.188 C 
ENDROOT
BRANCH   1   2
ATOM      2  C   UNL A   1      32.094  30.208  26.703  1.00  0.00     0.188 C 
BRANCH   2   3
ATOM      3  O   UNL A   1      31.833  28.982  26.036  1.00  0.00    -0.376 OA
BRANCH   3   4
ATOM      4  C   UNL A   1      32.591  28.757  24.856  1.00  0.00     0.202 C 
BRANCH   4   5
ATOM      5  C   UNL A   1      31.860  28.165  23.630  1.00  0.00     0.261 C 
BRANCH   5   6
ATOM      6  O   UNL A   1      32.281  26.843  23.204  1.00  0.00    -0.459 OA
BRANCH   6   7
ATOM      7  C   UNL A   1      31.378  26.132  22.484  1.00  0.00     0.366 C 
ATOM      8  O   UNL A   1      31.245  26.283  21.268  1.00  0.00    -0.245 OA
BRANCH   7   9
ATOM      9  C   UNL A   1      30.455  25.159  23.246  1.00  0.00     0.314 C 
ATOM     10  C   UNL A   1      28.499  26.626  23.849  1.00  0.00     0.333 C 
ATOM     11  N   UNL A   1      29.473  25.633  24.254  1.00  0.00    -0.323 N 
ATOM     12  C   UNL A   1      29.870  25.710  25.661  1.00  0.00     0.284 C 
ATOM     13  H   UNL A   1      28.933  24.767  24.247  1.00  0.00     0.348 HD
ATOM     14  C   UNL A   1      30.826  24.604  26.129  1.00  0.00     0.181 C 
ATOM     15  C   UNL A   1      31.356  24.025  23.815  1.00  0.00     0.197 C 
ATOM     16  N   UNL A   1      31.874  24.351  25.150  1.00  0.00    -0.326 N 
BRANCH  16  17
ATOM     17  C   UNL A   1      33.202  24.352  25.560  1.00  0.00     0.257 C 
ATOM     18  O   UNL A   1      33.747  25.352  26.021  1.00  0.00    -0.269 OA
BRANCH  17  19
ATOM     19  C   UNL A   1      33.910  23.092  25.529  1.00  0.00     0.081 A 
ATOM     20  C   UNL A   1      33.425  21.766  25.461  1.00  0.00     0.149 A 
ATOM     21  C   UNL A   1      35.285  22.951  25.489  1.00  0.00     0.051 A 
ATOM     22  N   UNL A   1      34.409  20.856  25.466  1.00  0.00    -0.180 NA
ATOM     23  N   UNL A   1      35.522  21.606  25.478  1.00  0.00    -0.269 N 
ATOM     24  C   UNL A   1      36.389  23.947  25.427  1.00  0.00     0.057 C 
ATOM     25  C   UNL A   1      36.832  20.992  25.572  1.00  0.00     0.144 C 
ATOM     26  C   UNL A   1      37.730  23.334  25.841  1.00  0.00     0.008 C 
ATOM     27  C   UNL A   1      37.943  21.968  25.183  1.00  0.00     0.024 C 
ENDBRANCH  17  19
ENDBRANCH  16  17
ENDBRANCH   7   9
ENDBRANCH   6   7
ENDBRANCH   5   6
ENDBRANCH   4   5
ENDBRANCH   3   4
ENDBRANCH   2   3
ENDBRANCH   1   2
BRANCH   1  28
ATOM     28  O   UNL A   1      33.862  31.413  28.070  1.00  0.00    -0.376 OA
BRANCH  28  29
ATOM     29  C   UNL A   1      35.211  31.895  28.172  1.00  0.00     0.202 C 
BRANCH  29  30
ATOM     30  C   UNL A   1      35.790  32.060  29.584  1.00  0.00     0.261 C 
BRANCH  30  31
ATOM     31  O   UNL A   1      37.074  31.471  29.772  1.00  0.00    -0.460 OA
BRANCH  31  32
ATOM     32  C   UNL A   1      37.207  30.416  30.605  1.00  0.00     0.338 C 
ATOM     33  O   UNL A   1      36.808  30.314  31.749  1.00  0.00    -0.246 OA
BRANCH  32  34
ATOM     34  C   UNL A   1      37.849  29.350  29.819  1.00  0.00     0.060 A 
ATOM     35  C   UNL A   1      38.176  28.167  30.480  1.00  0.00     0.016 A 
ATOM     36  C   UNL A   1      38.276  29.605  28.499  1.00  0.00     0.016 A 
ATOM     37  C   UNL A   1      39.181  27.396  29.943  1.00  0.00     0.010 A 
ATOM     38  C   UNL A   1      39.267  28.833  27.959  1.00  0.00     0.010 A 
ATOM     39  C   UNL A   1      39.796  27.837  28.767  1.00  0.00    -0.014 A 
BRANCH  39  40
ATOM     40  C   UNL A   1      41.182  27.476  28.570  1.00  0.00     0.031 A 
ATOM     41  C   UNL A   1      41.439  26.232  27.838  1.00  0.00     0.074 A 
ATOM     42  C   UNL A   1      42.147  28.344  28.936  1.00  0.00     0.049 A 
ATOM     43  N   UNL A   1      41.989  25.156  28.286  1.00  0.00    -0.248 NA
ATOM     44  C   UNL A   1      40.909  26.122  26.474  1.00  0.00     0.031 C 
ATOM     45  C   UNL A   1      41.990  29.748  29.338  1.00  0.00     0.029 A 
ATOM     46  N   UNL A   1      43.494  28.186  28.888  1.00  0.00    -0.354 N 
ATOM     47  C   UNL A   1      42.062  24.294  27.200  1.00  0.00     0.074 A 
ATOM     48  C   UNL A   1      41.206  24.855  26.191  1.00  0.00     0.031 C 
ATOM     49  C   UNL A   1      43.189  30.365  29.264  1.00  0.00     0.029 A 
ATOM     50  C   UNL A   1      44.201  29.379  28.928  1.00  0.00     0.049 A 
ATOM     51  H   UNL A   1      43.930  27.305  28.831  1.00  0.00     0.167 HD
ATOM     52  C   UNL A   1      42.996  23.308  27.140  1.00  0.00     0.034 A 
ATOM     53  C   UNL A   1      45.502  29.553  28.582  1.00  0.00     0.034 A 
ATOM     54  C   UNL A   1      43.572  23.057  28.444  1.00  0.00     0.049 A 
ATOM     55  C   UNL A   1      46.154  28.217  28.653  1.00  0.00     0.074 A 
ATOM     56  C   UNL A   1      43.049  22.684  29.668  1.00  0.00     0.029 A 
ATOM     57  N   UNL A   1      44.830  23.547  28.716  1.00  0.00    -0.354 N 
ATOM     58  N   UNL A   1      46.303  27.541  29.763  1.00  0.00    -0.248 NA
ATOM     59  C   UNL A   1      46.209  27.414  27.438  1.00  0.00     0.031 C 
ATOM     60  C   UNL A   1      43.803  23.415  30.633  1.00  0.00     0.029 A 
ATOM     61  C   UNL A   1      44.777  24.147  29.951  1.00  0.00     0.049 A 
ATOM     62  H   UNL A   1      45.622  23.480  28.133  1.00  0.00     0.167 HD
ATOM     63  C   UNL A   1      46.048  26.219  29.423  1.00  0.00     0.074 A 
ATOM     64  C   UNL A   1      46.102  26.189  27.963  1.00  0.00     0.031 C 
ATOM     65  C   UNL A   1      45.533  25.330  30.326  1.00  0.00     0.034 A 
BRANCH  52  66
ATOM     66  C   UNL A   1      43.607  22.778  25.865  1.00  0.00     0.023 A 
ATOM     67  C   UNL A   1      43.747  21.382  25.754  1.00  0.00     0.031 A 
ATOM     68  C   UNL A   1      44.278  23.539  24.878  1.00  0.00     0.131 A 
ATOM     69  C   UNL A   1      44.578  20.813  24.776  1.00  0.00     0.055 A 
ATOM     70  C   UNL A   1      45.037  22.962  23.856  1.00  0.00     0.041 A 
ATOM     71  F   UNL A   1      44.326  24.875  24.894  1.00  0.00    -0.206 F 
ATOM     72  C   UNL A   1      45.219  21.593  23.819  1.00  0.00     0.022 A 
BRANCH  69  73
ATOM     73  S   UNL A   1      44.960  19.049  24.901  1.00  0.00     0.124 S 
ATOM     74  O   UNL A   1      44.951  18.642  23.500  1.00  0.00    -0.237 OA
ATOM     75  O   UNL A   1      46.263  19.072  25.557  1.00  0.00    -0.237 OA
ATOM     76  O   UNL A   1      43.862  18.523  25.709  1.00  0.00    -0.744 OA
ENDBRANCH  69  73
ENDBRANCH  52  66
BRANCH  53  77
ATOM     77  C   UNL A   1      46.039  30.726  27.840  1.00  0.00     0.023 A 
ATOM     78  C   UNL A   1      45.252  31.501  26.969  1.00  0.00     0.031 A 
ATOM     79  C   UNL A   1      47.332  31.223  28.136  1.00  0.00     0.131 A 
ATOM     80  C   UNL A   1      45.773  32.696  26.417  1.00  0.00     0.055 A 
ATOM     81  C   UNL A   1      47.850  32.388  27.570  1.00  0.00     0.041 A 
ATOM     82  F   UNL A   1      48.114  30.633  29.054  1.00  0.00    -0.206 F 
ATOM     83  C   UNL A   1      47.068  33.135  26.707  1.00  0.00     0.022 A 
BRANCH  80  84
ATOM     84  S   UNL A   1      44.721  33.760  25.380  1.00  0.00     0.124 S 
ATOM     85  O   UNL A   1      44.060  32.791  24.515  1.00  0.00    -0.237 OA
ATOM     86  O   UNL A   1      43.881  34.425  26.370  1.00  0.00    -0.237 OA
ATOM     87  O   UNL A   1      45.680  34.635  24.706  1.00  0.00    -0.744 OA
ENDBRANCH  80  84
ENDBRANCH  53  77
BRANCH  65  88
ATOM     88  C   UNL A   1      45.504  25.711  31.795  1.00  0.00     0.023 A 
ATOM     89  C   UNL A   1      46.581  25.520  32.688  1.00  0.00     0.031 A 
ATOM     90  C   UNL A   1      44.397  26.446  32.259  1.00  0.00     0.131 A 
ATOM     91  C   UNL A   1      46.523  26.056  33.990  1.00  0.00     0.055 A 
ATOM     92  C   UNL A   1      44.350  26.990  33.542  1.00  0.00     0.041 A 
ATOM     93  F   UNL A   1      43.356  26.694  31.447  1.00  0.00    -0.206 F 
ATOM     94  C   UNL A   1      45.413  26.793  34.416  1.00  0.00     0.022 A 
BRANCH  91  95
ATOM     95  S   UNL A   1      47.902  25.808  35.155  1.00  0.00     0.124 S 
ATOM     96  O   UNL A   1      47.248  25.777  36.457  1.00  0.00    -0.237 OA
ATOM     97  O   UNL A   1      48.479  24.547  34.696  1.00  0.00    -0.237 OA
ATOM     98  O   UNL A   1      48.751  26.980  34.929  1.00  0.00    -0.744 OA
ENDBRANCH  91  95
ENDBRANCH  65  88
ENDBRANCH  39  40
ENDBRANCH  32  34
ENDBRANCH  31  32
ENDBRANCH  30  31
ENDBRANCH  29  30
ENDBRANCH  28  29
ENDBRANCH   1  28
TORSDOF 22
ENDMDL
MODEL 3
REMARK VINA RESULT:     -11.2      1.612      2.004
REMARK SMILES C[N@@H+]1CCN(C(=O)c2cnn3c2CCCC3)C[C@@H]1C(=O)OCCOCCOCCOC(=O)c1ccc(-c2c3nc(c(-c4cc(S(=O)(=O)[O-])ccc4F)c4ccc([nH]4)c(-c4cc(S(=O)(=O)[O-])ccc4F)c4nc(c(-c5cc(S(=O)(=O)[O-])ccc5F)c5ccc2[nH]5)C=C4)C=C3)cc1
REMARK SMILES IDX 26 1 25 2 24 3 23 4 22 5 21 6 19 7 20 8 18 9 1 10 2 11 3 12
REMARK SMILES IDX 4 14 17 15 5 16 6 17 7 18 8 19 9 20 12 21 10 22 11 23 13 24
REMARK SMILES IDX 16 25 14 26 15 27 27 28 28 29 29 30 30 31 31 32 32 33 33 34
REMARK SMILES IDX 34 35 95 36 35 37 94 38 36 39 37 40 38 41 88 42 39 43 93 44
REMARK SMILES IDX 87 45 89 46 40 47 92 48 86 49 85 50 41 52 73 53 53 54 72 55
REMARK SMILES IDX 54 56 57 57 71 58 90 59 55 60 56 61 70 63 91 64 58 65 42 66
REMARK SMILES IDX 43 67 51 68 44 69 50 70 52 71 49 72 45 73 46 74 47 75 48 76
REMARK SMILES IDX 74 77 75 78 83 79 76 80 82 81 84 82 81 83 77 84 78 85 79 86
REMARK SMILES IDX 80 87 59 88 60 89 68 90 61 91 67 92 69 93 66 94 62 95 63 96
REMARK SMILES IDX 64 97 65 98
REMARK H PARENT 2 13 89 51 57 62
REMARK Flexibility Score: inf
ROOT
ATOM      1  C   UNL A   1      38.542  21.122  25.460  1.00  0.00     0.188 C 
ENDROOT
BRANCH   1   2
ATOM      2  C   UNL A   1      37.374  21.497  24.532  1.00  0.00     0.188 C 
BRANCH   2   3
ATOM      3  O   UNL A   1      36.966  22.856  24.488  1.00  0.00    -0.376 OA
BRANCH   3   4
ATOM      4  C   UNL A   1      36.035  23.180  23.465  1.00  0.00     0.202 C 
BRANCH   4   5
ATOM      5  C   UNL A   1      34.856  24.109  23.829  1.00  0.00     0.261 C 
BRANCH   5   6
ATOM      6  O   UNL A   1      34.036  24.575  22.726  1.00  0.00    -0.459 OA
BRANCH   6   7
ATOM      7  C   UNL A   1      32.694  24.497  22.904  1.00  0.00     0.366 C 
ATOM      8  O   UNL A   1      32.040  23.519  22.536  1.00  0.00    -0.245 OA
BRANCH   7   9
ATOM      9  C   UNL A   1      31.978  25.712  23.529  1.00  0.00     0.314 C 
ATOM     10  C   UNL A   1      33.680  27.547  23.252  1.00  0.00     0.333 C 
ATOM     11  N   UNL A   1      32.729  26.859  24.100  1.00  0.00    -0.323 N 
ATOM     12  C   UNL A   1      33.077  26.851  25.522  1.00  0.00     0.284 C 
ATOM     13  H   UNL A   1      31.924  27.486  24.096  1.00  0.00     0.348 HD
ATOM     14  C   UNL A   1      32.030  26.212  26.446  1.00  0.00     0.181 C 
ATOM     15  C   UNL A   1      30.930  25.157  24.536  1.00  0.00     0.197 C 
ATOM     16  N   UNL A   1      31.496  24.982  25.880  1.00  0.00    -0.326 N 
BRANCH  16  17
ATOM     17  C   UNL A   1      31.488  23.826  26.652  1.00  0.00     0.257 C 
ATOM     18  O   UNL A   1      30.520  23.496  27.333  1.00  0.00    -0.269 OA
BRANCH  17  19
ATOM     19  C   UNL A   1      32.631  22.947  26.547  1.00  0.00     0.081 A 
ATOM     20  C   UNL A   1      33.855  22.941  27.254  1.00  0.00     0.149 A 
ATOM     21  C   UNL A   1      32.710  21.835  25.728  1.00  0.00     0.051 A 
ATOM     22  N   UNL A   1      34.677  21.961  26.854  1.00  0.00    -0.180 NA
ATOM     23  N   UNL A   1      33.952  21.306  25.934  1.00  0.00    -0.269 N 
ATOM     24  C   UNL A   1      31.728  21.206  24.803  1.00  0.00     0.057 C 
ATOM     25  C   UNL A   1      34.520  20.204  25.183  1.00  0.00     0.144 C 
ATOM     26  C   UNL A   1      32.411  20.270  23.802  1.00  0.00     0.008 C 
ATOM     27  C   UNL A   1      33.439  19.371  24.494  1.00  0.00     0.024 C 
ENDBRANCH  17  19
ENDBRANCH  16  17
ENDBRANCH   7   9
ENDBRANCH   6   7
ENDBRANCH   5   6
ENDBRANCH   4   5
ENDBRANCH   3   4
ENDBRANCH   2   3
ENDBRANCH   1   2
BRANCH   1  28
ATOM     28  O   UNL A   1      39.285  22.187  26.055  1.00  0.00    -0.376 OA
BRANCH  28  29
ATOM     29  C   UNL A   1      40.519  21.823  26.692  1.00  0.00     0.202 C 
BRANCH  29  30
ATOM     30  C   UNL A   1      41.563  22.933  26.880  1.00  0.00     0.261 C 
BRANCH  30  31
ATOM     31  O   UNL A   1      41.043  24.158  27.385  1.00  0.00    -0.460 OA
BRANCH  31  32
ATOM     32  C   UNL A   1      41.255  25.304  26.702  1.00  0.00     0.338 C 
ATOM     33  O   UNL A   1      41.968  25.473  25.731  1.00  0.00    -0.246 OA
BRANCH  32  34
ATOM     34  C   UNL A   1      40.364  26.311  27.301  1.00  0.00     0.060 A 
ATOM     35  C   UNL A   1      40.387  27.596  26.762  1.00  0.00     0.016 A 
ATOM     36  C   UNL A   1      39.662  26.017  28.488  1.00  0.00     0.016 A 
ATOM     37  C   UNL A   1      39.981  28.633  27.572  1.00  0.00     0.010 A 
ATOM     38  C   UNL A   1      39.247  27.045  29.289  1.00  0.00     0.010 A 
ATOM     39  C   UNL A   1      39.559  28.330  28.869  1.00  0.00    -0.014 A 
BRANCH  39  40
ATOM     40  C   UNL A   1      39.774  29.335  29.886  1.00  0.00     0.031 A 
ATOM     41  C   UNL A   1      38.638  30.210  30.196  1.00  0.00     0.074 A 
ATOM     42  C   UNL A   1      40.929  29.334  30.581  1.00  0.00     0.049 A 
ATOM     43  N   UNL A   1      38.549  31.481  30.002  1.00  0.00    -0.248 NA
ATOM     44  C   UNL A   1      37.399  29.577  30.664  1.00  0.00     0.031 C 
ATOM     45  C   UNL A   1      41.967  28.294  30.599  1.00  0.00     0.029 A 
ATOM     46  N   UNL A   1      41.352  30.207  31.530  1.00  0.00    -0.354 N 
ATOM     47  C   UNL A   1      37.312  31.850  30.514  1.00  0.00     0.074 A 
ATOM     48  C   UNL A   1      36.581  30.627  30.707  1.00  0.00     0.031 C 
ATOM     49  C   UNL A   1      42.763  28.483  31.673  1.00  0.00     0.029 A 
ATOM     50  C   UNL A   1      42.363  29.711  32.340  1.00  0.00     0.049 A 
ATOM     51  H   UNL A   1      40.975  31.111  31.633  1.00  0.00     0.167 HD
ATOM     52  C   UNL A   1      37.074  33.117  30.946  1.00  0.00     0.034 A 
ATOM     53  C   UNL A   1      42.750  30.214  33.539  1.00  0.00     0.034 A 
ATOM     54  C   UNL A   1      38.079  34.033  30.450  1.00  0.00     0.049 A 
ATOM     55  C   UNL A   1      42.285  31.627  33.589  1.00  0.00     0.074 A 
ATOM     56  C   UNL A   1      38.510  34.391  29.186  1.00  0.00     0.029 A 
ATOM     57  N   UNL A   1      39.068  34.458  31.310  1.00  0.00    -0.354 N 
ATOM     58  N   UNL A   1      42.732  32.565  32.795  1.00  0.00    -0.248 NA
ATOM     59  C   UNL A   1      40.986  31.902  34.187  1.00  0.00     0.031 C 
ATOM     60  C   UNL A   1      39.921  34.557  29.307  1.00  0.00     0.029 A 
ATOM     61  C   UNL A   1      40.265  34.345  30.643  1.00  0.00     0.049 A 
ATOM     62  H   UNL A   1      38.940  34.783  32.231  1.00  0.00     0.167 HD
ATOM     63  C   UNL A   1      41.618  33.327  32.465  1.00  0.00     0.074 A 
ATOM     64  C   UNL A   1      40.597  32.937  33.434  1.00  0.00     0.031 C 
ATOM     65  C   UNL A   1      41.526  33.986  31.270  1.00  0.00     0.034 A 
BRANCH  52  66
ATOM     66  C   UNL A   1      36.117  33.482  32.056  1.00  0.00     0.023 A 
ATOM     67  C   UNL A   1      34.991  34.249  31.703  1.00  0.00     0.031 A 
ATOM     68  C   UNL A   1      36.354  33.350  33.444  1.00  0.00     0.131 A 
ATOM     69  C   UNL A   1      34.225  34.905  32.680  1.00  0.00     0.055 A 
ATOM     70  C   UNL A   1      35.539  33.937  34.417  1.00  0.00     0.041 A 
ATOM     71  F   UNL A   1      37.431  32.736  33.946  1.00  0.00    -0.206 F 
ATOM     72  C   UNL A   1      34.486  34.746  34.038  1.00  0.00     0.022 A 
BRANCH  69  73
ATOM     73  S   UNL A   1      33.004  36.123  32.134  1.00  0.00     0.124 S 
ATOM     74  O   UNL A   1      33.327  37.267  32.980  1.00  0.00    -0.237 OA
ATOM     75  O   UNL A   1      33.330  36.256  30.718  1.00  0.00    -0.237 OA
ATOM     76  O   UNL A   1      31.728  35.475  32.426  1.00  0.00    -0.744 OA
ENDBRANCH  69  73
ENDBRANCH  52  66
BRANCH  53  77
ATOM     77  C   UNL A   1      43.130  29.399  34.724  1.00  0.00     0.023 A 
ATOM     78  C   UNL A   1      42.412  28.259  35.127  1.00  0.00     0.031 A 
ATOM     79  C   UNL A   1      44.360  29.638  35.386  1.00  0.00     0.131 A 
ATOM     80  C   UNL A   1      42.913  27.435  36.163  1.00  0.00     0.055 A 
ATOM     81  C   UNL A   1      44.837  28.836  36.424  1.00  0.00     0.041 A 
ATOM     82  F   UNL A   1      45.186  30.621  34.992  1.00  0.00    -0.206 F 
ATOM     83  C   UNL A   1      44.114  27.724  36.815  1.00  0.00     0.022 A 
BRANCH  80  84
ATOM     84  S   UNL A   1      42.045  25.897  36.610  1.00  0.00     0.124 S 
ATOM     85  O   UNL A   1      40.897  25.919  35.712  1.00  0.00    -0.237 OA
ATOM     86  O   UNL A   1      43.058  24.881  36.346  1.00  0.00    -0.237 OA
ATOM     87  O   UNL A   1      41.724  26.087  38.025  1.00  0.00    -0.744 OA
ENDBRANCH  80  84
ENDBRANCH  53  77
BRANCH  65  88
ATOM     88  C   UNL A   1      42.769  34.125  30.411  1.00  0.00     0.023 A 
ATOM     89  C   UNL A   1      43.190  33.171  29.458  1.00  0.00     0.031 A 
ATOM     90  C   UNL A   1      43.456  35.353  30.448  1.00  0.00     0.131 A 
ATOM     91  C   UNL A   1      44.261  33.464  28.591  1.00  0.00     0.055 A 
ATOM     92  C   UNL A   1      44.505  35.646  29.577  1.00  0.00     0.041 A 
ATOM     93  F   UNL A   1      43.081  36.317  31.306  1.00  0.00    -0.206 F 
ATOM     94  C   UNL A   1      44.914  34.699  28.646  1.00  0.00     0.022 A 
BRANCH  91  95
ATOM     95  S   UNL A   1      44.820  32.237  27.365  1.00  0.00     0.124 S 
ATOM     96  O   UNL A   1      46.176  31.918  27.794  1.00  0.00    -0.237 OA
ATOM     97  O   UNL A   1      43.832  31.171  27.512  1.00  0.00    -0.237 OA
ATOM     98  O   UNL A   1      44.740  32.965  26.096  1.00  0.00    -0.744 OA
ENDBRANCH  91  95
ENDBRANCH  65  88
ENDBRANCH  39  40
ENDBRANCH  32  34
ENDBRANCH  31  32
ENDBRANCH  30  31
ENDBRANCH  29  30
ENDBRANCH  28  29
ENDBRANCH   1  28
TORSDOF 22
ENDMDL
