MODEL 1
REMARK VINA RESULT:     -10.7      0.000      0.000
REMARK SMILES C[C@H]1CC[C@@](NC(=O)N[C@H]2CCOC2)(C(=O)OCCOCCOCCOC(=O)c2ccc(-c3c4nc(c(-c5cc(S(=O)(=O)[O-])ccc5F)c5ccc([nH]5)c(-c5cc(S(=O)(=O)[O-])ccc5F)c5nc(c(-c6cc(S(=O)(=O)[O-])ccc6F)c6ccc3[nH]6)C=C5)C=C4)cc2)CC1
REMARK SMILES IDX 22 1 21 2 20 3 19 4 18 5 17 6 15 7 16 8 5 9 1 10 2 11 93 12
REMARK SMILES IDX 3 13 92 14 4 15 6 16 7 17 8 19 9 20 10 22 11 23 14 24 12 25
REMARK SMILES IDX 13 26 23 27 24 28 25 29 26 30 27 31 28 32 29 33 30 34 91 35
REMARK SMILES IDX 31 36 90 37 32 38 33 39 34 40 84 41 35 42 89 43 83 44 85 45
REMARK SMILES IDX 36 46 88 47 82 48 81 49 37 51 69 52 49 53 68 54 50 55 53 56
REMARK SMILES IDX 67 57 86 58 51 59 52 60 66 62 87 63 54 64 38 65 39 66 47 67
REMARK SMILES IDX 40 68 46 69 48 70 45 71 41 72 42 73 43 74 44 75 70 76 71 77
REMARK SMILES IDX 79 78 72 79 78 80 80 81 77 82 73 83 74 84 75 85 76 86 55 87
REMARK SMILES IDX 56 88 64 89 57 90 63 91 65 92 62 93 58 94 59 95 60 96 61 97
REMARK H PARENT 6 18 9 21 85 50 53 61
REMARK Flexibility Score: inf
ROOT
ATOM      1  C   UNL A   1      33.877  21.496  26.580  1.00  0.00     0.188 C 
ENDROOT
BRANCH   1   2
ATOM      2  C   UNL A   1      32.848  21.077  25.516  1.00  0.00     0.188 C 
BRANCH   2   3
ATOM      3  O   UNL A   1      31.509  21.342  25.930  1.00  0.00    -0.376 OA
BRANCH   3   4
ATOM      4  C   UNL A   1      31.062  22.666  25.660  1.00  0.00     0.202 C 
BRANCH   4   5
ATOM      5  C   UNL A   1      31.128  23.585  26.883  1.00  0.00     0.261 C 
BRANCH   5   6
ATOM      6  O   UNL A   1      31.144  25.027  26.726  1.00  0.00    -0.461 OA
BRANCH   6   7
ATOM      7  C   UNL A   1      32.124  25.774  26.153  1.00  0.00     0.331 C 
ATOM      8  O   UNL A   1      33.286  25.426  25.990  1.00  0.00    -0.249 OA
BRANCH   7   9
ATOM      9  C   UNL A   1      31.596  27.153  25.752  1.00  0.00     0.139 C 
ATOM     10  C   UNL A   1      35.199  29.153  27.348  1.00  0.00     0.007 C 
ATOM     11  C   UNL A   1      33.842  29.012  26.651  1.00  0.00    -0.014 C 
ATOM     12  C   UNL A   1      32.771  28.494  27.620  1.00  0.00     0.006 C 
ATOM     13  C   UNL A   1      33.982  28.114  25.419  1.00  0.00     0.006 C 
ATOM     14  C   UNL A   1      31.441  28.132  26.930  1.00  0.00     0.041 C 
ATOM     15  C   UNL A   1      32.636  27.775  24.771  1.00  0.00     0.041 C 
BRANCH   9  16
ATOM     16  N   UNL A   1      30.318  26.966  25.005  1.00  0.00    -0.322 N 
ATOM     17  C   UNL A   1      29.791  26.161  24.081  1.00  0.00     0.316 C 
ATOM     18  H   UNL A   1      29.660  27.645  25.279  1.00  0.00     0.166 HD
ATOM     19  O   UNL A   1      28.562  26.214  23.957  1.00  0.00    -0.249 OA
ATOM     20  N   UNL A   1      30.427  25.347  23.239  1.00  0.00    -0.333 N 
ATOM     21  H   UNL A   1      29.795  24.770  22.751  1.00  0.00     0.165 HD
BRANCH  20  22
ATOM     22  C   UNL A   1      31.795  25.078  22.848  1.00  0.00     0.112 C 
ATOM     23  C   UNL A   1      32.098  23.648  22.477  1.00  0.00     0.056 C 
ATOM     24  C   UNL A   1      32.291  25.813  21.601  1.00  0.00     0.185 C 
ATOM     25  C   UNL A   1      33.436  23.792  21.780  1.00  0.00     0.162 C 
ATOM     26  O   UNL A   1      33.411  25.061  21.101  1.00  0.00    -0.379 OA
ENDBRANCH  20  22
ENDBRANCH   9  16
ENDBRANCH   7   9
ENDBRANCH   6   7
ENDBRANCH   5   6
ENDBRANCH   4   5
ENDBRANCH   3   4
ENDBRANCH   2   3
ENDBRANCH   1   2
BRANCH   1  27
ATOM     27  O   UNL A   1      35.220  21.687  26.146  1.00  0.00    -0.376 OA
BRANCH  27  28
ATOM     28  C   UNL A   1      35.607  20.920  25.016  1.00  0.00     0.202 C 
BRANCH  28  29
ATOM     29  C   UNL A   1      37.120  20.793  24.770  1.00  0.00     0.261 C 
BRANCH  29  30
ATOM     30  O   UNL A   1      37.886  21.958  25.166  1.00  0.00    -0.460 OA
BRANCH  30  31
ATOM     31  C   UNL A   1      38.989  21.710  25.917  1.00  0.00     0.338 C 
ATOM     32  O   UNL A   1      39.633  20.676  25.933  1.00  0.00    -0.246 OA
BRANCH  31  33
ATOM     33  C   UNL A   1      39.390  22.885  26.727  1.00  0.00     0.060 A 
ATOM     34  C   UNL A   1      39.002  24.170  26.329  1.00  0.00     0.016 A 
ATOM     35  C   UNL A   1      40.381  22.744  27.697  1.00  0.00     0.016 A 
ATOM     36  C   UNL A   1      39.661  25.300  26.816  1.00  0.00     0.010 A 
ATOM     37  C   UNL A   1      41.019  23.884  28.214  1.00  0.00     0.010 A 
ATOM     38  C   UNL A   1      40.711  25.171  27.728  1.00  0.00    -0.014 A 
BRANCH  38  39
ATOM     39  C   UNL A   1      41.613  26.333  27.991  1.00  0.00     0.031 A 
ATOM     40  C   UNL A   1      41.091  27.484  28.821  1.00  0.00     0.074 A 
ATOM     41  C   UNL A   1      42.903  26.350  27.601  1.00  0.00     0.049 A 
ATOM     42  N   UNL A   1      41.596  28.675  29.012  1.00  0.00    -0.248 NA
ATOM     43  C   UNL A   1      39.819  27.253  29.523  1.00  0.00     0.031 C 
ATOM     44  C   UNL A   1      43.597  25.261  26.915  1.00  0.00     0.029 A 
ATOM     45  N   UNL A   1      43.865  27.324  27.736  1.00  0.00    -0.354 N 
ATOM     46  C   UNL A   1      40.674  29.358  29.802  1.00  0.00     0.074 A 
ATOM     47  C   UNL A   1      39.579  28.444  30.048  1.00  0.00     0.031 C 
ATOM     48  C   UNL A   1      44.875  25.620  26.704  1.00  0.00     0.029 A 
ATOM     49  C   UNL A   1      45.069  26.996  27.154  1.00  0.00     0.049 A 
ATOM     50  H   UNL A   1      43.709  28.174  28.207  1.00  0.00     0.167 HD
ATOM     51  C   UNL A   1      40.732  30.630  30.271  1.00  0.00     0.034 A 
ATOM     52  C   UNL A   1      46.180  27.736  26.951  1.00  0.00     0.034 A 
ATOM     53  C   UNL A   1      41.856  31.514  30.063  1.00  0.00     0.049 A 
ATOM     54  C   UNL A   1      46.196  29.177  27.405  1.00  0.00     0.074 A 
ATOM     55  C   UNL A   1      42.012  32.826  30.477  1.00  0.00     0.029 A 
ATOM     56  N   UNL A   1      43.026  31.169  29.397  1.00  0.00    -0.354 N 
ATOM     57  N   UNL A   1      45.267  29.857  28.038  1.00  0.00    -0.248 NA
ATOM     58  C   UNL A   1      47.405  29.952  27.100  1.00  0.00     0.031 C 
ATOM     59  C   UNL A   1      43.247  33.292  30.009  1.00  0.00     0.029 A 
ATOM     60  C   UNL A   1      43.897  32.249  29.368  1.00  0.00     0.049 A 
ATOM     61  H   UNL A   1      43.210  30.286  29.003  1.00  0.00     0.167 HD
ATOM     62  C   UNL A   1      45.789  31.137  28.214  1.00  0.00     0.074 A 
ATOM     63  C   UNL A   1      47.123  31.123  27.651  1.00  0.00     0.031 C 
ATOM     64  C   UNL A   1      45.216  32.231  28.781  1.00  0.00     0.034 A 
BRANCH  51  65
ATOM     65  C   UNL A   1      39.509  31.165  30.977  1.00  0.00     0.023 A 
ATOM     66  C   UNL A   1      39.446  31.312  32.374  1.00  0.00     0.031 A 
ATOM     67  C   UNL A   1      38.362  31.492  30.230  1.00  0.00     0.131 A 
ATOM     68  C   UNL A   1      38.242  31.702  32.983  1.00  0.00     0.055 A 
ATOM     69  C   UNL A   1      37.193  31.957  30.835  1.00  0.00     0.041 A 
ATOM     70  F   UNL A   1      38.353  31.349  28.895  1.00  0.00    -0.206 F 
ATOM     71  C   UNL A   1      37.123  32.048  32.221  1.00  0.00     0.022 A 
BRANCH  68  72
ATOM     72  S   UNL A   1      38.109  31.606  34.790  1.00  0.00     0.124 S 
ATOM     73  O   UNL A   1      36.894  32.378  35.036  1.00  0.00    -0.237 OA
ATOM     74  O   UNL A   1      38.012  30.169  35.022  1.00  0.00    -0.237 OA
ATOM     75  O   UNL A   1      39.343  32.233  35.258  1.00  0.00    -0.744 OA
ENDBRANCH  68  72
ENDBRANCH  51  65
BRANCH  52  76
ATOM     76  C   UNL A   1      47.339  27.174  26.194  1.00  0.00     0.023 A 
ATOM     77  C   UNL A   1      48.369  26.475  26.844  1.00  0.00     0.031 A 
ATOM     78  C   UNL A   1      47.467  27.395  24.810  1.00  0.00     0.131 A 
ATOM     79  C   UNL A   1      49.497  26.058  26.119  1.00  0.00     0.055 A 
ATOM     80  C   UNL A   1      48.561  26.926  24.082  1.00  0.00     0.041 A 
ATOM     81  F   UNL A   1      46.518  28.068  24.139  1.00  0.00    -0.206 F 
ATOM     82  C   UNL A   1      49.592  26.264  24.741  1.00  0.00     0.022 A 
BRANCH  79  83
ATOM     83  S   UNL A   1      50.887  25.314  27.018  1.00  0.00     0.124 S 
ATOM     84  O   UNL A   1      50.217  24.279  27.797  1.00  0.00    -0.237 OA
ATOM     85  O   UNL A   1      51.737  24.848  25.928  1.00  0.00    -0.237 OA
ATOM     86  O   UNL A   1      51.427  26.429  27.793  1.00  0.00    -0.744 OA
ENDBRANCH  79  83
ENDBRANCH  52  76
BRANCH  64  87
ATOM     87  C   UNL A   1      46.054  33.486  28.841  1.00  0.00     0.023 A 
ATOM     88  C   UNL A   1      46.080  34.407  27.778  1.00  0.00     0.031 A 
ATOM     89  C   UNL A   1      46.872  33.743  29.956  1.00  0.00     0.131 A 
ATOM     90  C   UNL A   1      46.960  35.500  27.819  1.00  0.00     0.055 A 
ATOM     91  C   UNL A   1      47.698  34.867  30.018  1.00  0.00     0.041 A 
ATOM     92  F   UNL A   1      46.891  32.899  30.999  1.00  0.00    -0.206 F 
ATOM     93  C   UNL A   1      47.757  35.744  28.938  1.00  0.00     0.022 A 
BRANCH  90  94
ATOM     94  S   UNL A   1      47.138  36.529  26.335  1.00  0.00     0.124 S 
ATOM     95  O   UNL A   1      46.120  37.552  26.550  1.00  0.00    -0.237 OA
ATOM     96  O   UNL A   1      48.523  36.979  26.433  1.00  0.00    -0.237 OA
ATOM     97  O   UNL A   1      46.864  35.601  25.239  1.00  0.00    -0.744 OA
ENDBRANCH  90  94
ENDBRANCH  64  87
ENDBRANCH  38  39
ENDBRANCH  31  33
ENDBRANCH  30  31
ENDBRANCH  29  30
ENDBRANCH  28  29
ENDBRANCH  27  28
ENDBRANCH   1  27
TORSDOF 22
ENDMDL
MODEL 2
REMARK VINA RESULT:     -10.6      1.863      2.707
REMARK SMILES C[C@H]1CC[C@@](NC(=O)N[C@H]2CCOC2)(C(=O)OCCOCCOCCOC(=O)c2ccc(-c3c4nc(c(-c5cc(S(=O)(=O)[O-])ccc5F)c5ccc([nH]5)c(-c5cc(S(=O)(=O)[O-])ccc5F)c5nc(c(-c6cc(S(=O)(=O)[O-])ccc6F)c6ccc3[nH]6)C=C5)C=C4)cc2)CC1
REMARK SMILES IDX 22 1 21 2 20 3 19 4 18 5 17 6 15 7 16 8 5 9 1 10 2 11 93 12
REMARK SMILES IDX 3 13 92 14 4 15 6 16 7 17 8 19 9 20 10 22 11 23 14 24 12 25
REMARK SMILES IDX 13 26 23 27 24 28 25 29 26 30 27 31 28 32 29 33 30 34 91 35
REMARK SMILES IDX 31 36 90 37 32 38 33 39 34 40 84 41 35 42 89 43 83 44 85 45
REMARK SMILES IDX 36 46 88 47 82 48 81 49 37 51 69 52 49 53 68 54 50 55 53 56
REMARK SMILES IDX 67 57 86 58 51 59 52 60 66 62 87 63 54 64 38 65 39 66 47 67
REMARK SMILES IDX 40 68 46 69 48 70 45 71 41 72 42 73 43 74 44 75 70 76 71 77
REMARK SMILES IDX 79 78 72 79 78 80 80 81 77 82 73 83 74 84 75 85 76 86 55 87
REMARK SMILES IDX 56 88 64 89 57 90 63 91 65 92 62 93 58 94 59 95 60 96 61 97
REMARK H PARENT 6 18 9 21 85 50 53 61
REMARK Flexibility Score: inf
ROOT
ATOM      1  C   UNL A   1      33.933  21.934  26.753  1.00  0.00     0.188 C 
ENDROOT
BRANCH   1   2
ATOM      2  C   UNL A   1      32.959  22.246  25.602  1.00  0.00     0.188 C 
BRANCH   2   3
ATOM      3  O   UNL A   1      31.610  22.345  26.052  1.00  0.00    -0.376 OA
BRANCH   3   4
ATOM      4  C   UNL A   1      31.026  23.632  25.879  1.00  0.00     0.202 C 
BRANCH   4   5
ATOM      5  C   UNL A   1      31.744  24.730  26.668  1.00  0.00     0.261 C 
BRANCH   5   6
ATOM      6  O   UNL A   1      31.589  26.126  26.303  1.00  0.00    -0.461 OA
BRANCH   6   7
ATOM      7  C   UNL A   1      31.244  26.617  25.084  1.00  0.00     0.331 C 
ATOM      8  O   UNL A   1      30.149  26.498  24.549  1.00  0.00    -0.249 OA
BRANCH   7   9
ATOM      9  C   UNL A   1      32.427  27.330  24.427  1.00  0.00     0.139 C 
ATOM     10  C   UNL A   1      33.155  23.921  21.710  1.00  0.00     0.007 C 
ATOM     11  C   UNL A   1      33.340  25.310  22.330  1.00  0.00    -0.014 C 
ATOM     12  C   UNL A   1      33.763  25.210  23.802  1.00  0.00     0.006 C 
ATOM     13  C   UNL A   1      32.059  26.131  22.157  1.00  0.00     0.006 C 
ATOM     14  C   UNL A   1      33.759  26.565  24.536  1.00  0.00     0.041 C 
ATOM     15  C   UNL A   1      32.097  27.464  22.909  1.00  0.00     0.041 C 
BRANCH   9  16
ATOM     16  N   UNL A   1      32.521  28.705  24.998  1.00  0.00    -0.322 N 
ATOM     17  C   UNL A   1      31.764  29.792  25.155  1.00  0.00     0.316 C 
ATOM     18  H   UNL A   1      33.416  28.857  25.377  1.00  0.00     0.166 HD
ATOM     19  O   UNL A   1      32.187  30.633  25.957  1.00  0.00    -0.249 OA
ATOM     20  N   UNL A   1      30.638  30.111  24.517  1.00  0.00    -0.333 N 
ATOM     21  H   UNL A   1      30.213  30.906  24.913  1.00  0.00     0.165 HD
BRANCH  20  22
ATOM     22  C   UNL A   1      29.869  29.605  23.400  1.00  0.00     0.112 C 
ATOM     23  C   UNL A   1      28.416  30.009  23.373  1.00  0.00     0.056 C 
ATOM     24  C   UNL A   1      30.323  30.063  22.012  1.00  0.00     0.185 C 
ATOM     25  C   UNL A   1      28.030  29.659  21.950  1.00  0.00     0.162 C 
ATOM     26  O   UNL A   1      29.192  29.901  21.137  1.00  0.00    -0.379 OA
ENDBRANCH  20  22
ENDBRANCH   9  16
ENDBRANCH   7   9
ENDBRANCH   6   7
ENDBRANCH   5   6
ENDBRANCH   4   5
ENDBRANCH   3   4
ENDBRANCH   2   3
ENDBRANCH   1   2
BRANCH   1  27
ATOM     27  O   UNL A   1      35.279  21.629  26.401  1.00  0.00    -0.376 OA
BRANCH  27  28
ATOM     28  C   UNL A   1      35.432  20.719  25.322  1.00  0.00     0.202 C 
BRANCH  28  29
ATOM     29  C   UNL A   1      36.872  20.487  24.833  1.00  0.00     0.261 C 
BRANCH  29  30
ATOM     30  O   UNL A   1      37.746  21.631  24.995  1.00  0.00    -0.460 OA
BRANCH  30  31
ATOM     31  C   UNL A   1      38.881  21.410  25.705  1.00  0.00     0.338 C 
ATOM     32  O   UNL A   1      39.576  20.410  25.661  1.00  0.00    -0.246 OA
BRANCH  31  33
ATOM     33  C   UNL A   1      39.246  22.570  26.553  1.00  0.00     0.060 A 
ATOM     34  C   UNL A   1      38.825  23.855  26.192  1.00  0.00     0.016 A 
ATOM     35  C   UNL A   1      40.236  22.425  27.524  1.00  0.00     0.016 A 
ATOM     36  C   UNL A   1      39.451  24.987  26.717  1.00  0.00     0.010 A 
ATOM     37  C   UNL A   1      40.840  23.566  28.079  1.00  0.00     0.010 A 
ATOM     38  C   UNL A   1      40.500  24.858  27.631  1.00  0.00    -0.014 A 
BRANCH  38  39
ATOM     39  C   UNL A   1      41.369  26.036  27.935  1.00  0.00     0.031 A 
ATOM     40  C   UNL A   1      40.800  27.163  28.766  1.00  0.00     0.074 A 
ATOM     41  C   UNL A   1      42.668  26.087  27.579  1.00  0.00     0.049 A 
ATOM     42  N   UNL A   1      41.273  28.362  28.988  1.00  0.00    -0.248 NA
ATOM     43  C   UNL A   1      39.516  26.894  29.431  1.00  0.00     0.031 C 
ATOM     44  C   UNL A   1      43.403  25.023  26.896  1.00  0.00     0.029 A 
ATOM     45  N   UNL A   1      43.604  27.079  27.753  1.00  0.00    -0.354 N 
ATOM     46  C   UNL A   1      40.316  29.012  29.763  1.00  0.00     0.074 A 
ATOM     47  C   UNL A   1      39.235  28.071  29.967  1.00  0.00     0.031 C 
ATOM     48  C   UNL A   1      44.678  25.414  26.723  1.00  0.00     0.029 A 
ATOM     49  C   UNL A   1      44.830  26.787  27.198  1.00  0.00     0.049 A 
ATOM     50  H   UNL A   1      43.417  27.919  28.232  1.00  0.00     0.167 HD
ATOM     51  C   UNL A   1      40.334  30.278  30.252  1.00  0.00     0.034 A 
ATOM     52  C   UNL A   1      45.929  27.554  27.035  1.00  0.00     0.034 A 
ATOM     53  C   UNL A   1      41.443  31.189  30.086  1.00  0.00     0.049 A 
ATOM     54  C   UNL A   1      45.901  28.988  27.510  1.00  0.00     0.074 A 
ATOM     55  C   UNL A   1      41.559  32.498  30.523  1.00  0.00     0.029 A 
ATOM     56  N   UNL A   1      42.637  30.880  29.447  1.00  0.00    -0.354 N 
ATOM     57  N   UNL A   1      44.941  29.638  28.128  1.00  0.00    -0.248 NA
ATOM     58  C   UNL A   1      47.100  29.793  27.249  1.00  0.00     0.031 C 
ATOM     59  C   UNL A   1      42.795  32.998  30.095  1.00  0.00     0.029 A 
ATOM     60  C   UNL A   1      43.484  31.979  29.456  1.00  0.00     0.049 A 
ATOM     61  H   UNL A   1      42.851  30.007  29.045  1.00  0.00     0.167 HD
ATOM     62  C   UNL A   1      45.429  30.926  28.336  1.00  0.00     0.074 A 
ATOM     63  C   UNL A   1      46.778  30.949  27.809  1.00  0.00     0.031 C 
ATOM     64  C   UNL A   1      44.818  31.998  28.904  1.00  0.00     0.034 A 
BRANCH  51  65
ATOM     65  C   UNL A   1      39.081  30.775  30.933  1.00  0.00     0.023 A 
ATOM     66  C   UNL A   1      38.037  31.403  30.232  1.00  0.00     0.031 A 
ATOM     67  C   UNL A   1      38.955  30.655  32.330  1.00  0.00     0.131 A 
ATOM     68  C   UNL A   1      36.952  31.951  30.935  1.00  0.00     0.055 A 
ATOM     69  C   UNL A   1      37.834  31.130  33.015  1.00  0.00     0.041 A 
ATOM     70  F   UNL A   1      39.930  30.087  33.057  1.00  0.00    -0.206 F 
ATOM     71  C   UNL A   1      36.832  31.797  32.319  1.00  0.00     0.022 A 
BRANCH  68  72
ATOM     72  S   UNL A   1      35.772  32.998  30.039  1.00  0.00     0.124 S 
ATOM     73  O   UNL A   1      36.657  33.744  29.149  1.00  0.00    -0.237 OA
ATOM     74  O   UNL A   1      34.902  32.015  29.399  1.00  0.00    -0.237 OA
ATOM     75  O   UNL A   1      35.147  33.791  31.094  1.00  0.00    -0.744 OA
ENDBRANCH  68  72
ENDBRANCH  51  65
BRANCH  52  76
ATOM     76  C   UNL A   1      47.119  27.029  26.302  1.00  0.00     0.023 A 
ATOM     77  C   UNL A   1      48.199  26.441  26.981  1.00  0.00     0.031 A 
ATOM     78  C   UNL A   1      47.223  27.175  24.905  1.00  0.00     0.131 A 
ATOM     79  C   UNL A   1      49.349  26.060  26.270  1.00  0.00     0.055 A 
ATOM     80  C   UNL A   1      48.344  26.740  24.196  1.00  0.00     0.041 A 
ATOM     81  F   UNL A   1      46.227  27.741  24.205  1.00  0.00    -0.206 F 
ATOM     82  C   UNL A   1      49.421  26.190  24.881  1.00  0.00     0.022 A 
BRANCH  79  83
ATOM     83  S   UNL A   1      50.792  25.467  27.198  1.00  0.00     0.124 S 
ATOM     84  O   UNL A   1      50.165  24.667  28.243  1.00  0.00    -0.237 OA
ATOM     85  O   UNL A   1      51.525  24.728  26.175  1.00  0.00    -0.237 OA
ATOM     86  O   UNL A   1      51.434  26.699  27.652  1.00  0.00    -0.744 OA
ENDBRANCH  79  83
ENDBRANCH  52  76
BRANCH  64  87
ATOM     87  C   UNL A   1      45.626  33.270  29.004  1.00  0.00     0.023 A 
ATOM     88  C   UNL A   1      45.708  34.178  27.933  1.00  0.00     0.031 A 
ATOM     89  C   UNL A   1      46.361  33.558  30.169  1.00  0.00     0.131 A 
ATOM     90  C   UNL A   1      46.562  35.288  28.019  1.00  0.00     0.055 A 
ATOM     91  C   UNL A   1      47.158  34.698  30.272  1.00  0.00     0.041 A 
ATOM     92  F   UNL A   1      46.323  32.727  31.223  1.00  0.00    -0.206 F 
ATOM     93  C   UNL A   1      47.276  35.562  29.187  1.00  0.00     0.022 A 
BRANCH  90  94
ATOM     94  S   UNL A   1      46.824  36.302  26.537  1.00  0.00     0.124 S 
ATOM     95  O   UNL A   1      45.690  37.221  26.593  1.00  0.00    -0.237 OA
ATOM     96  O   UNL A   1      48.134  36.893  26.790  1.00  0.00    -0.237 OA
ATOM     97  O   UNL A   1      46.782  35.331  25.445  1.00  0.00    -0.744 OA
ENDBRANCH  90  94
ENDBRANCH  64  87
ENDBRANCH  38  39
ENDBRANCH  31  33
ENDBRANCH  30  31
ENDBRANCH  29  30
ENDBRANCH  28  29
ENDBRANCH  27  28
ENDBRANCH   1  27
TORSDOF 22
ENDMDL
MODEL 3
REMARK VINA RESULT:     -10.5      1.851      2.156
REMARK SMILES C[C@H]1CC[C@@](NC(=O)N[C@H]2CCOC2)(C(=O)OCCOCCOCCOC(=O)c2ccc(-c3c4nc(c(-c5cc(S(=O)(=O)[O-])ccc5F)c5ccc([nH]5)c(-c5cc(S(=O)(=O)[O-])ccc5F)c5nc(c(-c6cc(S(=O)(=O)[O-])ccc6F)c6ccc3[nH]6)C=C5)C=C4)cc2)CC1
REMARK SMILES IDX 22 1 21 2 20 3 19 4 18 5 17 6 15 7 16 8 5 9 1 10 2 11 93 12
REMARK SMILES IDX 3 13 92 14 4 15 6 16 7 17 8 19 9 20 10 22 11 23 14 24 12 25
REMARK SMILES IDX 13 26 23 27 24 28 25 29 26 30 27 31 28 32 29 33 30 34 91 35
REMARK SMILES IDX 31 36 90 37 32 38 33 39 34 40 84 41 35 42 89 43 83 44 85 45
REMARK SMILES IDX 36 46 88 47 82 48 81 49 37 51 69 52 49 53 68 54 50 55 53 56
REMARK SMILES IDX 67 57 86 58 51 59 52 60 66 62 87 63 54 64 38 65 39 66 47 67
REMARK SMILES IDX 40 68 46 69 48 70 45 71 41 72 42 73 43 74 44 75 70 76 71 77
REMARK SMILES IDX 79 78 72 79 78 80 80 81 77 82 73 83 74 84 75 85 76 86 55 87
REMARK SMILES IDX 56 88 64 89 57 90 63 91 65 92 62 93 58 94 59 95 60 96 61 97
REMARK H PARENT 6 18 9 21 85 50 53 61
REMARK Flexibility Score: inf
ROOT
ATOM      1  C   UNL A   1      33.788  21.426  26.504  1.00  0.00     0.188 C 
ENDROOT
BRANCH   1   2
ATOM      2  C   UNL A   1      32.715  20.988  25.491  1.00  0.00     0.188 C 
BRANCH   2   3
ATOM      3  O   UNL A   1      31.413  21.440  25.859  1.00  0.00    -0.376 OA
BRANCH   3   4
ATOM      4  C   UNL A   1      31.166  22.812  25.572  1.00  0.00     0.202 C 
BRANCH   4   5
ATOM      5  C   UNL A   1      31.082  23.685  26.827  1.00  0.00     0.261 C 
BRANCH   5   6
ATOM      6  O   UNL A   1      31.129  25.131  26.729  1.00  0.00    -0.461 OA
BRANCH   6   7
ATOM      7  C   UNL A   1      32.130  25.880  26.196  1.00  0.00     0.331 C 
ATOM      8  O   UNL A   1      33.292  25.523  26.052  1.00  0.00    -0.249 OA
BRANCH   7   9
ATOM      9  C   UNL A   1      31.627  27.274  25.814  1.00  0.00     0.139 C 
ATOM     10  C   UNL A   1      35.208  29.197  27.547  1.00  0.00     0.007 C 
ATOM     11  C   UNL A   1      33.867  29.087  26.813  1.00  0.00    -0.014 C 
ATOM     12  C   UNL A   1      32.766  28.558  27.743  1.00  0.00     0.006 C 
ATOM     13  C   UNL A   1      34.029  28.217  25.564  1.00  0.00     0.006 C 
ATOM     14  C   UNL A   1      31.451  28.227  27.011  1.00  0.00     0.041 C 
ATOM     15  C   UNL A   1      32.697  27.908  24.875  1.00  0.00     0.041 C 
BRANCH   9  16
ATOM     16  N   UNL A   1      30.366  27.117  25.031  1.00  0.00    -0.322 N 
ATOM     17  C   UNL A   1      29.832  26.304  24.119  1.00  0.00     0.316 C 
ATOM     18  H   UNL A   1      29.732  27.835  25.259  1.00  0.00     0.166 HD
ATOM     19  O   UNL A   1      28.612  26.408  23.951  1.00  0.00    -0.249 OA
ATOM     20  N   UNL A   1      30.456  25.431  23.329  1.00  0.00    -0.333 N 
ATOM     21  H   UNL A   1      29.814  24.866  22.840  1.00  0.00     0.165 HD
BRANCH  20  22
ATOM     22  C   UNL A   1      31.822  25.086  22.995  1.00  0.00     0.112 C 
ATOM     23  C   UNL A   1      31.998  23.811  22.208  1.00  0.00     0.056 C 
ATOM     24  C   UNL A   1      32.565  26.083  22.102  1.00  0.00     0.185 C 
ATOM     25  C   UNL A   1      33.425  23.952  21.717  1.00  0.00     0.162 C 
ATOM     26  O   UNL A   1      33.643  25.356  21.486  1.00  0.00    -0.379 OA
ENDBRANCH  20  22
ENDBRANCH   9  16
ENDBRANCH   7   9
ENDBRANCH   6   7
ENDBRANCH   5   6
ENDBRANCH   4   5
ENDBRANCH   3   4
ENDBRANCH   2   3
ENDBRANCH   1   2
BRANCH   1  27
ATOM     27  O   UNL A   1      35.133  21.489  26.039  1.00  0.00    -0.376 OA
BRANCH  27  28
ATOM     28  C   UNL A   1      35.465  20.562  25.017  1.00  0.00     0.202 C 
BRANCH  28  29
ATOM     29  C   UNL A   1      36.966  20.324  24.781  1.00  0.00     0.261 C 
BRANCH  29  30
ATOM     30  O   UNL A   1      37.800  21.480  25.045  1.00  0.00    -0.460 OA
BRANCH  30  31
ATOM     31  C   UNL A   1      38.896  21.253  25.811  1.00  0.00     0.338 C 
ATOM     32  O   UNL A   1      39.574  20.240  25.818  1.00  0.00    -0.246 OA
BRANCH  31  33
ATOM     33  C   UNL A   1      39.244  22.423  26.653  1.00  0.00     0.060 A 
ATOM     34  C   UNL A   1      38.737  23.687  26.330  1.00  0.00     0.016 A 
ATOM     35  C   UNL A   1      40.291  22.323  27.569  1.00  0.00     0.016 A 
ATOM     36  C   UNL A   1      39.328  24.846  26.835  1.00  0.00     0.010 A 
ATOM     37  C   UNL A   1      40.862  23.489  28.105  1.00  0.00     0.010 A 
ATOM     38  C   UNL A   1      40.430  24.765  27.691  1.00  0.00    -0.014 A 
BRANCH  38  39
ATOM     39  C   UNL A   1      41.249  25.986  27.963  1.00  0.00     0.031 A 
ATOM     40  C   UNL A   1      40.645  27.096  28.792  1.00  0.00     0.074 A 
ATOM     41  C   UNL A   1      42.538  26.091  27.581  1.00  0.00     0.049 A 
ATOM     42  N   UNL A   1      41.068  28.318  28.989  1.00  0.00    -0.248 NA
ATOM     43  C   UNL A   1      39.388  26.778  29.485  1.00  0.00     0.031 C 
ATOM     44  C   UNL A   1      43.308  25.053  26.897  1.00  0.00     0.029 A 
ATOM     45  N   UNL A   1      43.431  27.126  27.724  1.00  0.00    -0.354 N 
ATOM     46  C   UNL A   1      40.096  28.935  29.774  1.00  0.00     0.074 A 
ATOM     47  C   UNL A   1      39.064  27.948  30.012  1.00  0.00     0.031 C 
ATOM     48  C   UNL A   1      44.560  25.498  26.694  1.00  0.00     0.029 A 
ATOM     49  C   UNL A   1      44.658  26.883  27.149  1.00  0.00     0.049 A 
ATOM     50  H   UNL A   1      43.214  27.964  28.196  1.00  0.00     0.167 HD
ATOM     51  C   UNL A   1      40.066  30.206  30.247  1.00  0.00     0.034 A 
ATOM     52  C   UNL A   1      45.717  27.697  26.954  1.00  0.00     0.034 A 
ATOM     53  C   UNL A   1      41.129  31.164  30.048  1.00  0.00     0.049 A 
ATOM     54  C   UNL A   1      45.633  29.134  27.412  1.00  0.00     0.074 A 
ATOM     55  C   UNL A   1      41.194  32.483  30.466  1.00  0.00     0.029 A 
ATOM     56  N   UNL A   1      42.323  30.902  29.389  1.00  0.00    -0.354 N 
ATOM     57  N   UNL A   1      44.656  29.748  28.041  1.00  0.00    -0.248 NA
ATOM     58  C   UNL A   1      46.789  29.990  27.117  1.00  0.00     0.031 C 
ATOM     59  C   UNL A   1      42.397  33.033  30.008  1.00  0.00     0.029 A 
ATOM     60  C   UNL A   1      43.119  32.038  29.368  1.00  0.00     0.049 A 
ATOM     61  H   UNL A   1      42.569  30.034  28.994  1.00  0.00     0.167 HD
ATOM     62  C   UNL A   1      45.089  31.060  28.223  1.00  0.00     0.074 A 
ATOM     63  C   UNL A   1      46.425  31.137  27.669  1.00  0.00     0.031 C 
ATOM     64  C   UNL A   1      44.440  32.111  28.789  1.00  0.00     0.034 A 
BRANCH  51  65
ATOM     65  C   UNL A   1      38.805  30.655  30.947  1.00  0.00     0.023 A 
ATOM     66  C   UNL A   1      37.809  31.408  30.301  1.00  0.00     0.031 A 
ATOM     67  C   UNL A   1      38.623  30.357  32.310  1.00  0.00     0.131 A 
ATOM     68  C   UNL A   1      36.716  31.898  31.035  1.00  0.00     0.055 A 
ATOM     69  C   UNL A   1      37.493  30.777  33.015  1.00  0.00     0.041 A 
ATOM     70  F   UNL A   1      39.550  29.661  32.987  1.00  0.00    -0.206 F 
ATOM     71  C   UNL A   1      36.539  31.567  32.381  1.00  0.00     0.022 A 
BRANCH  68  72
ATOM     72  S   UNL A   1      35.605  33.097  30.248  1.00  0.00     0.124 S 
ATOM     73  O   UNL A   1      35.655  34.209  31.193  1.00  0.00    -0.237 OA
ATOM     74  O   UNL A   1      36.250  33.324  28.959  1.00  0.00    -0.237 OA
ATOM     75  O   UNL A   1      34.326  32.393  30.191  1.00  0.00    -0.744 OA
ENDBRANCH  68  72
ENDBRANCH  51  65
BRANCH  52  76
ATOM     76  C   UNL A   1      46.916  27.217  26.204  1.00  0.00     0.023 A 
ATOM     77  C   UNL A   1      48.005  26.623  26.864  1.00  0.00     0.031 A 
ATOM     78  C   UNL A   1      47.018  27.414  24.814  1.00  0.00     0.131 A 
ATOM     79  C   UNL A   1      49.161  26.285  26.141  1.00  0.00     0.055 A 
ATOM     80  C   UNL A   1      48.146  27.022  24.091  1.00  0.00     0.041 A 
ATOM     81  F   UNL A   1      46.014  27.988  24.134  1.00  0.00    -0.206 F 
ATOM     82  C   UNL A   1      49.232  26.465  24.758  1.00  0.00     0.022 A 
BRANCH  79  83
ATOM     83  S   UNL A   1      50.613  25.683  27.049  1.00  0.00     0.124 S 
ATOM     84  O   UNL A   1      51.636  25.690  26.010  1.00  0.00    -0.237 OA
ATOM     85  O   UNL A   1      50.752  26.689  28.096  1.00  0.00    -0.237 OA
ATOM     86  O   UNL A   1      50.199  24.360  27.512  1.00  0.00    -0.744 OA
ENDBRANCH  79  83
ENDBRANCH  52  76
BRANCH  64  87
ATOM     87  C   UNL A   1      45.191  33.420  28.858  1.00  0.00     0.023 A 
ATOM     88  C   UNL A   1      46.055  33.719  29.928  1.00  0.00     0.031 A 
ATOM     89  C   UNL A   1      45.009  34.399  27.865  1.00  0.00     0.131 A 
ATOM     90  C   UNL A   1      46.643  34.990  30.018  1.00  0.00     0.055 A 
ATOM     91  C   UNL A   1      45.648  35.637  27.928  1.00  0.00     0.041 A 
ATOM     92  F   UNL A   1      44.195  34.170  26.822  1.00  0.00    -0.206 F 
ATOM     93  C   UNL A   1      46.457  35.945  29.018  1.00  0.00     0.022 A 
BRANCH  90  94
ATOM     94  S   UNL A   1      47.555  35.420  31.527  1.00  0.00     0.124 S 
ATOM     95  O   UNL A   1      46.542  36.126  32.304  1.00  0.00    -0.237 OA
ATOM     96  O   UNL A   1      47.951  34.111  32.036  1.00  0.00    -0.237 OA
ATOM     97  O   UNL A   1      48.653  36.253  31.038  1.00  0.00    -0.744 OA
ENDBRANCH  90  94
ENDBRANCH  64  87
ENDBRANCH  38  39
ENDBRANCH  31  33
ENDBRANCH  30  31
ENDBRANCH  29  30
ENDBRANCH  28  29
ENDBRANCH  27  28
ENDBRANCH   1  27
TORSDOF 22
ENDMDL
