MODEL 1
REMARK VINA RESULT:      -9.2      0.000      0.000
REMARK SMILES O=C(CSc1ccccc1C(=O)OCCOCCOCCOC(=O)c1ccc(-c2c3nc(c(-c4cc(S(=O)(=O)[O-])ccc4F)c4ccc([nH]4)c(-c4cc(S(=O)(=O)[O-])ccc4F)c4nc(c(-c5cc(S(=O)(=O)[O-])ccc5F)c5ccc2[nH]5)C=C4)C=C3)cc1)NCc1ccc(Cl)cc1
REMARK SMILES IDX 17 1 16 2 15 3 14 4 13 5 11 6 12 7 10 8 5 9 6 10 7 11 9 12
REMARK SMILES IDX 8 13 4 14 3 15 2 16 1 17 88 18 89 20 90 21 91 22 96 23 92 24
REMARK SMILES IDX 95 25 93 26 94 27 18 28 19 29 20 30 21 31 22 32 23 33 24 34
REMARK SMILES IDX 25 35 26 36 87 37 27 38 86 39 28 40 29 41 30 42 80 43 31 44
REMARK SMILES IDX 85 45 79 46 81 47 32 48 84 49 78 50 77 51 33 53 65 54 45 55
REMARK SMILES IDX 64 56 46 57 49 58 63 59 82 60 47 61 48 62 62 64 83 65 50 66
REMARK SMILES IDX 34 67 35 68 43 69 36 70 42 71 44 72 41 73 37 74 38 75 39 76
REMARK SMILES IDX 40 77 66 78 67 79 75 80 68 81 74 82 76 83 73 84 69 85 70 86
REMARK SMILES IDX 71 87 72 88 51 89 52 90 60 91 53 92 59 93 61 94 58 95 54 96
REMARK SMILES IDX 55 97 56 98 57 99
REMARK H PARENT 88 19 81 52 49 63
REMARK Flexibility Score: inf
ROOT
ATOM      1  C   UNL A   1      34.322  32.235  28.687  1.00  0.00     0.188 C 
ENDROOT
BRANCH   1   2
ATOM      2  O   UNL A   1      34.278  31.522  27.457  1.00  0.00    -0.376 OA
BRANCH   2   3
ATOM      3  C   UNL A   1      33.341  30.464  27.314  1.00  0.00     0.202 C 
BRANCH   3   4
ATOM      4  C   UNL A   1      33.472  29.510  26.120  1.00  0.00     0.261 C 
BRANCH   4   5
ATOM      5  O   UNL A   1      32.698  29.861  24.959  1.00  0.00    -0.460 OA
BRANCH   5   6
ATOM      6  C   UNL A   1      32.610  28.930  23.975  1.00  0.00     0.339 C 
ATOM      7  O   UNL A   1      33.558  28.444  23.377  1.00  0.00    -0.246 OA
BRANCH   6   8
ATOM      8  C   UNL A   1      31.222  28.411  23.816  1.00  0.00     0.073 A 
ATOM      9  C   UNL A   1      30.782  27.113  24.143  1.00  0.00     0.022 A 
ATOM     10  C   UNL A   1      29.436  26.778  23.895  1.00  0.00     0.016 A 
ATOM     11  C   UNL A   1      28.552  27.698  23.321  1.00  0.00     0.001 A 
ATOM     12  C   UNL A   1      30.318  29.327  23.239  1.00  0.00     0.017 A 
ATOM     13  C   UNL A   1      28.996  28.969  22.982  1.00  0.00     0.001 A 
BRANCH   9  14
ATOM     14  S   UNL A   1      31.834  25.782  24.727  1.00  0.00    -0.115 SA
BRANCH  14  15
ATOM     15  C   UNL A   1      30.729  24.355  24.559  1.00  0.00     0.174 C 
BRANCH  15  16
ATOM     16  C   UNL A   1      31.369  23.055  25.002  1.00  0.00     0.230 C 
ATOM     17  O   UNL A   1      31.197  22.600  26.129  1.00  0.00    -0.274 OA
ATOM     18  N   UNL A   1      32.083  22.395  24.027  1.00  0.00    -0.351 N 
ATOM     19  H   UNL A   1      32.164  22.796  23.131  1.00  0.00     0.163 HD
BRANCH  18  20
ATOM     20  C   UNL A   1      32.718  21.122  24.295  1.00  0.00     0.151 C 
BRANCH  20  21
ATOM     21  C   UNL A   1      34.204  21.240  24.538  1.00  0.00    -0.029 A 
ATOM     22  C   UNL A   1      34.799  22.511  24.622  1.00  0.00     0.007 A 
ATOM     23  C   UNL A   1      34.999  20.108  24.775  1.00  0.00     0.007 A 
ATOM     24  C   UNL A   1      36.153  22.644  24.944  1.00  0.00     0.021 A 
ATOM     25  C   UNL A   1      36.354  20.241  25.090  1.00  0.00     0.021 A 
ATOM     26  C   UNL A   1      36.921  21.508  25.185  1.00  0.00     0.041 A 
ATOM     27  Cl  UNL A   1      38.576  21.669  25.628  1.00  0.00    -0.084 Cl
ENDBRANCH  20  21
ENDBRANCH  18  20
ENDBRANCH  15  16
ENDBRANCH  14  15
ENDBRANCH   9  14
ENDBRANCH   6   8
ENDBRANCH   5   6
ENDBRANCH   4   5
ENDBRANCH   3   4
ENDBRANCH   2   3
ENDBRANCH   1   2
BRANCH   1  28
ATOM     28  C   UNL A   1      35.465  31.953  29.690  1.00  0.00     0.188 C 
BRANCH  28  29
ATOM     29  O   UNL A   1      36.589  31.313  29.112  1.00  0.00    -0.376 OA
BRANCH  29  30
ATOM     30  C   UNL A   1      36.596  29.894  29.163  1.00  0.00     0.202 C 
BRANCH  30  31
ATOM     31  C   UNL A   1      37.325  29.190  30.326  1.00  0.00     0.261 C 
BRANCH  31  32
ATOM     32  O   UNL A   1      36.755  29.329  31.638  1.00  0.00    -0.460 OA
BRANCH  32  33
ATOM     33  C   UNL A   1      37.481  28.871  32.685  1.00  0.00     0.338 C 
ATOM     34  O   UNL A   1      37.762  27.706  32.912  1.00  0.00    -0.246 OA
BRANCH  33  35
ATOM     35  C   UNL A   1      38.081  30.040  33.376  1.00  0.00     0.060 A 
ATOM     36  C   UNL A   1      39.368  29.913  33.919  1.00  0.00     0.016 A 
ATOM     37  C   UNL A   1      37.402  31.259  33.462  1.00  0.00     0.016 A 
ATOM     38  C   UNL A   1      39.960  30.989  34.585  1.00  0.00     0.010 A 
ATOM     39  C   UNL A   1      37.985  32.328  34.155  1.00  0.00     0.010 A 
ATOM     40  C   UNL A   1      39.249  32.184  34.756  1.00  0.00    -0.014 A 
BRANCH  40  41
ATOM     41  C   UNL A   1      39.715  33.161  35.777  1.00  0.00     0.031 A 
ATOM     42  C   UNL A   1      39.072  33.106  37.140  1.00  0.00     0.074 A 
ATOM     43  C   UNL A   1      40.710  34.033  35.536  1.00  0.00     0.049 A 
ATOM     44  N   UNL A   1      39.292  33.841  38.199  1.00  0.00    -0.248 NA
ATOM     45  C   UNL A   1      38.034  32.080  37.324  1.00  0.00     0.031 C 
ATOM     46  C   UNL A   1      41.445  34.153  34.279  1.00  0.00     0.029 A 
ATOM     47  N   UNL A   1      41.276  34.987  36.347  1.00  0.00    -0.354 N 
ATOM     48  C   UNL A   1      38.421  33.365  39.175  1.00  0.00     0.074 A 
ATOM     49  C   UNL A   1      37.638  32.313  38.564  1.00  0.00     0.031 C 
ATOM     50  C   UNL A   1      42.363  35.129  34.401  1.00  0.00     0.029 A 
ATOM     51  C   UNL A   1      42.260  35.728  35.732  1.00  0.00     0.049 A 
ATOM     52  H   UNL A   1      41.002  35.129  37.282  1.00  0.00     0.167 HD
ATOM     53  C   UNL A   1      38.293  33.759  40.466  1.00  0.00     0.034 A 
ATOM     54  C   UNL A   1      42.976  36.778  36.187  1.00  0.00     0.034 A 
ATOM     55  C   UNL A   1      39.065  34.822  41.058  1.00  0.00     0.049 A 
ATOM     56  C   UNL A   1      42.751  37.264  37.603  1.00  0.00     0.074 A 
ATOM     57  C   UNL A   1      39.019  35.301  42.355  1.00  0.00     0.029 A 
ATOM     58  N   UNL A   1      40.014  35.585  40.387  1.00  0.00    -0.354 N 
ATOM     59  N   UNL A   1      41.934  36.799  38.520  1.00  0.00    -0.248 NA
ATOM     60  C   UNL A   1      43.558  38.410  38.046  1.00  0.00     0.031 C 
ATOM     61  C   UNL A   1      39.879  36.402  42.447  1.00  0.00     0.029 A 
ATOM     62  C   UNL A   1      40.534  36.551  41.235  1.00  0.00     0.049 A 
ATOM     63  H   UNL A   1      40.280  35.456  39.448  1.00  0.00     0.167 HD
ATOM     64  C   UNL A   1      42.158  37.571  39.659  1.00  0.00     0.074 A 
ATOM     65  C   UNL A   1      43.197  38.520  39.316  1.00  0.00     0.031 C 
ATOM     66  C   UNL A   1      41.566  37.499  40.880  1.00  0.00     0.034 A 
BRANCH  53  67
ATOM     67  C   UNL A   1      37.236  33.068  41.296  1.00  0.00     0.023 A 
ATOM     68  C   UNL A   1      35.940  33.596  41.437  1.00  0.00     0.031 A 
ATOM     69  C   UNL A   1      37.543  31.886  41.992  1.00  0.00     0.131 A 
ATOM     70  C   UNL A   1      35.028  32.988  42.312  1.00  0.00     0.055 A 
ATOM     71  C   UNL A   1      36.602  31.237  42.794  1.00  0.00     0.041 A 
ATOM     72  F   UNL A   1      38.772  31.349  41.919  1.00  0.00    -0.206 F 
ATOM     73  C   UNL A   1      35.341  31.797  42.970  1.00  0.00     0.022 A 
BRANCH  70  74
ATOM     74  S   UNL A   1      33.485  33.860  42.701  1.00  0.00     0.124 S 
ATOM     75  O   UNL A   1      32.567  32.746  42.933  1.00  0.00    -0.237 OA
ATOM     76  O   UNL A   1      33.852  34.640  43.877  1.00  0.00    -0.237 OA
ATOM     77  O   UNL A   1      33.216  34.638  41.495  1.00  0.00    -0.744 OA
ENDBRANCH  70  74
ENDBRANCH  53  67
BRANCH  54  78
ATOM     78  C   UNL A   1      43.951  37.478  35.297  1.00  0.00     0.023 A 
ATOM     79  C   UNL A   1      43.539  38.482  34.404  1.00  0.00     0.031 A 
ATOM     80  C   UNL A   1      45.307  37.100  35.277  1.00  0.00     0.131 A 
ATOM     81  C   UNL A   1      44.457  39.035  33.497  1.00  0.00     0.055 A 
ATOM     82  C   UNL A   1      46.228  37.694  34.414  1.00  0.00     0.041 A 
ATOM     83  F   UNL A   1      45.756  36.139  36.101  1.00  0.00    -0.206 F 
ATOM     84  C   UNL A   1      45.802  38.659  33.506  1.00  0.00     0.022 A 
BRANCH  81  85
ATOM     85  S   UNL A   1      43.848  40.187  32.235  1.00  0.00     0.124 S 
ATOM     86  O   UNL A   1      43.663  39.302  31.090  1.00  0.00    -0.237 OA
ATOM     87  O   UNL A   1      42.629  40.698  32.853  1.00  0.00    -0.237 OA
ATOM     88  O   UNL A   1      44.933  41.157  32.106  1.00  0.00    -0.744 OA
ENDBRANCH  81  85
ENDBRANCH  54  78
BRANCH  66  89
ATOM     89  C   UNL A   1      42.073  38.436  41.954  1.00  0.00     0.023 A 
ATOM     90  C   UNL A   1      41.549  39.730  42.125  1.00  0.00     0.031 A 
ATOM     91  C   UNL A   1      43.113  38.029  42.811  1.00  0.00     0.131 A 
ATOM     92  C   UNL A   1      42.110  40.591  43.081  1.00  0.00     0.055 A 
ATOM     93  C   UNL A   1      43.616  38.865  43.808  1.00  0.00     0.041 A 
ATOM     94  F   UNL A   1      43.655  36.807  42.695  1.00  0.00    -0.206 F 
ATOM     95  C   UNL A   1      43.127  40.160  43.936  1.00  0.00     0.022 A 
BRANCH  92  96
ATOM     96  S   UNL A   1      41.574  42.324  43.113  1.00  0.00     0.124 S 
ATOM     97  O   UNL A   1      40.516  42.333  42.109  1.00  0.00    -0.237 OA
ATOM     98  O   UNL A   1      41.140  42.491  44.497  1.00  0.00    -0.237 OA
ATOM     99  O   UNL A   1      42.781  43.064  42.751  1.00  0.00    -0.744 OA
ENDBRANCH  92  96
ENDBRANCH  66  89
ENDBRANCH  40  41
ENDBRANCH  33  35
ENDBRANCH  32  33
ENDBRANCH  31  32
ENDBRANCH  30  31
ENDBRANCH  29  30
ENDBRANCH  28  29
ENDBRANCH   1  28
TORSDOF 25
ENDMDL
MODEL 2
REMARK VINA RESULT:      -8.8      6.699     11.283
REMARK SMILES O=C(CSc1ccccc1C(=O)OCCOCCOCCOC(=O)c1ccc(-c2c3nc(c(-c4cc(S(=O)(=O)[O-])ccc4F)c4ccc([nH]4)c(-c4cc(S(=O)(=O)[O-])ccc4F)c4nc(c(-c5cc(S(=O)(=O)[O-])ccc5F)c5ccc2[nH]5)C=C4)C=C3)cc1)NCc1ccc(Cl)cc1
REMARK SMILES IDX 17 1 16 2 15 3 14 4 13 5 11 6 12 7 10 8 5 9 6 10 7 11 9 12
REMARK SMILES IDX 8 13 4 14 3 15 2 16 1 17 88 18 89 20 90 21 91 22 96 23 92 24
REMARK SMILES IDX 95 25 93 26 94 27 18 28 19 29 20 30 21 31 22 32 23 33 24 34
REMARK SMILES IDX 25 35 26 36 87 37 27 38 86 39 28 40 29 41 30 42 80 43 31 44
REMARK SMILES IDX 85 45 79 46 81 47 32 48 84 49 78 50 77 51 33 53 65 54 45 55
REMARK SMILES IDX 64 56 46 57 49 58 63 59 82 60 47 61 48 62 62 64 83 65 50 66
REMARK SMILES IDX 34 67 35 68 43 69 36 70 42 71 44 72 41 73 37 74 38 75 39 76
REMARK SMILES IDX 40 77 66 78 67 79 75 80 68 81 74 82 76 83 73 84 69 85 70 86
REMARK SMILES IDX 71 87 72 88 51 89 52 90 60 91 53 92 59 93 61 94 58 95 54 96
REMARK SMILES IDX 55 97 56 98 57 99
REMARK H PARENT 88 19 81 52 49 63
REMARK Flexibility Score: inf
ROOT
ATOM      1  C   UNL A   1      34.145  32.880  28.267  1.00  0.00     0.188 C 
ENDROOT
BRANCH   1   2
ATOM      2  O   UNL A   1      34.229  31.516  27.870  1.00  0.00    -0.376 OA
BRANCH   2   3
ATOM      3  C   UNL A   1      33.110  30.921  27.229  1.00  0.00     0.202 C 
BRANCH   3   4
ATOM      4  C   UNL A   1      33.098  29.403  27.010  1.00  0.00     0.261 C 
BRANCH   4   5
ATOM      5  O   UNL A   1      31.988  28.896  26.247  1.00  0.00    -0.460 OA
BRANCH   5   6
ATOM      6  C   UNL A   1      32.114  28.910  24.896  1.00  0.00     0.339 C 
ATOM      7  O   UNL A   1      33.171  28.861  24.285  1.00  0.00    -0.246 OA
BRANCH   6   8
ATOM      8  C   UNL A   1      30.796  28.805  24.208  1.00  0.00     0.073 A 
ATOM      9  C   UNL A   1      30.151  27.610  23.835  1.00  0.00     0.022 A 
ATOM     10  C   UNL A   1      28.917  27.696  23.158  1.00  0.00     0.016 A 
ATOM     11  C   UNL A   1      28.346  28.933  22.842  1.00  0.00     0.001 A 
ATOM     12  C   UNL A   1      30.206  30.044  23.884  1.00  0.00     0.017 A 
ATOM     13  C   UNL A   1      28.996  30.108  23.195  1.00  0.00     0.001 A 
BRANCH   9  14
ATOM     14  S   UNL A   1      30.838  25.963  24.022  1.00  0.00    -0.115 SA
BRANCH  14  15
ATOM     15  C   UNL A   1      30.445  25.608  25.756  1.00  0.00     0.174 C 
BRANCH  15  16
ATOM     16  C   UNL A   1      30.804  24.194  26.166  1.00  0.00     0.230 C 
ATOM     17  O   UNL A   1      30.654  23.797  27.318  1.00  0.00    -0.274 OA
ATOM     18  N   UNL A   1      31.230  23.380  25.140  1.00  0.00    -0.351 N 
ATOM     19  H   UNL A   1      31.305  23.748  24.229  1.00  0.00     0.163 HD
BRANCH  18  20
ATOM     20  C   UNL A   1      31.570  21.993  25.376  1.00  0.00     0.151 C 
BRANCH  20  21
ATOM     21  C   UNL A   1      33.029  21.690  25.130  1.00  0.00    -0.029 A 
ATOM     22  C   UNL A   1      33.970  22.735  25.137  1.00  0.00     0.007 A 
ATOM     23  C   UNL A   1      33.488  20.372  24.984  1.00  0.00     0.007 A 
ATOM     24  C   UNL A   1      35.336  22.465  25.009  1.00  0.00     0.021 A 
ATOM     25  C   UNL A   1      34.853  20.104  24.849  1.00  0.00     0.021 A 
ATOM     26  C   UNL A   1      35.771  21.150  24.875  1.00  0.00     0.041 A 
ATOM     27  Cl  UNL A   1      37.454  20.809  24.765  1.00  0.00    -0.084 Cl
ENDBRANCH  20  21
ENDBRANCH  18  20
ENDBRANCH  15  16
ENDBRANCH  14  15
ENDBRANCH   9  14
ENDBRANCH   6   8
ENDBRANCH   5   6
ENDBRANCH   4   5
ENDBRANCH   3   4
ENDBRANCH   2   3
ENDBRANCH   1   2
BRANCH   1  28
ATOM     28  C   UNL A   1      34.891  33.350  29.538  1.00  0.00     0.188 C 
BRANCH  28  29
ATOM     29  O   UNL A   1      34.247  32.987  30.746  1.00  0.00    -0.376 OA
BRANCH  29  30
ATOM     30  C   UNL A   1      34.448  33.858  31.849  1.00  0.00     0.202 C 
BRANCH  30  31
ATOM     31  C   UNL A   1      34.986  33.277  33.174  1.00  0.00     0.261 C 
BRANCH  31  32
ATOM     32  O   UNL A   1      35.995  34.034  33.862  1.00  0.00    -0.460 OA
BRANCH  32  33
ATOM     33  C   UNL A   1      36.624  33.436  34.900  1.00  0.00     0.338 C 
ATOM     34  O   UNL A   1      36.221  33.380  36.050  1.00  0.00    -0.246 OA
BRANCH  33  35
ATOM     35  C   UNL A   1      37.763  32.652  34.360  1.00  0.00     0.060 A 
ATOM     36  C   UNL A   1      37.952  31.339  34.815  1.00  0.00     0.016 A 
ATOM     37  C   UNL A   1      38.618  33.188  33.393  1.00  0.00     0.016 A 
ATOM     38  C   UNL A   1      39.019  30.575  34.336  1.00  0.00     0.010 A 
ATOM     39  C   UNL A   1      39.705  32.432  32.935  1.00  0.00     0.010 A 
ATOM     40  C   UNL A   1      39.934  31.137  33.436  1.00  0.00    -0.014 A 
BRANCH  40  41
ATOM     41  C   UNL A   1      41.252  30.473  33.238  1.00  0.00     0.031 A 
ATOM     42  C   UNL A   1      41.406  29.573  32.038  1.00  0.00     0.074 A 
ATOM     43  C   UNL A   1      42.299  30.697  34.052  1.00  0.00     0.049 A 
ATOM     44  N   UNL A   1      42.440  28.880  31.640  1.00  0.00    -0.248 NA
ATOM     45  C   UNL A   1      40.222  29.438  31.174  1.00  0.00     0.031 C 
ATOM     46  C   UNL A   1      42.293  31.581  35.215  1.00  0.00     0.029 A 
ATOM     47  N   UNL A   1      43.577  30.193  34.019  1.00  0.00    -0.354 N 
ATOM     48  C   UNL A   1      42.032  28.227  30.479  1.00  0.00     0.074 A 
ATOM     49  C   UNL A   1      40.643  28.571  30.269  1.00  0.00     0.031 C 
ATOM     50  C   UNL A   1      43.510  31.554  35.789  1.00  0.00     0.029 A 
ATOM     51  C   UNL A   1      44.372  30.626  35.056  1.00  0.00     0.049 A 
ATOM     52  H   UNL A   1      43.894  29.578  33.319  1.00  0.00     0.167 HD
ATOM     53  C   UNL A   1      42.752  27.425  29.657  1.00  0.00     0.034 A 
ATOM     54  C   UNL A   1      45.639  30.294  35.384  1.00  0.00     0.034 A 
ATOM     55  C   UNL A   1      44.131  27.074  29.888  1.00  0.00     0.049 A 
ATOM     56  C   UNL A   1      46.395  29.322  34.504  1.00  0.00     0.074 A 
ATOM     57  C   UNL A   1      44.956  26.273  29.119  1.00  0.00     0.029 A 
ATOM     58  N   UNL A   1      44.886  27.489  30.978  1.00  0.00    -0.354 N 
ATOM     59  N   UNL A   1      46.003  28.721  33.403  1.00  0.00    -0.248 NA
ATOM     60  C   UNL A   1      47.770  28.996  34.906  1.00  0.00     0.031 C 
ATOM     61  C   UNL A   1      46.180  26.138  29.784  1.00  0.00     0.029 A 
ATOM     62  C   UNL A   1      46.154  26.933  30.919  1.00  0.00     0.049 A 
ATOM     63  H   UNL A   1      44.567  28.092  31.688  1.00  0.00     0.167 HD
ATOM     64  C   UNL A   1      47.098  27.978  32.963  1.00  0.00     0.074 A 
ATOM     65  C   UNL A   1      48.168  28.220  33.909  1.00  0.00     0.031 C 
ATOM     66  C   UNL A   1      47.213  27.175  31.873  1.00  0.00     0.034 A 
BRANCH  53  67
ATOM     67  C   UNL A   1      42.032  26.832  28.468  1.00  0.00     0.023 A 
ATOM     68  C   UNL A   1      41.653  25.479  28.429  1.00  0.00     0.031 A 
ATOM     69  C   UNL A   1      41.759  27.624  27.340  1.00  0.00     0.131 A 
ATOM     70  C   UNL A   1      41.095  24.941  27.259  1.00  0.00     0.055 A 
ATOM     71  C   UNL A   1      41.123  27.104  26.210  1.00  0.00     0.041 A 
ATOM     72  F   UNL A   1      42.121  28.917  27.307  1.00  0.00    -0.206 F 
ATOM     73  C   UNL A   1      40.802  25.751  26.159  1.00  0.00     0.022 A 
BRANCH  70  74
ATOM     74  S   UNL A   1      40.903  23.141  27.135  1.00  0.00     0.124 S 
ATOM     75  O   UNL A   1      39.473  23.015  26.860  1.00  0.00    -0.237 OA
ATOM     76  O   UNL A   1      41.798  22.804  26.034  1.00  0.00    -0.237 OA
ATOM     77  O   UNL A   1      41.322  22.660  28.450  1.00  0.00    -0.744 OA
ENDBRANCH  70  74
ENDBRANCH  53  67
BRANCH  54  78
ATOM     78  C   UNL A   1      46.277  30.846  36.617  1.00  0.00     0.023 A 
ATOM     79  C   UNL A   1      46.984  32.060  36.595  1.00  0.00     0.031 A 
ATOM     80  C   UNL A   1      46.248  30.126  37.826  1.00  0.00     0.131 A 
ATOM     81  C   UNL A   1      47.674  32.492  37.740  1.00  0.00     0.055 A 
ATOM     82  C   UNL A   1      46.886  30.589  38.977  1.00  0.00     0.041 A 
ATOM     83  F   UNL A   1      45.596  28.955  37.903  1.00  0.00    -0.206 F 
ATOM     84  C   UNL A   1      47.617  31.772  38.935  1.00  0.00     0.022 A 
BRANCH  81  85
ATOM     85  S   UNL A   1      48.729  33.962  37.618  1.00  0.00     0.124 S 
ATOM     86  O   UNL A   1      49.769  33.662  38.596  1.00  0.00    -0.237 OA
ATOM     87  O   UNL A   1      49.137  33.928  36.218  1.00  0.00    -0.237 OA
ATOM     88  O   UNL A   1      47.831  35.057  37.977  1.00  0.00    -0.744 OA
ENDBRANCH  81  85
ENDBRANCH  54  78
BRANCH  66  89
ATOM     89  C   UNL A   1      48.564  26.547  31.613  1.00  0.00     0.023 A 
ATOM     90  C   UNL A   1      49.485  27.102  30.706  1.00  0.00     0.031 A 
ATOM     91  C   UNL A   1      48.928  25.359  32.274  1.00  0.00     0.131 A 
ATOM     92  C   UNL A   1      50.691  26.436  30.437  1.00  0.00     0.055 A 
ATOM     93  C   UNL A   1      50.160  24.741  32.056  1.00  0.00     0.041 A 
ATOM     94  F   UNL A   1      48.091  24.778  33.148  1.00  0.00    -0.206 F 
ATOM     95  C   UNL A   1      51.043  25.270  31.121  1.00  0.00     0.022 A 
BRANCH  92  96
ATOM     96  S   UNL A   1      51.744  27.051  29.094  1.00  0.00     0.124 S 
ATOM     97  O   UNL A   1      51.739  28.489  29.337  1.00  0.00    -0.237 OA
ATOM     98  O   UNL A   1      53.008  26.367  29.351  1.00  0.00    -0.237 OA
ATOM     99  O   UNL A   1      51.044  26.623  27.885  1.00  0.00    -0.744 OA
ENDBRANCH  92  96
ENDBRANCH  66  89
ENDBRANCH  40  41
ENDBRANCH  33  35
ENDBRANCH  32  33
ENDBRANCH  31  32
ENDBRANCH  30  31
ENDBRANCH  29  30
ENDBRANCH  28  29
ENDBRANCH   1  28
TORSDOF 25
ENDMDL
MODEL 3
REMARK VINA RESULT:      -8.8      8.890     14.282
REMARK SMILES O=C(CSc1ccccc1C(=O)OCCOCCOCCOC(=O)c1ccc(-c2c3nc(c(-c4cc(S(=O)(=O)[O-])ccc4F)c4ccc([nH]4)c(-c4cc(S(=O)(=O)[O-])ccc4F)c4nc(c(-c5cc(S(=O)(=O)[O-])ccc5F)c5ccc2[nH]5)C=C4)C=C3)cc1)NCc1ccc(Cl)cc1
REMARK SMILES IDX 17 1 16 2 15 3 14 4 13 5 11 6 12 7 10 8 5 9 6 10 7 11 9 12
REMARK SMILES IDX 8 13 4 14 3 15 2 16 1 17 88 18 89 20 90 21 91 22 96 23 92 24
REMARK SMILES IDX 95 25 93 26 94 27 18 28 19 29 20 30 21 31 22 32 23 33 24 34
REMARK SMILES IDX 25 35 26 36 87 37 27 38 86 39 28 40 29 41 30 42 80 43 31 44
REMARK SMILES IDX 85 45 79 46 81 47 32 48 84 49 78 50 77 51 33 53 65 54 45 55
REMARK SMILES IDX 64 56 46 57 49 58 63 59 82 60 47 61 48 62 62 64 83 65 50 66
REMARK SMILES IDX 34 67 35 68 43 69 36 70 42 71 44 72 41 73 37 74 38 75 39 76
REMARK SMILES IDX 40 77 66 78 67 79 75 80 68 81 74 82 76 83 73 84 69 85 70 86
REMARK SMILES IDX 71 87 72 88 51 89 52 90 60 91 53 92 59 93 61 94 58 95 54 96
REMARK SMILES IDX 55 97 56 98 57 99
REMARK H PARENT 88 19 81 52 49 63
REMARK Flexibility Score: inf
ROOT
ATOM      1  C   UNL A   1      44.796  24.660  25.567  1.00  0.00     0.188 C 
ENDROOT
BRANCH   1   2
ATOM      2  O   UNL A   1      43.378  24.550  25.564  1.00  0.00    -0.376 OA
BRANCH   2   3
ATOM      3  C   UNL A   1      42.607  25.655  25.115  1.00  0.00     0.202 C 
BRANCH   3   4
ATOM      4  C   UNL A   1      43.286  27.021  24.959  1.00  0.00     0.261 C 
BRANCH   4   5
ATOM      5  O   UNL A   1      42.403  28.158  24.986  1.00  0.00    -0.460 OA
BRANCH   5   6
ATOM      6  C   UNL A   1      42.500  28.985  26.057  1.00  0.00     0.339 C 
ATOM      7  O   UNL A   1      43.041  30.080  26.056  1.00  0.00    -0.246 OA
BRANCH   6   8
ATOM      8  C   UNL A   1      41.703  28.497  27.218  1.00  0.00     0.073 A 
ATOM      9  C   UNL A   1      42.222  28.056  28.451  1.00  0.00     0.022 A 
ATOM     10  C   UNL A   1      41.321  27.593  29.432  1.00  0.00     0.016 A 
ATOM     11  C   UNL A   1      39.943  27.552  29.192  1.00  0.00     0.001 A 
ATOM     12  C   UNL A   1      40.311  28.451  26.993  1.00  0.00     0.017 A 
ATOM     13  C   UNL A   1      39.439  27.970  27.968  1.00  0.00     0.001 A 
BRANCH   9  14
ATOM     14  S   UNL A   1      43.966  27.894  28.839  1.00  0.00    -0.115 SA
BRANCH  14  15
ATOM     15  C   UNL A   1      43.940  26.533  30.036  1.00  0.00     0.174 C 
BRANCH  15  16
ATOM     16  C   UNL A   1      44.003  25.168  29.379  1.00  0.00     0.230 C 
ATOM     17  O   UNL A   1      45.054  24.707  28.944  1.00  0.00    -0.274 OA
ATOM     18  N   UNL A   1      42.819  24.464  29.385  1.00  0.00    -0.351 N 
ATOM     19  H   UNL A   1      42.013  24.875  29.774  1.00  0.00     0.163 HD
BRANCH  18  20
ATOM     20  C   UNL A   1      42.738  23.130  28.828  1.00  0.00     0.151 C 
BRANCH  20  21
ATOM     21  C   UNL A   1      41.531  22.930  27.942  1.00  0.00    -0.029 A 
ATOM     22  C   UNL A   1      41.235  21.650  27.443  1.00  0.00     0.007 A 
ATOM     23  C   UNL A   1      40.639  23.980  27.673  1.00  0.00     0.007 A 
ATOM     24  C   UNL A   1      40.070  21.424  26.703  1.00  0.00     0.021 A 
ATOM     25  C   UNL A   1      39.478  23.756  26.928  1.00  0.00     0.021 A 
ATOM     26  C   UNL A   1      39.193  22.478  26.458  1.00  0.00     0.041 A 
ATOM     27  Cl  UNL A   1      37.736  22.196  25.588  1.00  0.00    -0.084 Cl
ENDBRANCH  20  21
ENDBRANCH  18  20
ENDBRANCH  15  16
ENDBRANCH  14  15
ENDBRANCH   9  14
ENDBRANCH   6   8
ENDBRANCH   5   6
ENDBRANCH   4   5
ENDBRANCH   3   4
ENDBRANCH   2   3
ENDBRANCH   1   2
BRANCH   1  28
ATOM     28  C   UNL A   1      45.634  23.729  24.659  1.00  0.00     0.188 C 
BRANCH  28  29
ATOM     29  O   UNL A   1      46.878  24.280  24.266  1.00  0.00    -0.376 OA
BRANCH  29  30
ATOM     30  C   UNL A   1      47.318  25.416  24.995  1.00  0.00     0.202 C 
BRANCH  30  31
ATOM     31  C   UNL A   1      48.734  25.411  25.608  1.00  0.00     0.261 C 
BRANCH  31  32
ATOM     32  O   UNL A   1      49.149  26.592  26.314  1.00  0.00    -0.460 OA
BRANCH  32  33
ATOM     33  C   UNL A   1      48.761  26.715  27.604  1.00  0.00     0.338 C 
ATOM     34  O   UNL A   1      49.057  25.966  28.520  1.00  0.00    -0.246 OA
BRANCH  33  35
ATOM     35  C   UNL A   1      48.116  28.042  27.767  1.00  0.00     0.060 A 
ATOM     36  C   UNL A   1      47.340  28.547  26.713  1.00  0.00     0.016 A 
ATOM     37  C   UNL A   1      48.243  28.770  28.954  1.00  0.00     0.016 A 
ATOM     38  C   UNL A   1      46.726  29.797  26.827  1.00  0.00     0.010 A 
ATOM     39  C   UNL A   1      47.650  30.035  29.056  1.00  0.00     0.010 A 
ATOM     40  C   UNL A   1      46.924  30.572  27.977  1.00  0.00    -0.014 A 
BRANCH  40  41
ATOM     41  C   UNL A   1      46.602  32.025  27.933  1.00  0.00     0.031 A 
ATOM     42  C   UNL A   1      47.650  32.955  27.375  1.00  0.00     0.074 A 
ATOM     43  C   UNL A   1      45.408  32.508  28.317  1.00  0.00     0.049 A 
ATOM     44  N   UNL A   1      47.623  34.253  27.227  1.00  0.00    -0.248 NA
ATOM     45  C   UNL A   1      48.902  32.324  26.926  1.00  0.00     0.031 C 
ATOM     46  C   UNL A   1      44.296  31.710  28.827  1.00  0.00     0.029 A 
ATOM     47  N   UNL A   1      44.931  33.797  28.335  1.00  0.00    -0.354 N 
ATOM     48  C   UNL A   1      48.852  34.595  26.669  1.00  0.00     0.074 A 
ATOM     49  C   UNL A   1      49.615  33.372  26.551  1.00  0.00     0.031 C 
ATOM     50  C   UNL A   1      43.266  32.528  29.113  1.00  0.00     0.029 A 
ATOM     51  C   UNL A   1      43.656  33.912  28.839  1.00  0.00     0.049 A 
ATOM     52  H   UNL A   1      45.455  34.568  28.017  1.00  0.00     0.167 HD
ATOM     53  C   UNL A   1      49.299  35.814  26.278  1.00  0.00     0.034 A 
ATOM     54  C   UNL A   1      42.902  35.008  29.069  1.00  0.00     0.034 A 
ATOM     55  C   UNL A   1      48.536  37.028  26.419  1.00  0.00     0.049 A 
ATOM     56  C   UNL A   1      43.458  36.370  28.713  1.00  0.00     0.074 A 
ATOM     57  C   UNL A   1      48.890  38.315  26.055  1.00  0.00     0.029 A 
ATOM     58  N   UNL A   1      47.269  37.111  26.983  1.00  0.00    -0.354 N 
ATOM     59  N   UNL A   1      44.615  36.680  28.175  1.00  0.00    -0.248 NA
ATOM     60  C   UNL A   1      42.595  37.529  28.984  1.00  0.00     0.031 C 
ATOM     61  C   UNL A   1      47.875  39.184  26.471  1.00  0.00     0.029 A 
ATOM     62  C   UNL A   1      46.844  38.431  27.008  1.00  0.00     0.049 A 
ATOM     63  H   UNL A   1      46.748  36.345  27.316  1.00  0.00     0.167 HD
ATOM     64  C   UNL A   1      44.602  38.064  28.008  1.00  0.00     0.074 A 
ATOM     65  C   UNL A   1      43.315  38.524  28.489  1.00  0.00     0.031 C 
ATOM     66  C   UNL A   1      45.560  38.881  27.497  1.00  0.00     0.034 A 
BRANCH  53  67
ATOM     67  C   UNL A   1      50.701  35.887  25.718  1.00  0.00     0.023 A 
ATOM     68  C   UNL A   1      51.834  35.689  26.526  1.00  0.00     0.031 A 
ATOM     69  C   UNL A   1      50.905  36.203  24.364  1.00  0.00     0.131 A 
ATOM     70  C   UNL A   1      53.117  35.885  25.992  1.00  0.00     0.055 A 
ATOM     71  C   UNL A   1      52.186  36.311  23.817  1.00  0.00     0.041 A 
ATOM     72  F   UNL A   1      49.863  36.430  23.548  1.00  0.00    -0.206 F 
ATOM     73  C   UNL A   1      53.301  36.167  24.637  1.00  0.00     0.022 A 
BRANCH  70  74
ATOM     74  S   UNL A   1      54.533  35.921  27.126  1.00  0.00     0.124 S 
ATOM     75  O   UNL A   1      54.246  37.116  27.918  1.00  0.00    -0.237 OA
ATOM     76  O   UNL A   1      54.411  34.647  27.824  1.00  0.00    -0.237 OA
ATOM     77  O   UNL A   1      55.684  36.037  26.234  1.00  0.00    -0.744 OA
ENDBRANCH  70  74
ENDBRANCH  53  67
BRANCH  54  78
ATOM     78  C   UNL A   1      41.554  34.887  29.701  1.00  0.00     0.023 A 
ATOM     79  C   UNL A   1      41.409  34.582  31.065  1.00  0.00     0.031 A 
ATOM     80  C   UNL A   1      40.384  35.005  28.929  1.00  0.00     0.131 A 
ATOM     81  C   UNL A   1      40.131  34.356  31.603  1.00  0.00     0.055 A 
ATOM     82  C   UNL A   1      39.113  34.837  29.480  1.00  0.00     0.041 A 
ATOM     83  F   UNL A   1      40.461  35.285  27.617  1.00  0.00    -0.206 F 
ATOM     84  C   UNL A   1      38.982  34.496  30.823  1.00  0.00     0.022 A 
BRANCH  81  85
ATOM     85  S   UNL A   1      39.997  33.779  33.317  1.00  0.00     0.124 S 
ATOM     86  O   UNL A   1      41.325  34.086  33.837  1.00  0.00    -0.237 OA
ATOM     87  O   UNL A   1      38.903  34.597  33.828  1.00  0.00    -0.237 OA
ATOM     88  O   UNL A   1      39.695  32.356  33.176  1.00  0.00    -0.744 OA
ENDBRANCH  81  85
ENDBRANCH  54  78
BRANCH  66  89
ATOM     89  C   UNL A   1      45.228  40.351  27.378  1.00  0.00     0.023 A 
ATOM     90  C   UNL A   1      44.824  40.930  26.161  1.00  0.00     0.031 A 
ATOM     91  C   UNL A   1      45.334  41.192  28.502  1.00  0.00     0.131 A 
ATOM     92  C   UNL A   1      44.607  42.315  26.082  1.00  0.00     0.055 A 
ATOM     93  C   UNL A   1      45.046  42.555  28.433  1.00  0.00     0.041 A 
ATOM     94  F   UNL A   1      45.717  40.700  29.690  1.00  0.00    -0.206 F 
ATOM     95  C   UNL A   1      44.697  43.128  27.214  1.00  0.00     0.022 A 
BRANCH  92  96
ATOM     96  S   UNL A   1      44.322  43.060  24.453  1.00  0.00     0.124 S 
ATOM     97  O   UNL A   1      44.877  44.398  24.629  1.00  0.00    -0.237 OA
ATOM     98  O   UNL A   1      45.070  42.172  23.568  1.00  0.00    -0.237 OA
ATOM     99  O   UNL A   1      42.870  43.006  24.300  1.00  0.00    -0.744 OA
ENDBRANCH  92  96
ENDBRANCH  66  89
ENDBRANCH  40  41
ENDBRANCH  33  35
ENDBRANCH  32  33
ENDBRANCH  31  32
ENDBRANCH  30  31
ENDBRANCH  29  30
ENDBRANCH  28  29
ENDBRANCH   1  28
TORSDOF 25
ENDMDL
