MODEL 1
REMARK VINA RESULT:      -9.0      0.000      0.000
REMARK SMILES CC(=O)N[C@@H](CCS[C@@H](C)[C@@H](C)O)C(=O)OCCOCCOCCOC(=O)c1ccc(-c2c3nc(c(-c4cc(S(=O)(=O)[O-])ccc4F)c4ccc([nH]4)c(-c4cc(S(=O)(=O)[O-])ccc4F)c4nc(c(-c5cc(S(=O)(=O)[O-])ccc5F)c5ccc2[nH]5)C=C4)C=C3)cc1
REMARK SMILES IDX 19 1 18 2 17 3 16 4 14 5 15 6 5 7 4 8 1 9 2 10 3 11 6 13
REMARK SMILES IDX 7 14 8 15 9 16 10 17 11 18 12 19 13 20 20 22 21 23 22 24
REMARK SMILES IDX 23 25 24 26 25 27 26 28 27 29 28 30 29 31 90 32 30 33 89 34
REMARK SMILES IDX 31 35 32 36 33 37 83 38 34 39 88 40 82 41 84 42 35 43 87 44
REMARK SMILES IDX 81 45 80 46 36 48 68 49 48 50 67 51 49 52 52 53 66 54 85 55
REMARK SMILES IDX 50 56 51 57 65 59 86 60 53 61 37 62 38 63 46 64 39 65 45 66
REMARK SMILES IDX 47 67 44 68 40 69 41 70 42 71 43 72 69 73 70 74 78 75 71 76
REMARK SMILES IDX 77 77 79 78 76 79 72 80 73 81 74 82 75 83 54 84 55 85 63 86
REMARK SMILES IDX 56 87 62 88 64 89 61 90 57 91 58 92 59 93 60 94
REMARK H PARENT 4 12 13 21 84 47 52 58
REMARK Flexibility Score: inf
ROOT
ATOM      1  O   UNL A   1      33.591  27.682  25.174  1.00  0.00    -0.376 OA
ENDROOT
BRANCH   1   2
ATOM      2  C   UNL A   1      33.878  28.595  24.072  1.00  0.00     0.202 C 
BRANCH   2   3
ATOM      3  C   UNL A   1      33.976  28.167  22.454  1.00  0.00     0.261 C 
BRANCH   3   4
ATOM      4  O   UNL A   1      33.000  27.269  21.770  1.00  0.00    -0.462 OA
BRANCH   4   5
ATOM      5  C   UNL A   1      33.011  25.899  21.552  1.00  0.00     0.328 C 
ATOM      6  O   UNL A   1      33.077  25.412  20.428  1.00  0.00    -0.250 OA
BRANCH   5   7
ATOM      7  C   UNL A   1      32.996  24.903  22.973  1.00  0.00     0.193 C 
BRANCH   7   8
ATOM      8  N   UNL A   1      32.320  23.575  23.256  1.00  0.00    -0.343 N 
ATOM      9  C   UNL A   1      31.168  23.703  25.470  1.00  0.00     0.114 C 
ATOM     10  C   UNL A   1      31.635  22.966  24.257  1.00  0.00     0.217 C 
ATOM     11  O   UNL A   1      31.336  21.782  24.077  1.00  0.00    -0.275 OA
ATOM     12  H   UNL A   1      32.401  22.974  22.480  1.00  0.00     0.164 HD
ENDBRANCH   7   8
BRANCH   7  13
ATOM     13  C   UNL A   1      34.446  24.568  23.356  1.00  0.00     0.048 C 
BRANCH  13  14
ATOM     14  C   UNL A   1      34.864  23.134  22.971  1.00  0.00     0.072 C 
BRANCH  14  15
ATOM     15  S   UNL A   1      36.584  22.802  23.403  1.00  0.00    -0.156 SA
BRANCH  15  16
ATOM     16  C   UNL A   1      36.597  22.266  25.193  1.00  0.00     0.072 C 
ATOM     17  C   UNL A   1      37.393  23.266  26.046  1.00  0.00     0.022 C 
BRANCH  16  18
ATOM     18  C   UNL A   1      35.625  21.516  26.222  1.00  0.00     0.124 C 
ATOM     19  C   UNL A   1      34.258  21.878  26.962  1.00  0.00     0.039 C 
BRANCH  18  20
ATOM     20  O   UNL A   1      35.578  20.260  25.514  1.00  0.00    -0.392 OA
ATOM     21  H   UNL A   1      35.163  19.587  26.076  1.00  0.00     0.210 HD
ENDBRANCH  18  20
ENDBRANCH  16  18
ENDBRANCH  15  16
ENDBRANCH  14  15
ENDBRANCH  13  14
ENDBRANCH   7  13
ENDBRANCH   5   7
ENDBRANCH   4   5
ENDBRANCH   3   4
ENDBRANCH   2   3
ENDBRANCH   1   2
BRANCH   1  22
ATOM     22  C   UNL A   1      32.223  27.298  25.506  1.00  0.00     0.188 C 
BRANCH  22  23
ATOM     23  C   UNL A   1      31.103  28.062  24.700  1.00  0.00     0.188 C 
BRANCH  23  24
ATOM     24  O   UNL A   1      31.312  29.418  24.321  1.00  0.00    -0.376 OA
BRANCH  24  25
ATOM     25  C   UNL A   1      30.856  30.424  25.204  1.00  0.00     0.202 C 
BRANCH  25  26
ATOM     26  C   UNL A   1      31.611  30.542  26.538  1.00  0.00     0.261 C 
BRANCH  26  27
ATOM     27  O   UNL A   1      32.977  30.961  26.411  1.00  0.00    -0.460 OA
BRANCH  27  28
ATOM     28  C   UNL A   1      33.378  31.920  27.292  1.00  0.00     0.338 C 
ATOM     29  O   UNL A   1      32.695  32.843  27.719  1.00  0.00    -0.246 OA
BRANCH  28  30
ATOM     30  C   UNL A   1      34.711  31.543  27.839  1.00  0.00     0.060 A 
ATOM     31  C   UNL A   1      34.949  30.196  28.159  1.00  0.00     0.016 A 
ATOM     32  C   UNL A   1      35.758  32.470  27.906  1.00  0.00     0.016 A 
ATOM     33  C   UNL A   1      36.213  29.786  28.596  1.00  0.00     0.010 A 
ATOM     34  C   UNL A   1      37.017  32.063  28.357  1.00  0.00     0.010 A 
ATOM     35  C   UNL A   1      37.237  30.731  28.747  1.00  0.00    -0.014 A 
BRANCH  35  36
ATOM     36  C   UNL A   1      38.410  30.427  29.606  1.00  0.00     0.031 A 
ATOM     37  C   UNL A   1      39.410  29.445  29.052  1.00  0.00     0.074 A 
ATOM     38  C   UNL A   1      38.583  30.967  30.825  1.00  0.00     0.049 A 
ATOM     39  N   UNL A   1      40.440  28.884  29.627  1.00  0.00    -0.248 NA
ATOM     40  C   UNL A   1      39.199  29.032  27.655  1.00  0.00     0.031 C 
ATOM     41  C   UNL A   1      37.722  31.977  31.436  1.00  0.00     0.029 A 
ATOM     42  N   UNL A   1      39.543  30.725  31.777  1.00  0.00    -0.354 N 
ATOM     43  C   UNL A   1      40.993  28.045  28.663  1.00  0.00     0.074 A 
ATOM     44  C   UNL A   1      40.162  28.143  27.484  1.00  0.00     0.031 C 
ATOM     45  C   UNL A   1      38.184  32.255  32.670  1.00  0.00     0.029 A 
ATOM     46  C   UNL A   1      39.342  31.408  32.955  1.00  0.00     0.049 A 
ATOM     47  H   UNL A   1      40.305  30.119  31.630  1.00  0.00     0.167 HD
ATOM     48  C   UNL A   1      42.095  27.264  28.752  1.00  0.00     0.034 A 
ATOM     49  C   UNL A   1      39.997  31.323  34.133  1.00  0.00     0.034 A 
ATOM     50  C   UNL A   1      42.891  27.157  29.947  1.00  0.00     0.049 A 
ATOM     51  C   UNL A   1      41.159  30.358  34.251  1.00  0.00     0.074 A 
ATOM     52  C   UNL A   1      44.021  26.391  30.165  1.00  0.00     0.029 A 
ATOM     53  N   UNL A   1      42.629  27.831  31.134  1.00  0.00    -0.354 N 
ATOM     54  N   UNL A   1      41.669  29.559  33.339  1.00  0.00    -0.248 NA
ATOM     55  C   UNL A   1      41.835  30.285  35.553  1.00  0.00     0.031 C 
ATOM     56  C   UNL A   1      44.393  26.538  31.505  1.00  0.00     0.029 A 
ATOM     57  C   UNL A   1      43.555  27.470  32.098  1.00  0.00     0.049 A 
ATOM     58  H   UNL A   1      41.893  28.470  31.270  1.00  0.00     0.167 HD
ATOM     59  C   UNL A   1      42.747  28.920  33.950  1.00  0.00     0.074 A 
ATOM     60  C   UNL A   1      42.819  29.435  35.301  1.00  0.00     0.031 C 
ATOM     61  C   UNL A   1      43.605  27.997  33.442  1.00  0.00     0.034 A 
BRANCH  48  62
ATOM     62  C   UNL A   1      42.444  26.422  27.549  1.00  0.00     0.023 A 
ATOM     63  C   UNL A   1      42.012  25.089  27.428  1.00  0.00     0.031 A 
ATOM     64  C   UNL A   1      43.270  26.941  26.537  1.00  0.00     0.131 A 
ATOM     65  C   UNL A   1      42.468  24.300  26.360  1.00  0.00     0.055 A 
ATOM     66  C   UNL A   1      43.649  26.177  25.432  1.00  0.00     0.041 A 
ATOM     67  F   UNL A   1      43.741  28.195  26.615  1.00  0.00    -0.206 F 
ATOM     68  C   UNL A   1      43.262  24.843  25.348  1.00  0.00     0.022 A 
BRANCH  65  69
ATOM     69  S   UNL A   1      42.145  22.516  26.402  1.00  0.00     0.124 S 
ATOM     70  O   UNL A   1      42.822  22.065  25.189  1.00  0.00    -0.237 OA
ATOM     71  O   UNL A   1      42.757  22.115  27.663  1.00  0.00    -0.237 OA
ATOM     72  O   UNL A   1      40.687  22.431  26.360  1.00  0.00    -0.744 OA
ENDBRANCH  65  69
ENDBRANCH  48  62
BRANCH  49  73
ATOM     73  C   UNL A   1      39.556  32.123  35.317  1.00  0.00     0.023 A 
ATOM     74  C   UNL A   1      40.059  33.414  35.551  1.00  0.00     0.031 A 
ATOM     75  C   UNL A   1      38.679  31.581  36.273  1.00  0.00     0.131 A 
ATOM     76  C   UNL A   1      39.722  34.096  36.733  1.00  0.00     0.055 A 
ATOM     77  C   UNL A   1      38.300  32.287  37.417  1.00  0.00     0.041 A 
ATOM     78  F   UNL A   1      38.173  30.348  36.109  1.00  0.00    -0.206 F 
ATOM     79  C   UNL A   1      38.833  33.548  37.659  1.00  0.00     0.022 A 
BRANCH  76  80
ATOM     80  S   UNL A   1      40.545  35.674  37.091  1.00  0.00     0.124 S 
ATOM     81  O   UNL A   1      41.924  35.378  36.720  1.00  0.00    -0.237 OA
ATOM     82  O   UNL A   1      39.827  36.594  36.216  1.00  0.00    -0.237 OA
ATOM     83  O   UNL A   1      40.309  35.862  38.521  1.00  0.00    -0.744 OA
ENDBRANCH  76  80
ENDBRANCH  49  73
BRANCH  61  84
ATOM     84  C   UNL A   1      44.732  27.533  34.335  1.00  0.00     0.023 A 
ATOM     85  C   UNL A   1      44.564  26.498  35.270  1.00  0.00     0.031 A 
ATOM     86  C   UNL A   1      45.999  28.137  34.238  1.00  0.00     0.131 A 
ATOM     87  C   UNL A   1      45.627  26.136  36.110  1.00  0.00     0.055 A 
ATOM     88  C   UNL A   1      47.073  27.725  35.027  1.00  0.00     0.041 A 
ATOM     89  F   UNL A   1      46.217  29.132  33.364  1.00  0.00    -0.206 F 
ATOM     90  C   UNL A   1      46.887  26.729  35.980  1.00  0.00     0.022 A 
BRANCH  87  91
ATOM     91  S   UNL A   1      45.316  24.951  37.446  1.00  0.00     0.124 S 
ATOM     92  O   UNL A   1      46.203  25.440  38.498  1.00  0.00    -0.237 OA
ATOM     93  O   UNL A   1      43.887  25.120  37.687  1.00  0.00    -0.237 OA
ATOM     94  O   UNL A   1      45.697  23.666  36.862  1.00  0.00    -0.744 OA
ENDBRANCH  87  91
ENDBRANCH  61  84
ENDBRANCH  35  36
ENDBRANCH  28  30
ENDBRANCH  27  28
ENDBRANCH  26  27
ENDBRANCH  25  26
ENDBRANCH  24  25
ENDBRANCH  23  24
ENDBRANCH  22  23
ENDBRANCH   1  22
TORSDOF 27
ENDMDL
MODEL 2
REMARK VINA RESULT:      -8.9      2.331      8.160
REMARK SMILES CC(=O)N[C@@H](CCS[C@@H](C)[C@@H](C)O)C(=O)OCCOCCOCCOC(=O)c1ccc(-c2c3nc(c(-c4cc(S(=O)(=O)[O-])ccc4F)c4ccc([nH]4)c(-c4cc(S(=O)(=O)[O-])ccc4F)c4nc(c(-c5cc(S(=O)(=O)[O-])ccc5F)c5ccc2[nH]5)C=C4)C=C3)cc1
REMARK SMILES IDX 19 1 18 2 17 3 16 4 14 5 15 6 5 7 4 8 1 9 2 10 3 11 6 13
REMARK SMILES IDX 7 14 8 15 9 16 10 17 11 18 12 19 13 20 20 22 21 23 22 24
REMARK SMILES IDX 23 25 24 26 25 27 26 28 27 29 28 30 29 31 90 32 30 33 89 34
REMARK SMILES IDX 31 35 32 36 33 37 83 38 34 39 88 40 82 41 84 42 35 43 87 44
REMARK SMILES IDX 81 45 80 46 36 48 68 49 48 50 67 51 49 52 52 53 66 54 85 55
REMARK SMILES IDX 50 56 51 57 65 59 86 60 53 61 37 62 38 63 46 64 39 65 45 66
REMARK SMILES IDX 47 67 44 68 40 69 41 70 42 71 43 72 69 73 70 74 78 75 71 76
REMARK SMILES IDX 77 77 79 78 76 79 72 80 73 81 74 82 75 83 54 84 55 85 63 86
REMARK SMILES IDX 56 87 62 88 64 89 61 90 57 91 58 92 59 93 60 94
REMARK H PARENT 4 12 13 21 84 47 52 58
REMARK Flexibility Score: inf
ROOT
ATOM      1  O   UNL A   1      33.261  28.613  24.364  1.00  0.00    -0.376 OA
ENDROOT
BRANCH   1   2
ATOM      2  C   UNL A   1      34.042  28.633  23.132  1.00  0.00     0.202 C 
BRANCH   2   3
ATOM      3  C   UNL A   1      33.748  27.692  21.777  1.00  0.00     0.261 C 
BRANCH   3   4
ATOM      4  O   UNL A   1      33.411  26.238  21.831  1.00  0.00    -0.462 OA
BRANCH   4   5
ATOM      5  C   UNL A   1      32.591  25.518  22.685  1.00  0.00     0.328 C 
ATOM      6  O   UNL A   1      31.447  25.193  22.381  1.00  0.00    -0.250 OA
BRANCH   5   7
ATOM      7  C   UNL A   1      33.300  25.037  24.194  1.00  0.00     0.193 C 
BRANCH   7   8
ATOM      8  N   UNL A   1      32.676  24.759  25.549  1.00  0.00    -0.343 N 
ATOM      9  C   UNL A   1      31.039  22.884  25.324  1.00  0.00     0.114 C 
ATOM     10  C   UNL A   1      31.707  23.979  26.091  1.00  0.00     0.217 C 
ATOM     11  O   UNL A   1      31.462  24.158  27.287  1.00  0.00    -0.275 OA
ATOM     12  H   UNL A   1      33.102  25.311  26.245  1.00  0.00     0.164 HD
ENDBRANCH   7   8
BRANCH   7  13
ATOM     13  C   UNL A   1      34.090  23.738  23.976  1.00  0.00     0.048 C 
BRANCH  13  14
ATOM     14  C   UNL A   1      35.535  23.805  24.510  1.00  0.00     0.072 C 
BRANCH  14  15
ATOM     15  S   UNL A   1      36.293  22.169  24.590  1.00  0.00    -0.156 SA
BRANCH  15  16
ATOM     16  C   UNL A   1      35.102  21.066  25.516  1.00  0.00     0.072 C 
ATOM     17  C   UNL A   1      34.693  21.718  26.846  1.00  0.00     0.022 C 
BRANCH  16  18
ATOM     18  C   UNL A   1      33.931  20.026  25.181  1.00  0.00     0.124 C 
ATOM     19  C   UNL A   1      33.854  18.582  24.506  1.00  0.00     0.039 C 
BRANCH  18  20
ATOM     20  O   UNL A   1      33.284  20.092  26.468  1.00  0.00    -0.392 OA
ATOM     21  H   UNL A   1      33.954  20.063  27.168  1.00  0.00     0.210 HD
ENDBRANCH  18  20
ENDBRANCH  16  18
ENDBRANCH  15  16
ENDBRANCH  14  15
ENDBRANCH  13  14
ENDBRANCH   7  13
ENDBRANCH   5   7
ENDBRANCH   4   5
ENDBRANCH   3   4
ENDBRANCH   2   3
ENDBRANCH   1   2
BRANCH   1  22
ATOM     22  C   UNL A   1      32.015  29.362  24.487  1.00  0.00     0.188 C 
BRANCH  22  23
ATOM     23  C   UNL A   1      31.709  29.914  25.932  1.00  0.00     0.188 C 
BRANCH  23  24
ATOM     24  O   UNL A   1      32.521  29.505  27.026  1.00  0.00    -0.376 OA
BRANCH  24  25
ATOM     25  C   UNL A   1      33.707  30.235  27.273  1.00  0.00     0.202 C 
BRANCH  25  26
ATOM     26  C   UNL A   1      33.518  31.667  27.800  1.00  0.00     0.261 C 
BRANCH  26  27
ATOM     27  O   UNL A   1      34.727  32.305  28.233  1.00  0.00    -0.460 OA
BRANCH  27  28
ATOM     28  C   UNL A   1      35.028  32.151  29.553  1.00  0.00     0.338 C 
ATOM     29  O   UNL A   1      34.345  32.521  30.500  1.00  0.00    -0.246 OA
BRANCH  28  30
ATOM     30  C   UNL A   1      36.210  31.253  29.675  1.00  0.00     0.060 A 
ATOM     31  C   UNL A   1      36.234  30.312  30.718  1.00  0.00     0.016 A 
ATOM     32  C   UNL A   1      37.214  31.236  28.699  1.00  0.00     0.016 A 
ATOM     33  C   UNL A   1      37.285  29.394  30.818  1.00  0.00     0.010 A 
ATOM     34  C   UNL A   1      38.272  30.329  28.807  1.00  0.00     0.010 A 
ATOM     35  C   UNL A   1      38.335  29.436  29.891  1.00  0.00    -0.014 A 
BRANCH  35  36
ATOM     36  C   UNL A   1      39.640  28.806  30.215  1.00  0.00     0.031 A 
ATOM     37  C   UNL A   1      40.377  29.363  31.405  1.00  0.00     0.074 A 
ATOM     38  C   UNL A   1      40.170  27.805  29.489  1.00  0.00     0.049 A 
ATOM     39  N   UNL A   1      41.586  29.117  31.834  1.00  0.00    -0.248 NA
ATOM     40  C   UNL A   1      39.641  30.351  32.212  1.00  0.00     0.031 C 
ATOM     41  C   UNL A   1      39.521  27.140  28.361  1.00  0.00     0.029 A 
ATOM     42  N   UNL A   1      41.390  27.183  29.589  1.00  0.00    -0.354 N 
ATOM     43  C   UNL A   1      41.757  29.927  32.953  1.00  0.00     0.074 A 
ATOM     44  C   UNL A   1      40.544  30.696  33.113  1.00  0.00     0.031 C 
ATOM     45  C   UNL A   1      40.360  26.212  27.862  1.00  0.00     0.029 A 
ATOM     46  C   UNL A   1      41.622  26.254  28.600  1.00  0.00     0.049 A 
ATOM     47  H   UNL A   1      42.040  27.384  30.301  1.00  0.00     0.167 HD
ATOM     48  C   UNL A   1      42.828  30.018  33.776  1.00  0.00     0.034 A 
ATOM     49  C   UNL A   1      42.739  25.552  28.310  1.00  0.00     0.034 A 
ATOM     50  C   UNL A   1      44.039  29.265  33.581  1.00  0.00     0.049 A 
ATOM     51  C   UNL A   1      43.968  25.752  29.173  1.00  0.00     0.074 A 
ATOM     52  C   UNL A   1      45.197  29.281  34.336  1.00  0.00     0.029 A 
ATOM     53  N   UNL A   1      44.252  28.366  32.542  1.00  0.00    -0.354 N 
ATOM     54  N   UNL A   1      44.126  26.529  30.222  1.00  0.00    -0.248 NA
ATOM     55  C   UNL A   1      45.167  24.982  28.814  1.00  0.00     0.031 C 
ATOM     56  C   UNL A   1      46.136  28.455  33.710  1.00  0.00     0.029 A 
ATOM     57  C   UNL A   1      45.534  27.849  32.618  1.00  0.00     0.049 A 
ATOM     58  H   UNL A   1      43.589  28.132  31.853  1.00  0.00     0.167 HD
ATOM     59  C   UNL A   1      45.429  26.308  30.668  1.00  0.00     0.074 A 
ATOM     60  C   UNL A   1      46.006  25.320  29.781  1.00  0.00     0.031 C 
ATOM     61  C   UNL A   1      46.089  26.864  31.717  1.00  0.00     0.034 A 
BRANCH  48  62
ATOM     62  C   UNL A   1      42.750  31.019  34.904  1.00  0.00     0.023 A 
ATOM     63  C   UNL A   1      43.065  32.376  34.712  1.00  0.00     0.031 A 
ATOM     64  C   UNL A   1      42.410  30.599  36.201  1.00  0.00     0.131 A 
ATOM     65  C   UNL A   1      43.109  33.246  35.813  1.00  0.00     0.055 A 
ATOM     66  C   UNL A   1      42.370  31.487  37.276  1.00  0.00     0.041 A 
ATOM     67  F   UNL A   1      42.133  29.309  36.451  1.00  0.00    -0.206 F 
ATOM     68  C   UNL A   1      42.738  32.816  37.089  1.00  0.00     0.022 A 
BRANCH  65  69
ATOM     69  S   UNL A   1      43.815  34.901  35.582  1.00  0.00     0.124 S 
ATOM     70  O   UNL A   1      42.832  35.738  36.267  1.00  0.00    -0.237 OA
ATOM     71  O   UNL A   1      45.115  34.781  36.230  1.00  0.00    -0.237 OA
ATOM     72  O   UNL A   1      43.852  35.058  34.130  1.00  0.00    -0.744 OA
ENDBRANCH  65  69
ENDBRANCH  48  62
BRANCH  49  73
ATOM     73  C   UNL A   1      42.785  24.634  27.131  1.00  0.00     0.023 A 
ATOM     74  C   UNL A   1      42.257  23.334  27.199  1.00  0.00     0.031 A 
ATOM     75  C   UNL A   1      43.424  25.017  25.938  1.00  0.00     0.131 A 
ATOM     76  C   UNL A   1      42.421  22.451  26.118  1.00  0.00     0.055 A 
ATOM     77  C   UNL A   1      43.531  24.156  24.843  1.00  0.00     0.041 A 
ATOM     78  F   UNL A   1      43.956  26.244  25.815  1.00  0.00    -0.206 F 
ATOM     79  C   UNL A   1      43.040  22.858  24.935  1.00  0.00     0.022 A 
BRANCH  76  80
ATOM     80  S   UNL A   1      41.900  20.724  26.319  1.00  0.00     0.124 S 
ATOM     81  O   UNL A   1      40.487  20.799  25.965  1.00  0.00    -0.237 OA
ATOM     82  O   UNL A   1      42.766  20.034  25.369  1.00  0.00    -0.237 OA
ATOM     83  O   UNL A   1      42.177  20.448  27.727  1.00  0.00    -0.744 OA
ENDBRANCH  76  80
ENDBRANCH  49  73
BRANCH  61  84
ATOM     84  C   UNL A   1      47.488  26.368  31.998  1.00  0.00     0.023 A 
ATOM     85  C   UNL A   1      47.740  25.317  32.895  1.00  0.00     0.031 A 
ATOM     86  C   UNL A   1      48.586  26.958  31.345  1.00  0.00     0.131 A 
ATOM     87  C   UNL A   1      49.061  24.925  33.158  1.00  0.00     0.055 A 
ATOM     88  C   UNL A   1      49.892  26.516  31.557  1.00  0.00     0.041 A 
ATOM     89  F   UNL A   1      48.405  27.966  30.478  1.00  0.00    -0.206 F 
ATOM     90  C   UNL A   1      50.137  25.504  32.479  1.00  0.00     0.022 A 
BRANCH  87  91
ATOM     91  S   UNL A   1      49.364  23.719  34.477  1.00  0.00     0.124 S 
ATOM     92  O   UNL A   1      48.095  22.998  34.527  1.00  0.00    -0.237 OA
ATOM     93  O   UNL A   1      50.504  22.969  33.959  1.00  0.00    -0.237 OA
ATOM     94  O   UNL A   1      49.651  24.551  35.644  1.00  0.00    -0.744 OA
ENDBRANCH  87  91
ENDBRANCH  61  84
ENDBRANCH  35  36
ENDBRANCH  28  30
ENDBRANCH  27  28
ENDBRANCH  26  27
ENDBRANCH  25  26
ENDBRANCH  24  25
ENDBRANCH  23  24
ENDBRANCH  22  23
ENDBRANCH   1  22
TORSDOF 27
ENDMDL
MODEL 3
REMARK VINA RESULT:      -8.5      6.050      9.070
REMARK SMILES CC(=O)N[C@@H](CCS[C@@H](C)[C@@H](C)O)C(=O)OCCOCCOCCOC(=O)c1ccc(-c2c3nc(c(-c4cc(S(=O)(=O)[O-])ccc4F)c4ccc([nH]4)c(-c4cc(S(=O)(=O)[O-])ccc4F)c4nc(c(-c5cc(S(=O)(=O)[O-])ccc5F)c5ccc2[nH]5)C=C4)C=C3)cc1
REMARK SMILES IDX 19 1 18 2 17 3 16 4 14 5 15 6 5 7 4 8 1 9 2 10 3 11 6 13
REMARK SMILES IDX 7 14 8 15 9 16 10 17 11 18 12 19 13 20 20 22 21 23 22 24
REMARK SMILES IDX 23 25 24 26 25 27 26 28 27 29 28 30 29 31 90 32 30 33 89 34
REMARK SMILES IDX 31 35 32 36 33 37 83 38 34 39 88 40 82 41 84 42 35 43 87 44
REMARK SMILES IDX 81 45 80 46 36 48 68 49 48 50 67 51 49 52 52 53 66 54 85 55
REMARK SMILES IDX 50 56 51 57 65 59 86 60 53 61 37 62 38 63 46 64 39 65 45 66
REMARK SMILES IDX 47 67 44 68 40 69 41 70 42 71 43 72 69 73 70 74 78 75 71 76
REMARK SMILES IDX 77 77 79 78 76 79 72 80 73 81 74 82 75 83 54 84 55 85 63 86
REMARK SMILES IDX 56 87 62 88 64 89 61 90 57 91 58 92 59 93 60 94
REMARK H PARENT 4 12 13 21 84 47 52 58
REMARK Flexibility Score: inf
ROOT
ATOM      1  O   UNL A   1      34.691  31.852  27.294  1.00  0.00    -0.376 OA
ENDROOT
BRANCH   1   2
ATOM      2  C   UNL A   1      33.734  30.787  27.577  1.00  0.00     0.202 C 
BRANCH   2   3
ATOM      3  C   UNL A   1      32.840  29.951  26.432  1.00  0.00     0.261 C 
BRANCH   3   4
ATOM      4  O   UNL A   1      32.654  28.470  26.442  1.00  0.00    -0.462 OA
BRANCH   4   5
ATOM      5  C   UNL A   1      31.675  27.672  27.014  1.00  0.00     0.328 C 
ATOM      6  O   UNL A   1      31.072  27.997  28.032  1.00  0.00    -0.250 OA
BRANCH   5   7
ATOM      7  C   UNL A   1      31.297  26.206  26.165  1.00  0.00     0.193 C 
BRANCH   7   8
ATOM      8  N   UNL A   1      30.575  24.949  26.612  1.00  0.00    -0.343 N 
ATOM      9  C   UNL A   1      32.261  23.176  27.118  1.00  0.00     0.114 C 
ATOM     10  C   UNL A   1      30.861  23.663  26.936  1.00  0.00     0.217 C 
ATOM     11  O   UNL A   1      29.896  22.926  27.163  1.00  0.00    -0.275 OA
ATOM     12  H   UNL A   1      29.608  25.117  26.692  1.00  0.00     0.164 HD
ENDBRANCH   7   8
BRANCH   7  13
ATOM     13  C   UNL A   1      30.494  26.559  24.904  1.00  0.00     0.048 C 
BRANCH  13  14
ATOM     14  C   UNL A   1      30.343  25.377  23.925  1.00  0.00     0.072 C 
BRANCH  14  15
ATOM     15  S   UNL A   1      31.940  24.644  23.515  1.00  0.00    -0.156 SA
BRANCH  15  16
ATOM     16  C   UNL A   1      32.837  25.873  22.431  1.00  0.00     0.072 C 
ATOM     17  C   UNL A   1      32.606  25.547  20.947  1.00  0.00     0.022 C 
BRANCH  16  18
ATOM     18  C   UNL A   1      33.238  27.424  22.463  1.00  0.00     0.124 C 
ATOM     19  C   UNL A   1      34.069  28.362  23.451  1.00  0.00     0.039 C 
BRANCH  18  20
ATOM     20  O   UNL A   1      33.678  27.504  21.092  1.00  0.00    -0.392 OA
ATOM     21  H   UNL A   1      34.647  27.545  21.064  1.00  0.00     0.210 HD
ENDBRANCH  18  20
ENDBRANCH  16  18
ENDBRANCH  15  16
ENDBRANCH  14  15
ENDBRANCH  13  14
ENDBRANCH   7  13
ENDBRANCH   5   7
ENDBRANCH   4   5
ENDBRANCH   3   4
ENDBRANCH   2   3
ENDBRANCH   1   2
BRANCH   1  22
ATOM     22  C   UNL A   1      35.479  32.468  28.356  1.00  0.00     0.188 C 
BRANCH  22  23
ATOM     23  C   UNL A   1      35.063  32.052  29.820  1.00  0.00     0.188 C 
BRANCH  23  24
ATOM     24  O   UNL A   1      35.772  31.009  30.480  1.00  0.00    -0.376 OA
BRANCH  24  25
ATOM     25  C   UNL A   1      36.831  30.388  29.778  1.00  0.00     0.202 C 
BRANCH  25  26
ATOM     26  C   UNL A   1      37.305  29.036  30.335  1.00  0.00     0.261 C 
BRANCH  26  27
ATOM     27  O   UNL A   1      36.916  28.784  31.692  1.00  0.00    -0.460 OA
BRANCH  27  28
ATOM     28  C   UNL A   1      37.924  28.408  32.529  1.00  0.00     0.338 C 
ATOM     29  O   UNL A   1      38.291  27.261  32.752  1.00  0.00    -0.246 OA
BRANCH  28  30
ATOM     30  C   UNL A   1      38.669  29.624  32.960  1.00  0.00     0.060 A 
ATOM     31  C   UNL A   1      37.936  30.751  33.370  1.00  0.00     0.016 A 
ATOM     32  C   UNL A   1      40.063  29.613  33.094  1.00  0.00     0.016 A 
ATOM     33  C   UNL A   1      38.596  31.882  33.861  1.00  0.00     0.010 A 
ATOM     34  C   UNL A   1      40.723  30.749  33.570  1.00  0.00     0.010 A 
ATOM     35  C   UNL A   1      39.997  31.903  33.912  1.00  0.00    -0.014 A 
BRANCH  35  36
ATOM     36  C   UNL A   1      40.719  33.198  33.994  1.00  0.00     0.031 A 
ATOM     37  C   UNL A   1      41.285  33.733  32.704  1.00  0.00     0.074 A 
ATOM     38  C   UNL A   1      40.893  33.867  35.148  1.00  0.00     0.049 A 
ATOM     39  N   UNL A   1      42.078  34.750  32.494  1.00  0.00    -0.248 NA
ATOM     40  C   UNL A   1      40.909  32.999  31.484  1.00  0.00     0.031 C 
ATOM     41  C   UNL A   1      40.336  33.483  36.443  1.00  0.00     0.029 A 
ATOM     42  N   UNL A   1      41.609  35.008  35.415  1.00  0.00    -0.354 N 
ATOM     43  C   UNL A   1      42.302  34.770  31.121  1.00  0.00     0.074 A 
ATOM     44  C   UNL A   1      41.594  33.645  30.556  1.00  0.00     0.031 C 
ATOM     45  C   UNL A   1      40.745  34.368  37.372  1.00  0.00     0.029 A 
ATOM     46  C   UNL A   1      41.634  35.348  36.749  1.00  0.00     0.049 A 
ATOM     47  H   UNL A   1      42.061  35.535  34.717  1.00  0.00     0.167 HD
ATOM     48  C   UNL A   1      43.031  35.651  30.395  1.00  0.00     0.034 A 
ATOM     49  C   UNL A   1      42.328  36.315  37.388  1.00  0.00     0.034 A 
ATOM     50  C   UNL A   1      43.755  36.748  30.982  1.00  0.00     0.049 A 
ATOM     51  C   UNL A   1      43.231  37.220  36.574  1.00  0.00     0.074 A 
ATOM     52  C   UNL A   1      44.539  37.697  30.355  1.00  0.00     0.029 A 
ATOM     53  N   UNL A   1      43.792  37.032  32.342  1.00  0.00    -0.354 N 
ATOM     54  N   UNL A   1      43.447  37.225  35.277  1.00  0.00    -0.248 NA
ATOM     55  C   UNL A   1      43.980  38.248  37.309  1.00  0.00     0.031 C 
ATOM     56  C   UNL A   1      45.115  38.505  31.341  1.00  0.00     0.029 A 
ATOM     57  C   UNL A   1      44.614  38.122  32.576  1.00  0.00     0.049 A 
ATOM     58  H   UNL A   1      43.306  36.533  33.037  1.00  0.00     0.167 HD
ATOM     59  C   UNL A   1      44.326  38.282  35.041  1.00  0.00     0.074 A 
ATOM     60  C   UNL A   1      44.589  38.894  36.326  1.00  0.00     0.031 C 
ATOM     61  C   UNL A   1      44.864  38.713  33.870  1.00  0.00     0.034 A 
BRANCH  48  62
ATOM     62  C   UNL A   1      43.131  35.405  28.909  1.00  0.00     0.023 A 
ATOM     63  C   UNL A   1      44.010  34.446  28.374  1.00  0.00     0.031 A 
ATOM     64  C   UNL A   1      42.379  36.181  28.011  1.00  0.00     0.131 A 
ATOM     65  C   UNL A   1      44.170  34.343  26.984  1.00  0.00     0.055 A 
ATOM     66  C   UNL A   1      42.478  36.013  26.629  1.00  0.00     0.041 A 
ATOM     67  F   UNL A   1      41.548  37.135  28.461  1.00  0.00    -0.206 F 
ATOM     68  C   UNL A   1      43.390  35.100  26.108  1.00  0.00     0.022 A 
BRANCH  65  69
ATOM     69  S   UNL A   1      45.526  33.323  26.341  1.00  0.00     0.124 S 
ATOM     70  O   UNL A   1      44.811  32.405  25.457  1.00  0.00    -0.237 OA
ATOM     71  O   UNL A   1      46.378  34.308  25.687  1.00  0.00    -0.237 OA
ATOM     72  O   UNL A   1      46.089  32.707  27.541  1.00  0.00    -0.744 OA
ENDBRANCH  65  69
ENDBRANCH  48  62
BRANCH  49  73
ATOM     73  C   UNL A   1      42.253  36.460  38.874  1.00  0.00     0.023 A 
ATOM     74  C   UNL A   1      41.240  37.221  39.480  1.00  0.00     0.031 A 
ATOM     75  C   UNL A   1      43.237  35.899  39.708  1.00  0.00     0.131 A 
ATOM     76  C   UNL A   1      41.262  37.442  40.869  1.00  0.00     0.055 A 
ATOM     77  C   UNL A   1      43.220  36.072  41.094  1.00  0.00     0.041 A 
ATOM     78  F   UNL A   1      44.236  35.169  39.186  1.00  0.00    -0.206 F 
ATOM     79  C   UNL A   1      42.236  36.859  41.681  1.00  0.00     0.022 A 
BRANCH  76  80
ATOM     80  S   UNL A   1      40.052  38.590  41.585  1.00  0.00     0.124 S 
ATOM     81  O   UNL A   1      39.858  38.021  42.914  1.00  0.00    -0.237 OA
ATOM     82  O   UNL A   1      40.768  39.859  41.527  1.00  0.00    -0.237 OA
ATOM     83  O   UNL A   1      38.906  38.480  40.685  1.00  0.00    -0.744 OA
ENDBRANCH  76  80
ENDBRANCH  49  73
BRANCH  61  84
ATOM     84  C   UNL A   1      45.740  39.943  33.921  1.00  0.00     0.023 A 
ATOM     85  C   UNL A   1      45.214  41.223  34.162  1.00  0.00     0.031 A 
ATOM     86  C   UNL A   1      47.129  39.823  33.733  1.00  0.00     0.131 A 
ATOM     87  C   UNL A   1      46.063  42.340  34.152  1.00  0.00     0.055 A 
ATOM     88  C   UNL A   1      47.978  40.929  33.794  1.00  0.00     0.041 A 
ATOM     89  F   UNL A   1      47.687  38.625  33.498  1.00  0.00    -0.206 F 
ATOM     90  C   UNL A   1      47.445  42.198  33.990  1.00  0.00     0.022 A 
BRANCH  87  91
ATOM     91  S   UNL A   1      45.327  43.994  34.250  1.00  0.00     0.124 S 
ATOM     92  O   UNL A   1      43.987  43.700  34.749  1.00  0.00    -0.237 OA
ATOM     93  O   UNL A   1      46.218  44.678  35.181  1.00  0.00    -0.237 OA
ATOM     94  O   UNL A   1      45.383  44.476  32.871  1.00  0.00    -0.744 OA
ENDBRANCH  87  91
ENDBRANCH  61  84
ENDBRANCH  35  36
ENDBRANCH  28  30
ENDBRANCH  27  28
ENDBRANCH  26  27
ENDBRANCH  25  26
ENDBRANCH  24  25
ENDBRANCH  23  24
ENDBRANCH  22  23
ENDBRANCH   1  22
TORSDOF 27
ENDMDL
