MODEL 1
REMARK VINA RESULT:     -11.0      0.000      0.000
REMARK SMILES O=C(OCCOCCOCCOC(=O)[C@H]1CC(=O)N(CCc2ccc3c(c2)OCO3)C1)c1ccc(-c2c3nc(c(-c4cc(S(=O)(=O)[O-])ccc4F)c4ccc([nH]4)c(-c4cc(S(=O)(=O)[O-])ccc4F)c4nc(c(-c5cc(S(=O)(=O)[O-])ccc5F)c5ccc2[nH]5)C=C4)C=C3)cc1
REMARK SMILES IDX 7 1 6 2 5 3 4 4 3 5 2 6 1 7 32 8 33 9 94 10 34 11 93 12
REMARK SMILES IDX 35 13 36 14 37 15 87 16 38 17 92 18 86 19 88 20 39 21 91 22
REMARK SMILES IDX 85 23 84 24 40 26 72 27 52 28 71 29 53 30 56 31 70 32 89 33
REMARK SMILES IDX 54 34 55 35 69 37 90 38 57 39 41 40 42 41 50 42 43 43 49 44
REMARK SMILES IDX 51 45 48 46 44 47 45 48 46 49 47 50 73 51 74 52 82 53 75 54
REMARK SMILES IDX 81 55 83 56 80 57 76 58 77 59 78 60 79 61 58 62 59 63 67 64
REMARK SMILES IDX 60 65 66 66 68 67 65 68 61 69 62 70 63 71 64 72 8 73 9 74
REMARK SMILES IDX 10 75 11 76 12 77 13 78 14 79 15 80 16 81 31 82 17 83 19 84
REMARK SMILES IDX 18 85 20 86 21 87 22 88 23 89 27 90 24 91 26 92 25 93 28 94
REMARK SMILES IDX 30 95 29 96
REMARK H PARENT 88 25 56 36
REMARK Flexibility Score: inf
ROOT
ATOM      1  C   UNL A   1      33.968  19.714  24.750  1.00  0.00     0.188 C 
ENDROOT
BRANCH   1   2
ATOM      2  O   UNL A   1      35.373  19.932  24.902  1.00  0.00    -0.376 OA
BRANCH   2   3
ATOM      3  C   UNL A   1      35.770  21.281  24.615  1.00  0.00     0.202 C 
BRANCH   3   4
ATOM      4  C   UNL A   1      37.290  21.541  24.576  1.00  0.00     0.261 C 
BRANCH   4   5
ATOM      5  O   UNL A   1      38.019  20.908  25.642  1.00  0.00    -0.460 OA
BRANCH   5   6
ATOM      6  C   UNL A   1      39.277  21.158  26.088  1.00  0.00     0.338 C 
ATOM      7  O   UNL A   1      40.110  20.256  25.997  1.00  0.00    -0.246 OA
BRANCH   6   8
ATOM      8  C   UNL A   1      39.714  22.455  26.695  1.00  0.00     0.060 A 
ATOM      9  C   UNL A   1      39.159  23.703  26.414  1.00  0.00     0.016 A 
ATOM     10  C   UNL A   1      40.745  22.402  27.650  1.00  0.00     0.016 A 
ATOM     11  C   UNL A   1      39.690  24.872  26.941  1.00  0.00     0.010 A 
ATOM     12  C   UNL A   1      41.263  23.571  28.220  1.00  0.00     0.010 A 
ATOM     13  C   UNL A   1      40.772  24.814  27.811  1.00  0.00    -0.014 A 
BRANCH  13  14
ATOM     14  C   UNL A   1      41.459  26.085  28.111  1.00  0.00     0.031 A 
ATOM     15  C   UNL A   1      42.806  26.317  27.525  1.00  0.00     0.074 A 
ATOM     16  C   UNL A   1      40.830  27.058  28.787  1.00  0.00     0.049 A 
ATOM     17  N   UNL A   1      43.558  27.377  27.607  1.00  0.00    -0.248 NA
ATOM     18  C   UNL A   1      43.381  25.211  26.748  1.00  0.00     0.031 C 
ATOM     19  C   UNL A   1      39.516  26.893  29.379  1.00  0.00     0.029 A 
ATOM     20  N   UNL A   1      41.187  28.340  29.116  1.00  0.00    -0.354 N 
ATOM     21  C   UNL A   1      44.715  27.059  26.916  1.00  0.00     0.074 A 
ATOM     22  C   UNL A   1      44.570  25.700  26.440  1.00  0.00     0.031 C 
ATOM     23  C   UNL A   1      39.205  28.010  30.043  1.00  0.00     0.029 A 
ATOM     24  C   UNL A   1      40.235  29.001  29.856  1.00  0.00     0.049 A 
ATOM     25  H   UNL A   1      42.043  28.748  28.848  1.00  0.00     0.167 HD
ATOM     26  C   UNL A   1      45.798  27.844  26.714  1.00  0.00     0.034 A 
ATOM     27  C   UNL A   1      40.182  30.258  30.335  1.00  0.00     0.034 A 
ATOM     28  C   UNL A   1      45.912  29.177  27.249  1.00  0.00     0.049 A 
ATOM     29  C   UNL A   1      41.399  31.099  30.108  1.00  0.00     0.074 A 
ATOM     30  C   UNL A   1      46.976  30.054  27.164  1.00  0.00     0.029 A 
ATOM     31  N   UNL A   1      44.925  29.822  27.993  1.00  0.00    -0.354 N 
ATOM     32  N   UNL A   1      42.501  30.780  29.471  1.00  0.00    -0.248 NA
ATOM     33  C   UNL A   1      41.386  32.445  30.681  1.00  0.00     0.031 C 
ATOM     34  C   UNL A   1      46.664  31.193  27.914  1.00  0.00     0.029 A 
ATOM     35  C   UNL A   1      45.369  31.074  28.393  1.00  0.00     0.049 A 
ATOM     36  H   UNL A   1      44.041  29.444  28.204  1.00  0.00     0.167 HD
ATOM     37  C   UNL A   1      43.326  31.886  29.576  1.00  0.00     0.074 A 
ATOM     38  C   UNL A   1      42.568  32.898  30.293  1.00  0.00     0.031 C 
ATOM     39  C   UNL A   1      44.600  32.044  29.139  1.00  0.00     0.034 A 
BRANCH  26  40
ATOM     40  C   UNL A   1      46.951  27.202  25.989  1.00  0.00     0.023 A 
ATOM     41  C   UNL A   1      47.929  26.456  26.671  1.00  0.00     0.031 A 
ATOM     42  C   UNL A   1      47.151  27.468  24.624  1.00  0.00     0.131 A 
ATOM     43  C   UNL A   1      49.115  26.098  26.012  1.00  0.00     0.055 A 
ATOM     44  C   UNL A   1      48.288  27.021  23.950  1.00  0.00     0.041 A 
ATOM     45  F   UNL A   1      46.271  28.210  23.935  1.00  0.00    -0.206 F 
ATOM     46  C   UNL A   1      49.289  26.351  24.648  1.00  0.00     0.022 A 
BRANCH  43  47
ATOM     47  S   UNL A   1      50.505  25.486  27.006  1.00  0.00     0.124 S 
ATOM     48  O   UNL A   1      51.498  25.194  25.975  1.00  0.00    -0.237 OA
ATOM     49  O   UNL A   1      50.800  26.622  27.872  1.00  0.00    -0.237 OA
ATOM     50  O   UNL A   1      49.953  24.313  27.680  1.00  0.00    -0.744 OA
ENDBRANCH  43  47
ENDBRANCH  26  40
BRANCH  27  51
ATOM     51  C   UNL A   1      38.995  30.795  31.073  1.00  0.00     0.023 A 
ATOM     52  C   UNL A   1      37.873  31.287  30.382  1.00  0.00     0.031 A 
ATOM     53  C   UNL A   1      38.985  30.886  32.476  1.00  0.00     0.131 A 
ATOM     54  C   UNL A   1      36.815  31.888  31.089  1.00  0.00     0.055 A 
ATOM     55  C   UNL A   1      37.906  31.434  33.178  1.00  0.00     0.041 A 
ATOM     56  F   UNL A   1      40.017  30.421  33.196  1.00  0.00    -0.206 F 
ATOM     57  C   UNL A   1      36.817  31.949  32.483  1.00  0.00     0.022 A 
BRANCH  54  58
ATOM     58  S   UNL A   1      35.476  32.685  30.155  1.00  0.00     0.124 S 
ATOM     59  O   UNL A   1      34.351  32.542  31.073  1.00  0.00    -0.237 OA
ATOM     60  O   UNL A   1      35.990  34.039  29.975  1.00  0.00    -0.237 OA
ATOM     61  O   UNL A   1      35.392  31.887  28.934  1.00  0.00    -0.744 OA
ENDBRANCH  54  58
ENDBRANCH  27  51
BRANCH  39  62
ATOM     62  C   UNL A   1      45.220  33.384  29.422  1.00  0.00     0.023 A 
ATOM     63  C   UNL A   1      45.247  34.398  28.451  1.00  0.00     0.031 A 
ATOM     64  C   UNL A   1      45.848  33.618  30.656  1.00  0.00     0.131 A 
ATOM     65  C   UNL A   1      45.965  35.574  28.700  1.00  0.00     0.055 A 
ATOM     66  C   UNL A   1      46.489  34.825  30.928  1.00  0.00     0.041 A 
ATOM     67  F   UNL A   1      45.860  32.673  31.609  1.00  0.00    -0.206 F 
ATOM     68  C   UNL A   1      46.566  35.803  29.941  1.00  0.00     0.022 A 
BRANCH  65  69
ATOM     69  S   UNL A   1      46.223  36.734  27.332  1.00  0.00     0.124 S 
ATOM     70  O   UNL A   1      46.991  37.794  27.977  1.00  0.00    -0.237 OA
ATOM     71  O   UNL A   1      46.949  35.919  26.363  1.00  0.00    -0.237 OA
ATOM     72  O   UNL A   1      44.865  37.104  26.938  1.00  0.00    -0.744 OA
ENDBRANCH  65  69
ENDBRANCH  39  62
ENDBRANCH  13  14
ENDBRANCH   6   8
ENDBRANCH   5   6
ENDBRANCH   4   5
ENDBRANCH   3   4
ENDBRANCH   2   3
ENDBRANCH   1   2
BRANCH   1  73
ATOM     73  C   UNL A   1      33.158  20.930  24.308  1.00  0.00     0.188 C 
BRANCH  73  74
ATOM     74  O   UNL A   1      32.234  20.776  23.241  1.00  0.00    -0.376 OA
BRANCH  74  75
ATOM     75  C   UNL A   1      32.228  21.763  22.219  1.00  0.00     0.202 C 
BRANCH  75  76
ATOM     76  C   UNL A   1      33.149  22.987  22.352  1.00  0.00     0.261 C 
BRANCH  76  77
ATOM     77  O   UNL A   1      32.513  24.274  22.425  1.00  0.00    -0.463 OA
BRANCH  77  78
ATOM     78  C   UNL A   1      32.721  25.070  21.342  1.00  0.00     0.311 C 
ATOM     79  O   UNL A   1      33.215  24.690  20.284  1.00  0.00    -0.252 OA
BRANCH  78  80
ATOM     80  C   UNL A   1      32.473  26.531  21.606  1.00  0.00     0.128 C 
ATOM     81  C   UNL A   1      31.152  27.038  22.163  1.00  0.00     0.117 C 
ATOM     82  C   UNL A   1      33.438  26.810  22.730  1.00  0.00     0.135 C 
ATOM     83  C   UNL A   1      31.618  28.192  23.039  1.00  0.00     0.223 C 
ATOM     84  N   UNL A   1      32.904  27.900  23.468  1.00  0.00    -0.341 N 
ATOM     85  O   UNL A   1      30.944  29.171  23.323  1.00  0.00    -0.275 OA
BRANCH  84  86
ATOM     86  C   UNL A   1      33.704  28.569  24.496  1.00  0.00     0.124 C 
BRANCH  86  87
ATOM     87  C   UNL A   1      33.766  27.891  25.904  1.00  0.00     0.057 C 
BRANCH  87  88
ATOM     88  C   UNL A   1      33.212  26.504  26.143  1.00  0.00    -0.042 A 
ATOM     89  C   UNL A   1      34.036  25.376  25.922  1.00  0.00     0.008 A 
ATOM     90  C   UNL A   1      31.859  26.292  26.437  1.00  0.00     0.054 A 
ATOM     91  C   UNL A   1      33.627  24.085  26.244  1.00  0.00     0.051 A 
ATOM     92  C   UNL A   1      31.435  24.988  26.606  1.00  0.00     0.166 A 
ATOM     93  C   UNL A   1      32.308  23.923  26.566  1.00  0.00     0.165 A 
ATOM     94  O   UNL A   1      30.150  24.574  26.791  1.00  0.00    -0.454 OA
ATOM     95  O   UNL A   1      31.692  22.730  26.786  1.00  0.00    -0.454 OA
ATOM     96  C   UNL A   1      30.319  23.148  26.656  1.00  0.00     0.468 C 
ENDBRANCH  87  88
ENDBRANCH  86  87
ENDBRANCH  84  86
ENDBRANCH  78  80
ENDBRANCH  77  78
ENDBRANCH  76  77
ENDBRANCH  75  76
ENDBRANCH  74  75
ENDBRANCH  73  74
ENDBRANCH   1  73
TORSDOF 23
ENDMDL
MODEL 2
REMARK VINA RESULT:     -10.9      2.138      2.519
REMARK SMILES O=C(OCCOCCOCCOC(=O)[C@H]1CC(=O)N(CCc2ccc3c(c2)OCO3)C1)c1ccc(-c2c3nc(c(-c4cc(S(=O)(=O)[O-])ccc4F)c4ccc([nH]4)c(-c4cc(S(=O)(=O)[O-])ccc4F)c4nc(c(-c5cc(S(=O)(=O)[O-])ccc5F)c5ccc2[nH]5)C=C4)C=C3)cc1
REMARK SMILES IDX 7 1 6 2 5 3 4 4 3 5 2 6 1 7 32 8 33 9 94 10 34 11 93 12
REMARK SMILES IDX 35 13 36 14 37 15 87 16 38 17 92 18 86 19 88 20 39 21 91 22
REMARK SMILES IDX 85 23 84 24 40 26 72 27 52 28 71 29 53 30 56 31 70 32 89 33
REMARK SMILES IDX 54 34 55 35 69 37 90 38 57 39 41 40 42 41 50 42 43 43 49 44
REMARK SMILES IDX 51 45 48 46 44 47 45 48 46 49 47 50 73 51 74 52 82 53 75 54
REMARK SMILES IDX 81 55 83 56 80 57 76 58 77 59 78 60 79 61 58 62 59 63 67 64
REMARK SMILES IDX 60 65 66 66 68 67 65 68 61 69 62 70 63 71 64 72 8 73 9 74
REMARK SMILES IDX 10 75 11 76 12 77 13 78 14 79 15 80 16 81 31 82 17 83 19 84
REMARK SMILES IDX 18 85 20 86 21 87 22 88 23 89 27 90 24 91 26 92 25 93 28 94
REMARK SMILES IDX 30 95 29 96
REMARK H PARENT 88 25 56 36
REMARK Flexibility Score: inf
ROOT
ATOM      1  C   UNL A   1      34.501  19.820  24.853  1.00  0.00     0.188 C 
ENDROOT
BRANCH   1   2
ATOM      2  O   UNL A   1      35.904  20.057  24.997  1.00  0.00    -0.376 OA
BRANCH   2   3
ATOM      3  C   UNL A   1      36.217  21.419  25.324  1.00  0.00     0.202 C 
BRANCH   3   4
ATOM      4  C   UNL A   1      37.656  21.873  25.008  1.00  0.00     0.261 C 
BRANCH   4   5
ATOM      5  O   UNL A   1      38.653  21.303  25.875  1.00  0.00    -0.460 OA
BRANCH   5   6
ATOM      6  C   UNL A   1      39.846  21.820  26.267  1.00  0.00     0.338 C 
ATOM      7  O   UNL A   1      40.852  21.128  26.113  1.00  0.00    -0.246 OA
BRANCH   6   8
ATOM      8  C   UNL A   1      40.015  23.173  26.887  1.00  0.00     0.060 A 
ATOM      9  C   UNL A   1      39.348  24.330  26.490  1.00  0.00     0.016 A 
ATOM     10  C   UNL A   1      40.893  23.271  27.982  1.00  0.00     0.016 A 
ATOM     11  C   UNL A   1      39.638  25.567  27.048  1.00  0.00     0.010 A 
ATOM     12  C   UNL A   1      41.164  24.507  28.581  1.00  0.00     0.010 A 
ATOM     13  C   UNL A   1      40.580  25.667  28.065  1.00  0.00    -0.014 A 
BRANCH  13  14
ATOM     14  C   UNL A   1      41.042  27.023  28.419  1.00  0.00     0.031 A 
ATOM     15  C   UNL A   1      42.434  27.411  28.065  1.00  0.00     0.074 A 
ATOM     16  C   UNL A   1      40.190  27.925  28.929  1.00  0.00     0.049 A 
ATOM     17  N   UNL A   1      43.025  28.560  28.226  1.00  0.00    -0.248 NA
ATOM     18  C   UNL A   1      43.268  26.368  27.453  1.00  0.00     0.031 C 
ATOM     19  C   UNL A   1      38.822  27.607  29.291  1.00  0.00     0.029 A 
ATOM     20  N   UNL A   1      40.324  29.249  29.253  1.00  0.00    -0.354 N 
ATOM     21  C   UNL A   1      44.316  28.376  27.761  1.00  0.00     0.074 A 
ATOM     22  C   UNL A   1      44.424  26.997  27.333  1.00  0.00     0.031 C 
ATOM     23  C   UNL A   1      38.264  28.691  29.837  1.00  0.00     0.029 A 
ATOM     24  C   UNL A   1      39.182  29.801  29.785  1.00  0.00     0.049 A 
ATOM     25  H   UNL A   1      41.158  29.756  29.118  1.00  0.00     0.167 HD
ATOM     26  C   UNL A   1      45.314  29.287  27.713  1.00  0.00     0.034 A 
ATOM     27  C   UNL A   1      38.892  31.053  30.186  1.00  0.00     0.034 A 
ATOM     28  C   UNL A   1      45.168  30.637  28.195  1.00  0.00     0.049 A 
ATOM     29  C   UNL A   1      40.019  32.037  30.133  1.00  0.00     0.074 A 
ATOM     30  C   UNL A   1      46.115  31.640  28.253  1.00  0.00     0.029 A 
ATOM     31  N   UNL A   1      43.994  31.169  28.725  1.00  0.00    -0.354 N 
ATOM     32  N   UNL A   1      41.248  31.846  29.713  1.00  0.00    -0.248 NA
ATOM     33  C   UNL A   1      39.741  33.385  30.631  1.00  0.00     0.031 C 
ATOM     34  C   UNL A   1      45.539  32.749  28.883  1.00  0.00     0.029 A 
ATOM     35  C   UNL A   1      44.203  32.477  29.136  1.00  0.00     0.049 A 
ATOM     36  H   UNL A   1      43.138  30.687  28.797  1.00  0.00     0.167 HD
ATOM     37  C   UNL A   1      41.899  33.051  29.907  1.00  0.00     0.074 A 
ATOM     38  C   UNL A   1      40.909  33.975  30.432  1.00  0.00     0.031 C 
ATOM     39  C   UNL A   1      43.202  33.360  29.690  1.00  0.00     0.034 A 
BRANCH  26  40
ATOM     40  C   UNL A   1      46.647  28.780  27.229  1.00  0.00     0.023 A 
ATOM     41  C   UNL A   1      46.898  28.545  25.865  1.00  0.00     0.031 A 
ATOM     42  C   UNL A   1      47.623  28.388  28.160  1.00  0.00     0.131 A 
ATOM     43  C   UNL A   1      48.045  27.834  25.482  1.00  0.00     0.055 A 
ATOM     44  C   UNL A   1      48.809  27.771  27.761  1.00  0.00     0.041 A 
ATOM     45  F   UNL A   1      47.418  28.551  29.476  1.00  0.00    -0.206 F 
ATOM     46  C   UNL A   1      49.016  27.470  26.418  1.00  0.00     0.022 A 
BRANCH  43  47
ATOM     47  S   UNL A   1      48.147  27.213  23.779  1.00  0.00     0.124 S 
ATOM     48  O   UNL A   1      47.297  28.165  23.067  1.00  0.00    -0.237 OA
ATOM     49  O   UNL A   1      49.575  27.297  23.496  1.00  0.00    -0.237 OA
ATOM     50  O   UNL A   1      47.608  25.858  23.875  1.00  0.00    -0.744 OA
ENDBRANCH  43  47
ENDBRANCH  26  40
BRANCH  27  51
ATOM     51  C   UNL A   1      37.537  31.452  30.681  1.00  0.00     0.023 A 
ATOM     52  C   UNL A   1      36.629  32.127  29.845  1.00  0.00     0.031 A 
ATOM     53  C   UNL A   1      37.147  31.225  32.013  1.00  0.00     0.131 A 
ATOM     54  C   UNL A   1      35.405  32.592  30.360  1.00  0.00     0.055 A 
ATOM     55  C   UNL A   1      35.905  31.640  32.505  1.00  0.00     0.041 A 
ATOM     56  F   UNL A   1      37.960  30.573  32.859  1.00  0.00    -0.206 F 
ATOM     57  C   UNL A   1      35.030  32.337  31.679  1.00  0.00     0.022 A 
BRANCH  54  58
ATOM     58  S   UNL A   1      34.345  33.626  29.307  1.00  0.00     0.124 S 
ATOM     59  O   UNL A   1      35.317  34.539  28.716  1.00  0.00    -0.237 OA
ATOM     60  O   UNL A   1      33.755  32.642  28.405  1.00  0.00    -0.237 OA
ATOM     61  O   UNL A   1      33.413  34.232  30.256  1.00  0.00    -0.744 OA
ENDBRANCH  54  58
ENDBRANCH  27  51
BRANCH  39  62
ATOM     62  C   UNL A   1      43.594  34.774  30.012  1.00  0.00     0.023 A 
ATOM     63  C   UNL A   1      43.990  35.148  31.307  1.00  0.00     0.031 A 
ATOM     64  C   UNL A   1      43.506  35.768  29.024  1.00  0.00     0.131 A 
ATOM     65  C   UNL A   1      44.201  36.501  31.601  1.00  0.00     0.055 A 
ATOM     66  C   UNL A   1      43.799  37.101  29.304  1.00  0.00     0.041 A 
ATOM     67  F   UNL A   1      43.118  35.460  27.776  1.00  0.00    -0.206 F 
ATOM     68  C   UNL A   1      44.132  37.476  30.603  1.00  0.00     0.022 A 
BRANCH  65  69
ATOM     69  S   UNL A   1      44.428  36.982  33.334  1.00  0.00     0.124 S 
ATOM     70  O   UNL A   1      43.090  37.437  33.696  1.00  0.00    -0.237 OA
ATOM     71  O   UNL A   1      44.866  35.734  33.951  1.00  0.00    -0.237 OA
ATOM     72  O   UNL A   1      45.443  38.031  33.266  1.00  0.00    -0.744 OA
ENDBRANCH  65  69
ENDBRANCH  39  62
ENDBRANCH  13  14
ENDBRANCH   6   8
ENDBRANCH   5   6
ENDBRANCH   4   5
ENDBRANCH   3   4
ENDBRANCH   2   3
ENDBRANCH   1   2
BRANCH   1  73
ATOM     73  C   UNL A   1      33.670  21.029  24.433  1.00  0.00     0.188 C 
BRANCH  73  74
ATOM     74  O   UNL A   1      32.685  20.857  23.424  1.00  0.00    -0.376 OA
BRANCH  74  75
ATOM     75  C   UNL A   1      32.149  22.021  22.813  1.00  0.00     0.202 C 
BRANCH  75  76
ATOM     76  C   UNL A   1      33.095  22.997  22.095  1.00  0.00     0.261 C 
BRANCH  76  77
ATOM     77  O   UNL A   1      32.906  24.397  22.356  1.00  0.00    -0.463 OA
BRANCH  77  78
ATOM     78  C   UNL A   1      32.896  25.184  21.246  1.00  0.00     0.311 C 
ATOM     79  O   UNL A   1      33.261  24.819  20.133  1.00  0.00    -0.252 OA
BRANCH  78  80
ATOM     80  C   UNL A   1      32.578  26.628  21.528  1.00  0.00     0.128 C 
ATOM     81  C   UNL A   1      31.219  27.069  22.050  1.00  0.00     0.117 C 
ATOM     82  C   UNL A   1      33.493  26.924  22.689  1.00  0.00     0.135 C 
ATOM     83  C   UNL A   1      31.608  28.224  22.961  1.00  0.00     0.223 C 
ATOM     84  N   UNL A   1      32.890  27.977  23.428  1.00  0.00    -0.341 N 
ATOM     85  O   UNL A   1      30.884  29.168  23.241  1.00  0.00    -0.275 OA
BRANCH  84  86
ATOM     86  C   UNL A   1      33.628  28.659  24.494  1.00  0.00     0.124 C 
BRANCH  86  87
ATOM     87  C   UNL A   1      33.577  28.016  25.919  1.00  0.00     0.057 C 
BRANCH  87  88
ATOM     88  C   UNL A   1      33.106  26.595  26.133  1.00  0.00    -0.042 A 
ATOM     89  C   UNL A   1      33.970  25.519  25.823  1.00  0.00     0.008 A 
ATOM     90  C   UNL A   1      31.784  26.305  26.492  1.00  0.00     0.054 A 
ATOM     91  C   UNL A   1      33.643  24.198  26.116  1.00  0.00     0.051 A 
ATOM     92  C   UNL A   1      31.433  24.975  26.633  1.00  0.00     0.166 A 
ATOM     93  C   UNL A   1      32.354  23.958  26.503  1.00  0.00     0.165 A 
ATOM     94  O   UNL A   1      30.182  24.490  26.871  1.00  0.00    -0.454 OA
ATOM     95  O   UNL A   1      31.810  22.728  26.709  1.00  0.00    -0.454 OA
ATOM     96  C   UNL A   1      30.413  23.081  26.671  1.00  0.00     0.468 C 
ENDBRANCH  87  88
ENDBRANCH  86  87
ENDBRANCH  84  86
ENDBRANCH  78  80
ENDBRANCH  77  78
ENDBRANCH  76  77
ENDBRANCH  75  76
ENDBRANCH  74  75
ENDBRANCH  73  74
ENDBRANCH   1  73
TORSDOF 23
ENDMDL
MODEL 3
REMARK VINA RESULT:     -10.6      1.968      2.231
REMARK SMILES O=C(OCCOCCOCCOC(=O)[C@H]1CC(=O)N(CCc2ccc3c(c2)OCO3)C1)c1ccc(-c2c3nc(c(-c4cc(S(=O)(=O)[O-])ccc4F)c4ccc([nH]4)c(-c4cc(S(=O)(=O)[O-])ccc4F)c4nc(c(-c5cc(S(=O)(=O)[O-])ccc5F)c5ccc2[nH]5)C=C4)C=C3)cc1
REMARK SMILES IDX 7 1 6 2 5 3 4 4 3 5 2 6 1 7 32 8 33 9 94 10 34 11 93 12
REMARK SMILES IDX 35 13 36 14 37 15 87 16 38 17 92 18 86 19 88 20 39 21 91 22
REMARK SMILES IDX 85 23 84 24 40 26 72 27 52 28 71 29 53 30 56 31 70 32 89 33
REMARK SMILES IDX 54 34 55 35 69 37 90 38 57 39 41 40 42 41 50 42 43 43 49 44
REMARK SMILES IDX 51 45 48 46 44 47 45 48 46 49 47 50 73 51 74 52 82 53 75 54
REMARK SMILES IDX 81 55 83 56 80 57 76 58 77 59 78 60 79 61 58 62 59 63 67 64
REMARK SMILES IDX 60 65 66 66 68 67 65 68 61 69 62 70 63 71 64 72 8 73 9 74
REMARK SMILES IDX 10 75 11 76 12 77 13 78 14 79 15 80 16 81 31 82 17 83 19 84
REMARK SMILES IDX 18 85 20 86 21 87 22 88 23 89 27 90 24 91 26 92 25 93 28 94
REMARK SMILES IDX 30 95 29 96
REMARK H PARENT 88 25 56 36
REMARK Flexibility Score: inf
ROOT
ATOM      1  C   UNL A   1      34.434  19.433  24.678  1.00  0.00     0.188 C 
ENDROOT
BRANCH   1   2
ATOM      2  O   UNL A   1      35.742  19.912  25.000  1.00  0.00    -0.376 OA
BRANCH   2   3
ATOM      3  C   UNL A   1      35.931  21.298  24.679  1.00  0.00     0.202 C 
BRANCH   3   4
ATOM      4  C   UNL A   1      37.389  21.801  24.706  1.00  0.00     0.261 C 
BRANCH   4   5
ATOM      5  O   UNL A   1      38.087  21.506  25.930  1.00  0.00    -0.460 OA
BRANCH   5   6
ATOM      6  C   UNL A   1      39.372  21.779  26.272  1.00  0.00     0.338 C 
ATOM      7  O   UNL A   1      40.209  20.889  26.123  1.00  0.00    -0.246 OA
BRANCH   6   8
ATOM      8  C   UNL A   1      39.834  23.089  26.832  1.00  0.00     0.060 A 
ATOM      9  C   UNL A   1      39.306  24.336  26.504  1.00  0.00     0.016 A 
ATOM     10  C   UNL A   1      40.862  23.050  27.791  1.00  0.00     0.016 A 
ATOM     11  C   UNL A   1      39.860  25.513  26.988  1.00  0.00     0.010 A 
ATOM     12  C   UNL A   1      41.403  24.228  28.318  1.00  0.00     0.010 A 
ATOM     13  C   UNL A   1      40.940  25.465  27.863  1.00  0.00    -0.014 A 
BRANCH  13  14
ATOM     14  C   UNL A   1      41.652  26.732  28.118  1.00  0.00     0.031 A 
ATOM     15  C   UNL A   1      42.977  26.940  27.475  1.00  0.00     0.074 A 
ATOM     16  C   UNL A   1      41.062  27.721  28.805  1.00  0.00     0.049 A 
ATOM     17  N   UNL A   1      43.744  27.992  27.512  1.00  0.00    -0.248 NA
ATOM     18  C   UNL A   1      43.508  25.817  26.691  1.00  0.00     0.031 C 
ATOM     19  C   UNL A   1      39.771  27.579  29.451  1.00  0.00     0.029 A 
ATOM     20  N   UNL A   1      41.446  29.003  29.101  1.00  0.00    -0.354 N 
ATOM     21  C   UNL A   1      44.868  27.652  26.779  1.00  0.00     0.074 A 
ATOM     22  C   UNL A   1      44.688  26.288  26.329  1.00  0.00     0.031 C 
ATOM     23  C   UNL A   1      39.500  28.708  30.112  1.00  0.00     0.029 A 
ATOM     24  C   UNL A   1      40.532  29.685  29.870  1.00  0.00     0.049 A 
ATOM     25  H   UNL A   1      42.295  29.397  28.794  1.00  0.00     0.167 HD
ATOM     26  C   UNL A   1      45.950  28.421  26.523  1.00  0.00     0.034 A 
ATOM     27  C   UNL A   1      40.512  30.949  30.332  1.00  0.00     0.034 A 
ATOM     28  C   UNL A   1      46.101  29.760  27.035  1.00  0.00     0.049 A 
ATOM     29  C   UNL A   1      41.728  31.772  30.045  1.00  0.00     0.074 A 
ATOM     30  C   UNL A   1      47.170  30.622  26.894  1.00  0.00     0.029 A 
ATOM     31  N   UNL A   1      45.152  30.426  27.808  1.00  0.00    -0.354 N 
ATOM     32  N   UNL A   1      42.801  31.432  29.369  1.00  0.00    -0.248 NA
ATOM     33  C   UNL A   1      41.754  33.126  30.600  1.00  0.00     0.031 C 
ATOM     34  C   UNL A   1      46.902  31.775  27.641  1.00  0.00     0.029 A 
ATOM     35  C   UNL A   1      45.625  31.678  28.173  1.00  0.00     0.049 A 
ATOM     36  H   UNL A   1      44.273  30.062  28.060  1.00  0.00     0.167 HD
ATOM     37  C   UNL A   1      43.641  32.530  29.426  1.00  0.00     0.074 A 
ATOM     38  C   UNL A   1      42.924  33.560  30.158  1.00  0.00     0.031 C 
ATOM     39  C   UNL A   1      44.898  32.667  28.936  1.00  0.00     0.034 A 
BRANCH  26  40
ATOM     40  C   UNL A   1      47.066  27.756  25.761  1.00  0.00     0.023 A 
ATOM     41  C   UNL A   1      47.380  28.123  24.439  1.00  0.00     0.031 A 
ATOM     42  C   UNL A   1      47.721  26.643  26.313  1.00  0.00     0.131 A 
ATOM     43  C   UNL A   1      48.238  27.316  23.679  1.00  0.00     0.055 A 
ATOM     44  C   UNL A   1      48.651  25.903  25.581  1.00  0.00     0.041 A 
ATOM     45  F   UNL A   1      47.430  26.224  27.553  1.00  0.00    -0.206 F 
ATOM     46  C   UNL A   1      48.899  26.224  24.249  1.00  0.00     0.022 A 
BRANCH  43  47
ATOM     47  S   UNL A   1      48.319  27.590  21.886  1.00  0.00     0.124 S 
ATOM     48  O   UNL A   1      48.484  26.226  21.387  1.00  0.00    -0.237 OA
ATOM     49  O   UNL A   1      47.035  28.221  21.603  1.00  0.00    -0.237 OA
ATOM     50  O   UNL A   1      49.488  28.450  21.724  1.00  0.00    -0.744 OA
ENDBRANCH  43  47
ENDBRANCH  26  40
BRANCH  27  51
ATOM     51  C   UNL A   1      39.363  31.509  31.111  1.00  0.00     0.023 A 
ATOM     52  C   UNL A   1      39.377  31.523  32.517  1.00  0.00     0.031 A 
ATOM     53  C   UNL A   1      38.204  31.982  30.469  1.00  0.00     0.131 A 
ATOM     54  C   UNL A   1      38.243  31.951  33.232  1.00  0.00     0.055 A 
ATOM     55  C   UNL A   1      37.101  32.459  31.183  1.00  0.00     0.041 A 
ATOM     56  F   UNL A   1      38.132  32.010  29.129  1.00  0.00    -0.206 F 
ATOM     57  C   UNL A   1      37.112  32.436  32.574  1.00  0.00     0.022 A 
BRANCH  54  58
ATOM     58  S   UNL A   1      38.225  31.774  35.040  1.00  0.00     0.124 S 
ATOM     59  O   UNL A   1      38.266  30.323  35.194  1.00  0.00    -0.237 OA
ATOM     60  O   UNL A   1      39.431  32.496  35.431  1.00  0.00    -0.237 OA
ATOM     61  O   UNL A   1      36.969  32.409  35.431  1.00  0.00    -0.744 OA
ENDBRANCH  54  58
ENDBRANCH  27  51
BRANCH  39  62
ATOM     62  C   UNL A   1      45.544  34.003  29.175  1.00  0.00     0.023 A 
ATOM     63  C   UNL A   1      45.454  35.039  28.232  1.00  0.00     0.031 A 
ATOM     64  C   UNL A   1      46.313  34.212  30.331  1.00  0.00     0.131 A 
ATOM     65  C   UNL A   1      46.193  36.213  28.422  1.00  0.00     0.055 A 
ATOM     66  C   UNL A   1      46.979  35.415  30.554  1.00  0.00     0.041 A 
ATOM     67  F   UNL A   1      46.441  33.244  31.254  1.00  0.00    -0.206 F 
ATOM     68  C   UNL A   1      46.936  36.417  29.588  1.00  0.00     0.022 A 
BRANCH  65  69
ATOM     69  S   UNL A   1      46.284  37.407  27.061  1.00  0.00     0.124 S 
ATOM     70  O   UNL A   1      44.907  37.883  26.986  1.00  0.00    -0.237 OA
ATOM     71  O   UNL A   1      47.266  38.368  27.553  1.00  0.00    -0.237 OA
ATOM     72  O   UNL A   1      46.723  36.597  25.927  1.00  0.00    -0.744 OA
ENDBRANCH  65  69
ENDBRANCH  39  62
ENDBRANCH  13  14
ENDBRANCH   6   8
ENDBRANCH   5   6
ENDBRANCH   4   5
ENDBRANCH   3   4
ENDBRANCH   2   3
ENDBRANCH   1   2
BRANCH   1  73
ATOM     73  C   UNL A   1      33.372  20.510  24.469  1.00  0.00     0.188 C 
BRANCH  73  74
ATOM     74  O   UNL A   1      32.416  20.327  23.435  1.00  0.00    -0.376 OA
BRANCH  74  75
ATOM     75  C   UNL A   1      32.111  21.441  22.608  1.00  0.00     0.202 C 
BRANCH  75  76
ATOM     76  C   UNL A   1      32.788  22.792  22.887  1.00  0.00     0.261 C 
BRANCH  76  77
ATOM     77  O   UNL A   1      32.080  23.972  22.471  1.00  0.00    -0.463 OA
BRANCH  77  78
ATOM     78  C   UNL A   1      32.641  24.627  21.419  1.00  0.00     0.311 C 
ATOM     79  O   UNL A   1      33.295  24.087  20.533  1.00  0.00    -0.252 OA
BRANCH  78  80
ATOM     80  C   UNL A   1      32.561  26.126  21.526  1.00  0.00     0.128 C 
ATOM     81  C   UNL A   1      31.285  26.840  21.947  1.00  0.00     0.117 C 
ATOM     82  C   UNL A   1      33.493  26.404  22.677  1.00  0.00     0.135 C 
ATOM     83  C   UNL A   1      31.844  28.015  22.736  1.00  0.00     0.223 C 
ATOM     84  N   UNL A   1      33.060  27.619  23.272  1.00  0.00    -0.341 N 
ATOM     85  O   UNL A   1      31.282  29.090  22.882  1.00  0.00    -0.275 OA
BRANCH  84  86
ATOM     86  C   UNL A   1      33.883  28.292  24.280  1.00  0.00     0.124 C 
BRANCH  86  87
ATOM     87  C   UNL A   1      33.790  27.759  25.747  1.00  0.00     0.057 C 
BRANCH  87  88
ATOM     88  C   UNL A   1      33.262  26.376  26.057  1.00  0.00    -0.042 A 
ATOM     89  C   UNL A   1      34.109  25.254  25.901  1.00  0.00     0.008 A 
ATOM     90  C   UNL A   1      31.911  26.153  26.357  1.00  0.00     0.054 A 
ATOM     91  C   UNL A   1      33.723  23.974  26.290  1.00  0.00     0.051 A 
ATOM     92  C   UNL A   1      31.512  24.852  26.593  1.00  0.00     0.166 A 
ATOM     93  C   UNL A   1      32.406  23.804  26.615  1.00  0.00     0.165 A 
ATOM     94  O   UNL A   1      30.234  24.423  26.794  1.00  0.00    -0.454 OA
ATOM     95  O   UNL A   1      31.812  22.612  26.895  1.00  0.00    -0.454 OA
ATOM     96  C   UNL A   1      30.432  22.995  26.737  1.00  0.00     0.468 C 
ENDBRANCH  87  88
ENDBRANCH  86  87
ENDBRANCH  84  86
ENDBRANCH  78  80
ENDBRANCH  77  78
ENDBRANCH  76  77
ENDBRANCH  75  76
ENDBRANCH  74  75
ENDBRANCH  73  74
ENDBRANCH   1  73
TORSDOF 23
ENDMDL
