MODEL 1
REMARK VINA RESULT:     -10.5      0.000      0.000
REMARK SMILES O=C(OCCOCCOCCOC(=O)c1cccc(Br)c1O[C@@H]1CCOC2(CCC2)C1)c1ccc(-c2c3nc(c(-c4cc(S(=O)(=O)[O-])ccc4F)c4ccc([nH]4)c(-c4cc(S(=O)(=O)[O-])ccc4F)c4nc(c(-c5cc(S(=O)(=O)[O-])ccc5F)c5ccc2[nH]5)C=C4)C=C3)cc1
REMARK SMILES IDX 7 1 6 2 5 3 4 4 3 5 2 6 1 7 32 8 33 9 94 10 34 11 93 12
REMARK SMILES IDX 35 13 36 14 37 15 87 16 38 17 92 18 86 19 88 20 39 21 91 22
REMARK SMILES IDX 85 23 84 24 40 26 72 27 52 28 71 29 53 30 56 31 70 32 89 33
REMARK SMILES IDX 54 34 55 35 69 37 90 38 57 39 41 40 42 41 50 42 43 43 49 44
REMARK SMILES IDX 51 45 48 46 44 47 45 48 46 49 47 50 73 51 74 52 82 53 75 54
REMARK SMILES IDX 81 55 83 56 80 57 76 58 77 59 78 60 79 61 58 62 59 63 67 64
REMARK SMILES IDX 60 65 66 66 68 67 65 68 61 69 62 70 63 71 64 72 8 73 9 74
REMARK SMILES IDX 10 75 11 76 12 77 13 78 14 79 15 80 16 81 21 82 17 83 19 84
REMARK SMILES IDX 18 85 20 86 22 87 23 88 24 89 31 90 25 91 27 92 26 93 28 94
REMARK SMILES IDX 30 95 29 96
REMARK H PARENT 88 25 56 36
REMARK Flexibility Score: inf
ROOT
ATOM      1  C   UNL A   1      35.120  33.375  29.114  1.00  0.00     0.188 C 
ENDROOT
BRANCH   1   2
ATOM      2  O   UNL A   1      33.884  34.071  28.898  1.00  0.00    -0.376 OA
BRANCH   2   3
ATOM      3  C   UNL A   1      34.042  35.473  28.686  1.00  0.00     0.202 C 
BRANCH   3   4
ATOM      4  C   UNL A   1      32.854  36.298  29.189  1.00  0.00     0.261 C 
BRANCH   4   5
ATOM      5  O   UNL A   1      33.121  36.849  30.488  1.00  0.00    -0.460 OA
BRANCH   5   6
ATOM      6  C   UNL A   1      32.825  36.240  31.664  1.00  0.00     0.338 C 
ATOM      7  O   UNL A   1      31.734  36.426  32.199  1.00  0.00    -0.246 OA
BRANCH   6   8
ATOM      8  C   UNL A   1      33.743  35.236  32.261  1.00  0.00     0.060 A 
ATOM      9  C   UNL A   1      33.341  33.991  32.755  1.00  0.00     0.016 A 
ATOM     10  C   UNL A   1      35.105  35.535  32.214  1.00  0.00     0.016 A 
ATOM     11  C   UNL A   1      34.276  33.094  33.289  1.00  0.00     0.010 A 
ATOM     12  C   UNL A   1      36.039  34.602  32.664  1.00  0.00     0.010 A 
ATOM     13  C   UNL A   1      35.641  33.377  33.233  1.00  0.00    -0.014 A 
BRANCH  13  14
ATOM     14  C   UNL A   1      36.696  32.475  33.784  1.00  0.00     0.031 A 
ATOM     15  C   UNL A   1      37.374  32.883  35.063  1.00  0.00     0.074 A 
ATOM     16  C   UNL A   1      37.150  31.399  33.115  1.00  0.00     0.049 A 
ATOM     17  N   UNL A   1      38.559  32.579  35.522  1.00  0.00    -0.248 NA
ATOM     18  C   UNL A   1      36.618  33.825  35.898  1.00  0.00     0.031 C 
ATOM     19  C   UNL A   1      36.578  30.844  31.890  1.00  0.00     0.029 A 
ATOM     20  N   UNL A   1      38.264  30.623  33.342  1.00  0.00    -0.354 N 
ATOM     21  C   UNL A   1      38.725  33.360  36.662  1.00  0.00     0.074 A 
ATOM     22  C   UNL A   1      37.540  34.187  36.773  1.00  0.00     0.031 C 
ATOM     23  C   UNL A   1      37.388  29.881  31.427  1.00  0.00     0.029 A 
ATOM     24  C   UNL A   1      38.554  29.783  32.292  1.00  0.00     0.049 A 
ATOM     25  H   UNL A   1      38.798  30.665  34.168  1.00  0.00     0.167 HD
ATOM     26  C   UNL A   1      39.759  33.372  37.542  1.00  0.00     0.034 A 
ATOM     27  C   UNL A   1      39.657  29.065  32.008  1.00  0.00     0.034 A 
ATOM     28  C   UNL A   1      40.894  32.487  37.443  1.00  0.00     0.049 A 
ATOM     29  C   UNL A   1      40.797  29.065  32.984  1.00  0.00     0.074 A 
ATOM     30  C   UNL A   1      41.970  32.348  38.301  1.00  0.00     0.029 A 
ATOM     31  N   UNL A   1      41.086  31.570  36.416  1.00  0.00    -0.354 N 
ATOM     32  N   UNL A   1      40.963  29.809  34.050  1.00  0.00    -0.248 NA
ATOM     33  C   UNL A   1      41.879  28.104  32.736  1.00  0.00     0.031 C 
ATOM     34  C   UNL A   1      42.820  31.360  37.784  1.00  0.00     0.029 A 
ATOM     35  C   UNL A   1      42.253  30.854  36.625  1.00  0.00     0.049 A 
ATOM     36  H   UNL A   1      40.478  31.445  35.652  1.00  0.00     0.167 HD
ATOM     37  C   UNL A   1      42.147  29.373  34.631  1.00  0.00     0.074 A 
ATOM     38  C   UNL A   1      42.664  28.317  33.782  1.00  0.00     0.031 C 
ATOM     39  C   UNL A   1      42.737  29.791  35.779  1.00  0.00     0.034 A 
BRANCH  26  40
ATOM     40  C   UNL A   1      39.694  34.400  38.650  1.00  0.00     0.023 A 
ATOM     41  C   UNL A   1      39.278  34.050  39.946  1.00  0.00     0.031 A 
ATOM     42  C   UNL A   1      39.904  35.761  38.375  1.00  0.00     0.131 A 
ATOM     43  C   UNL A   1      38.919  35.052  40.859  1.00  0.00     0.055 A 
ATOM     44  C   UNL A   1      39.664  36.750  39.333  1.00  0.00     0.041 A 
ATOM     45  F   UNL A   1      40.294  36.163  37.155  1.00  0.00    -0.206 F 
ATOM     46  C   UNL A   1      39.135  36.401  40.573  1.00  0.00     0.022 A 
BRANCH  43  47
ATOM     47  S   UNL A   1      37.930  34.571  42.304  1.00  0.00     0.124 S 
ATOM     48  O   UNL A   1      38.524  33.281  42.649  1.00  0.00    -0.237 OA
ATOM     49  O   UNL A   1      38.186  35.660  43.240  1.00  0.00    -0.237 OA
ATOM     50  O   UNL A   1      36.568  34.501  41.780  1.00  0.00    -0.744 OA
ENDBRANCH  43  47
ENDBRANCH  26  40
BRANCH  27  51
ATOM     51  C   UNL A   1      39.751  28.338  30.714  1.00  0.00     0.023 A 
ATOM     52  C   UNL A   1      40.579  28.795  29.679  1.00  0.00     0.031 A 
ATOM     53  C   UNL A   1      39.029  27.148  30.515  1.00  0.00     0.131 A 
ATOM     54  C   UNL A   1      40.648  28.073  28.477  1.00  0.00     0.055 A 
ATOM     55  C   UNL A   1      39.117  26.424  29.326  1.00  0.00     0.041 A 
ATOM     56  F   UNL A   1      38.249  26.658  31.492  1.00  0.00    -0.206 F 
ATOM     57  C   UNL A   1      39.928  26.890  28.295  1.00  0.00     0.022 A 
BRANCH  54  58
ATOM     58  S   UNL A   1      41.695  28.716  27.142  1.00  0.00     0.124 S 
ATOM     59  O   UNL A   1      40.704  29.108  26.148  1.00  0.00    -0.237 OA
ATOM     60  O   UNL A   1      42.398  29.804  27.813  1.00  0.00    -0.237 OA
ATOM     61  O   UNL A   1      42.527  27.570  26.781  1.00  0.00    -0.744 OA
ENDBRANCH  54  58
ENDBRANCH  27  51
BRANCH  39  62
ATOM     62  C   UNL A   1      43.947  29.027  36.233  1.00  0.00     0.023 A 
ATOM     63  C   UNL A   1      45.250  29.505  36.031  1.00  0.00     0.031 A 
ATOM     64  C   UNL A   1      43.777  27.793  36.885  1.00  0.00     0.131 A 
ATOM     65  C   UNL A   1      46.343  28.733  36.452  1.00  0.00     0.055 A 
ATOM     66  C   UNL A   1      44.865  27.046  37.333  1.00  0.00     0.041 A 
ATOM     67  F   UNL A   1      42.547  27.297  37.094  1.00  0.00    -0.206 F 
ATOM     68  C   UNL A   1      46.158  27.514  37.112  1.00  0.00     0.022 A 
BRANCH  65  69
ATOM     69  S   UNL A   1      48.022  29.326  36.106  1.00  0.00     0.124 S 
ATOM     70  O   UNL A   1      48.291  28.722  34.804  1.00  0.00    -0.237 OA
ATOM     71  O   UNL A   1      47.854  30.775  36.115  1.00  0.00    -0.237 OA
ATOM     72  O   UNL A   1      48.809  28.789  37.213  1.00  0.00    -0.744 OA
ENDBRANCH  65  69
ENDBRANCH  39  62
ENDBRANCH  13  14
ENDBRANCH   6   8
ENDBRANCH   5   6
ENDBRANCH   4   5
ENDBRANCH   3   4
ENDBRANCH   2   3
ENDBRANCH   1   2
BRANCH   1  73
ATOM     73  C   UNL A   1      35.330  32.347  28.000  1.00  0.00     0.188 C 
BRANCH  73  74
ATOM     74  O   UNL A   1      34.671  31.101  28.249  1.00  0.00    -0.376 OA
BRANCH  74  75
ATOM     75  C   UNL A   1      34.132  30.431  27.113  1.00  0.00     0.202 C 
BRANCH  75  76
ATOM     76  C   UNL A   1      33.052  29.388  27.406  1.00  0.00     0.261 C 
BRANCH  76  77
ATOM     77  O   UNL A   1      32.846  28.392  26.387  1.00  0.00    -0.460 OA
BRANCH  77  78
ATOM     78  C   UNL A   1      31.611  27.820  26.401  1.00  0.00     0.342 C 
ATOM     79  O   UNL A   1      31.019  27.425  27.398  1.00  0.00    -0.246 OA
BRANCH  78  80
ATOM     80  C   UNL A   1      31.149  27.517  25.027  1.00  0.00     0.103 A 
ATOM     81  C   UNL A   1      30.530  28.570  24.327  1.00  0.00     0.020 A 
ATOM     82  C   UNL A   1      31.639  26.400  24.332  1.00  0.00     0.148 A 
ATOM     83  C   UNL A   1      30.486  28.554  22.935  1.00  0.00     0.002 A 
ATOM     84  C   UNL A   1      31.706  26.469  22.934  1.00  0.00     0.060 A 
ATOM     85  C   UNL A   1      31.100  27.519  22.239  1.00  0.00     0.019 A 
ATOM     86  Br  UNL A   1      32.791  25.278  21.923  1.00  0.00    -0.047 Br
BRANCH  82  87
ATOM     87  O   UNL A   1      32.222  25.348  24.969  1.00  0.00    -0.488 OA
BRANCH  87  88
ATOM     88  C   UNL A   1      31.391  24.246  25.411  1.00  0.00     0.178 C 
ATOM     89  C   UNL A   1      31.677  24.040  26.909  1.00  0.00     0.074 C 
ATOM     90  C   UNL A   1      31.346  22.907  24.648  1.00  0.00     0.080 C 
ATOM     91  C   UNL A   1      32.520  22.808  27.213  1.00  0.00     0.165 C 
ATOM     92  C   UNL A   1      32.518  21.956  24.952  1.00  0.00     0.072 C 
ATOM     93  O   UNL A   1      33.283  22.434  26.080  1.00  0.00    -0.375 OA
ATOM     94  C   UNL A   1      32.150  20.440  25.061  1.00  0.00     0.036 C 
ATOM     95  C   UNL A   1      33.346  21.578  23.693  1.00  0.00     0.036 C 
ATOM     96  C   UNL A   1      33.294  20.104  24.099  1.00  0.00     0.006 C 
ENDBRANCH  87  88
ENDBRANCH  82  87
ENDBRANCH  78  80
ENDBRANCH  77  78
ENDBRANCH  76  77
ENDBRANCH  75  76
ENDBRANCH  74  75
ENDBRANCH  73  74
ENDBRANCH   1  73
TORSDOF 22
ENDMDL
MODEL 2
REMARK VINA RESULT:     -10.3      3.396      9.674
REMARK SMILES O=C(OCCOCCOCCOC(=O)c1cccc(Br)c1O[C@@H]1CCOC2(CCC2)C1)c1ccc(-c2c3nc(c(-c4cc(S(=O)(=O)[O-])ccc4F)c4ccc([nH]4)c(-c4cc(S(=O)(=O)[O-])ccc4F)c4nc(c(-c5cc(S(=O)(=O)[O-])ccc5F)c5ccc2[nH]5)C=C4)C=C3)cc1
REMARK SMILES IDX 7 1 6 2 5 3 4 4 3 5 2 6 1 7 32 8 33 9 94 10 34 11 93 12
REMARK SMILES IDX 35 13 36 14 37 15 87 16 38 17 92 18 86 19 88 20 39 21 91 22
REMARK SMILES IDX 85 23 84 24 40 26 72 27 52 28 71 29 53 30 56 31 70 32 89 33
REMARK SMILES IDX 54 34 55 35 69 37 90 38 57 39 41 40 42 41 50 42 43 43 49 44
REMARK SMILES IDX 51 45 48 46 44 47 45 48 46 49 47 50 73 51 74 52 82 53 75 54
REMARK SMILES IDX 81 55 83 56 80 57 76 58 77 59 78 60 79 61 58 62 59 63 67 64
REMARK SMILES IDX 60 65 66 66 68 67 65 68 61 69 62 70 63 71 64 72 8 73 9 74
REMARK SMILES IDX 10 75 11 76 12 77 13 78 14 79 15 80 16 81 21 82 17 83 19 84
REMARK SMILES IDX 18 85 20 86 22 87 23 88 24 89 31 90 25 91 27 92 26 93 28 94
REMARK SMILES IDX 30 95 29 96
REMARK H PARENT 88 25 56 36
REMARK Flexibility Score: inf
ROOT
ATOM      1  C   UNL A   1      41.266  19.874  27.204  1.00  0.00     0.188 C 
ENDROOT
BRANCH   1   2
ATOM      2  O   UNL A   1      42.687  20.040  27.104  1.00  0.00    -0.376 OA
BRANCH   2   3
ATOM      3  C   UNL A   1      43.237  19.569  25.874  1.00  0.00     0.202 C 
BRANCH   3   4
ATOM      4  C   UNL A   1      44.089  20.615  25.152  1.00  0.00     0.261 C 
BRANCH   4   5
ATOM      5  O   UNL A   1      44.022  21.885  25.820  1.00  0.00    -0.460 OA
BRANCH   5   6
ATOM      6  C   UNL A   1      43.383  22.981  25.338  1.00  0.00     0.338 C 
ATOM      7  O   UNL A   1      42.922  22.977  24.198  1.00  0.00    -0.246 OA
BRANCH   6   8
ATOM      8  C   UNL A   1      43.103  24.152  26.209  1.00  0.00     0.060 A 
ATOM      9  C   UNL A   1      43.488  25.464  25.919  1.00  0.00     0.016 A 
ATOM     10  C   UNL A   1      42.306  23.915  27.329  1.00  0.00     0.016 A 
ATOM     11  C   UNL A   1      43.169  26.516  26.788  1.00  0.00     0.010 A 
ATOM     12  C   UNL A   1      41.915  24.977  28.144  1.00  0.00     0.010 A 
ATOM     13  C   UNL A   1      42.360  26.291  27.903  1.00  0.00    -0.014 A 
BRANCH  13  14
ATOM     14  C   UNL A   1      41.982  27.358  28.878  1.00  0.00     0.031 A 
ATOM     15  C   UNL A   1      42.657  27.358  30.221  1.00  0.00     0.074 A 
ATOM     16  C   UNL A   1      40.973  28.220  28.651  1.00  0.00     0.049 A 
ATOM     17  N   UNL A   1      42.250  27.831  31.369  1.00  0.00    -0.248 NA
ATOM     18  C   UNL A   1      43.947  26.658  30.271  1.00  0.00     0.031 C 
ATOM     19  C   UNL A   1      40.246  28.382  27.394  1.00  0.00     0.029 A 
ATOM     20  N   UNL A   1      40.332  29.077  29.517  1.00  0.00    -0.354 N 
ATOM     21  C   UNL A   1      43.197  27.411  32.298  1.00  0.00     0.074 A 
ATOM     22  C   UNL A   1      44.155  26.598  31.575  1.00  0.00     0.031 C 
ATOM     23  C   UNL A   1      39.209  29.210  27.591  1.00  0.00     0.029 A 
ATOM     24  C   UNL A   1      39.172  29.599  28.992  1.00  0.00     0.049 A 
ATOM     25  H   UNL A   1      40.667  29.293  30.417  1.00  0.00     0.167 HD
ATOM     26  C   UNL A   1      43.272  27.693  33.624  1.00  0.00     0.034 A 
ATOM     27  C   UNL A   1      38.151  30.255  29.575  1.00  0.00     0.034 A 
ATOM     28  C   UNL A   1      42.343  28.564  34.302  1.00  0.00     0.049 A 
ATOM     29  C   UNL A   1      38.235  30.581  31.037  1.00  0.00     0.074 A 
ATOM     30  C   UNL A   1      42.345  28.987  35.620  1.00  0.00     0.029 A 
ATOM     31  N   UNL A   1      41.244  29.162  33.696  1.00  0.00    -0.354 N 
ATOM     32  N   UNL A   1      39.118  30.176  31.918  1.00  0.00    -0.248 NA
ATOM     33  C   UNL A   1      37.206  31.480  31.575  1.00  0.00     0.031 C 
ATOM     34  C   UNL A   1      41.238  29.825  35.814  1.00  0.00     0.029 A 
ATOM     35  C   UNL A   1      40.570  29.958  34.607  1.00  0.00     0.049 A 
ATOM     36  H   UNL A   1      40.984  29.038  32.755  1.00  0.00     0.167 HD
ATOM     37  C   UNL A   1      38.780  30.810  33.107  1.00  0.00     0.074 A 
ATOM     38  C   UNL A   1      37.598  31.605  32.835  1.00  0.00     0.031 C 
ATOM     39  C   UNL A   1      39.408  30.759  34.308  1.00  0.00     0.034 A 
BRANCH  26  40
ATOM     40  C   UNL A   1      44.382  27.018  34.399  1.00  0.00     0.023 A 
ATOM     41  C   UNL A   1      45.646  27.618  34.535  1.00  0.00     0.031 A 
ATOM     42  C   UNL A   1      44.224  25.707  34.877  1.00  0.00     0.131 A 
ATOM     43  C   UNL A   1      46.738  26.853  34.969  1.00  0.00     0.055 A 
ATOM     44  C   UNL A   1      45.292  24.991  35.426  1.00  0.00     0.041 A 
ATOM     45  F   UNL A   1      43.045  25.074  34.771  1.00  0.00    -0.206 F 
ATOM     46  C   UNL A   1      46.567  25.551  35.442  1.00  0.00     0.022 A 
BRANCH  43  47
ATOM     47  S   UNL A   1      48.406  27.498  34.655  1.00  0.00     0.124 S 
ATOM     48  O   UNL A   1      49.227  26.592  35.457  1.00  0.00    -0.237 OA
ATOM     49  O   UNL A   1      48.533  27.359  33.208  1.00  0.00    -0.237 OA
ATOM     50  O   UNL A   1      48.342  28.871  35.149  1.00  0.00    -0.744 OA
ENDBRANCH  43  47
ENDBRANCH  26  40
BRANCH  27  51
ATOM     51  C   UNL A   1      36.941  30.591  28.779  1.00  0.00     0.023 A 
ATOM     52  C   UNL A   1      36.080  29.592  28.303  1.00  0.00     0.031 A 
ATOM     53  C   UNL A   1      36.614  31.933  28.516  1.00  0.00     0.131 A 
ATOM     54  C   UNL A   1      34.941  29.950  27.565  1.00  0.00     0.055 A 
ATOM     55  C   UNL A   1      35.470  32.285  27.800  1.00  0.00     0.041 A 
ATOM     56  F   UNL A   1      37.394  32.923  28.981  1.00  0.00    -0.206 F 
ATOM     57  C   UNL A   1      34.628  31.289  27.315  1.00  0.00     0.022 A 
BRANCH  54  58
ATOM     58  S   UNL A   1      33.873  28.631  26.927  1.00  0.00     0.124 S 
ATOM     59  O   UNL A   1      34.824  27.542  26.738  1.00  0.00    -0.237 OA
ATOM     60  O   UNL A   1      32.918  28.467  28.017  1.00  0.00    -0.237 OA
ATOM     61  O   UNL A   1      33.323  29.202  25.700  1.00  0.00    -0.744 OA
ENDBRANCH  54  58
ENDBRANCH  27  51
BRANCH  39  62
ATOM     62  C   UNL A   1      38.889  31.673  35.381  1.00  0.00     0.023 A 
ATOM     63  C   UNL A   1      38.250  31.186  36.530  1.00  0.00     0.031 A 
ATOM     64  C   UNL A   1      39.047  33.063  35.236  1.00  0.00     0.131 A 
ATOM     65  C   UNL A   1      37.761  32.090  37.485  1.00  0.00     0.055 A 
ATOM     66  C   UNL A   1      38.590  33.955  36.205  1.00  0.00     0.041 A 
ATOM     67  F   UNL A   1      39.649  33.571  34.149  1.00  0.00    -0.206 F 
ATOM     68  C   UNL A   1      37.939  33.469  37.335  1.00  0.00     0.022 A 
BRANCH  65  69
ATOM     69  S   UNL A   1      36.862  31.447  38.923  1.00  0.00     0.124 S 
ATOM     70  O   UNL A   1      36.666  30.049  38.554  1.00  0.00    -0.237 OA
ATOM     71  O   UNL A   1      37.797  31.694  40.016  1.00  0.00    -0.237 OA
ATOM     72  O   UNL A   1      35.647  32.257  38.956  1.00  0.00    -0.744 OA
ENDBRANCH  65  69
ENDBRANCH  39  62
ENDBRANCH  13  14
ENDBRANCH   6   8
ENDBRANCH   5   6
ENDBRANCH   4   5
ENDBRANCH   3   4
ENDBRANCH   2   3
ENDBRANCH   1   2
BRANCH   1  73
ATOM     73  C   UNL A   1      40.570  20.805  26.209  1.00  0.00     0.188 C 
BRANCH  73  74
ATOM     74  O   UNL A   1      39.424  21.465  26.758  1.00  0.00    -0.376 OA
BRANCH  74  75
ATOM     75  C   UNL A   1      38.559  22.111  25.828  1.00  0.00     0.202 C 
BRANCH  75  76
ATOM     76  C   UNL A   1      38.206  23.565  26.148  1.00  0.00     0.261 C 
BRANCH  76  77
ATOM     77  O   UNL A   1      36.824  23.824  26.457  1.00  0.00    -0.460 OA
BRANCH  77  78
ATOM     78  C   UNL A   1      35.982  23.729  25.392  1.00  0.00     0.342 C 
ATOM     79  O   UNL A   1      36.255  24.035  24.238  1.00  0.00    -0.246 OA
BRANCH  78  80
ATOM     80  C   UNL A   1      34.601  23.422  25.830  1.00  0.00     0.103 A 
ATOM     81  C   UNL A   1      34.470  22.535  26.915  1.00  0.00     0.020 A 
ATOM     82  C   UNL A   1      33.528  24.248  25.461  1.00  0.00     0.148 A 
ATOM     83  C   UNL A   1      33.311  22.539  27.686  1.00  0.00     0.002 A 
ATOM     84  C   UNL A   1      32.431  24.333  26.329  1.00  0.00     0.060 A 
ATOM     85  C   UNL A   1      32.305  23.459  27.411  1.00  0.00     0.019 A 
ATOM     86  Br  UNL A   1      31.175  25.758  26.220  1.00  0.00    -0.047 Br
BRANCH  82  87
ATOM     87  O   UNL A   1      33.601  25.103  24.404  1.00  0.00    -0.488 OA
BRANCH  87  88
ATOM     88  C   UNL A   1      33.208  24.633  23.091  1.00  0.00     0.178 C 
ATOM     89  C   UNL A   1      31.746  25.064  22.877  1.00  0.00     0.074 C 
ATOM     90  C   UNL A   1      33.446  23.175  22.646  1.00  0.00     0.080 C 
ATOM     91  C   UNL A   1      30.744  23.923  22.983  1.00  0.00     0.165 C 
ATOM     92  C   UNL A   1      32.398  22.170  23.161  1.00  0.00     0.072 C 
ATOM     93  O   UNL A   1      31.277  22.860  23.754  1.00  0.00    -0.375 OA
ATOM     94  C   UNL A   1      31.967  21.062  22.145  1.00  0.00     0.036 C 
ATOM     95  C   UNL A   1      33.011  21.028  24.017  1.00  0.00     0.036 C 
ATOM     96  C   UNL A   1      32.210  19.998  23.218  1.00  0.00     0.006 C 
ENDBRANCH  87  88
ENDBRANCH  82  87
ENDBRANCH  78  80
ENDBRANCH  77  78
ENDBRANCH  76  77
ENDBRANCH  75  76
ENDBRANCH  74  75
ENDBRANCH  73  74
ENDBRANCH   1  73
TORSDOF 22
ENDMDL
MODEL 3
REMARK VINA RESULT:     -10.3      1.989      2.439
REMARK SMILES O=C(OCCOCCOCCOC(=O)c1cccc(Br)c1O[C@@H]1CCOC2(CCC2)C1)c1ccc(-c2c3nc(c(-c4cc(S(=O)(=O)[O-])ccc4F)c4ccc([nH]4)c(-c4cc(S(=O)(=O)[O-])ccc4F)c4nc(c(-c5cc(S(=O)(=O)[O-])ccc5F)c5ccc2[nH]5)C=C4)C=C3)cc1
REMARK SMILES IDX 7 1 6 2 5 3 4 4 3 5 2 6 1 7 32 8 33 9 94 10 34 11 93 12
REMARK SMILES IDX 35 13 36 14 37 15 87 16 38 17 92 18 86 19 88 20 39 21 91 22
REMARK SMILES IDX 85 23 84 24 40 26 72 27 52 28 71 29 53 30 56 31 70 32 89 33
REMARK SMILES IDX 54 34 55 35 69 37 90 38 57 39 41 40 42 41 50 42 43 43 49 44
REMARK SMILES IDX 51 45 48 46 44 47 45 48 46 49 47 50 73 51 74 52 82 53 75 54
REMARK SMILES IDX 81 55 83 56 80 57 76 58 77 59 78 60 79 61 58 62 59 63 67 64
REMARK SMILES IDX 60 65 66 66 68 67 65 68 61 69 62 70 63 71 64 72 8 73 9 74
REMARK SMILES IDX 10 75 11 76 12 77 13 78 14 79 15 80 16 81 21 82 17 83 19 84
REMARK SMILES IDX 18 85 20 86 22 87 23 88 24 89 31 90 25 91 27 92 26 93 28 94
REMARK SMILES IDX 30 95 29 96
REMARK H PARENT 88 25 56 36
REMARK Flexibility Score: inf
ROOT
ATOM      1  C   UNL A   1      34.543  33.035  29.002  1.00  0.00     0.188 C 
ENDROOT
BRANCH   1   2
ATOM      2  O   UNL A   1      33.502  33.941  28.614  1.00  0.00    -0.376 OA
BRANCH   2   3
ATOM      3  C   UNL A   1      33.856  35.317  28.748  1.00  0.00     0.202 C 
BRANCH   3   4
ATOM      4  C   UNL A   1      32.701  36.194  29.237  1.00  0.00     0.261 C 
BRANCH   4   5
ATOM      5  O   UNL A   1      33.027  36.830  30.482  1.00  0.00    -0.460 OA
BRANCH   5   6
ATOM      6  C   UNL A   1      32.879  36.260  31.705  1.00  0.00     0.338 C 
ATOM      7  O   UNL A   1      31.890  36.515  32.390  1.00  0.00    -0.246 OA
BRANCH   6   8
ATOM      8  C   UNL A   1      33.823  35.221  32.188  1.00  0.00     0.060 A 
ATOM      9  C   UNL A   1      33.439  33.972  32.687  1.00  0.00     0.016 A 
ATOM     10  C   UNL A   1      35.182  35.490  32.019  1.00  0.00     0.016 A 
ATOM     11  C   UNL A   1      34.398  33.041  33.108  1.00  0.00     0.010 A 
ATOM     12  C   UNL A   1      36.131  34.525  32.356  1.00  0.00     0.010 A 
ATOM     13  C   UNL A   1      35.758  33.295  32.929  1.00  0.00    -0.014 A 
BRANCH  13  14
ATOM     14  C   UNL A   1      36.838  32.355  33.356  1.00  0.00     0.031 A 
ATOM     15  C   UNL A   1      37.531  32.624  34.663  1.00  0.00     0.074 A 
ATOM     16  C   UNL A   1      37.299  31.373  32.559  1.00  0.00     0.049 A 
ATOM     17  N   UNL A   1      38.729  32.292  35.066  1.00  0.00    -0.248 NA
ATOM     18  C   UNL A   1      36.773  33.448  35.614  1.00  0.00     0.031 C 
ATOM     19  C   UNL A   1      36.716  30.953  31.286  1.00  0.00     0.029 A 
ATOM     20  N   UNL A   1      38.430  30.598  32.677  1.00  0.00    -0.354 N 
ATOM     21  C   UNL A   1      38.901  32.938  36.286  1.00  0.00     0.074 A 
ATOM     22  C   UNL A   1      37.703  33.724  36.511  1.00  0.00     0.031 C 
ATOM     23  C   UNL A   1      37.535  30.066  30.702  1.00  0.00     0.029 A 
ATOM     24  C   UNL A   1      38.716  29.891  31.532  1.00  0.00     0.049 A 
ATOM     25  H   UNL A   1      38.977  30.554  33.494  1.00  0.00     0.167 HD
ATOM     26  C   UNL A   1      39.949  32.868  37.146  1.00  0.00     0.034 A 
ATOM     27  C   UNL A   1      39.827  29.232  31.150  1.00  0.00     0.034 A 
ATOM     28  C   UNL A   1      41.097  32.022  36.928  1.00  0.00     0.049 A 
ATOM     29  C   UNL A   1      40.983  29.140  32.102  1.00  0.00     0.074 A 
ATOM     30  C   UNL A   1      42.190  31.804  37.748  1.00  0.00     0.029 A 
ATOM     31  N   UNL A   1      41.287  31.234  35.798  1.00  0.00    -0.354 N 
ATOM     32  N   UNL A   1      41.154  29.759  33.245  1.00  0.00    -0.248 NA
ATOM     33  C   UNL A   1      42.077  28.236  31.727  1.00  0.00     0.031 C 
ATOM     34  C   UNL A   1      43.048  30.900  37.106  1.00  0.00     0.029 A 
ATOM     35  C   UNL A   1      42.470  30.522  35.905  1.00  0.00     0.049 A 
ATOM     36  H   UNL A   1      40.669  31.188  35.034  1.00  0.00     0.167 HD
ATOM     37  C   UNL A   1      42.356  29.281  33.754  1.00  0.00     0.074 A 
ATOM     38  C   UNL A   1      42.877  28.341  32.780  1.00  0.00     0.031 C 
ATOM     39  C   UNL A   1      42.958  29.574  34.933  1.00  0.00     0.034 A 
BRANCH  26  40
ATOM     40  C   UNL A   1      39.885  33.758  38.367  1.00  0.00     0.023 A 
ATOM     41  C   UNL A   1      39.301  33.312  39.566  1.00  0.00     0.031 A 
ATOM     42  C   UNL A   1      40.274  35.105  38.290  1.00  0.00     0.131 A 
ATOM     43  C   UNL A   1      38.964  34.236  40.564  1.00  0.00     0.055 A 
ATOM     44  C   UNL A   1      40.048  35.997  39.343  1.00  0.00     0.041 A 
ATOM     45  F   UNL A   1      40.830  35.597  37.172  1.00  0.00    -0.206 F 
ATOM     46  C   UNL A   1      39.358  35.573  40.476  1.00  0.00     0.022 A 
BRANCH  43  47
ATOM     47  S   UNL A   1      37.783  33.715  41.842  1.00  0.00     0.124 S 
ATOM     48  O   UNL A   1      38.681  33.287  42.913  1.00  0.00    -0.237 OA
ATOM     49  O   UNL A   1      37.029  34.938  42.094  1.00  0.00    -0.237 OA
ATOM     50  O   UNL A   1      37.035  32.638  41.199  1.00  0.00    -0.744 OA
ENDBRANCH  43  47
ENDBRANCH  26  40
BRANCH  27  51
ATOM     51  C   UNL A   1      39.911  28.663  29.779  1.00  0.00     0.023 A 
ATOM     52  C   UNL A   1      39.740  27.291  29.547  1.00  0.00     0.031 A 
ATOM     53  C   UNL A   1      40.131  29.503  28.673  1.00  0.00     0.131 A 
ATOM     54  C   UNL A   1      39.815  26.794  28.237  1.00  0.00     0.055 A 
ATOM     55  C   UNL A   1      40.184  29.007  27.370  1.00  0.00     0.041 A 
ATOM     56  F   UNL A   1      40.268  30.828  28.847  1.00  0.00    -0.206 F 
ATOM     57  C   UNL A   1      40.030  27.642  27.147  1.00  0.00     0.022 A 
BRANCH  54  58
ATOM     58  S   UNL A   1      39.633  25.008  27.977  1.00  0.00     0.124 S 
ATOM     59  O   UNL A   1      40.944  24.512  28.380  1.00  0.00    -0.237 OA
ATOM     60  O   UNL A   1      38.524  24.688  28.869  1.00  0.00    -0.237 OA
ATOM     61  O   UNL A   1      39.334  24.900  26.551  1.00  0.00    -0.744 OA
ENDBRANCH  54  58
ENDBRANCH  27  51
BRANCH  39  62
ATOM     62  C   UNL A   1      44.189  28.785  35.277  1.00  0.00     0.023 A 
ATOM     63  C   UNL A   1      44.123  27.559  35.954  1.00  0.00     0.031 A 
ATOM     64  C   UNL A   1      45.451  29.284  34.910  1.00  0.00     0.131 A 
ATOM     65  C   UNL A   1      45.309  26.881  36.273  1.00  0.00     0.055 A 
ATOM     66  C   UNL A   1      46.625  28.590  35.199  1.00  0.00     0.041 A 
ATOM     67  F   UNL A   1      45.559  30.457  34.264  1.00  0.00    -0.206 F 
ATOM     68  C   UNL A   1      46.557  27.383  35.889  1.00  0.00     0.022 A 
BRANCH  65  69
ATOM     69  S   UNL A   1      45.211  25.340  37.225  1.00  0.00     0.124 S 
ATOM     70  O   UNL A   1      43.854  25.403  37.759  1.00  0.00    -0.237 OA
ATOM     71  O   UNL A   1      45.449  24.323  36.205  1.00  0.00    -0.237 OA
ATOM     72  O   UNL A   1      46.276  25.481  38.215  1.00  0.00    -0.744 OA
ENDBRANCH  65  69
ENDBRANCH  39  62
ENDBRANCH  13  14
ENDBRANCH   6   8
ENDBRANCH   5   6
ENDBRANCH   4   5
ENDBRANCH   3   4
ENDBRANCH   2   3
ENDBRANCH   1   2
BRANCH   1  73
ATOM     73  C   UNL A   1      34.599  31.866  28.016  1.00  0.00     0.188 C 
BRANCH  73  74
ATOM     74  O   UNL A   1      33.304  31.391  27.629  1.00  0.00    -0.376 OA
BRANCH  74  75
ATOM     75  C   UNL A   1      33.220  30.021  27.248  1.00  0.00     0.202 C 
BRANCH  75  76
ATOM     76  C   UNL A   1      33.216  29.747  25.743  1.00  0.00     0.261 C 
BRANCH  76  77
ATOM     77  O   UNL A   1      33.969  28.599  25.310  1.00  0.00    -0.460 OA
BRANCH  77  78
ATOM     78  C   UNL A   1      33.918  28.366  23.970  1.00  0.00     0.342 C 
ATOM     79  O   UNL A   1      34.481  29.030  23.109  1.00  0.00    -0.246 OA
BRANCH  78  80
ATOM     80  C   UNL A   1      32.906  27.335  23.647  1.00  0.00     0.103 A 
ATOM     81  C   UNL A   1      31.684  27.798  23.123  1.00  0.00     0.020 A 
ATOM     82  C   UNL A   1      33.272  25.987  23.499  1.00  0.00     0.148 A 
ATOM     83  C   UNL A   1      30.877  26.946  22.372  1.00  0.00     0.002 A 
ATOM     84  C   UNL A   1      32.515  25.190  22.629  1.00  0.00     0.060 A 
ATOM     85  C   UNL A   1      31.308  25.653  22.101  1.00  0.00     0.019 A 
ATOM     86  Br  UNL A   1      33.178  23.540  21.952  1.00  0.00    -0.047 Br
BRANCH  82  87
ATOM     87  O   UNL A   1      34.430  25.490  24.011  1.00  0.00    -0.488 OA
BRANCH  87  88
ATOM     88  C   UNL A   1      34.458  25.055  25.393  1.00  0.00     0.178 C 
ATOM     89  C   UNL A   1      35.282  23.755  25.438  1.00  0.00     0.074 C 
ATOM     90  C   UNL A   1      33.172  24.947  26.237  1.00  0.00     0.080 C 
ATOM     91  C   UNL A   1      34.442  22.500  25.633  1.00  0.00     0.165 C 
ATOM     92  C   UNL A   1      32.356  23.663  25.999  1.00  0.00     0.072 C 
ATOM     93  O   UNL A   1      33.109  22.719  25.207  1.00  0.00    -0.375 OA
ATOM     94  C   UNL A   1      31.719  23.020  27.275  1.00  0.00     0.036 C 
ATOM     95  C   UNL A   1      30.905  23.936  25.516  1.00  0.00     0.036 C 
ATOM     96  C   UNL A   1      30.372  22.944  26.552  1.00  0.00     0.006 C 
ENDBRANCH  87  88
ENDBRANCH  82  87
ENDBRANCH  78  80
ENDBRANCH  77  78
ENDBRANCH  76  77
ENDBRANCH  75  76
ENDBRANCH  74  75
ENDBRANCH  73  74
ENDBRANCH   1  73
TORSDOF 22
ENDMDL
