MODEL 1
REMARK VINA RESULT:      -9.5      0.000      0.000
REMARK SMILES COc1cc([C@@H]2[NH2+][C@H](C(=O)OCCOCCOCCOC(=O)c3ccc(-c4c5nc(c(-c6cc(S(=O)(=O)[O-])ccc6F)c6ccc([nH]6)c(-c6cc(S(=O)(=O)[O-])ccc6F)c6nc(c(-c7cc(S(=O)(=O)[O-])ccc7F)c7ccc4[nH]7)C=C6)C=C5)cc3)CS2)ccc1OCc1ccc(Cl)cc1
REMARK SMILES IDX 15 1 14 2 13 3 12 4 11 5 9 6 10 7 8 8 6 9 7 10 87 11 86 14
REMARK SMILES IDX 5 15 3 16 4 17 90 18 89 19 88 20 2 21 1 22 91 23 92 24 93 25
REMARK SMILES IDX 94 26 99 27 95 28 98 29 96 30 97 31 16 32 17 33 18 34 19 35
REMARK SMILES IDX 20 36 21 37 22 38 23 39 24 40 85 41 25 42 84 43 26 44 27 45
REMARK SMILES IDX 28 46 78 47 29 48 83 49 77 50 79 51 30 52 82 53 76 54 75 55
REMARK SMILES IDX 31 57 63 58 43 59 62 60 44 61 47 62 61 63 80 64 45 65 46 66
REMARK SMILES IDX 60 68 81 69 48 70 32 71 33 72 41 73 34 74 40 75 42 76 39 77
REMARK SMILES IDX 35 78 36 79 37 80 38 81 64 82 65 83 73 84 66 85 72 86 74 87
REMARK SMILES IDX 71 88 67 89 68 90 69 91 70 92 49 93 50 94 58 95 51 96 57 97
REMARK SMILES IDX 59 98 56 99 52 100 53 101 54 102 55 103
REMARK H PARENT 7 12 7 13 79 56 47 67
REMARK Flexibility Score: inf
ROOT
ATOM      1  C   UNL A   1      35.434  32.953  29.001  1.00  0.00     0.188 C 
ENDROOT
BRANCH   1   2
ATOM      2  O   UNL A   1      35.051  31.582  28.954  1.00  0.00    -0.376 OA
BRANCH   2   3
ATOM      3  C   UNL A   1      34.956  30.949  27.685  1.00  0.00     0.202 C 
BRANCH   3   4
ATOM      4  C   UNL A   1      33.810  29.951  27.476  1.00  0.00     0.261 C 
BRANCH   4   5
ATOM      5  O   UNL A   1      34.143  28.842  26.620  1.00  0.00    -0.459 OA
BRANCH   5   6
ATOM      6  C   UNL A   1      33.177  28.391  25.781  1.00  0.00     0.365 C 
ATOM      7  O   UNL A   1      32.664  27.278  25.878  1.00  0.00    -0.245 OA
BRANCH   6   8
ATOM      8  C   UNL A   1      32.718  29.384  24.694  1.00  0.00     0.304 C 
ATOM      9  C   UNL A   1      31.725  28.418  22.699  1.00  0.00     0.274 C 
ATOM     10  N   UNL A   1      32.934  29.019  23.266  1.00  0.00    -0.319 N 
ATOM     11  S   UNL A   1      30.316  29.224  23.482  1.00  0.00    -0.087 SA
ATOM     12  H   UNL A   1      33.171  29.859  22.737  1.00  0.00     0.348 HD
ATOM     13  H   UNL A   1      33.695  28.342  23.211  1.00  0.00     0.348 HD
ATOM     14  C   UNL A   1      31.260  29.768  24.932  1.00  0.00     0.153 C 
BRANCH   9  15
ATOM     15  C   UNL A   1      31.740  26.902  22.773  1.00  0.00     0.024 A 
ATOM     16  C   UNL A   1      33.032  24.804  22.800  1.00  0.00     0.161 A 
ATOM     17  C   UNL A   1      32.951  26.198  22.606  1.00  0.00     0.061 A 
ATOM     18  C   UNL A   1      31.912  24.111  23.265  1.00  0.00     0.161 A 
ATOM     19  C   UNL A   1      30.704  24.802  23.399  1.00  0.00     0.051 A 
ATOM     20  C   UNL A   1      30.607  26.161  23.116  1.00  0.00     0.015 A 
BRANCH  16  21
ATOM     21  O   UNL A   1      34.244  24.181  22.646  1.00  0.00    -0.493 OA
ATOM     22  C   UNL A   1      34.953  24.085  23.885  1.00  0.00     0.278 C 
ENDBRANCH  16  21
BRANCH  18  23
ATOM     23  O   UNL A   1      31.792  22.801  23.641  1.00  0.00    -0.485 OA
BRANCH  23  24
ATOM     24  C   UNL A   1      32.009  21.759  22.692  1.00  0.00     0.265 C 
BRANCH  24  25
ATOM     25  C   UNL A   1      32.533  20.466  23.286  1.00  0.00    -0.011 A 
ATOM     26  C   UNL A   1      32.170  19.210  22.773  1.00  0.00     0.009 A 
ATOM     27  C   UNL A   1      33.446  20.521  24.350  1.00  0.00     0.009 A 
ATOM     28  C   UNL A   1      32.809  18.050  23.211  1.00  0.00     0.021 A 
ATOM     29  C   UNL A   1      34.075  19.359  24.801  1.00  0.00     0.021 A 
ATOM     30  C   UNL A   1      33.776  18.134  24.207  1.00  0.00     0.041 A 
ATOM     31  Cl  UNL A   1      34.632  16.720  24.685  1.00  0.00    -0.084 Cl
ENDBRANCH  24  25
ENDBRANCH  23  24
ENDBRANCH  18  23
ENDBRANCH   9  15
ENDBRANCH   6   8
ENDBRANCH   5   6
ENDBRANCH   4   5
ENDBRANCH   3   4
ENDBRANCH   2   3
ENDBRANCH   1   2
BRANCH   1  32
ATOM     32  C   UNL A   1      34.556  34.012  28.305  1.00  0.00     0.188 C 
BRANCH  32  33
ATOM     33  O   UNL A   1      33.487  34.501  29.092  1.00  0.00    -0.376 OA
BRANCH  33  34
ATOM     34  C   UNL A   1      33.224  35.886  28.959  1.00  0.00     0.202 C 
BRANCH  34  35
ATOM     35  C   UNL A   1      32.811  36.551  30.278  1.00  0.00     0.261 C 
BRANCH  35  36
ATOM     36  O   UNL A   1      33.669  36.292  31.407  1.00  0.00    -0.460 OA
BRANCH  36  37
ATOM     37  C   UNL A   1      33.343  35.264  32.225  1.00  0.00     0.338 C 
ATOM     38  O   UNL A   1      32.217  34.860  32.470  1.00  0.00    -0.246 OA
BRANCH  37  39
ATOM     39  C   UNL A   1      34.597  34.564  32.601  1.00  0.00     0.060 A 
ATOM     40  C   UNL A   1      35.832  35.080  32.180  1.00  0.00     0.016 A 
ATOM     41  C   UNL A   1      34.555  33.418  33.397  1.00  0.00     0.016 A 
ATOM     42  C   UNL A   1      37.025  34.442  32.544  1.00  0.00     0.010 A 
ATOM     43  C   UNL A   1      35.747  32.768  33.739  1.00  0.00     0.010 A 
ATOM     44  C   UNL A   1      36.989  33.260  33.296  1.00  0.00    -0.014 A 
BRANCH  44  45
ATOM     45  C   UNL A   1      38.211  32.425  33.462  1.00  0.00     0.031 A 
ATOM     46  C   UNL A   1      39.007  32.576  34.732  1.00  0.00     0.074 A 
ATOM     47  C   UNL A   1      38.623  31.561  32.514  1.00  0.00     0.049 A 
ATOM     48  N   UNL A   1      40.157  32.049  35.066  1.00  0.00    -0.248 NA
ATOM     49  C   UNL A   1      38.423  33.451  35.759  1.00  0.00     0.031 C 
ATOM     50  C   UNL A   1      37.924  31.279  31.262  1.00  0.00     0.029 A 
ATOM     51  N   UNL A   1      39.748  30.771  32.454  1.00  0.00    -0.354 N 
ATOM     52  C   UNL A   1      40.439  32.535  36.338  1.00  0.00     0.074 A 
ATOM     53  C   UNL A   1      39.358  33.428  36.695  1.00  0.00     0.031 C 
ATOM     54  C   UNL A   1      38.642  30.389  30.553  1.00  0.00     0.029 A 
ATOM     55  C   UNL A   1      39.876  30.073  31.274  1.00  0.00     0.049 A 
ATOM     56  H   UNL A   1      40.402  30.709  33.188  1.00  0.00     0.167 HD
ATOM     57  C   UNL A   1      41.500  32.260  37.138  1.00  0.00     0.034 A 
ATOM     58  C   UNL A   1      40.884  29.300  30.815  1.00  0.00     0.034 A 
ATOM     59  C   UNL A   1      42.584  31.384  36.765  1.00  0.00     0.049 A 
ATOM     60  C   UNL A   1      42.109  29.092  31.678  1.00  0.00     0.074 A 
ATOM     61  C   UNL A   1      43.698  31.030  37.505  1.00  0.00     0.029 A 
ATOM     62  N   UNL A   1      42.699  30.735  35.541  1.00  0.00    -0.354 N 
ATOM     63  N   UNL A   1      42.365  29.554  32.882  1.00  0.00    -0.248 NA
ATOM     64  C   UNL A   1      43.183  28.256  31.122  1.00  0.00     0.031 C 
ATOM     65  C   UNL A   1      44.526  30.239  36.702  1.00  0.00     0.029 A 
ATOM     66  C   UNL A   1      43.885  30.017  35.494  1.00  0.00     0.049 A 
ATOM     67  H   UNL A   1      42.037  30.779  34.814  1.00  0.00     0.167 HD
ATOM     68  C   UNL A   1      43.607  29.030  33.237  1.00  0.00     0.074 A 
ATOM     69  C   UNL A   1      44.044  28.211  32.127  1.00  0.00     0.031 C 
ATOM     70  C   UNL A   1      44.319  29.205  34.380  1.00  0.00     0.034 A 
BRANCH  57  71
ATOM     71  C   UNL A   1      41.561  32.962  38.474  1.00  0.00     0.023 A 
ATOM     72  C   UNL A   1      40.900  32.456  39.607  1.00  0.00     0.031 A 
ATOM     73  C   UNL A   1      42.265  34.172  38.609  1.00  0.00     0.131 A 
ATOM     74  C   UNL A   1      40.896  33.193  40.801  1.00  0.00     0.055 A 
ATOM     75  C   UNL A   1      42.330  34.856  39.824  1.00  0.00     0.041 A 
ATOM     76  F   UNL A   1      42.894  34.718  37.556  1.00  0.00    -0.206 F 
ATOM     77  C   UNL A   1      41.629  34.375  40.926  1.00  0.00     0.022 A 
BRANCH  74  78
ATOM     78  S   UNL A   1      39.793  32.662  42.141  1.00  0.00     0.124 S 
ATOM     79  O   UNL A   1      39.012  31.618  41.483  1.00  0.00    -0.237 OA
ATOM     80  O   UNL A   1      40.731  32.212  43.162  1.00  0.00    -0.237 OA
ATOM     81  O   UNL A   1      39.045  33.875  42.469  1.00  0.00    -0.744 OA
ENDBRANCH  74  78
ENDBRANCH  57  71
BRANCH  58  82
ATOM     82  C   UNL A   1      40.818  28.690  29.452  1.00  0.00     0.023 A 
ATOM     83  C   UNL A   1      40.340  27.383  29.260  1.00  0.00     0.031 A 
ATOM     84  C   UNL A   1      41.305  29.381  28.327  1.00  0.00     0.131 A 
ATOM     85  C   UNL A   1      40.406  26.791  27.988  1.00  0.00     0.055 A 
ATOM     86  C   UNL A   1      41.311  28.810  27.053  1.00  0.00     0.041 A 
ATOM     87  F   UNL A   1      41.786  30.628  28.452  1.00  0.00    -0.206 F 
ATOM     88  C   UNL A   1      40.872  27.501  26.881  1.00  0.00     0.022 A 
BRANCH  85  89
ATOM     89  S   UNL A   1      39.967  25.038  27.821  1.00  0.00     0.124 S 
ATOM     90  O   UNL A   1      39.685  24.938  26.394  1.00  0.00    -0.237 OA
ATOM     91  O   UNL A   1      41.182  24.376  28.284  1.00  0.00    -0.237 OA
ATOM     92  O   UNL A   1      38.808  24.892  28.699  1.00  0.00    -0.744 OA
ENDBRANCH  85  89
ENDBRANCH  58  82
BRANCH  70  93
ATOM     93  C   UNL A   1      45.621  28.446  34.518  1.00  0.00     0.023 A 
ATOM     94  C   UNL A   1      45.676  27.147  35.054  1.00  0.00     0.031 A 
ATOM     95  C   UNL A   1      46.827  29.038  34.101  1.00  0.00     0.131 A 
ATOM     96  C   UNL A   1      46.916  26.505  35.206  1.00  0.00     0.055 A 
ATOM     97  C   UNL A   1      48.048  28.368  34.193  1.00  0.00     0.041 A 
ATOM     98  F   UNL A   1      46.839  30.278  33.586  1.00  0.00    -0.206 F 
ATOM     99  C   UNL A   1      48.100  27.099  34.760  1.00  0.00     0.022 A 
BRANCH  96 100
ATOM    100  S   UNL A   1      46.976  24.919  36.085  1.00  0.00     0.124 S 
ATOM    101  O   UNL A   1      48.322  24.450  35.772  1.00  0.00    -0.237 OA
ATOM    102  O   UNL A   1      46.746  25.320  37.470  1.00  0.00    -0.237 OA
ATOM    103  O   UNL A   1      45.894  24.148  35.477  1.00  0.00    -0.744 OA
ENDBRANCH  96 100
ENDBRANCH  70  93
ENDBRANCH  44  45
ENDBRANCH  37  39
ENDBRANCH  36  37
ENDBRANCH  35  36
ENDBRANCH  34  35
ENDBRANCH  33  34
ENDBRANCH  32  33
ENDBRANCH   1  32
TORSDOF 25
ENDMDL
MODEL 2
REMARK VINA RESULT:      -8.7      6.553      9.768
REMARK SMILES COc1cc([C@@H]2[NH2+][C@H](C(=O)OCCOCCOCCOC(=O)c3ccc(-c4c5nc(c(-c6cc(S(=O)(=O)[O-])ccc6F)c6ccc([nH]6)c(-c6cc(S(=O)(=O)[O-])ccc6F)c6nc(c(-c7cc(S(=O)(=O)[O-])ccc7F)c7ccc4[nH]7)C=C6)C=C5)cc3)CS2)ccc1OCc1ccc(Cl)cc1
REMARK SMILES IDX 15 1 14 2 13 3 12 4 11 5 9 6 10 7 8 8 6 9 7 10 87 11 86 14
REMARK SMILES IDX 5 15 3 16 4 17 90 18 89 19 88 20 2 21 1 22 91 23 92 24 93 25
REMARK SMILES IDX 94 26 99 27 95 28 98 29 96 30 97 31 16 32 17 33 18 34 19 35
REMARK SMILES IDX 20 36 21 37 22 38 23 39 24 40 85 41 25 42 84 43 26 44 27 45
REMARK SMILES IDX 28 46 78 47 29 48 83 49 77 50 79 51 30 52 82 53 76 54 75 55
REMARK SMILES IDX 31 57 63 58 43 59 62 60 44 61 47 62 61 63 80 64 45 65 46 66
REMARK SMILES IDX 60 68 81 69 48 70 32 71 33 72 41 73 34 74 40 75 42 76 39 77
REMARK SMILES IDX 35 78 36 79 37 80 38 81 64 82 65 83 73 84 66 85 72 86 74 87
REMARK SMILES IDX 71 88 67 89 68 90 69 91 70 92 49 93 50 94 58 95 51 96 57 97
REMARK SMILES IDX 59 98 56 99 52 100 53 101 54 102 55 103
REMARK H PARENT 7 12 7 13 79 56 47 67
REMARK Flexibility Score: inf
ROOT
ATOM      1  C   UNL A   1      35.633  33.692  29.626  1.00  0.00     0.188 C 
ENDROOT
BRANCH   1   2
ATOM      2  O   UNL A   1      35.793  32.835  28.500  1.00  0.00    -0.376 OA
BRANCH   2   3
ATOM      3  C   UNL A   1      35.016  31.646  28.440  1.00  0.00     0.202 C 
BRANCH   3   4
ATOM      4  C   UNL A   1      35.450  30.567  27.440  1.00  0.00     0.261 C 
BRANCH   4   5
ATOM      5  O   UNL A   1      34.799  29.295  27.624  1.00  0.00    -0.459 OA
BRANCH   5   6
ATOM      6  C   UNL A   1      33.520  29.180  27.190  1.00  0.00     0.365 C 
ATOM      7  O   UNL A   1      32.612  28.715  27.877  1.00  0.00    -0.245 OA
BRANCH   6   8
ATOM      8  C   UNL A   1      33.246  29.709  25.768  1.00  0.00     0.304 C 
ATOM      9  C   UNL A   1      32.780  28.041  24.065  1.00  0.00     0.274 C 
ATOM     10  N   UNL A   1      33.793  28.946  24.611  1.00  0.00    -0.319 N 
ATOM     11  S   UNL A   1      31.184  28.856  24.257  1.00  0.00    -0.087 SA
ATOM     12  H   UNL A   1      34.085  29.601  23.885  1.00  0.00     0.348 HD
ATOM     13  H   UNL A   1      34.590  28.395  24.929  1.00  0.00     0.348 HD
ATOM     14  C   UNL A   1      31.749  29.950  25.588  1.00  0.00     0.153 C 
BRANCH   9  15
ATOM     15  C   UNL A   1      32.878  26.641  24.645  1.00  0.00     0.024 A 
ATOM     16  C   UNL A   1      31.794  24.489  25.157  1.00  0.00     0.161 A 
ATOM     17  C   UNL A   1      31.724  25.837  24.751  1.00  0.00     0.061 A 
ATOM     18  C   UNL A   1      33.044  23.901  25.367  1.00  0.00     0.161 A 
ATOM     19  C   UNL A   1      34.185  24.706  25.294  1.00  0.00     0.051 A 
ATOM     20  C   UNL A   1      34.102  26.060  24.984  1.00  0.00     0.015 A 
BRANCH  16  21
ATOM     21  O   UNL A   1      30.639  23.752  25.216  1.00  0.00    -0.493 OA
ATOM     22  C   UNL A   1      30.203  23.555  26.565  1.00  0.00     0.278 C 
ENDBRANCH  16  21
BRANCH  18  23
ATOM     23  O   UNL A   1      33.358  22.596  25.637  1.00  0.00    -0.485 OA
BRANCH  23  24
ATOM     24  C   UNL A   1      33.641  21.691  24.574  1.00  0.00     0.265 C 
BRANCH  24  25
ATOM     25  C   UNL A   1      35.044  21.117  24.591  1.00  0.00    -0.011 A 
ATOM     26  C   UNL A   1      36.183  21.930  24.468  1.00  0.00     0.009 A 
ATOM     27  C   UNL A   1      35.219  19.739  24.783  1.00  0.00     0.009 A 
ATOM     28  C   UNL A   1      37.458  21.406  24.676  1.00  0.00     0.021 A 
ATOM     29  C   UNL A   1      36.497  19.209  24.975  1.00  0.00     0.021 A 
ATOM     30  C   UNL A   1      37.607  20.052  24.952  1.00  0.00     0.041 A 
ATOM     31  Cl  UNL A   1      39.169  19.419  25.299  1.00  0.00    -0.084 Cl
ENDBRANCH  24  25
ENDBRANCH  23  24
ENDBRANCH  18  23
ENDBRANCH   9  15
ENDBRANCH   6   8
ENDBRANCH   5   6
ENDBRANCH   4   5
ENDBRANCH   3   4
ENDBRANCH   2   3
ENDBRANCH   1   2
BRANCH   1  32
ATOM     32  C   UNL A   1      34.357  33.588  30.486  1.00  0.00     0.188 C 
BRANCH  32  33
ATOM     33  O   UNL A   1      34.460  32.707  31.588  1.00  0.00    -0.376 OA
BRANCH  33  34
ATOM     34  C   UNL A   1      35.592  32.905  32.415  1.00  0.00     0.202 C 
BRANCH  34  35
ATOM     35  C   UNL A   1      36.267  31.594  32.838  1.00  0.00     0.261 C 
BRANCH  35  36
ATOM     36  O   UNL A   1      36.486  30.633  31.785  1.00  0.00    -0.460 OA
BRANCH  36  37
ATOM     37  C   UNL A   1      37.339  29.612  32.032  1.00  0.00     0.338 C 
ATOM     38  O   UNL A   1      37.047  28.513  32.477  1.00  0.00    -0.246 OA
BRANCH  37  39
ATOM     39  C   UNL A   1      38.661  29.973  31.462  1.00  0.00     0.060 A 
ATOM     40  C   UNL A   1      39.778  30.070  32.307  1.00  0.00     0.016 A 
ATOM     41  C   UNL A   1      38.806  30.183  30.090  1.00  0.00     0.016 A 
ATOM     42  C   UNL A   1      41.036  30.391  31.781  1.00  0.00     0.010 A 
ATOM     43  C   UNL A   1      40.059  30.528  29.570  1.00  0.00     0.010 A 
ATOM     44  C   UNL A   1      41.179  30.659  30.413  1.00  0.00    -0.014 A 
BRANCH  44  45
ATOM     45  C   UNL A   1      42.433  31.260  29.881  1.00  0.00     0.031 A 
ATOM     46  C   UNL A   1      43.525  30.331  29.418  1.00  0.00     0.074 A 
ATOM     47  C   UNL A   1      42.618  32.592  29.816  1.00  0.00     0.049 A 
ATOM     48  N   UNL A   1      44.742  30.603  29.021  1.00  0.00    -0.248 NA
ATOM     49  C   UNL A   1      43.195  28.899  29.414  1.00  0.00     0.031 C 
ATOM     50  C   UNL A   1      41.629  33.604  30.181  1.00  0.00     0.029 A 
ATOM     51  N   UNL A   1      43.718  33.324  29.431  1.00  0.00    -0.354 N 
ATOM     52  C   UNL A   1      45.326  29.375  28.729  1.00  0.00     0.074 A 
ATOM     53  C   UNL A   1      44.341  28.359  29.032  1.00  0.00     0.031 C 
ATOM     54  C   UNL A   1      42.171  34.824  30.015  1.00  0.00     0.029 A 
ATOM     55  C   UNL A   1      43.561  34.684  29.579  1.00  0.00     0.049 A 
ATOM     56  H   UNL A   1      44.542  32.913  29.081  1.00  0.00     0.167 HD
ATOM     57  C   UNL A   1      46.567  29.117  28.247  1.00  0.00     0.034 A 
ATOM     58  C   UNL A   1      44.444  35.693  29.415  1.00  0.00     0.034 A 
ATOM     59  C   UNL A   1      47.550  30.135  27.966  1.00  0.00     0.049 A 
ATOM     60  C   UNL A   1      45.859  35.375  28.982  1.00  0.00     0.074 A 
ATOM     61  C   UNL A   1      48.831  29.981  27.467  1.00  0.00     0.029 A 
ATOM     62  N   UNL A   1      47.368  31.497  28.176  1.00  0.00    -0.354 N 
ATOM     63  N   UNL A   1      46.401  34.210  28.704  1.00  0.00    -0.248 NA
ATOM     64  C   UNL A   1      46.783  36.510  28.837  1.00  0.00     0.031 C 
ATOM     65  C   UNL A   1      49.452  31.234  27.454  1.00  0.00     0.029 A 
ATOM     66  C   UNL A   1      48.528  32.186  27.853  1.00  0.00     0.049 A 
ATOM     67  H   UNL A   1      46.539  31.912  28.506  1.00  0.00     0.167 HD
ATOM     68  C   UNL A   1      47.711  34.481  28.315  1.00  0.00     0.074 A 
ATOM     69  C   UNL A   1      47.877  35.917  28.384  1.00  0.00     0.031 C 
ATOM     70  C   UNL A   1      48.689  33.620  27.929  1.00  0.00     0.034 A 
BRANCH  57  71
ATOM     71  C   UNL A   1      46.946  27.668  28.048  1.00  0.00     0.023 A 
ATOM     72  C   UNL A   1      46.764  27.017  26.815  1.00  0.00     0.031 A 
ATOM     73  C   UNL A   1      47.469  26.918  29.116  1.00  0.00     0.131 A 
ATOM     74  C   UNL A   1      47.032  25.645  26.702  1.00  0.00     0.055 A 
ATOM     75  C   UNL A   1      47.816  25.573  28.972  1.00  0.00     0.041 A 
ATOM     76  F   UNL A   1      47.641  27.476  30.325  1.00  0.00    -0.206 F 
ATOM     77  C   UNL A   1      47.582  24.924  27.764  1.00  0.00     0.022 A 
BRANCH  74  78
ATOM     78  S   UNL A   1      46.505  24.783  25.195  1.00  0.00     0.124 S 
ATOM     79  O   UNL A   1      45.189  25.371  24.963  1.00  0.00    -0.237 OA
ATOM     80  O   UNL A   1      47.546  25.149  24.242  1.00  0.00    -0.237 OA
ATOM     81  O   UNL A   1      46.489  23.376  25.593  1.00  0.00    -0.744 OA
ENDBRANCH  74  78
ENDBRANCH  57  71
BRANCH  58  82
ATOM     82  C   UNL A   1      44.050  37.105  29.703  1.00  0.00     0.023 A 
ATOM     83  C   UNL A   1      43.294  37.852  28.785  1.00  0.00     0.031 A 
ATOM     84  C   UNL A   1      44.491  37.756  30.870  1.00  0.00     0.131 A 
ATOM     85  C   UNL A   1      43.044  39.214  29.024  1.00  0.00     0.055 A 
ATOM     86  C   UNL A   1      44.187  39.094  31.132  1.00  0.00     0.041 A 
ATOM     87  F   UNL A   1      45.229  37.097  31.778  1.00  0.00    -0.206 F 
ATOM     88  C   UNL A   1      43.471  39.835  30.198  1.00  0.00     0.022 A 
BRANCH  85  89
ATOM     89  S   UNL A   1      42.238  40.191  27.724  1.00  0.00     0.124 S 
ATOM     90  O   UNL A   1      41.270  40.964  28.492  1.00  0.00    -0.237 OA
ATOM     91  O   UNL A   1      43.360  40.939  27.167  1.00  0.00    -0.237 OA
ATOM     92  O   UNL A   1      41.667  39.177  26.840  1.00  0.00    -0.744 OA
ENDBRANCH  85  89
ENDBRANCH  58  82
BRANCH  70  93
ATOM     93  C   UNL A   1      50.010  34.213  27.488  1.00  0.00     0.023 A 
ATOM     94  C   UNL A   1      50.129  34.991  26.323  1.00  0.00     0.031 A 
ATOM     95  C   UNL A   1      51.169  33.993  28.255  1.00  0.00     0.131 A 
ATOM     96  C   UNL A   1      51.387  35.476  25.931  1.00  0.00     0.055 A 
ATOM     97  C   UNL A   1      52.404  34.535  27.895  1.00  0.00     0.041 A 
ATOM     98  F   UNL A   1      51.120  33.254  29.375  1.00  0.00    -0.206 F 
ATOM     99  C   UNL A   1      52.522  35.270  26.721  1.00  0.00     0.022 A 
BRANCH  96 100
ATOM    100  S   UNL A   1      51.544  36.299  24.322  1.00  0.00     0.124 S 
ATOM    101  O   UNL A   1      50.150  36.424  23.909  1.00  0.00    -0.237 OA
ATOM    102  O   UNL A   1      52.219  37.545  24.673  1.00  0.00    -0.237 OA
ATOM    103  O   UNL A   1      52.343  35.364  23.534  1.00  0.00    -0.744 OA
ENDBRANCH  96 100
ENDBRANCH  70  93
ENDBRANCH  44  45
ENDBRANCH  37  39
ENDBRANCH  36  37
ENDBRANCH  35  36
ENDBRANCH  34  35
ENDBRANCH  33  34
ENDBRANCH  32  33
ENDBRANCH   1  32
TORSDOF 25
ENDMDL
MODEL 3
REMARK VINA RESULT:      -8.6      2.400      2.699
REMARK SMILES COc1cc([C@@H]2[NH2+][C@H](C(=O)OCCOCCOCCOC(=O)c3ccc(-c4c5nc(c(-c6cc(S(=O)(=O)[O-])ccc6F)c6ccc([nH]6)c(-c6cc(S(=O)(=O)[O-])ccc6F)c6nc(c(-c7cc(S(=O)(=O)[O-])ccc7F)c7ccc4[nH]7)C=C6)C=C5)cc3)CS2)ccc1OCc1ccc(Cl)cc1
REMARK SMILES IDX 15 1 14 2 13 3 12 4 11 5 9 6 10 7 8 8 6 9 7 10 87 11 86 14
REMARK SMILES IDX 5 15 3 16 4 17 90 18 89 19 88 20 2 21 1 22 91 23 92 24 93 25
REMARK SMILES IDX 94 26 99 27 95 28 98 29 96 30 97 31 16 32 17 33 18 34 19 35
REMARK SMILES IDX 20 36 21 37 22 38 23 39 24 40 85 41 25 42 84 43 26 44 27 45
REMARK SMILES IDX 28 46 78 47 29 48 83 49 77 50 79 51 30 52 82 53 76 54 75 55
REMARK SMILES IDX 31 57 63 58 43 59 62 60 44 61 47 62 61 63 80 64 45 65 46 66
REMARK SMILES IDX 60 68 81 69 48 70 32 71 33 72 41 73 34 74 40 75 42 76 39 77
REMARK SMILES IDX 35 78 36 79 37 80 38 81 64 82 65 83 73 84 66 85 72 86 74 87
REMARK SMILES IDX 71 88 67 89 68 90 69 91 70 92 49 93 50 94 58 95 51 96 57 97
REMARK SMILES IDX 59 98 56 99 52 100 53 101 54 102 55 103
REMARK H PARENT 7 12 7 13 79 56 47 67
REMARK Flexibility Score: inf
ROOT
ATOM      1  C   UNL A   1      35.534  32.873  29.128  1.00  0.00     0.188 C 
ENDROOT
BRANCH   1   2
ATOM      2  O   UNL A   1      35.198  31.494  29.011  1.00  0.00    -0.376 OA
BRANCH   2   3
ATOM      3  C   UNL A   1      34.986  30.957  27.712  1.00  0.00     0.202 C 
BRANCH   3   4
ATOM      4  C   UNL A   1      33.862  29.927  27.546  1.00  0.00     0.261 C 
BRANCH   4   5
ATOM      5  O   UNL A   1      34.187  28.835  26.665  1.00  0.00    -0.459 OA
BRANCH   5   6
ATOM      6  C   UNL A   1      33.213  28.396  25.831  1.00  0.00     0.365 C 
ATOM      7  O   UNL A   1      32.689  27.287  25.929  1.00  0.00    -0.245 OA
BRANCH   6   8
ATOM      8  C   UNL A   1      32.757  29.394  24.749  1.00  0.00     0.304 C 
ATOM      9  C   UNL A   1      31.796  28.440  22.732  1.00  0.00     0.274 C 
ATOM     10  N   UNL A   1      32.993  29.046  23.319  1.00  0.00    -0.319 N 
ATOM     11  S   UNL A   1      30.371  29.226  23.507  1.00  0.00    -0.087 SA
ATOM     12  H   UNL A   1      33.229  29.893  22.802  1.00  0.00     0.348 HD
ATOM     13  H   UNL A   1      33.760  28.376  23.267  1.00  0.00     0.348 HD
ATOM     14  C   UNL A   1      31.293  29.764  24.973  1.00  0.00     0.153 C 
BRANCH   9  15
ATOM     15  C   UNL A   1      31.824  26.923  22.792  1.00  0.00     0.024 A 
ATOM     16  C   UNL A   1      33.135  24.837  22.835  1.00  0.00     0.161 A 
ATOM     17  C   UNL A   1      33.046  26.233  22.653  1.00  0.00     0.061 A 
ATOM     18  C   UNL A   1      32.008  24.129  23.261  1.00  0.00     0.161 A 
ATOM     19  C   UNL A   1      30.790  24.808  23.367  1.00  0.00     0.051 A 
ATOM     20  C   UNL A   1      30.688  26.169  23.095  1.00  0.00     0.015 A 
BRANCH  16  21
ATOM     21  O   UNL A   1      34.357  24.228  22.711  1.00  0.00    -0.493 OA
ATOM     22  C   UNL A   1      34.990  24.042  23.980  1.00  0.00     0.278 C 
ENDBRANCH  16  21
BRANCH  18  23
ATOM     23  O   UNL A   1      31.891  22.814  23.621  1.00  0.00    -0.485 OA
BRANCH  23  24
ATOM     24  C   UNL A   1      32.207  21.784  22.688  1.00  0.00     0.265 C 
BRANCH  24  25
ATOM     25  C   UNL A   1      32.670  20.484  23.318  1.00  0.00    -0.011 A 
ATOM     26  C   UNL A   1      32.140  19.242  22.937  1.00  0.00     0.009 A 
ATOM     27  C   UNL A   1      33.693  20.515  24.278  1.00  0.00     0.009 A 
ATOM     28  C   UNL A   1      32.712  18.054  23.391  1.00  0.00     0.021 A 
ATOM     29  C   UNL A   1      34.256  19.326  24.746  1.00  0.00     0.021 A 
ATOM     30  C   UNL A   1      33.784  18.102  24.275  1.00  0.00     0.041 A 
ATOM     31  Cl  UNL A   1      34.551  16.642  24.766  1.00  0.00    -0.084 Cl
ENDBRANCH  24  25
ENDBRANCH  23  24
ENDBRANCH  18  23
ENDBRANCH   9  15
ENDBRANCH   6   8
ENDBRANCH   5   6
ENDBRANCH   4   5
ENDBRANCH   3   4
ENDBRANCH   2   3
ENDBRANCH   1   2
BRANCH   1  32
ATOM     32  C   UNL A   1      34.514  33.944  28.688  1.00  0.00     0.188 C 
BRANCH  32  33
ATOM     33  O   UNL A   1      33.543  34.268  29.664  1.00  0.00    -0.376 OA
BRANCH  33  34
ATOM     34  C   UNL A   1      33.261  35.649  29.799  1.00  0.00     0.202 C 
BRANCH  34  35
ATOM     35  C   UNL A   1      33.116  36.095  31.259  1.00  0.00     0.261 C 
BRANCH  35  36
ATOM     36  O   UNL A   1      34.197  35.725  32.138  1.00  0.00    -0.460 OA
BRANCH  36  37
ATOM     37  C   UNL A   1      34.150  34.501  32.714  1.00  0.00     0.338 C 
ATOM     38  O   UNL A   1      33.146  33.849  32.953  1.00  0.00    -0.246 OA
BRANCH  37  39
ATOM     39  C   UNL A   1      35.539  33.984  32.803  1.00  0.00     0.060 A 
ATOM     40  C   UNL A   1      36.563  34.622  32.085  1.00  0.00     0.016 A 
ATOM     41  C   UNL A   1      35.837  32.893  33.621  1.00  0.00     0.016 A 
ATOM     42  C   UNL A   1      37.882  34.158  32.174  1.00  0.00     0.010 A 
ATOM     43  C   UNL A   1      37.151  32.417  33.690  1.00  0.00     0.010 A 
ATOM     44  C   UNL A   1      38.180  33.029  32.950  1.00  0.00    -0.014 A 
BRANCH  44  45
ATOM     45  C   UNL A   1      39.507  32.362  32.846  1.00  0.00     0.031 A 
ATOM     46  C   UNL A   1      40.565  32.725  33.857  1.00  0.00     0.074 A 
ATOM     47  C   UNL A   1      39.787  31.467  31.880  1.00  0.00     0.049 A 
ATOM     48  N   UNL A   1      41.823  32.370  33.914  1.00  0.00    -0.248 NA
ATOM     49  C   UNL A   1      40.139  33.619  34.943  1.00  0.00     0.031 C 
ATOM     50  C   UNL A   1      38.845  30.987  30.871  1.00  0.00     0.029 A 
ATOM     51  N   UNL A   1      40.959  30.811  31.581  1.00  0.00    -0.354 N 
ATOM     52  C   UNL A   1      42.342  33.005  35.037  1.00  0.00     0.074 A 
ATOM     53  C   UNL A   1      41.271  33.796  35.605  1.00  0.00     0.031 C 
ATOM     54  C   UNL A   1      39.479  30.124  30.057  1.00  0.00     0.029 A 
ATOM     55  C   UNL A   1      40.884  30.024  30.454  1.00  0.00     0.049 A 
ATOM     56  H   UNL A   1      41.776  30.896  32.124  1.00  0.00     0.167 HD
ATOM     57  C   UNL A   1      43.595  32.933  35.552  1.00  0.00     0.034 A 
ATOM     58  C   UNL A   1      41.844  29.334  29.800  1.00  0.00     0.034 A 
ATOM     59  C   UNL A   1      44.662  32.158  34.968  1.00  0.00     0.049 A 
ATOM     60  C   UNL A   1      43.261  29.354  30.329  1.00  0.00     0.074 A 
ATOM     61  C   UNL A   1      45.963  32.009  35.416  1.00  0.00     0.029 A 
ATOM     62  N   UNL A   1      44.558  31.414  33.799  1.00  0.00    -0.354 N 
ATOM     63  N   UNL A   1      43.741  29.955  31.395  1.00  0.00    -0.248 NA
ATOM     64  C   UNL A   1      44.268  28.600  29.567  1.00  0.00     0.031 C 
ATOM     65  C   UNL A   1      46.667  31.248  34.477  1.00  0.00     0.029 A 
ATOM     66  C   UNL A   1      45.783  30.839  33.492  1.00  0.00     0.049 A 
ATOM     67  H   UNL A   1      43.737  31.311  33.266  1.00  0.00     0.167 HD
ATOM     68  C   UNL A   1      45.092  29.616  31.449  1.00  0.00     0.074 A 
ATOM     69  C   UNL A   1      45.349  28.752  30.316  1.00  0.00     0.031 C 
ATOM     70  C   UNL A   1      46.035  29.981  32.357  1.00  0.00     0.034 A 
BRANCH  57  71
ATOM     71  C   UNL A   1      43.888  33.761  36.781  1.00  0.00     0.023 A 
ATOM     72  C   UNL A   1      44.344  35.088  36.690  1.00  0.00     0.031 A 
ATOM     73  C   UNL A   1      43.737  33.205  38.064  1.00  0.00     0.131 A 
ATOM     74  C   UNL A   1      44.704  35.786  37.852  1.00  0.00     0.055 A 
ATOM     75  C   UNL A   1      44.014  33.936  39.222  1.00  0.00     0.041 A 
ATOM     76  F   UNL A   1      43.330  31.935  38.216  1.00  0.00    -0.206 F 
ATOM     77  C   UNL A   1      44.516  35.229  39.119  1.00  0.00     0.022 A 
BRANCH  74  78
ATOM     78  S   UNL A   1      45.565  37.373  37.676  1.00  0.00     0.124 S 
ATOM     79  O   UNL A   1      45.791  37.428  36.234  1.00  0.00    -0.237 OA
ATOM     80  O   UNL A   1      44.592  38.321  38.207  1.00  0.00    -0.237 OA
ATOM     81  O   UNL A   1      46.772  37.199  38.481  1.00  0.00    -0.744 OA
ENDBRANCH  74  78
ENDBRANCH  57  71
BRANCH  58  82
ATOM     82  C   UNL A   1      41.526  28.594  28.540  1.00  0.00     0.023 A 
ATOM     83  C   UNL A   1      40.885  27.345  28.571  1.00  0.00     0.031 A 
ATOM     84  C   UNL A   1      41.930  29.093  27.288  1.00  0.00     0.131 A 
ATOM     85  C   UNL A   1      40.712  26.615  27.382  1.00  0.00     0.055 A 
ATOM     86  C   UNL A   1      41.699  28.391  26.102  1.00  0.00     0.041 A 
ATOM     87  F   UNL A   1      42.559  30.275  27.198  1.00  0.00    -0.206 F 
ATOM     88  C   UNL A   1      41.099  27.138  26.148  1.00  0.00     0.022 A 
BRANCH  85  89
ATOM     89  S   UNL A   1      40.063  24.924  27.488  1.00  0.00     0.124 S 
ATOM     90  O   UNL A   1      39.522  24.730  26.148  1.00  0.00    -0.237 OA
ATOM     91  O   UNL A   1      41.262  24.158  27.813  1.00  0.00    -0.237 OA
ATOM     92  O   UNL A   1      39.069  25.006  28.556  1.00  0.00    -0.744 OA
ENDBRANCH  85  89
ENDBRANCH  58  82
BRANCH  70  93
ATOM     93  C   UNL A   1      47.421  29.395  32.200  1.00  0.00     0.023 A 
ATOM     94  C   UNL A   1      47.767  28.139  32.729  1.00  0.00     0.031 A 
ATOM     95  C   UNL A   1      48.413  30.112  31.506  1.00  0.00     0.131 A 
ATOM     96  C   UNL A   1      49.082  27.663  32.600  1.00  0.00     0.055 A 
ATOM     97  C   UNL A   1      49.700  29.603  31.323  1.00  0.00     0.041 A 
ATOM     98  F   UNL A   1      48.145  31.320  30.982  1.00  0.00    -0.206 F 
ATOM     99  C   UNL A   1      50.045  28.378  31.883  1.00  0.00     0.022 A 
BRANCH  96 100
ATOM    100  S   UNL A   1      49.548  26.138  33.466  1.00  0.00     0.124 S 
ATOM    101  O   UNL A   1      50.855  25.848  32.887  1.00  0.00    -0.237 OA
ATOM    102  O   UNL A   1      49.549  26.561  34.864  1.00  0.00    -0.237 OA
ATOM    103  O   UNL A   1      48.488  25.200  33.105  1.00  0.00    -0.744 OA
ENDBRANCH  96 100
ENDBRANCH  70  93
ENDBRANCH  44  45
ENDBRANCH  37  39
ENDBRANCH  36  37
ENDBRANCH  35  36
ENDBRANCH  34  35
ENDBRANCH  33  34
ENDBRANCH  32  33
ENDBRANCH   1  32
TORSDOF 25
ENDMDL
