MODEL 1
REMARK VINA RESULT:     -11.2      0.000      0.000
REMARK SMILES CC(C)c1nc(C(=O)OCCOCCOCCOC(=O)c2ccc(-c3c4nc(c(-c5cc(S(=O)(=O)[O-])ccc5F)c5ccc([nH]5)c(-c5cc(S(=O)(=O)[O-])ccc5F)c5nc(c(-c6cc(S(=O)(=O)[O-])ccc6F)c6ccc3[nH]6)C=C5)C=C4)cc2)nn1-c1ccccc1F
REMARK SMILES IDX 14 1 13 2 12 3 11 4 10 5 9 6 7 7 8 8 6 9 4 10 5 11 85 12
REMARK SMILES IDX 84 13 2 14 1 15 3 16 86 17 87 18 91 19 88 20 90 21 92 22
REMARK SMILES IDX 89 23 15 24 16 25 17 26 18 27 19 28 20 29 21 30 22 31 83 32
REMARK SMILES IDX 23 33 82 34 24 35 25 36 26 37 76 38 27 39 81 40 75 41 77 42
REMARK SMILES IDX 28 43 80 44 74 45 73 46 29 48 61 49 41 50 60 51 42 52 45 53
REMARK SMILES IDX 59 54 78 55 43 56 44 57 58 59 79 60 46 61 30 62 31 63 39 64
REMARK SMILES IDX 32 65 38 66 40 67 37 68 33 69 34 70 35 71 36 72 62 73 63 74
REMARK SMILES IDX 71 75 64 76 70 77 72 78 69 79 65 80 66 81 67 82 68 83 47 84
REMARK SMILES IDX 48 85 56 86 49 87 55 88 57 89 54 90 50 91 51 92 52 93 53 94
REMARK H PARENT 77 47 45 58
REMARK Flexibility Score: inf
ROOT
ATOM      1  C   UNL A   1      32.975  29.705  25.549  1.00  0.00     0.188 C 
ENDROOT
BRANCH   1   2
ATOM      2  C   UNL A   1      31.526  29.741  25.014  1.00  0.00     0.188 C 
BRANCH   2   3
ATOM      3  O   UNL A   1      30.939  28.644  24.324  1.00  0.00    -0.376 OA
BRANCH   3   4
ATOM      4  C   UNL A   1      31.413  28.249  23.049  1.00  0.00     0.202 C 
BRANCH   4   5
ATOM      5  C   UNL A   1      32.347  27.035  22.978  1.00  0.00     0.261 C 
BRANCH   5   6
ATOM      6  O   UNL A   1      31.837  25.943  22.199  1.00  0.00    -0.457 OA
BRANCH   6   7
ATOM      7  C   UNL A   1      32.775  25.151  21.589  1.00  0.00     0.378 C 
ATOM      8  O   UNL A   1      33.145  25.293  20.427  1.00  0.00    -0.242 OA
BRANCH   7   9
ATOM      9  C   UNL A   1      33.374  24.162  22.507  1.00  0.00     0.260 A 
ATOM     10  C   UNL A   1      33.514  22.406  23.725  1.00  0.00     0.136 A 
ATOM     11  N   UNL A   1      32.696  23.031  22.899  1.00  0.00    -0.205 NA
ATOM     12  N   UNL A   1      34.723  23.096  23.747  1.00  0.00    -0.214 N 
ATOM     13  N   UNL A   1      34.596  24.262  23.052  1.00  0.00    -0.138 NA
BRANCH  10  14
ATOM     14  C   UNL A   1      33.002  21.362  24.688  1.00  0.00     0.051 C 
ATOM     15  C   UNL A   1      33.400  19.921  24.420  1.00  0.00     0.016 C 
ATOM     16  C   UNL A   1      33.267  21.765  26.138  1.00  0.00     0.016 C 
ENDBRANCH  10  14
BRANCH  12  17
ATOM     17  C   UNL A   1      35.903  22.865  24.481  1.00  0.00     0.102 A 
ATOM     18  C   UNL A   1      36.605  21.668  24.284  1.00  0.00     0.031 A 
ATOM     19  C   UNL A   1      36.360  23.777  25.424  1.00  0.00     0.148 A 
ATOM     20  C   UNL A   1      37.808  21.446  24.958  1.00  0.00     0.002 A 
ATOM     21  C   UNL A   1      37.557  23.556  26.104  1.00  0.00     0.041 A 
ATOM     22  F   UNL A   1      35.619  24.836  25.775  1.00  0.00    -0.205 F 
ATOM     23  C   UNL A   1      38.292  22.397  25.857  1.00  0.00     0.003 A 
ENDBRANCH  12  17
ENDBRANCH   7   9
ENDBRANCH   6   7
ENDBRANCH   5   6
ENDBRANCH   4   5
ENDBRANCH   3   4
ENDBRANCH   2   3
ENDBRANCH   1   2
BRANCH   1  24
ATOM     24  O   UNL A   1      33.220  28.799  26.616  1.00  0.00    -0.376 OA
BRANCH  24  25
ATOM     25  C   UNL A   1      34.464  28.982  27.282  1.00  0.00     0.202 C 
BRANCH  25  26
ATOM     26  C   UNL A   1      34.646  30.409  27.790  1.00  0.00     0.261 C 
BRANCH  26  27
ATOM     27  O   UNL A   1      35.998  30.768  28.072  1.00  0.00    -0.460 OA
BRANCH  27  28
ATOM     28  C   UNL A   1      36.560  30.158  29.137  1.00  0.00     0.338 C 
ATOM     29  O   UNL A   1      36.262  30.320  30.306  1.00  0.00    -0.246 OA
BRANCH  28  30
ATOM     30  C   UNL A   1      37.666  29.307  28.668  1.00  0.00     0.060 A 
ATOM     31  C   UNL A   1      38.167  28.357  29.559  1.00  0.00     0.016 A 
ATOM     32  C   UNL A   1      38.324  29.594  27.460  1.00  0.00     0.016 A 
ATOM     33  C   UNL A   1      39.413  27.813  29.319  1.00  0.00     0.010 A 
ATOM     34  C   UNL A   1      39.573  29.054  27.224  1.00  0.00     0.010 A 
ATOM     35  C   UNL A   1      40.138  28.230  28.195  1.00  0.00    -0.014 A 
BRANCH  35  36
ATOM     36  C   UNL A   1      41.539  27.860  28.139  1.00  0.00     0.031 A 
ATOM     37  C   UNL A   1      41.878  26.600  27.450  1.00  0.00     0.074 A 
ATOM     38  C   UNL A   1      42.505  28.640  28.661  1.00  0.00     0.049 A 
ATOM     39  N   UNL A   1      42.410  25.541  27.960  1.00  0.00    -0.248 NA
ATOM     40  C   UNL A   1      41.533  26.482  26.029  1.00  0.00     0.031 C 
ATOM     41  C   UNL A   1      42.387  30.029  29.113  1.00  0.00     0.029 A 
ATOM     42  N   UNL A   1      43.832  28.369  28.803  1.00  0.00    -0.354 N 
ATOM     43  C   UNL A   1      42.650  24.681  26.895  1.00  0.00     0.074 A 
ATOM     44  C   UNL A   1      41.983  25.257  25.755  1.00  0.00     0.031 C 
ATOM     45  C   UNL A   1      43.626  30.542  29.278  1.00  0.00     0.029 A 
ATOM     46  C   UNL A   1      44.604  29.485  29.078  1.00  0.00     0.049 A 
ATOM     47  H   UNL A   1      44.208  27.462  28.720  1.00  0.00     0.167 HD
ATOM     48  C   UNL A   1      43.528  23.648  26.997  1.00  0.00     0.034 A 
ATOM     49  C   UNL A   1      45.957  29.561  29.064  1.00  0.00     0.034 A 
ATOM     50  C   UNL A   1      43.798  23.310  28.373  1.00  0.00     0.049 A 
ATOM     51  C   UNL A   1      46.488  28.194  29.282  1.00  0.00     0.074 A 
ATOM     52  C   UNL A   1      43.016  22.912  29.441  1.00  0.00     0.029 A 
ATOM     53  N   UNL A   1      45.010  23.665  28.916  1.00  0.00    -0.354 N 
ATOM     54  N   UNL A   1      46.341  27.523  30.393  1.00  0.00    -0.248 NA
ATOM     55  C   UNL A   1      46.860  27.394  28.126  1.00  0.00     0.031 C 
ATOM     56  C   UNL A   1      43.626  23.494  30.590  1.00  0.00     0.029 A 
ATOM     57  C   UNL A   1      44.759  24.188  30.161  1.00  0.00     0.049 A 
ATOM     58  H   UNL A   1      45.893  23.566  28.491  1.00  0.00     0.167 HD
ATOM     59  C   UNL A   1      46.196  26.202  30.000  1.00  0.00     0.074 A 
ATOM     60  C   UNL A   1      46.649  26.170  28.615  1.00  0.00     0.031 C 
ATOM     61  C   UNL A   1      45.468  25.314  30.739  1.00  0.00     0.034 A 
BRANCH  48  62
ATOM     62  C   UNL A   1      44.353  23.105  25.855  1.00  0.00     0.023 A 
ATOM     63  C   UNL A   1      44.200  21.746  25.519  1.00  0.00     0.031 A 
ATOM     64  C   UNL A   1      45.454  23.766  25.267  1.00  0.00     0.131 A 
ATOM     65  C   UNL A   1      45.136  21.095  24.697  1.00  0.00     0.055 A 
ATOM     66  C   UNL A   1      46.337  23.135  24.387  1.00  0.00     0.041 A 
ATOM     67  F   UNL A   1      45.791  25.022  25.586  1.00  0.00    -0.206 F 
ATOM     68  C   UNL A   1      46.198  21.783  24.118  1.00  0.00     0.022 A 
BRANCH  65  69
ATOM     69  S   UNL A   1      45.054  19.290  24.558  1.00  0.00     0.124 S 
ATOM     70  O   UNL A   1      46.408  18.898  24.934  1.00  0.00    -0.237 OA
ATOM     71  O   UNL A   1      44.000  18.963  25.512  1.00  0.00    -0.237 OA
ATOM     72  O   UNL A   1      44.713  19.075  23.153  1.00  0.00    -0.744 OA
ENDBRANCH  65  69
ENDBRANCH  48  62
BRANCH  49  73
ATOM     73  C   UNL A   1      46.758  30.707  28.569  1.00  0.00     0.023 A 
ATOM     74  C   UNL A   1      46.273  31.599  27.595  1.00  0.00     0.031 A 
ATOM     75  C   UNL A   1      47.961  31.068  29.221  1.00  0.00     0.131 A 
ATOM     76  C   UNL A   1      46.990  32.780  27.299  1.00  0.00     0.055 A 
ATOM     77  C   UNL A   1      48.677  32.223  28.908  1.00  0.00     0.041 A 
ATOM     78  F   UNL A   1      48.442  30.348  30.246  1.00  0.00    -0.206 F 
ATOM     79  C   UNL A   1      48.189  33.090  27.945  1.00  0.00     0.022 A 
BRANCH  76  80
ATOM     80  S   UNL A   1      46.299  33.992  26.132  1.00  0.00     0.124 S 
ATOM     81  O   UNL A   1      45.290  33.207  25.433  1.00  0.00    -0.237 OA
ATOM     82  O   UNL A   1      45.807  35.037  27.023  1.00  0.00    -0.237 OA
ATOM     83  O   UNL A   1      47.454  34.377  25.320  1.00  0.00    -0.744 OA
ENDBRANCH  76  80
ENDBRANCH  49  73
BRANCH  61  84
ATOM     84  C   UNL A   1      45.141  25.655  32.176  1.00  0.00     0.023 A 
ATOM     85  C   UNL A   1      45.934  25.289  33.283  1.00  0.00     0.031 A 
ATOM     86  C   UNL A   1      44.051  26.516  32.408  1.00  0.00     0.131 A 
ATOM     87  C   UNL A   1      45.620  25.777  34.566  1.00  0.00     0.055 A 
ATOM     88  C   UNL A   1      43.753  27.010  33.677  1.00  0.00     0.041 A 
ATOM     89  F   UNL A   1      43.281  26.929  31.387  1.00  0.00    -0.206 F 
ATOM     90  C   UNL A   1      44.536  26.639  34.763  1.00  0.00     0.022 A 
BRANCH  87  91
ATOM     91  S   UNL A   1      46.637  25.309  36.002  1.00  0.00     0.124 S 
ATOM     92  O   UNL A   1      47.747  26.255  35.953  1.00  0.00    -0.237 OA
ATOM     93  O   UNL A   1      45.706  25.469  37.116  1.00  0.00    -0.237 OA
ATOM     94  O   UNL A   1      47.009  23.921  35.719  1.00  0.00    -0.744 OA
ENDBRANCH  87  91
ENDBRANCH  61  84
ENDBRANCH  35  36
ENDBRANCH  28  30
ENDBRANCH  27  28
ENDBRANCH  26  27
ENDBRANCH  25  26
ENDBRANCH  24  25
ENDBRANCH   1  24
TORSDOF 22
ENDMDL
MODEL 2
REMARK VINA RESULT:     -11.0      2.121      7.183
REMARK SMILES CC(C)c1nc(C(=O)OCCOCCOCCOC(=O)c2ccc(-c3c4nc(c(-c5cc(S(=O)(=O)[O-])ccc5F)c5ccc([nH]5)c(-c5cc(S(=O)(=O)[O-])ccc5F)c5nc(c(-c6cc(S(=O)(=O)[O-])ccc6F)c6ccc3[nH]6)C=C5)C=C4)cc2)nn1-c1ccccc1F
REMARK SMILES IDX 14 1 13 2 12 3 11 4 10 5 9 6 7 7 8 8 6 9 4 10 5 11 85 12
REMARK SMILES IDX 84 13 2 14 1 15 3 16 86 17 87 18 91 19 88 20 90 21 92 22
REMARK SMILES IDX 89 23 15 24 16 25 17 26 18 27 19 28 20 29 21 30 22 31 83 32
REMARK SMILES IDX 23 33 82 34 24 35 25 36 26 37 76 38 27 39 81 40 75 41 77 42
REMARK SMILES IDX 28 43 80 44 74 45 73 46 29 48 61 49 41 50 60 51 42 52 45 53
REMARK SMILES IDX 59 54 78 55 43 56 44 57 58 59 79 60 46 61 30 62 31 63 39 64
REMARK SMILES IDX 32 65 38 66 40 67 37 68 33 69 34 70 35 71 36 72 62 73 63 74
REMARK SMILES IDX 71 75 64 76 70 77 72 78 69 79 65 80 66 81 67 82 68 83 47 84
REMARK SMILES IDX 48 85 56 86 49 87 55 88 57 89 54 90 50 91 51 92 52 93 53 94
REMARK H PARENT 77 47 45 58
REMARK Flexibility Score: inf
ROOT
ATOM      1  C   UNL A   1      32.755  29.636  25.158  1.00  0.00     0.188 C 
ENDROOT
BRANCH   1   2
ATOM      2  C   UNL A   1      31.315  29.936  24.685  1.00  0.00     0.188 C 
BRANCH   2   3
ATOM      3  O   UNL A   1      30.508  28.964  24.030  1.00  0.00    -0.376 OA
BRANCH   3   4
ATOM      4  C   UNL A   1      30.861  28.469  22.750  1.00  0.00     0.202 C 
BRANCH   4   5
ATOM      5  C   UNL A   1      31.811  27.267  22.686  1.00  0.00     0.261 C 
BRANCH   5   6
ATOM      6  O   UNL A   1      31.517  26.338  21.633  1.00  0.00    -0.457 OA
BRANCH   6   7
ATOM      7  C   UNL A   1      32.526  25.475  21.294  1.00  0.00     0.378 C 
ATOM      8  O   UNL A   1      33.104  25.484  20.211  1.00  0.00    -0.242 OA
BRANCH   7   9
ATOM      9  C   UNL A   1      32.921  24.590  22.407  1.00  0.00     0.260 A 
ATOM     10  C   UNL A   1      32.736  23.475  24.227  1.00  0.00     0.136 A 
ATOM     11  N   UNL A   1      32.041  24.240  23.405  1.00  0.00    -0.205 NA
ATOM     12  N   UNL A   1      33.996  23.272  23.672  1.00  0.00    -0.214 N 
ATOM     13  N   UNL A   1      34.144  24.060  22.570  1.00  0.00    -0.138 NA
BRANCH  10  14
ATOM     14  C   UNL A   1      32.273  23.232  25.643  1.00  0.00     0.051 C 
ATOM     15  C   UNL A   1      32.038  24.454  26.512  1.00  0.00     0.016 C 
ATOM     16  C   UNL A   1      31.087  22.268  25.683  1.00  0.00     0.016 C 
ENDBRANCH  10  14
BRANCH  12  17
ATOM     17  C   UNL A   1      35.113  22.563  24.158  1.00  0.00     0.102 A 
ATOM     18  C   UNL A   1      36.356  23.208  24.215  1.00  0.00     0.031 A 
ATOM     19  C   UNL A   1      35.016  21.230  24.539  1.00  0.00     0.148 A 
ATOM     20  C   UNL A   1      37.463  22.542  24.749  1.00  0.00     0.002 A 
ATOM     21  C   UNL A   1      36.120  20.560  25.065  1.00  0.00     0.041 A 
ATOM     22  F   UNL A   1      33.897  20.530  24.320  1.00  0.00    -0.205 F 
ATOM     23  C   UNL A   1      37.341  21.223  25.188  1.00  0.00     0.003 A 
ENDBRANCH  12  17
ENDBRANCH   7   9
ENDBRANCH   6   7
ENDBRANCH   5   6
ENDBRANCH   4   5
ENDBRANCH   3   4
ENDBRANCH   2   3
ENDBRANCH   1   2
BRANCH   1  24
ATOM     24  O   UNL A   1      32.870  28.847  26.334  1.00  0.00    -0.376 OA
BRANCH  24  25
ATOM     25  C   UNL A   1      33.721  29.389  27.337  1.00  0.00     0.202 C 
BRANCH  25  26
ATOM     26  C   UNL A   1      33.574  30.902  27.468  1.00  0.00     0.261 C 
BRANCH  26  27
ATOM     27  O   UNL A   1      34.809  31.615  27.506  1.00  0.00    -0.460 OA
BRANCH  27  28
ATOM     28  C   UNL A   1      35.409  31.693  28.714  1.00  0.00     0.338 C 
ATOM     29  O   UNL A   1      34.927  32.154  29.733  1.00  0.00    -0.246 OA
BRANCH  28  30
ATOM     30  C   UNL A   1      36.789  31.198  28.592  1.00  0.00     0.060 A 
ATOM     31  C   UNL A   1      36.975  29.968  27.960  1.00  0.00     0.016 A 
ATOM     32  C   UNL A   1      37.839  31.834  29.277  1.00  0.00     0.016 A 
ATOM     33  C   UNL A   1      38.167  29.296  28.153  1.00  0.00     0.010 A 
ATOM     34  C   UNL A   1      39.027  31.158  29.474  1.00  0.00     0.010 A 
ATOM     35  C   UNL A   1      39.148  29.863  28.975  1.00  0.00    -0.014 A 
BRANCH  35  36
ATOM     36  C   UNL A   1      40.245  29.005  29.381  1.00  0.00     0.031 A 
ATOM     37  C   UNL A   1      40.534  28.917  30.826  1.00  0.00     0.074 A 
ATOM     38  C   UNL A   1      40.958  28.289  28.492  1.00  0.00     0.049 A 
ATOM     39  N   UNL A   1      41.607  29.287  31.440  1.00  0.00    -0.248 NA
ATOM     40  C   UNL A   1      39.478  28.402  31.705  1.00  0.00     0.031 C 
ATOM     41  C   UNL A   1      40.637  28.032  27.085  1.00  0.00     0.029 A 
ATOM     42  N   UNL A   1      42.086  27.554  28.701  1.00  0.00    -0.354 N 
ATOM     43  C   UNL A   1      41.453  28.882  32.760  1.00  0.00     0.074 A 
ATOM     44  C   UNL A   1      40.082  28.456  32.892  1.00  0.00     0.031 C 
ATOM     45  C   UNL A   1      41.428  27.037  26.630  1.00  0.00     0.029 A 
ATOM     46  C   UNL A   1      42.390  26.689  27.663  1.00  0.00     0.049 A 
ATOM     47  H   UNL A   1      42.635  27.632  29.515  1.00  0.00     0.167 HD
ATOM     48  C   UNL A   1      42.516  28.767  33.599  1.00  0.00     0.034 A 
ATOM     49  C   UNL A   1      43.315  25.699  27.675  1.00  0.00     0.034 A 
ATOM     50  C   UNL A   1      43.660  29.504  33.117  1.00  0.00     0.049 A 
ATOM     51  C   UNL A   1      44.324  26.036  28.707  1.00  0.00     0.074 A 
ATOM     52  C   UNL A   1      43.892  30.830  32.806  1.00  0.00     0.029 A 
ATOM     53  N   UNL A   1      44.716  28.809  32.578  1.00  0.00    -0.354 N 
ATOM     54  N   UNL A   1      45.133  27.059  28.629  1.00  0.00    -0.248 NA
ATOM     55  C   UNL A   1      44.187  25.461  30.036  1.00  0.00     0.031 C 
ATOM     56  C   UNL A   1      44.801  30.805  31.711  1.00  0.00     0.029 A 
ATOM     57  C   UNL A   1      45.094  29.468  31.434  1.00  0.00     0.049 A 
ATOM     58  H   UNL A   1      45.124  27.990  32.943  1.00  0.00     0.167 HD
ATOM     59  C   UNL A   1      45.279  27.504  29.933  1.00  0.00     0.074 A 
ATOM     60  C   UNL A   1      44.780  26.412  30.761  1.00  0.00     0.031 C 
ATOM     61  C   UNL A   1      45.531  28.816  30.215  1.00  0.00     0.034 A 
BRANCH  48  62
ATOM     62  C   UNL A   1      42.616  27.772  34.729  1.00  0.00     0.023 A 
ATOM     63  C   UNL A   1      43.297  26.563  34.486  1.00  0.00     0.031 A 
ATOM     64  C   UNL A   1      41.863  27.826  35.924  1.00  0.00     0.131 A 
ATOM     65  C   UNL A   1      43.167  25.471  35.362  1.00  0.00     0.055 A 
ATOM     66  C   UNL A   1      41.802  26.766  36.832  1.00  0.00     0.041 A 
ATOM     67  F   UNL A   1      41.074  28.864  36.228  1.00  0.00    -0.206 F 
ATOM     68  C   UNL A   1      42.434  25.568  36.541  1.00  0.00     0.022 A 
BRANCH  65  69
ATOM     69  S   UNL A   1      43.811  23.861  34.835  1.00  0.00     0.124 S 
ATOM     70  O   UNL A   1      44.468  23.389  36.049  1.00  0.00    -0.237 OA
ATOM     71  O   UNL A   1      42.590  23.162  34.450  1.00  0.00    -0.237 OA
ATOM     72  O   UNL A   1      44.710  24.200  33.734  1.00  0.00    -0.744 OA
ENDBRANCH  65  69
ENDBRANCH  48  62
BRANCH  49  73
ATOM     73  C   UNL A   1      43.165  24.363  27.047  1.00  0.00     0.023 A 
ATOM     74  C   UNL A   1      44.056  23.889  26.067  1.00  0.00     0.031 A 
ATOM     75  C   UNL A   1      42.239  23.431  27.571  1.00  0.00     0.131 A 
ATOM     76  C   UNL A   1      43.987  22.544  25.641  1.00  0.00     0.055 A 
ATOM     77  C   UNL A   1      42.160  22.110  27.131  1.00  0.00     0.041 A 
ATOM     78  F   UNL A   1      41.429  23.751  28.593  1.00  0.00    -0.206 F 
ATOM     79  C   UNL A   1      43.041  21.658  26.164  1.00  0.00     0.022 A 
BRANCH  76  80
ATOM     80  S   UNL A   1      45.218  21.899  24.467  1.00  0.00     0.124 S 
ATOM     81  O   UNL A   1      45.393  23.022  23.556  1.00  0.00    -0.237 OA
ATOM     82  O   UNL A   1      46.346  21.587  25.339  1.00  0.00    -0.237 OA
ATOM     83  O   UNL A   1      44.554  20.731  23.888  1.00  0.00    -0.744 OA
ENDBRANCH  76  80
ENDBRANCH  49  73
BRANCH  61  84
ATOM     84  C   UNL A   1      46.038  29.716  29.109  1.00  0.00     0.023 A 
ATOM     85  C   UNL A   1      45.222  30.576  28.345  1.00  0.00     0.031 A 
ATOM     86  C   UNL A   1      47.431  29.804  28.930  1.00  0.00     0.131 A 
ATOM     87  C   UNL A   1      45.808  31.479  27.437  1.00  0.00     0.055 A 
ATOM     88  C   UNL A   1      48.009  30.710  28.042  1.00  0.00     0.041 A 
ATOM     89  F   UNL A   1      48.261  29.036  29.656  1.00  0.00    -0.206 F 
ATOM     90  C   UNL A   1      47.197  31.550  27.288  1.00  0.00     0.022 A 
BRANCH  87  91
ATOM     91  S   UNL A   1      44.764  32.593  26.445  1.00  0.00     0.124 S 
ATOM     92  O   UNL A   1      45.721  33.268  25.575  1.00  0.00    -0.237 OA
ATOM     93  O   UNL A   1      43.844  31.666  25.791  1.00  0.00    -0.237 OA
ATOM     94  O   UNL A   1      44.140  33.459  27.448  1.00  0.00    -0.744 OA
ENDBRANCH  87  91
ENDBRANCH  61  84
ENDBRANCH  35  36
ENDBRANCH  28  30
ENDBRANCH  27  28
ENDBRANCH  26  27
ENDBRANCH  25  26
ENDBRANCH  24  25
ENDBRANCH   1  24
TORSDOF 22
ENDMDL
MODEL 3
REMARK VINA RESULT:     -10.6      4.455     10.428
REMARK SMILES CC(C)c1nc(C(=O)OCCOCCOCCOC(=O)c2ccc(-c3c4nc(c(-c5cc(S(=O)(=O)[O-])ccc5F)c5ccc([nH]5)c(-c5cc(S(=O)(=O)[O-])ccc5F)c5nc(c(-c6cc(S(=O)(=O)[O-])ccc6F)c6ccc3[nH]6)C=C5)C=C4)cc2)nn1-c1ccccc1F
REMARK SMILES IDX 14 1 13 2 12 3 11 4 10 5 9 6 7 7 8 8 6 9 4 10 5 11 85 12
REMARK SMILES IDX 84 13 2 14 1 15 3 16 86 17 87 18 91 19 88 20 90 21 92 22
REMARK SMILES IDX 89 23 15 24 16 25 17 26 18 27 19 28 20 29 21 30 22 31 83 32
REMARK SMILES IDX 23 33 82 34 24 35 25 36 26 37 76 38 27 39 81 40 75 41 77 42
REMARK SMILES IDX 28 43 80 44 74 45 73 46 29 48 61 49 41 50 60 51 42 52 45 53
REMARK SMILES IDX 59 54 78 55 43 56 44 57 58 59 79 60 46 61 30 62 31 63 39 64
REMARK SMILES IDX 32 65 38 66 40 67 37 68 33 69 34 70 35 71 36 72 62 73 63 74
REMARK SMILES IDX 71 75 64 76 70 77 72 78 69 79 65 80 66 81 67 82 68 83 47 84
REMARK SMILES IDX 48 85 56 86 49 87 55 88 57 89 54 90 50 91 51 92 52 93 53 94
REMARK H PARENT 77 47 45 58
REMARK Flexibility Score: inf
ROOT
ATOM      1  C   UNL A   1      36.337  23.256  23.750  1.00  0.00     0.188 C 
ENDROOT
BRANCH   1   2
ATOM      2  C   UNL A   1      34.903  23.082  24.296  1.00  0.00     0.188 C 
BRANCH   2   3
ATOM      3  O   UNL A   1      34.174  21.868  24.157  1.00  0.00    -0.376 OA
BRANCH   3   4
ATOM      4  C   UNL A   1      33.670  21.188  25.294  1.00  0.00     0.202 C 
BRANCH   4   5
ATOM      5  C   UNL A   1      32.845  21.996  26.303  1.00  0.00     0.261 C 
BRANCH   5   6
ATOM      6  O   UNL A   1      31.467  22.163  25.939  1.00  0.00    -0.457 OA
BRANCH   6   7
ATOM      7  C   UNL A   1      30.819  23.226  26.511  1.00  0.00     0.378 C 
ATOM      8  O   UNL A   1      30.055  23.132  27.468  1.00  0.00    -0.242 OA
BRANCH   7   9
ATOM      9  C   UNL A   1      31.210  24.521  25.921  1.00  0.00     0.260 A 
ATOM     10  C   UNL A   1      31.688  25.955  24.403  1.00  0.00     0.136 A 
ATOM     11  N   UNL A   1      31.291  24.705  24.560  1.00  0.00    -0.205 NA
ATOM     12  N   UNL A   1      31.741  26.556  25.657  1.00  0.00    -0.214 N 
ATOM     13  N   UNL A   1      31.535  25.618  26.624  1.00  0.00    -0.138 NA
BRANCH  10  14
ATOM     14  C   UNL A   1      32.295  26.421  23.102  1.00  0.00     0.051 C 
ATOM     15  C   UNL A   1      33.805  26.579  23.062  1.00  0.00     0.016 C 
ATOM     16  C   UNL A   1      31.778  25.601  21.921  1.00  0.00     0.016 C 
ENDBRANCH  10  14
BRANCH  12  17
ATOM     17  C   UNL A   1      32.129  27.856  26.040  1.00  0.00     0.102 A 
ATOM     18  C   UNL A   1      33.069  28.010  27.069  1.00  0.00     0.031 A 
ATOM     19  C   UNL A   1      31.570  28.983  25.451  1.00  0.00     0.148 A 
ATOM     20  C   UNL A   1      33.511  29.288  27.422  1.00  0.00     0.002 A 
ATOM     21  C   UNL A   1      32.004  30.259  25.806  1.00  0.00     0.041 A 
ATOM     22  F   UNL A   1      30.537  28.878  24.605  1.00  0.00    -0.205 F 
ATOM     23  C   UNL A   1      32.990  30.411  26.780  1.00  0.00     0.003 A 
ENDBRANCH  12  17
ENDBRANCH   7   9
ENDBRANCH   6   7
ENDBRANCH   5   6
ENDBRANCH   4   5
ENDBRANCH   3   4
ENDBRANCH   2   3
ENDBRANCH   1   2
BRANCH   1  24
ATOM     24  O   UNL A   1      37.348  22.507  24.410  1.00  0.00    -0.376 OA
BRANCH  24  25
ATOM     25  C   UNL A   1      37.617  22.914  25.747  1.00  0.00     0.202 C 
BRANCH  25  26
ATOM     26  C   UNL A   1      39.104  22.861  26.083  1.00  0.00     0.261 C 
BRANCH  26  27
ATOM     27  O   UNL A   1      39.501  23.721  27.149  1.00  0.00    -0.460 OA
BRANCH  27  28
ATOM     28  C   UNL A   1      40.167  24.839  26.788  1.00  0.00     0.338 C 
ATOM     29  O   UNL A   1      41.073  24.914  25.979  1.00  0.00    -0.246 OA
BRANCH  28  30
ATOM     30  C   UNL A   1      39.673  25.967  27.596  1.00  0.00     0.060 A 
ATOM     31  C   UNL A   1      40.023  27.253  27.182  1.00  0.00     0.016 A 
ATOM     32  C   UNL A   1      39.067  25.741  28.843  1.00  0.00     0.016 A 
ATOM     33  C   UNL A   1      39.916  28.293  28.084  1.00  0.00     0.010 A 
ATOM     34  C   UNL A   1      38.966  26.780  29.747  1.00  0.00     0.010 A 
ATOM     35  C   UNL A   1      39.466  28.029  29.384  1.00  0.00    -0.014 A 
BRANCH  35  36
ATOM     36  C   UNL A   1      39.644  29.077  30.370  1.00  0.00     0.031 A 
ATOM     37  C   UNL A   1      38.506  29.987  30.601  1.00  0.00     0.074 A 
ATOM     38  C   UNL A   1      40.783  29.207  31.076  1.00  0.00     0.049 A 
ATOM     39  N   UNL A   1      38.456  31.259  30.384  1.00  0.00    -0.248 NA
ATOM     40  C   UNL A   1      37.249  29.404  31.084  1.00  0.00     0.031 C 
ATOM     41  C   UNL A   1      41.882  28.244  31.188  1.00  0.00     0.029 A 
ATOM     42  N   UNL A   1      41.146  30.207  31.928  1.00  0.00    -0.354 N 
ATOM     43  C   UNL A   1      37.228  31.684  30.877  1.00  0.00     0.074 A 
ATOM     44  C   UNL A   1      36.482  30.490  31.182  1.00  0.00     0.031 C 
ATOM     45  C   UNL A   1      42.681  28.609  32.214  1.00  0.00     0.029 A 
ATOM     46  C   UNL A   1      42.228  29.890  32.732  1.00  0.00     0.049 A 
ATOM     47  H   UNL A   1      40.682  31.074  31.968  1.00  0.00     0.167 HD
ATOM     48  C   UNL A   1      36.988  32.992  31.158  1.00  0.00     0.034 A 
ATOM     49  C   UNL A   1      42.678  30.589  33.802  1.00  0.00     0.034 A 
ATOM     50  C   UNL A   1      37.928  33.863  30.495  1.00  0.00     0.049 A 
ATOM     51  C   UNL A   1      42.230  31.993  33.645  1.00  0.00     0.074 A 
ATOM     52  C   UNL A   1      38.276  34.083  29.176  1.00  0.00     0.029 A 
ATOM     53  N   UNL A   1      38.918  34.459  31.241  1.00  0.00    -0.354 N 
ATOM     54  N   UNL A   1      42.649  32.790  32.700  1.00  0.00    -0.248 NA
ATOM     55  C   UNL A   1      41.007  32.417  34.310  1.00  0.00     0.031 C 
ATOM     56  C   UNL A   1      39.670  34.373  29.198  1.00  0.00     0.029 A 
ATOM     57  C   UNL A   1      40.087  34.342  30.530  1.00  0.00     0.049 A 
ATOM     58  H   UNL A   1      38.809  34.887  32.120  1.00  0.00     0.167 HD
ATOM     59  C   UNL A   1      41.553  33.575  32.376  1.00  0.00     0.074 A 
ATOM     60  C   UNL A   1      40.618  33.387  33.479  1.00  0.00     0.031 C 
ATOM     61  C   UNL A   1      41.387  34.085  31.120  1.00  0.00     0.034 A 
BRANCH  48  62
ATOM     62  C   UNL A   1      36.063  33.482  32.246  1.00  0.00     0.023 A 
ATOM     63  C   UNL A   1      34.897  34.171  31.859  1.00  0.00     0.031 A 
ATOM     64  C   UNL A   1      36.390  33.545  33.619  1.00  0.00     0.131 A 
ATOM     65  C   UNL A   1      34.158  34.921  32.791  1.00  0.00     0.055 A 
ATOM     66  C   UNL A   1      35.608  34.225  34.555  1.00  0.00     0.041 A 
ATOM     67  F   UNL A   1      37.528  33.037  34.109  1.00  0.00    -0.206 F 
ATOM     68  C   UNL A   1      34.498  34.942  34.140  1.00  0.00     0.022 A 
BRANCH  65  69
ATOM     69  S   UNL A   1      32.860  36.025  32.175  1.00  0.00     0.124 S 
ATOM     70  O   UNL A   1      31.650  35.282  32.509  1.00  0.00    -0.237 OA
ATOM     71  O   UNL A   1      33.106  37.238  32.948  1.00  0.00    -0.237 OA
ATOM     72  O   UNL A   1      33.152  36.126  30.746  1.00  0.00    -0.744 OA
ENDBRANCH  65  69
ENDBRANCH  48  62
BRANCH  49  73
ATOM     73  C   UNL A   1      43.200  30.007  35.063  1.00  0.00     0.023 A 
ATOM     74  C   UNL A   1      42.723  28.790  35.584  1.00  0.00     0.031 A 
ATOM     75  C   UNL A   1      44.352  30.554  35.675  1.00  0.00     0.131 A 
ATOM     76  C   UNL A   1      43.381  28.183  36.676  1.00  0.00     0.055 A 
ATOM     77  C   UNL A   1      44.985  29.961  36.767  1.00  0.00     0.041 A 
ATOM     78  F   UNL A   1      44.955  31.645  35.177  1.00  0.00    -0.206 F 
ATOM     79  C   UNL A   1      44.503  28.766  37.271  1.00  0.00     0.022 A 
BRANCH  76  80
ATOM     80  S   UNL A   1      42.840  26.550  37.268  1.00  0.00     0.124 S 
ATOM     81  O   UNL A   1      43.564  26.423  38.526  1.00  0.00    -0.237 OA
ATOM     82  O   UNL A   1      41.394  26.715  37.363  1.00  0.00    -0.237 OA
ATOM     83  O   UNL A   1      43.282  25.642  36.207  1.00  0.00    -0.744 OA
ENDBRANCH  76  80
ENDBRANCH  49  73
BRANCH  61  84
ATOM     84  C   UNL A   1      42.576  34.127  30.186  1.00  0.00     0.023 A 
ATOM     85  C   UNL A   1      43.474  35.210  30.086  1.00  0.00     0.031 A 
ATOM     86  C   UNL A   1      42.887  32.951  29.477  1.00  0.00     0.131 A 
ATOM     87  C   UNL A   1      44.631  35.094  29.291  1.00  0.00     0.055 A 
ATOM     88  C   UNL A   1      44.041  32.834  28.704  1.00  0.00     0.041 A 
ATOM     89  F   UNL A   1      42.089  31.874  29.562  1.00  0.00    -0.206 F 
ATOM     90  C   UNL A   1      44.917  33.909  28.605  1.00  0.00     0.022 A 
BRANCH  87  91
ATOM     91  S   UNL A   1      45.795  36.487  29.155  1.00  0.00     0.124 S 
ATOM     92  O   UNL A   1      44.922  37.640  28.962  1.00  0.00    -0.237 OA
ATOM     93  O   UNL A   1      46.510  36.429  30.427  1.00  0.00    -0.237 OA
ATOM     94  O   UNL A   1      46.608  36.139  27.987  1.00  0.00    -0.744 OA
ENDBRANCH  87  91
ENDBRANCH  61  84
ENDBRANCH  35  36
ENDBRANCH  28  30
ENDBRANCH  27  28
ENDBRANCH  26  27
ENDBRANCH  25  26
ENDBRANCH  24  25
ENDBRANCH   1  24
TORSDOF 22
ENDMDL
