MODEL 1
REMARK VINA RESULT:      -8.5      0.000      0.000
REMARK SMILES [NH3+][C@@]1(C(=O)OCCOCCOCCOC(=O)c2ccc(-c3c4nc(c(-c5cc(S(=O)(=O)[O-])ccc5F)c5ccc([nH]5)c(-c5cc(S(=O)(=O)[O-])ccc5F)c5nc(c(-c6cc(S(=O)(=O)[O-])ccc6F)c6ccc3[nH]6)C=C5)C=C4)cc2)CC[N@H+](Cc2ccc(OCC(=O)N3CCCCC3)cc2)C1
REMARK SMILES IDX 9 1 8 2 7 3 6 4 5 5 3 6 4 7 2 8 80 9 100 10 81 11 82 12 1 14
REMARK SMILES IDX 83 18 84 19 85 20 99 21 86 22 98 23 87 24 88 25 89 26 90 27
REMARK SMILES IDX 91 28 92 29 93 30 97 31 94 32 96 33 95 34 10 35 11 36 12 37
REMARK SMILES IDX 13 38 14 39 15 40 16 41 17 42 18 43 79 44 19 45 78 46 20 47
REMARK SMILES IDX 21 48 22 49 72 50 23 51 77 52 71 53 73 54 24 55 76 56 70 57
REMARK SMILES IDX 69 58 25 60 57 61 37 62 56 63 38 64 41 65 55 66 74 67 39 68
REMARK SMILES IDX 40 69 54 71 75 72 42 73 26 74 27 75 35 76 28 77 34 78 36 79
REMARK SMILES IDX 33 80 29 81 30 82 31 83 32 84 58 85 59 86 67 87 60 88 66 89
REMARK SMILES IDX 68 90 65 91 61 92 62 93 63 94 64 95 43 96 44 97 52 98 45 99
REMARK SMILES IDX 51 100 53 101 50 102 46 103 47 104 48 105 49 106
REMARK H PARENT 82 13 1 15 1 16 1 17 73 59 41 70
REMARK Flexibility Score: inf
ROOT
ATOM      1  C   UNL A   1      43.834  19.168  26.019  1.00  0.00     0.188 C 
ENDROOT
BRANCH   1   2
ATOM      2  O   UNL A   1      44.850  18.471  25.346  1.00  0.00    -0.376 OA
BRANCH   2   3
ATOM      3  C   UNL A   1      46.127  19.040  25.237  1.00  0.00     0.202 C 
BRANCH   3   4
ATOM      4  C   UNL A   1      46.215  20.305  24.380  1.00  0.00     0.261 C 
BRANCH   4   5
ATOM      5  O   UNL A   1      46.173  21.456  25.221  1.00  0.00    -0.458 OA
BRANCH   5   6
ATOM      6  C   UNL A   1      45.684  22.555  24.606  1.00  0.00     0.374 C 
ATOM      7  O   UNL A   1      46.050  22.955  23.505  1.00  0.00    -0.244 OA
BRANCH   6   8
ATOM      8  C   UNL A   1      44.465  23.123  25.374  1.00  0.00     0.246 C 
ATOM      9  C   UNL A   1      44.393  24.643  25.313  1.00  0.00     0.148 C 
ATOM     10  C   UNL A   1      44.645  22.847  26.891  1.00  0.00     0.344 C 
ATOM     11  C   UNL A   1      45.202  25.122  26.523  1.00  0.00     0.270 C 
ATOM     12  N   UNL A   1      44.983  24.111  27.540  1.00  0.00    -0.325 N 
ATOM     13  H   UNL A   1      44.168  24.401  28.080  1.00  0.00     0.348 HD
BRANCH   8  14
ATOM     14  N   UNL A   1      43.256  22.516  24.761  1.00  0.00    -0.338 N 
ATOM     15  H   UNL A   1      43.135  21.568  25.117  1.00  0.00     0.345 HD
ATOM     16  H   UNL A   1      43.366  22.486  23.748  1.00  0.00     0.345 HD
ATOM     17  H   UNL A   1      42.437  23.075  24.998  1.00  0.00     0.345 HD
ENDBRANCH   8  14
BRANCH  12  18
ATOM     18  C   UNL A   1      45.821  24.102  28.751  1.00  0.00     0.299 C 
BRANCH  18  19
ATOM     19  C   UNL A   1      45.474  24.983  29.958  1.00  0.00     0.006 A 
ATOM     20  C   UNL A   1      44.374  24.652  30.763  1.00  0.00     0.013 A 
ATOM     21  C   UNL A   1      46.183  26.137  30.333  1.00  0.00     0.013 A 
ATOM     22  C   UNL A   1      44.159  25.291  32.001  1.00  0.00     0.047 A 
ATOM     23  C   UNL A   1      45.987  26.762  31.597  1.00  0.00     0.047 A 
ATOM     24  C   UNL A   1      45.058  26.245  32.490  1.00  0.00     0.120 A 
BRANCH  24  25
ATOM     25  O   UNL A   1      45.017  26.406  33.850  1.00  0.00    -0.484 OA
BRANCH  25  26
ATOM     26  C   UNL A   1      43.891  26.871  34.576  1.00  0.00     0.329 C 
BRANCH  26  27
ATOM     27  C   UNL A   1      43.234  28.301  34.799  1.00  0.00     0.260 C 
ATOM     28  O   UNL A   1      43.687  28.973  35.739  1.00  0.00    -0.271 OA
ATOM     29  N   UNL A   1      42.281  28.866  33.936  1.00  0.00    -0.340 N 
ATOM     30  C   UNL A   1      42.110  30.331  33.952  1.00  0.00     0.119 C 
ATOM     31  C   UNL A   1      41.499  28.196  32.886  1.00  0.00     0.119 C 
ATOM     32  C   UNL A   1      40.653  30.784  34.009  1.00  0.00     0.022 C 
ATOM     33  C   UNL A   1      40.031  28.686  32.821  1.00  0.00     0.022 C 
ATOM     34  C   UNL A   1      39.852  30.196  32.856  1.00  0.00     0.004 C 
ENDBRANCH  26  27
ENDBRANCH  25  26
ENDBRANCH  24  25
ENDBRANCH  18  19
ENDBRANCH  12  18
ENDBRANCH   6   8
ENDBRANCH   5   6
ENDBRANCH   4   5
ENDBRANCH   3   4
ENDBRANCH   2   3
ENDBRANCH   1   2
BRANCH   1  35
ATOM     35  C   UNL A   1      42.390  18.640  25.927  1.00  0.00     0.188 C 
BRANCH  35  36
ATOM     36  O   UNL A   1      41.343  19.502  25.517  1.00  0.00    -0.376 OA
BRANCH  36  37
ATOM     37  C   UNL A   1      40.386  19.936  26.472  1.00  0.00     0.202 C 
BRANCH  37  38
ATOM     38  C   UNL A   1      40.771  21.171  27.278  1.00  0.00     0.261 C 
BRANCH  38  39
ATOM     39  O   UNL A   1      40.626  22.349  26.479  1.00  0.00    -0.460 OA
BRANCH  39  40
ATOM     40  C   UNL A   1      39.403  22.935  26.502  1.00  0.00     0.338 C 
ATOM     41  O   UNL A   1      38.323  22.421  26.314  1.00  0.00    -0.246 OA
BRANCH  40  42
ATOM     42  C   UNL A   1      39.607  24.297  27.020  1.00  0.00     0.060 A 
ATOM     43  C   UNL A   1      40.035  25.310  26.147  1.00  0.00     0.016 A 
ATOM     44  C   UNL A   1      39.352  24.555  28.363  1.00  0.00     0.016 A 
ATOM     45  C   UNL A   1      40.212  26.604  26.624  1.00  0.00     0.010 A 
ATOM     46  C   UNL A   1      39.576  25.834  28.850  1.00  0.00     0.010 A 
ATOM     47  C   UNL A   1      40.037  26.847  27.989  1.00  0.00    -0.014 A 
BRANCH  47  48
ATOM     48  C   UNL A   1      40.611  28.051  28.615  1.00  0.00     0.031 A 
ATOM     49  C   UNL A   1      39.636  29.086  29.085  1.00  0.00     0.074 A 
ATOM     50  C   UNL A   1      41.936  28.257  28.638  1.00  0.00     0.049 A 
ATOM     51  N   UNL A   1      39.832  30.342  29.374  1.00  0.00    -0.248 NA
ATOM     52  C   UNL A   1      38.236  28.645  29.201  1.00  0.00     0.031 C 
ATOM     53  C   UNL A   1      42.950  27.278  28.251  1.00  0.00     0.029 A 
ATOM     54  N   UNL A   1      42.646  29.384  28.953  1.00  0.00    -0.354 N 
ATOM     55  C   UNL A   1      38.571  30.855  29.663  1.00  0.00     0.074 A 
ATOM     56  C   UNL A   1      37.622  29.779  29.495  1.00  0.00     0.031 C 
ATOM     57  C   UNL A   1      44.157  27.868  28.302  1.00  0.00     0.029 A 
ATOM     58  C   UNL A   1      43.984  29.275  28.662  1.00  0.00     0.049 A 
ATOM     59  H   UNL A   1      42.239  30.189  29.348  1.00  0.00     0.167 HD
ATOM     60  C   UNL A   1      38.248  32.119  30.021  1.00  0.00     0.034 A 
ATOM     61  C   UNL A   1      44.939  30.226  28.628  1.00  0.00     0.034 A 
ATOM     62  C   UNL A   1      39.230  33.165  30.151  1.00  0.00     0.049 A 
ATOM     63  C   UNL A   1      44.553  31.648  28.962  1.00  0.00     0.074 A 
ATOM     64  C   UNL A   1      39.045  34.479  30.539  1.00  0.00     0.029 A 
ATOM     65  N   UNL A   1      40.585  33.016  29.872  1.00  0.00    -0.354 N 
ATOM     66  N   UNL A   1      43.366  32.137  29.245  1.00  0.00    -0.248 NA
ATOM     67  C   UNL A   1      45.632  32.644  28.976  1.00  0.00     0.031 C 
ATOM     68  C   UNL A   1      40.268  35.144  30.408  1.00  0.00     0.029 A 
ATOM     69  C   UNL A   1      41.240  34.223  30.040  1.00  0.00     0.049 A 
ATOM     70  H   UNL A   1      41.014  32.174  29.595  1.00  0.00     0.167 HD
ATOM     71  C   UNL A   1      43.563  33.491  29.509  1.00  0.00     0.074 A 
ATOM     72  C   UNL A   1      44.981  33.740  29.345  1.00  0.00     0.031 C 
ATOM     73  C   UNL A   1      42.659  34.440  29.869  1.00  0.00     0.034 A 
BRANCH  60  74
ATOM     74  C   UNL A   1      36.784  32.436  30.204  1.00  0.00     0.023 A 
ATOM     75  C   UNL A   1      36.015  33.030  29.187  1.00  0.00     0.031 A 
ATOM     76  C   UNL A   1      36.162  32.204  31.444  1.00  0.00     0.131 A 
ATOM     77  C   UNL A   1      34.705  33.452  29.455  1.00  0.00     0.055 A 
ATOM     78  C   UNL A   1      34.826  32.538  31.673  1.00  0.00     0.041 A 
ATOM     79  F   UNL A   1      36.850  31.672  32.465  1.00  0.00    -0.206 F 
ATOM     80  C   UNL A   1      34.095  33.184  30.681  1.00  0.00     0.022 A 
BRANCH  77  81
ATOM     81  S   UNL A   1      33.875  34.516  28.241  1.00  0.00     0.124 S 
ATOM     82  O   UNL A   1      33.505  35.667  29.062  1.00  0.00    -0.237 OA
ATOM     83  O   UNL A   1      34.924  34.746  27.255  1.00  0.00    -0.237 OA
ATOM     84  O   UNL A   1      32.752  33.701  27.782  1.00  0.00    -0.744 OA
ENDBRANCH  77  81
ENDBRANCH  60  74
BRANCH  61  85
ATOM     85  C   UNL A   1      46.324  29.874  28.210  1.00  0.00     0.023 A 
ATOM     86  C   UNL A   1      47.277  29.449  29.146  1.00  0.00     0.031 A 
ATOM     87  C   UNL A   1      46.718  29.960  26.861  1.00  0.00     0.131 A 
ATOM     88  C   UNL A   1      48.586  29.154  28.728  1.00  0.00     0.055 A 
ATOM     89  C   UNL A   1      48.003  29.614  26.442  1.00  0.00     0.041 A 
ATOM     90  F   UNL A   1      45.844  30.362  25.923  1.00  0.00    -0.206 F 
ATOM     91  C   UNL A   1      48.950  29.216  27.380  1.00  0.00     0.022 A 
BRANCH  88  92
ATOM     92  S   UNL A   1      49.828  28.750  29.986  1.00  0.00     0.124 S 
ATOM     93  O   UNL A   1      49.007  28.640  31.186  1.00  0.00    -0.237 OA
ATOM     94  O   UNL A   1      50.386  27.504  29.473  1.00  0.00    -0.237 OA
ATOM     95  O   UNL A   1      50.732  29.897  29.951  1.00  0.00    -0.744 OA
ENDBRANCH  88  92
ENDBRANCH  61  85
BRANCH  73  96
ATOM     96  C   UNL A   1      43.185  35.818  30.187  1.00  0.00     0.023 A 
ATOM     97  C   UNL A   1      43.168  36.863  29.249  1.00  0.00     0.031 A 
ATOM     98  C   UNL A   1      43.665  36.095  31.481  1.00  0.00     0.131 A 
ATOM     99  C   UNL A   1      43.651  38.130  29.611  1.00  0.00     0.055 A 
ATOM    100  C   UNL A   1      44.085  37.371  31.853  1.00  0.00     0.041 A 
ATOM    101  F   UNL A   1      43.705  35.131  32.415  1.00  0.00    -0.206 F 
ATOM    102  C   UNL A   1      44.087  38.395  30.912  1.00  0.00     0.022 A 
BRANCH  99 103
ATOM    103  S   UNL A   1      43.767  39.417  28.339  1.00  0.00     0.124 S 
ATOM    104  O   UNL A   1      44.311  38.676  27.206  1.00  0.00    -0.237 OA
ATOM    105  O   UNL A   1      42.381  39.857  28.210  1.00  0.00    -0.237 OA
ATOM    106  O   UNL A   1      44.674  40.401  28.929  1.00  0.00    -0.744 OA
ENDBRANCH  99 103
ENDBRANCH  73  96
ENDBRANCH  47  48
ENDBRANCH  40  42
ENDBRANCH  39  40
ENDBRANCH  38  39
ENDBRANCH  37  38
ENDBRANCH  36  37
ENDBRANCH  35  36
ENDBRANCH   1  35
TORSDOF 26
ENDMDL
MODEL 2
REMARK VINA RESULT:      -8.2      5.170     12.091
REMARK SMILES [NH3+][C@@]1(C(=O)OCCOCCOCCOC(=O)c2ccc(-c3c4nc(c(-c5cc(S(=O)(=O)[O-])ccc5F)c5ccc([nH]5)c(-c5cc(S(=O)(=O)[O-])ccc5F)c5nc(c(-c6cc(S(=O)(=O)[O-])ccc6F)c6ccc3[nH]6)C=C5)C=C4)cc2)CC[N@H+](Cc2ccc(OCC(=O)N3CCCCC3)cc2)C1
REMARK SMILES IDX 9 1 8 2 7 3 6 4 5 5 3 6 4 7 2 8 80 9 100 10 81 11 82 12 1 14
REMARK SMILES IDX 83 18 84 19 85 20 99 21 86 22 98 23 87 24 88 25 89 26 90 27
REMARK SMILES IDX 91 28 92 29 93 30 97 31 94 32 96 33 95 34 10 35 11 36 12 37
REMARK SMILES IDX 13 38 14 39 15 40 16 41 17 42 18 43 79 44 19 45 78 46 20 47
REMARK SMILES IDX 21 48 22 49 72 50 23 51 77 52 71 53 73 54 24 55 76 56 70 57
REMARK SMILES IDX 69 58 25 60 57 61 37 62 56 63 38 64 41 65 55 66 74 67 39 68
REMARK SMILES IDX 40 69 54 71 75 72 42 73 26 74 27 75 35 76 28 77 34 78 36 79
REMARK SMILES IDX 33 80 29 81 30 82 31 83 32 84 58 85 59 86 67 87 60 88 66 89
REMARK SMILES IDX 68 90 65 91 61 92 62 93 63 94 64 95 43 96 44 97 52 98 45 99
REMARK SMILES IDX 51 100 53 101 50 102 46 103 47 104 48 105 49 106
REMARK H PARENT 82 13 1 15 1 16 1 17 73 59 41 70
REMARK Flexibility Score: inf
ROOT
ATOM      1  C   UNL A   1      34.144  30.935  27.421  1.00  0.00     0.188 C 
ENDROOT
BRANCH   1   2
ATOM      2  O   UNL A   1      33.588  29.752  26.912  1.00  0.00    -0.376 OA
BRANCH   2   3
ATOM      3  C   UNL A   1      32.202  29.665  26.717  1.00  0.00     0.202 C 
BRANCH   3   4
ATOM      4  C   UNL A   1      31.733  28.519  25.817  1.00  0.00     0.261 C 
BRANCH   4   5
ATOM      5  O   UNL A   1      32.372  28.617  24.546  1.00  0.00    -0.458 OA
BRANCH   5   6
ATOM      6  C   UNL A   1      32.784  27.427  24.057  1.00  0.00     0.374 C 
ATOM      7  O   UNL A   1      33.590  26.688  24.614  1.00  0.00    -0.244 OA
BRANCH   6   8
ATOM      8  C   UNL A   1      31.957  27.025  22.811  1.00  0.00     0.246 C 
ATOM      9  C   UNL A   1      30.688  26.264  23.173  1.00  0.00     0.148 C 
ATOM     10  C   UNL A   1      32.757  25.984  21.982  1.00  0.00     0.344 C 
ATOM     11  C   UNL A   1      31.109  24.791  23.196  1.00  0.00     0.270 C 
ATOM     12  N   UNL A   1      32.131  24.679  22.174  1.00  0.00    -0.325 N 
ATOM     13  H   UNL A   1      31.658  24.439  21.303  1.00  0.00     0.348 HD
BRANCH   8  14
ATOM     14  N   UNL A   1      31.628  28.284  22.094  1.00  0.00    -0.338 N 
ATOM     15  H   UNL A   1      32.331  28.991  22.310  1.00  0.00     0.345 HD
ATOM     16  H   UNL A   1      30.711  28.614  22.392  1.00  0.00     0.345 HD
ATOM     17  H   UNL A   1      31.617  28.110  21.089  1.00  0.00     0.345 HD
ENDBRANCH   8  14
BRANCH  12  18
ATOM     18  C   UNL A   1      32.956  23.461  22.098  1.00  0.00     0.299 C 
BRANCH  18  19
ATOM     19  C   UNL A   1      33.880  23.060  23.253  1.00  0.00     0.006 A 
ATOM     20  C   UNL A   1      33.579  21.923  24.019  1.00  0.00     0.013 A 
ATOM     21  C   UNL A   1      35.039  23.762  23.628  1.00  0.00     0.013 A 
ATOM     22  C   UNL A   1      34.513  21.391  24.930  1.00  0.00     0.047 A 
ATOM     23  C   UNL A   1      35.997  23.209  24.524  1.00  0.00     0.047 A 
ATOM     24  C   UNL A   1      35.788  21.950  25.071  1.00  0.00     0.120 A 
BRANCH  24  25
ATOM     25  O   UNL A   1      36.724  21.086  25.578  1.00  0.00    -0.484 OA
BRANCH  25  26
ATOM     26  C   UNL A   1      38.108  21.122  25.269  1.00  0.00     0.329 C 
BRANCH  26  27
ATOM     27  C   UNL A   1      39.419  21.430  26.113  1.00  0.00     0.260 C 
ATOM     28  O   UNL A   1      40.164  20.464  26.344  1.00  0.00    -0.271 OA
ATOM     29  N   UNL A   1      39.818  22.722  26.493  1.00  0.00    -0.340 N 
ATOM     30  C   UNL A   1      41.237  22.941  26.827  1.00  0.00     0.119 C 
ATOM     31  C   UNL A   1      39.022  23.958  26.473  1.00  0.00     0.119 C 
ATOM     32  C   UNL A   1      41.456  23.730  28.116  1.00  0.00     0.022 C 
ATOM     33  C   UNL A   1      39.274  24.859  27.708  1.00  0.00     0.022 C 
ATOM     34  C   UNL A   1      40.737  25.071  28.065  1.00  0.00     0.004 C 
ENDBRANCH  26  27
ENDBRANCH  25  26
ENDBRANCH  24  25
ENDBRANCH  18  19
ENDBRANCH  12  18
ENDBRANCH   6   8
ENDBRANCH   5   6
ENDBRANCH   4   5
ENDBRANCH   3   4
ENDBRANCH   2   3
ENDBRANCH   1   2
BRANCH   1  35
ATOM     35  C   UNL A   1      35.364  30.835  28.357  1.00  0.00     0.188 C 
BRANCH  35  36
ATOM     36  O   UNL A   1      36.170  31.975  28.598  1.00  0.00    -0.376 OA
BRANCH  36  37
ATOM     37  C   UNL A   1      36.062  32.653  29.841  1.00  0.00     0.202 C 
BRANCH  37  38
ATOM     38  C   UNL A   1      37.325  32.671  30.694  1.00  0.00     0.261 C 
BRANCH  38  39
ATOM     39  O   UNL A   1      37.926  31.372  30.717  1.00  0.00    -0.460 OA
BRANCH  39  40
ATOM     40  C   UNL A   1      37.567  30.571  31.751  1.00  0.00     0.338 C 
ATOM     41  O   UNL A   1      36.454  30.336  32.165  1.00  0.00    -0.246 OA
BRANCH  40  42
ATOM     42  C   UNL A   1      38.785  29.854  32.160  1.00  0.00     0.060 A 
ATOM     43  C   UNL A   1      40.002  30.549  32.242  1.00  0.00     0.016 A 
ATOM     44  C   UNL A   1      38.698  28.501  32.475  1.00  0.00     0.016 A 
ATOM     45  C   UNL A   1      41.154  29.882  32.644  1.00  0.00     0.010 A 
ATOM     46  C   UNL A   1      39.855  27.825  32.830  1.00  0.00     0.010 A 
ATOM     47  C   UNL A   1      41.086  28.507  32.881  1.00  0.00    -0.014 A 
BRANCH  47  48
ATOM     48  C   UNL A   1      42.309  27.686  32.886  1.00  0.00     0.031 A 
ATOM     49  C   UNL A   1      42.934  27.429  34.222  1.00  0.00     0.074 A 
ATOM     50  C   UNL A   1      42.894  27.307  31.740  1.00  0.00     0.049 A 
ATOM     51  N   UNL A   1      44.140  27.029  34.513  1.00  0.00    -0.248 NA
ATOM     52  C   UNL A   1      42.084  27.707  35.393  1.00  0.00     0.031 C 
ATOM     53  C   UNL A   1      42.324  27.470  30.405  1.00  0.00     0.029 A 
ATOM     54  N   UNL A   1      44.128  26.754  31.524  1.00  0.00    -0.354 N 
ATOM     55  C   UNL A   1      44.210  27.051  35.902  1.00  0.00     0.074 A 
ATOM     56  C   UNL A   1      42.933  27.520  36.389  1.00  0.00     0.031 C 
ATOM     57  C   UNL A   1      43.232  27.073  29.498  1.00  0.00     0.029 A 
ATOM     58  C   UNL A   1      44.462  26.692  30.192  1.00  0.00     0.049 A 
ATOM     59  H   UNL A   1      44.715  26.435  32.247  1.00  0.00     0.167 HD
ATOM     60  C   UNL A   1      45.261  26.719  36.688  1.00  0.00     0.034 A 
ATOM     61  C   UNL A   1      45.649  26.422  29.613  1.00  0.00     0.034 A 
ATOM     62  C   UNL A   1      46.523  26.278  36.153  1.00  0.00     0.049 A 
ATOM     63  C   UNL A   1      46.833  26.121  30.503  1.00  0.00     0.074 A 
ATOM     64  C   UNL A   1      47.657  25.879  36.835  1.00  0.00     0.029 A 
ATOM     65  N   UNL A   1      46.823  26.203  34.797  1.00  0.00    -0.354 N 
ATOM     66  N   UNL A   1      46.905  26.130  31.815  1.00  0.00    -0.248 NA
ATOM     67  C   UNL A   1      48.094  25.770  29.836  1.00  0.00     0.031 C 
ATOM     68  C   UNL A   1      48.667  25.649  35.896  1.00  0.00     0.029 A 
ATOM     69  C   UNL A   1      48.136  25.802  34.623  1.00  0.00     0.049 A 
ATOM     70  H   UNL A   1      46.193  26.404  34.068  1.00  0.00     0.167 HD
ATOM     71  C   UNL A   1      48.207  25.749  32.131  1.00  0.00     0.074 A 
ATOM     72  C   UNL A   1      48.886  25.523  30.871  1.00  0.00     0.031 C 
ATOM     73  C   UNL A   1      48.786  25.584  33.349  1.00  0.00     0.034 A 
BRANCH  60  74
ATOM     74  C   UNL A   1      45.100  26.906  38.177  1.00  0.00     0.023 A 
ATOM     75  C   UNL A   1      45.469  28.099  38.824  1.00  0.00     0.031 A 
ATOM     76  C   UNL A   1      44.633  25.846  38.976  1.00  0.00     0.131 A 
ATOM     77  C   UNL A   1      45.452  28.171  40.225  1.00  0.00     0.055 A 
ATOM     78  C   UNL A   1      44.527  25.959  40.363  1.00  0.00     0.041 A 
ATOM     79  F   UNL A   1      44.298  24.670  38.423  1.00  0.00    -0.206 F 
ATOM     80  C   UNL A   1      44.956  27.120  40.997  1.00  0.00     0.022 A 
BRANCH  77  81
ATOM     81  S   UNL A   1      46.258  29.586  41.026  1.00  0.00     0.124 S 
ATOM     82  O   UNL A   1      45.170  30.561  41.066  1.00  0.00    -0.237 OA
ATOM     83  O   UNL A   1      46.665  29.031  42.311  1.00  0.00    -0.237 OA
ATOM     84  O   UNL A   1      47.350  29.920  40.114  1.00  0.00    -0.744 OA
ENDBRANCH  77  81
ENDBRANCH  60  74
BRANCH  61  85
ATOM     85  C   UNL A   1      45.786  26.484  28.132  1.00  0.00     0.023 A 
ATOM     86  C   UNL A   1      45.722  25.322  27.350  1.00  0.00     0.031 A 
ATOM     87  C   UNL A   1      45.985  27.712  27.473  1.00  0.00     0.131 A 
ATOM     88  C   UNL A   1      45.885  25.405  25.958  1.00  0.00     0.055 A 
ATOM     89  C   UNL A   1      46.092  27.796  26.084  1.00  0.00     0.041 A 
ATOM     90  F   UNL A   1      46.054  28.856  28.174  1.00  0.00    -0.206 F 
ATOM     91  C   UNL A   1      46.052  26.636  25.318  1.00  0.00     0.022 A 
BRANCH  88  92
ATOM     92  S   UNL A   1      45.944  23.869  24.997  1.00  0.00     0.124 S 
ATOM     93  O   UNL A   1      46.890  24.216  23.942  1.00  0.00    -0.237 OA
ATOM     94  O   UNL A   1      46.414  22.908  25.988  1.00  0.00    -0.237 OA
ATOM     95  O   UNL A   1      44.562  23.687  24.561  1.00  0.00    -0.744 OA
ENDBRANCH  88  92
ENDBRANCH  61  85
BRANCH  73  96
ATOM     96  C   UNL A   1      50.202  25.063  33.384  1.00  0.00     0.023 A 
ATOM     97  C   UNL A   1      50.497  23.690  33.358  1.00  0.00     0.031 A 
ATOM     98  C   UNL A   1      51.275  25.974  33.392  1.00  0.00     0.131 A 
ATOM     99  C   UNL A   1      51.836  23.268  33.371  1.00  0.00     0.055 A 
ATOM    100  C   UNL A   1      52.602  25.548  33.342  1.00  0.00     0.041 A 
ATOM    101  F   UNL A   1      51.047  27.297  33.420  1.00  0.00    -0.206 F 
ATOM    102  C   UNL A   1      52.888  24.188  33.339  1.00  0.00     0.022 A 
BRANCH  99 103
ATOM    103  S   UNL A   1      52.190  21.493  33.497  1.00  0.00     0.124 S 
ATOM    104  O   UNL A   1      53.433  21.487  34.262  1.00  0.00    -0.237 OA
ATOM    105  O   UNL A   1      51.010  20.986  34.189  1.00  0.00    -0.237 OA
ATOM    106  O   UNL A   1      52.319  21.070  32.103  1.00  0.00    -0.744 OA
ENDBRANCH  99 103
ENDBRANCH  73  96
ENDBRANCH  47  48
ENDBRANCH  40  42
ENDBRANCH  39  40
ENDBRANCH  38  39
ENDBRANCH  37  38
ENDBRANCH  36  37
ENDBRANCH  35  36
ENDBRANCH   1  35
TORSDOF 26
ENDMDL
MODEL 3
REMARK VINA RESULT:      -7.9      2.977      5.842
REMARK SMILES [NH3+][C@@]1(C(=O)OCCOCCOCCOC(=O)c2ccc(-c3c4nc(c(-c5cc(S(=O)(=O)[O-])ccc5F)c5ccc([nH]5)c(-c5cc(S(=O)(=O)[O-])ccc5F)c5nc(c(-c6cc(S(=O)(=O)[O-])ccc6F)c6ccc3[nH]6)C=C5)C=C4)cc2)CC[N@H+](Cc2ccc(OCC(=O)N3CCCCC3)cc2)C1
REMARK SMILES IDX 9 1 8 2 7 3 6 4 5 5 3 6 4 7 2 8 80 9 100 10 81 11 82 12 1 14
REMARK SMILES IDX 83 18 84 19 85 20 99 21 86 22 98 23 87 24 88 25 89 26 90 27
REMARK SMILES IDX 91 28 92 29 93 30 97 31 94 32 96 33 95 34 10 35 11 36 12 37
REMARK SMILES IDX 13 38 14 39 15 40 16 41 17 42 18 43 79 44 19 45 78 46 20 47
REMARK SMILES IDX 21 48 22 49 72 50 23 51 77 52 71 53 73 54 24 55 76 56 70 57
REMARK SMILES IDX 69 58 25 60 57 61 37 62 56 63 38 64 41 65 55 66 74 67 39 68
REMARK SMILES IDX 40 69 54 71 75 72 42 73 26 74 27 75 35 76 28 77 34 78 36 79
REMARK SMILES IDX 33 80 29 81 30 82 31 83 32 84 58 85 59 86 67 87 60 88 66 89
REMARK SMILES IDX 68 90 65 91 61 92 62 93 63 94 64 95 43 96 44 97 52 98 45 99
REMARK SMILES IDX 51 100 53 101 50 102 46 103 47 104 48 105 49 106
REMARK H PARENT 82 13 1 15 1 16 1 17 73 59 41 70
REMARK Flexibility Score: inf
ROOT
ATOM      1  C   UNL A   1      43.978  19.239  25.909  1.00  0.00     0.188 C 
ENDROOT
BRANCH   1   2
ATOM      2  O   UNL A   1      45.009  18.654  25.157  1.00  0.00    -0.376 OA
BRANCH   2   3
ATOM      3  C   UNL A   1      46.277  19.252  25.137  1.00  0.00     0.202 C 
BRANCH   3   4
ATOM      4  C   UNL A   1      46.345  20.633  24.483  1.00  0.00     0.261 C 
BRANCH   4   5
ATOM      5  O   UNL A   1      46.000  21.633  25.440  1.00  0.00    -0.458 OA
BRANCH   5   6
ATOM      6  C   UNL A   1      45.040  22.480  25.012  1.00  0.00     0.374 C 
ATOM      7  O   UNL A   1      44.359  22.307  24.006  1.00  0.00    -0.244 OA
BRANCH   6   8
ATOM      8  C   UNL A   1      44.770  23.587  26.062  1.00  0.00     0.246 C 
ATOM      9  C   UNL A   1      44.680  24.974  25.438  1.00  0.00     0.148 C 
ATOM     10  C   UNL A   1      46.001  23.711  27.000  1.00  0.00     0.344 C 
ATOM     11  C   UNL A   1      46.118  25.504  25.454  1.00  0.00     0.270 C 
ATOM     12  N   UNL A   1      46.709  24.939  26.651  1.00  0.00    -0.325 N 
ATOM     13  H   UNL A   1      46.549  25.605  27.407  1.00  0.00     0.348 HD
BRANCH   8  14
ATOM     14  N   UNL A   1      43.495  23.232  26.737  1.00  0.00    -0.338 N 
ATOM     15  H   UNL A   1      43.280  23.933  27.445  1.00  0.00     0.345 HD
ATOM     16  H   UNL A   1      43.588  22.318  27.180  1.00  0.00     0.345 HD
ATOM     17  H   UNL A   1      42.743  23.201  26.048  1.00  0.00     0.345 HD
ENDBRANCH   8  14
BRANCH  12  18
ATOM     18  C   UNL A   1      48.167  25.017  26.852  1.00  0.00     0.299 C 
BRANCH  18  19
ATOM     19  C   UNL A   1      49.057  25.798  25.877  1.00  0.00     0.006 A 
ATOM     20  C   UNL A   1      50.428  25.928  26.143  1.00  0.00     0.013 A 
ATOM     21  C   UNL A   1      48.598  26.422  24.703  1.00  0.00     0.013 A 
ATOM     22  C   UNL A   1      51.314  26.431  25.169  1.00  0.00     0.047 A 
ATOM     23  C   UNL A   1      49.495  26.901  23.707  1.00  0.00     0.047 A 
ATOM     24  C   UNL A   1      50.866  26.777  23.890  1.00  0.00     0.120 A 
BRANCH  24  25
ATOM     25  O   UNL A   1      51.846  26.766  22.932  1.00  0.00    -0.484 OA
BRANCH  25  26
ATOM     26  C   UNL A   1      51.792  27.486  21.712  1.00  0.00     0.329 C 
BRANCH  26  27
ATOM     27  C   UNL A   1      51.695  29.030  21.346  1.00  0.00     0.260 C 
ATOM     28  O   UNL A   1      51.157  29.763  22.190  1.00  0.00    -0.271 OA
ATOM     29  N   UNL A   1      52.276  29.599  20.201  1.00  0.00    -0.340 N 
ATOM     30  C   UNL A   1      52.545  31.049  20.205  1.00  0.00     0.119 C 
ATOM     31  C   UNL A   1      52.799  28.909  19.012  1.00  0.00     0.119 C 
ATOM     32  C   UNL A   1      52.090  31.767  18.936  1.00  0.00     0.022 C 
ATOM     33  C   UNL A   1      52.460  29.643  17.690  1.00  0.00     0.022 C 
ATOM     34  C   UNL A   1      52.718  31.142  17.699  1.00  0.00     0.004 C 
ENDBRANCH  26  27
ENDBRANCH  25  26
ENDBRANCH  24  25
ENDBRANCH  18  19
ENDBRANCH  12  18
ENDBRANCH   6   8
ENDBRANCH   5   6
ENDBRANCH   4   5
ENDBRANCH   3   4
ENDBRANCH   2   3
ENDBRANCH   1   2
BRANCH   1  35
ATOM     35  C   UNL A   1      42.599  18.552  25.932  1.00  0.00     0.188 C 
BRANCH  35  36
ATOM     36  O   UNL A   1      41.455  19.238  25.454  1.00  0.00    -0.376 OA
BRANCH  36  37
ATOM     37  C   UNL A   1      40.493  19.716  26.383  1.00  0.00     0.202 C 
BRANCH  37  38
ATOM     38  C   UNL A   1      40.897  20.955  27.173  1.00  0.00     0.261 C 
BRANCH  38  39
ATOM     39  O   UNL A   1      40.825  22.118  26.342  1.00  0.00    -0.460 OA
BRANCH  39  40
ATOM     40  C   UNL A   1      39.625  22.748  26.308  1.00  0.00     0.338 C 
ATOM     41  O   UNL A   1      38.539  22.279  26.049  1.00  0.00    -0.246 OA
BRANCH  40  42
ATOM     42  C   UNL A   1      39.849  24.093  26.862  1.00  0.00     0.060 A 
ATOM     43  C   UNL A   1      40.428  25.085  26.055  1.00  0.00     0.016 A 
ATOM     44  C   UNL A   1      39.461  24.356  28.172  1.00  0.00     0.016 A 
ATOM     45  C   UNL A   1      40.627  26.363  26.565  1.00  0.00     0.010 A 
ATOM     46  C   UNL A   1      39.704  25.617  28.697  1.00  0.00     0.010 A 
ATOM     47  C   UNL A   1      40.316  26.607  27.905  1.00  0.00    -0.014 A 
BRANCH  47  48
ATOM     48  C   UNL A   1      40.885  27.771  28.607  1.00  0.00     0.031 A 
ATOM     49  C   UNL A   1      39.909  28.791  29.106  1.00  0.00     0.074 A 
ATOM     50  C   UNL A   1      42.211  27.960  28.672  1.00  0.00     0.049 A 
ATOM     51  N   UNL A   1      40.110  30.028  29.464  1.00  0.00    -0.248 NA
ATOM     52  C   UNL A   1      38.502  28.359  29.165  1.00  0.00     0.031 C 
ATOM     53  C   UNL A   1      43.225  26.993  28.260  1.00  0.00     0.029 A 
ATOM     54  N   UNL A   1      42.924  29.063  29.062  1.00  0.00    -0.354 N 
ATOM     55  C   UNL A   1      38.847  30.539  29.748  1.00  0.00     0.074 A 
ATOM     56  C   UNL A   1      37.892  29.483  29.503  1.00  0.00     0.031 C 
ATOM     57  C   UNL A   1      44.436  27.565  28.370  1.00  0.00     0.029 A 
ATOM     58  C   UNL A   1      44.268  28.954  28.798  1.00  0.00     0.049 A 
ATOM     59  H   UNL A   1      42.516  29.851  29.488  1.00  0.00     0.167 HD
ATOM     60  C   UNL A   1      38.527  31.786  30.163  1.00  0.00     0.034 A 
ATOM     61  C   UNL A   1      45.232  29.895  28.836  1.00  0.00     0.034 A 
ATOM     62  C   UNL A   1      39.516  32.813  30.371  1.00  0.00     0.049 A 
ATOM     63  C   UNL A   1      44.852  31.302  29.234  1.00  0.00     0.074 A 
ATOM     64  C   UNL A   1      39.334  34.107  30.822  1.00  0.00     0.029 A 
ATOM     65  N   UNL A   1      40.875  32.664  30.117  1.00  0.00    -0.354 N 
ATOM     66  N   UNL A   1      43.663  31.789  29.513  1.00  0.00    -0.248 NA
ATOM     67  C   UNL A   1      45.939  32.285  29.326  1.00  0.00     0.031 C 
ATOM     68  C   UNL A   1      40.566  34.765  30.755  1.00  0.00     0.029 A 
ATOM     69  C   UNL A   1      41.537  33.854  30.364  1.00  0.00     0.049 A 
ATOM     70  H   UNL A   1      41.304  31.833  29.808  1.00  0.00     0.167 HD
ATOM     71  C   UNL A   1      43.866  33.125  29.851  1.00  0.00     0.074 A 
ATOM     72  C   UNL A   1      45.290  33.367  29.734  1.00  0.00     0.031 C 
ATOM     73  C   UNL A   1      42.963  34.064  30.238  1.00  0.00     0.034 A 
BRANCH  60  74
ATOM     74  C   UNL A   1      37.062  32.109  30.328  1.00  0.00     0.023 A 
ATOM     75  C   UNL A   1      36.298  32.663  29.285  1.00  0.00     0.031 A 
ATOM     76  C   UNL A   1      36.434  31.923  31.573  1.00  0.00     0.131 A 
ATOM     77  C   UNL A   1      34.986  33.095  29.531  1.00  0.00     0.055 A 
ATOM     78  C   UNL A   1      35.097  32.265  31.782  1.00  0.00     0.041 A 
ATOM     79  F   UNL A   1      37.118  31.430  32.617  1.00  0.00    -0.206 F 
ATOM     80  C   UNL A   1      34.371  32.873  30.763  1.00  0.00     0.022 A 
BRANCH  77  81
ATOM     81  S   UNL A   1      34.162  34.112  28.274  1.00  0.00     0.124 S 
ATOM     82  O   UNL A   1      33.078  33.231  27.846  1.00  0.00    -0.237 OA
ATOM     83  O   UNL A   1      33.766  35.291  29.033  1.00  0.00    -0.237 OA
ATOM     84  O   UNL A   1      35.206  34.333  27.274  1.00  0.00    -0.744 OA
ENDBRANCH  77  81
ENDBRANCH  60  74
BRANCH  61  85
ATOM     85  C   UNL A   1      46.624  29.551  28.434  1.00  0.00     0.023 A 
ATOM     86  C   UNL A   1      47.542  29.042  29.364  1.00  0.00     0.031 A 
ATOM     87  C   UNL A   1      47.059  29.727  27.107  1.00  0.00     0.131 A 
ATOM     88  C   UNL A   1      48.857  28.755  28.964  1.00  0.00     0.055 A 
ATOM     89  C   UNL A   1      48.352  29.390  26.702  1.00  0.00     0.041 A 
ATOM     90  F   UNL A   1      46.221  30.212  26.176  1.00  0.00    -0.206 F 
ATOM     91  C   UNL A   1      49.263  28.909  27.636  1.00  0.00     0.022 A 
BRANCH  88  92
ATOM     92  S   UNL A   1      50.054  28.239  30.224  1.00  0.00     0.124 S 
ATOM     93  O   UNL A   1      49.180  27.682  31.250  1.00  0.00    -0.237 OA
ATOM     94  O   UNL A   1      50.874  27.281  29.491  1.00  0.00    -0.237 OA
ATOM     95  O   UNL A   1      50.726  29.485  30.586  1.00  0.00    -0.744 OA
ENDBRANCH  88  92
ENDBRANCH  61  85
BRANCH  73  96
ATOM     96  C   UNL A   1      43.493  35.419  30.640  1.00  0.00     0.023 A 
ATOM     97  C   UNL A   1      43.564  36.494  29.739  1.00  0.00     0.031 A 
ATOM     98  C   UNL A   1      43.887  35.640  31.973  1.00  0.00     0.131 A 
ATOM     99  C   UNL A   1      44.047  37.736  30.178  1.00  0.00     0.055 A 
ATOM    100  C   UNL A   1      44.307  36.894  32.417  1.00  0.00     0.041 A 
ATOM    101  F   UNL A   1      43.842  34.645  32.873  1.00  0.00    -0.206 F 
ATOM    102  C   UNL A   1      44.397  37.948  31.515  1.00  0.00     0.022 A 
BRANCH  99 103
ATOM    103  S   UNL A   1      44.278  39.063  28.963  1.00  0.00     0.124 S 
ATOM    104  O   UNL A   1      45.332  38.515  28.114  1.00  0.00    -0.237 OA
ATOM    105  O   UNL A   1      42.956  39.165  28.355  1.00  0.00    -0.237 OA
ATOM    106  O   UNL A   1      44.674  40.210  29.779  1.00  0.00    -0.744 OA
ENDBRANCH  99 103
ENDBRANCH  73  96
ENDBRANCH  47  48
ENDBRANCH  40  42
ENDBRANCH  39  40
ENDBRANCH  38  39
ENDBRANCH  37  38
ENDBRANCH  36  37
ENDBRANCH  35  36
ENDBRANCH   1  35
TORSDOF 26
ENDMDL
