MODEL 1
REMARK VINA RESULT:      -9.9      0.000      0.000
REMARK SMILES CCN(C(=O)N[C@@H]1CCOC1)[C@H]1COC[C@H]1C(=O)OCCOCCOCCOC(=O)c1ccc(-c2c3nc(c(-c4cc(S(=O)(=O)[O-])ccc4F)c4ccc([nH]4)c(-c4cc(S(=O)(=O)[O-])ccc4F)c4nc(c(-c5cc(S(=O)(=O)[O-])ccc5F)c5ccc2[nH]5)C=C4)C=C3)cc1
REMARK SMILES IDX 23 1 22 2 21 3 20 4 19 5 17 6 18 7 16 8 12 9 13 10 14 11
REMARK SMILES IDX 15 12 3 13 2 14 1 15 4 16 5 17 6 18 7 20 8 21 11 22 9 23
REMARK SMILES IDX 10 24 24 25 25 26 26 27 27 28 28 29 29 30 30 31 31 32 32 33
REMARK SMILES IDX 93 34 33 35 92 36 34 37 35 38 36 39 86 40 37 41 91 42 85 43
REMARK SMILES IDX 87 44 38 45 90 46 84 47 83 48 39 50 71 51 51 52 70 53 52 54
REMARK SMILES IDX 55 55 69 56 88 57 53 58 54 59 68 61 89 62 56 63 40 64 41 65
REMARK SMILES IDX 49 66 42 67 48 68 50 69 47 70 43 71 44 72 45 73 46 74 72 75
REMARK SMILES IDX 73 76 81 77 74 78 80 79 82 80 79 81 75 82 76 83 77 84 78 85
REMARK SMILES IDX 57 86 58 87 66 88 59 89 65 90 67 91 64 92 60 93 61 94 62 95
REMARK SMILES IDX 63 96
REMARK H PARENT 6 19 87 49 55 60
REMARK Flexibility Score: inf
ROOT
ATOM      1  C   UNL A   1      33.324  29.744  26.134  1.00  0.00     0.188 C 
ENDROOT
BRANCH   1   2
ATOM      2  O   UNL A   1      33.619  28.630  25.309  1.00  0.00    -0.376 OA
BRANCH   2   3
ATOM      3  C   UNL A   1      33.110  28.583  23.984  1.00  0.00     0.202 C 
BRANCH   3   4
ATOM      4  C   UNL A   1      31.613  28.303  23.784  1.00  0.00     0.261 C 
BRANCH   4   5
ATOM      5  O   UNL A   1      31.014  27.263  24.606  1.00  0.00    -0.463 OA
BRANCH   5   6
ATOM      6  C   UNL A   1      31.184  26.009  24.118  1.00  0.00     0.313 C 
ATOM      7  O   UNL A   1      31.615  25.788  22.985  1.00  0.00    -0.252 OA
BRANCH   6   8
ATOM      8  C   UNL A   1      30.881  24.835  25.021  1.00  0.00     0.150 C 
ATOM      9  C   UNL A   1      31.263  23.359  24.945  1.00  0.00     0.129 C 
ATOM     10  C   UNL A   1      31.002  22.918  26.400  1.00  0.00     0.186 C 
ATOM     11  O   UNL A   1      31.211  24.053  27.252  1.00  0.00    -0.378 OA
ATOM     12  C   UNL A   1      31.291  25.221  26.433  1.00  0.00     0.177 C 
BRANCH   9  13
ATOM     13  N   UNL A   1      32.554  22.934  24.332  1.00  0.00    -0.319 N 
BRANCH  13  14
ATOM     14  C   UNL A   1      33.701  23.600  24.928  1.00  0.00     0.118 C 
ATOM     15  C   UNL A   1      35.022  22.868  24.770  1.00  0.00     0.027 C 
ENDBRANCH  13  14
BRANCH  13  16
ATOM     16  C   UNL A   1      32.611  22.194  23.172  1.00  0.00     0.318 C 
ATOM     17  O   UNL A   1      32.597  22.696  22.049  1.00  0.00    -0.249 OA
ATOM     18  N   UNL A   1      32.694  20.840  23.172  1.00  0.00    -0.333 N 
ATOM     19  H   UNL A   1      33.046  20.472  22.329  1.00  0.00     0.165 HD
BRANCH  18  20
ATOM     20  C   UNL A   1      32.371  19.811  24.161  1.00  0.00     0.112 C 
ATOM     21  C   UNL A   1      33.430  19.667  25.236  1.00  0.00     0.056 C 
ATOM     22  C   UNL A   1      32.359  18.408  23.546  1.00  0.00     0.185 C 
ATOM     23  C   UNL A   1      34.400  18.686  24.626  1.00  0.00     0.162 C 
ATOM     24  O   UNL A   1      33.625  17.787  23.829  1.00  0.00    -0.379 OA
ENDBRANCH  18  20
ENDBRANCH  13  16
ENDBRANCH   9  13
ENDBRANCH   6   8
ENDBRANCH   5   6
ENDBRANCH   4   5
ENDBRANCH   3   4
ENDBRANCH   2   3
ENDBRANCH   1   2
BRANCH   1  25
ATOM     25  C   UNL A   1      32.165  29.650  27.129  1.00  0.00     0.188 C 
BRANCH  25  26
ATOM     26  O   UNL A   1      31.412  30.843  27.239  1.00  0.00    -0.376 OA
BRANCH  26  27
ATOM     27  C   UNL A   1      31.568  31.866  26.268  1.00  0.00     0.202 C 
BRANCH  27  28
ATOM     28  C   UNL A   1      31.830  33.247  26.872  1.00  0.00     0.261 C 
BRANCH  28  29
ATOM     29  O   UNL A   1      32.692  33.220  28.019  1.00  0.00    -0.460 OA
BRANCH  29  30
ATOM     30  C   UNL A   1      33.857  33.906  27.920  1.00  0.00     0.338 C 
ATOM     31  O   UNL A   1      33.982  35.098  27.688  1.00  0.00    -0.246 OA
BRANCH  30  32
ATOM     32  C   UNL A   1      34.936  33.022  28.408  1.00  0.00     0.060 A 
ATOM     33  C   UNL A   1      34.618  31.714  28.805  1.00  0.00     0.016 A 
ATOM     34  C   UNL A   1      36.263  33.455  28.393  1.00  0.00     0.016 A 
ATOM     35  C   UNL A   1      35.629  30.847  29.225  1.00  0.00     0.010 A 
ATOM     36  C   UNL A   1      37.270  32.592  28.822  1.00  0.00     0.010 A 
ATOM     37  C   UNL A   1      36.955  31.296  29.271  1.00  0.00    -0.014 A 
BRANCH  37  38
ATOM     38  C   UNL A   1      38.004  30.510  29.966  1.00  0.00     0.031 A 
ATOM     39  C   UNL A   1      38.224  30.781  31.430  1.00  0.00     0.074 A 
ATOM     40  C   UNL A   1      38.772  29.624  29.309  1.00  0.00     0.049 A 
ATOM     41  N   UNL A   1      39.172  30.358  32.222  1.00  0.00    -0.248 NA
ATOM     42  C   UNL A   1      37.245  31.668  32.080  1.00  0.00     0.031 C 
ATOM     43  C   UNL A   1      38.626  29.257  27.902  1.00  0.00     0.029 A 
ATOM     44  N   UNL A   1      39.852  28.891  29.738  1.00  0.00    -0.354 N 
ATOM     45  C   UNL A   1      38.921  30.947  33.457  1.00  0.00     0.074 A 
ATOM     46  C   UNL A   1      37.747  31.776  33.300  1.00  0.00     0.031 C 
ATOM     47  C   UNL A   1      39.597  28.385  27.576  1.00  0.00     0.029 A 
ATOM     48  C   UNL A   1      40.463  28.173  28.735  1.00  0.00     0.049 A 
ATOM     49  H   UNL A   1      40.159  28.879  30.673  1.00  0.00     0.167 HD
ATOM     50  C   UNL A   1      39.612  30.808  34.614  1.00  0.00     0.034 A 
ATOM     51  C   UNL A   1      41.612  27.465  28.745  1.00  0.00     0.034 A 
ATOM     52  C   UNL A   1      40.783  29.977  34.745  1.00  0.00     0.049 A 
ATOM     53  C   UNL A   1      42.403  27.376  30.032  1.00  0.00     0.074 A 
ATOM     54  C   UNL A   1      41.539  29.731  35.878  1.00  0.00     0.029 A 
ATOM     55  N   UNL A   1      41.378  29.270  33.707  1.00  0.00    -0.354 N 
ATOM     56  N   UNL A   1      42.145  27.918  31.202  1.00  0.00    -0.248 NA
ATOM     57  C   UNL A   1      43.634  26.575  30.003  1.00  0.00     0.031 C 
ATOM     58  C   UNL A   1      42.636  28.947  35.507  1.00  0.00     0.029 A 
ATOM     59  C   UNL A   1      42.514  28.621  34.166  1.00  0.00     0.049 A 
ATOM     60  H   UNL A   1      41.042  29.235  32.783  1.00  0.00     0.167 HD
ATOM     61  C   UNL A   1      43.164  27.491  32.052  1.00  0.00     0.074 A 
ATOM     62  C   UNL A   1      44.027  26.635  31.266  1.00  0.00     0.031 C 
ATOM     63  C   UNL A   1      43.366  27.773  33.366  1.00  0.00     0.034 A 
BRANCH  50  64
ATOM     64  C   UNL A   1      39.156  31.615  35.805  1.00  0.00     0.023 A 
ATOM     65  C   UNL A   1      38.373  31.057  36.829  1.00  0.00     0.031 A 
ATOM     66  C   UNL A   1      39.509  32.973  35.910  1.00  0.00     0.131 A 
ATOM     67  C   UNL A   1      37.919  31.868  37.882  1.00  0.00     0.055 A 
ATOM     68  C   UNL A   1      39.123  33.753  37.000  1.00  0.00     0.041 A 
ATOM     69  F   UNL A   1      40.230  33.567  34.946  1.00  0.00    -0.206 F 
ATOM     70  C   UNL A   1      38.312  33.203  37.989  1.00  0.00     0.022 A 
BRANCH  67  71
ATOM     71  S   UNL A   1      36.699  31.186  39.039  1.00  0.00     0.124 S 
ATOM     72  O   UNL A   1      37.443  31.202  40.296  1.00  0.00    -0.237 OA
ATOM     73  O   UNL A   1      35.599  32.137  38.935  1.00  0.00    -0.237 OA
ATOM     74  O   UNL A   1      36.426  29.854  38.502  1.00  0.00    -0.744 OA
ENDBRANCH  67  71
ENDBRANCH  50  64
BRANCH  51  75
ATOM     75  C   UNL A   1      42.128  26.828  27.496  1.00  0.00     0.023 A 
ATOM     76  C   UNL A   1      41.983  25.450  27.267  1.00  0.00     0.031 A 
ATOM     77  C   UNL A   1      42.843  27.578  26.544  1.00  0.00     0.131 A 
ATOM     78  C   UNL A   1      42.591  24.856  26.150  1.00  0.00     0.055 A 
ATOM     79  C   UNL A   1      43.390  26.994  25.400  1.00  0.00     0.041 A 
ATOM     80  F   UNL A   1      43.021  28.898  26.713  1.00  0.00    -0.206 F 
ATOM     81  C   UNL A   1      43.281  25.621  25.206  1.00  0.00     0.022 A 
BRANCH  78  82
ATOM     82  S   UNL A   1      42.571  23.047  26.010  1.00  0.00     0.124 S 
ATOM     83  O   UNL A   1      43.029  22.853  24.639  1.00  0.00    -0.237 OA
ATOM     84  O   UNL A   1      43.505  22.653  27.060  1.00  0.00    -0.237 OA
ATOM     85  O   UNL A   1      41.173  22.702  26.258  1.00  0.00    -0.744 OA
ENDBRANCH  78  82
ENDBRANCH  51  75
BRANCH  63  86
ATOM     86  C   UNL A   1      44.535  27.100  34.047  1.00  0.00     0.023 A 
ATOM     87  C   UNL A   1      44.430  25.820  34.619  1.00  0.00     0.031 A 
ATOM     88  C   UNL A   1      45.776  27.757  34.127  1.00  0.00     0.131 A 
ATOM     89  C   UNL A   1      45.525  25.266  35.298  1.00  0.00     0.055 A 
ATOM     90  C   UNL A   1      46.883  27.171  34.741  1.00  0.00     0.041 A 
ATOM     91  F   UNL A   1      45.936  28.984  33.602  1.00  0.00    -0.206 F 
ATOM     92  C   UNL A   1      46.757  25.924  35.345  1.00  0.00     0.022 A 
BRANCH  89  93
ATOM     93  S   UNL A   1      45.290  23.718  36.215  1.00  0.00     0.124 S 
ATOM     94  O   UNL A   1      44.230  23.070  35.448  1.00  0.00    -0.237 OA
ATOM     95  O   UNL A   1      46.610  23.100  36.125  1.00  0.00    -0.237 OA
ATOM     96  O   UNL A   1      44.905  24.166  37.552  1.00  0.00    -0.744 OA
ENDBRANCH  89  93
ENDBRANCH  63  86
ENDBRANCH  37  38
ENDBRANCH  30  32
ENDBRANCH  29  30
ENDBRANCH  28  29
ENDBRANCH  27  28
ENDBRANCH  26  27
ENDBRANCH  25  26
ENDBRANCH   1  25
TORSDOF 24
ENDMDL
MODEL 2
REMARK VINA RESULT:      -9.8      1.903      2.192
REMARK SMILES CCN(C(=O)N[C@@H]1CCOC1)[C@H]1COC[C@H]1C(=O)OCCOCCOCCOC(=O)c1ccc(-c2c3nc(c(-c4cc(S(=O)(=O)[O-])ccc4F)c4ccc([nH]4)c(-c4cc(S(=O)(=O)[O-])ccc4F)c4nc(c(-c5cc(S(=O)(=O)[O-])ccc5F)c5ccc2[nH]5)C=C4)C=C3)cc1
REMARK SMILES IDX 23 1 22 2 21 3 20 4 19 5 17 6 18 7 16 8 12 9 13 10 14 11
REMARK SMILES IDX 15 12 3 13 2 14 1 15 4 16 5 17 6 18 7 20 8 21 11 22 9 23
REMARK SMILES IDX 10 24 24 25 25 26 26 27 27 28 28 29 29 30 30 31 31 32 32 33
REMARK SMILES IDX 93 34 33 35 92 36 34 37 35 38 36 39 86 40 37 41 91 42 85 43
REMARK SMILES IDX 87 44 38 45 90 46 84 47 83 48 39 50 71 51 51 52 70 53 52 54
REMARK SMILES IDX 55 55 69 56 88 57 53 58 54 59 68 61 89 62 56 63 40 64 41 65
REMARK SMILES IDX 49 66 42 67 48 68 50 69 47 70 43 71 44 72 45 73 46 74 72 75
REMARK SMILES IDX 73 76 81 77 74 78 80 79 82 80 79 81 75 82 76 83 77 84 78 85
REMARK SMILES IDX 57 86 58 87 66 88 59 89 65 90 67 91 64 92 60 93 61 94 62 95
REMARK SMILES IDX 63 96
REMARK H PARENT 6 19 87 49 55 60
REMARK Flexibility Score: inf
ROOT
ATOM      1  C   UNL A   1      33.663  29.443  25.965  1.00  0.00     0.188 C 
ENDROOT
BRANCH   1   2
ATOM      2  O   UNL A   1      33.664  28.585  24.837  1.00  0.00    -0.376 OA
BRANCH   2   3
ATOM      3  C   UNL A   1      32.916  28.942  23.683  1.00  0.00     0.202 C 
BRANCH   3   4
ATOM      4  C   UNL A   1      31.559  28.263  23.449  1.00  0.00     0.261 C 
BRANCH   4   5
ATOM      5  O   UNL A   1      30.926  27.627  24.595  1.00  0.00    -0.463 OA
BRANCH   5   6
ATOM      6  C   UNL A   1      29.967  26.729  24.264  1.00  0.00     0.313 C 
ATOM      7  O   UNL A   1      29.036  26.997  23.503  1.00  0.00    -0.252 OA
BRANCH   6   8
ATOM      8  C   UNL A   1      30.073  25.323  24.811  1.00  0.00     0.150 C 
ATOM      9  C   UNL A   1      31.088  24.207  24.578  1.00  0.00     0.129 C 
ATOM     10  C   UNL A   1      30.802  23.298  25.791  1.00  0.00     0.186 C 
ATOM     11  O   UNL A   1      30.321  24.124  26.860  1.00  0.00    -0.378 OA
ATOM     12  C   UNL A   1      30.008  25.412  26.327  1.00  0.00     0.177 C 
BRANCH   9  13
ATOM     13  N   UNL A   1      32.517  24.521  24.291  1.00  0.00    -0.319 N 
BRANCH  13  14
ATOM     14  C   UNL A   1      32.831  24.446  22.873  1.00  0.00     0.118 C 
ATOM     15  C   UNL A   1      33.554  25.657  22.310  1.00  0.00     0.027 C 
ENDBRANCH  13  14
BRANCH  13  16
ATOM     16  C   UNL A   1      33.466  24.615  25.285  1.00  0.00     0.318 C 
ATOM     17  O   UNL A   1      33.648  25.633  25.952  1.00  0.00    -0.249 OA
ATOM     18  N   UNL A   1      34.282  23.583  25.616  1.00  0.00    -0.333 N 
ATOM     19  H   UNL A   1      34.668  23.666  26.518  1.00  0.00     0.165 HD
BRANCH  18  20
ATOM     20  C   UNL A   1      34.710  22.372  24.915  1.00  0.00     0.112 C 
ATOM     21  C   UNL A   1      35.450  21.398  25.810  1.00  0.00     0.056 C 
ATOM     22  C   UNL A   1      35.763  22.672  23.843  1.00  0.00     0.185 C 
ATOM     23  C   UNL A   1      36.879  21.877  25.723  1.00  0.00     0.162 C 
ATOM     24  O   UNL A   1      37.059  22.387  24.399  1.00  0.00    -0.379 OA
ENDBRANCH  18  20
ENDBRANCH  13  16
ENDBRANCH   9  13
ENDBRANCH   6   8
ENDBRANCH   5   6
ENDBRANCH   4   5
ENDBRANCH   3   4
ENDBRANCH   2   3
ENDBRANCH   1   2
BRANCH   1  25
ATOM     25  C   UNL A   1      32.614  29.236  27.060  1.00  0.00     0.188 C 
BRANCH  25  26
ATOM     26  O   UNL A   1      31.709  30.316  27.192  1.00  0.00    -0.376 OA
BRANCH  26  27
ATOM     27  C   UNL A   1      31.592  31.268  26.147  1.00  0.00     0.202 C 
BRANCH  27  28
ATOM     28  C   UNL A   1      31.833  32.709  26.602  1.00  0.00     0.261 C 
BRANCH  28  29
ATOM     29  O   UNL A   1      32.632  32.812  27.790  1.00  0.00    -0.460 OA
BRANCH  29  30
ATOM     30  C   UNL A   1      33.772  33.538  27.693  1.00  0.00     0.338 C 
ATOM     31  O   UNL A   1      33.858  34.726  27.422  1.00  0.00    -0.246 OA
BRANCH  30  32
ATOM     32  C   UNL A   1      34.872  32.714  28.236  1.00  0.00     0.060 A 
ATOM     33  C   UNL A   1      34.598  31.404  28.659  1.00  0.00     0.016 A 
ATOM     34  C   UNL A   1      36.180  33.202  28.247  1.00  0.00     0.016 A 
ATOM     35  C   UNL A   1      35.631  30.593  29.132  1.00  0.00     0.010 A 
ATOM     36  C   UNL A   1      37.209  32.394  28.729  1.00  0.00     0.010 A 
ATOM     37  C   UNL A   1      36.934  31.098  29.203  1.00  0.00    -0.014 A 
BRANCH  37  38
ATOM     38  C   UNL A   1      37.994  30.376  29.950  1.00  0.00     0.031 A 
ATOM     39  C   UNL A   1      38.242  30.781  31.378  1.00  0.00     0.074 A 
ATOM     40  C   UNL A   1      38.748  29.430  29.364  1.00  0.00     0.049 A 
ATOM     41  N   UNL A   1      39.204  30.429  32.188  1.00  0.00    -0.248 NA
ATOM     42  C   UNL A   1      37.278  31.729  31.960  1.00  0.00     0.031 C 
ATOM     43  C   UNL A   1      38.575  28.933  28.000  1.00  0.00     0.029 A 
ATOM     44  N   UNL A   1      39.833  28.734  29.840  1.00  0.00    -0.354 N 
ATOM     45  C   UNL A   1      38.977  31.132  33.367  1.00  0.00     0.074 A 
ATOM     46  C   UNL A   1      37.802  31.948  33.156  1.00  0.00     0.031 C 
ATOM     47  C   UNL A   1      39.537  28.030  27.739  1.00  0.00     0.029 A 
ATOM     48  C   UNL A   1      40.424  27.924  28.897  1.00  0.00     0.049 A 
ATOM     49  H   UNL A   1      40.157  28.809  30.766  1.00  0.00     0.167 HD
ATOM     50  C   UNL A   1      39.689  31.098  34.519  1.00  0.00     0.034 A 
ATOM     51  C   UNL A   1      41.571  27.214  28.952  1.00  0.00     0.034 A 
ATOM     52  C   UNL A   1      40.860  30.278  34.706  1.00  0.00     0.049 A 
ATOM     53  C   UNL A   1      42.385  27.242  30.228  1.00  0.00     0.074 A 
ATOM     54  C   UNL A   1      41.635  30.135  35.843  1.00  0.00     0.029 A 
ATOM     55  N   UNL A   1      41.433  29.475  33.729  1.00  0.00    -0.354 N 
ATOM     56  N   UNL A   1      42.151  27.892  31.346  1.00  0.00    -0.248 NA
ATOM     57  C   UNL A   1      43.613  26.436  30.251  1.00  0.00     0.031 C 
ATOM     58  C   UNL A   1      42.724  29.315  35.528  1.00  0.00     0.029 A 
ATOM     59  C   UNL A   1      42.576  28.866  34.225  1.00  0.00     0.049 A 
ATOM     60  H   UNL A   1      41.080  29.355  32.818  1.00  0.00     0.167 HD
ATOM     61  C   UNL A   1      43.183  27.541  32.215  1.00  0.00     0.074 A 
ATOM     62  C   UNL A   1      44.030  26.612  31.496  1.00  0.00     0.031 C 
ATOM     63  C   UNL A   1      43.411  27.943  33.492  1.00  0.00     0.034 A 
BRANCH  50  64
ATOM     64  C   UNL A   1      39.257  32.014  35.638  1.00  0.00     0.023 A 
ATOM     65  C   UNL A   1      39.672  33.355  35.708  1.00  0.00     0.031 A 
ATOM     66  C   UNL A   1      38.418  31.531  36.658  1.00  0.00     0.131 A 
ATOM     67  C   UNL A   1      39.297  34.148  36.805  1.00  0.00     0.055 A 
ATOM     68  C   UNL A   1      37.982  32.346  37.703  1.00  0.00     0.041 A 
ATOM     69  F   UNL A   1      38.014  30.251  36.661  1.00  0.00    -0.206 F 
ATOM     70  C   UNL A   1      38.432  33.660  37.787  1.00  0.00     0.022 A 
BRANCH  67  71
ATOM     71  S   UNL A   1      40.062  35.781  36.998  1.00  0.00     0.124 S 
ATOM     72  O   UNL A   1      41.476  35.433  37.106  1.00  0.00    -0.237 OA
ATOM     73  O   UNL A   1      39.664  36.463  35.772  1.00  0.00    -0.237 OA
ATOM     74  O   UNL A   1      39.459  36.298  38.224  1.00  0.00    -0.744 OA
ENDBRANCH  67  71
ENDBRANCH  50  64
BRANCH  51  75
ATOM     75  C   UNL A   1      42.062  26.461  27.759  1.00  0.00     0.023 A 
ATOM     76  C   UNL A   1      41.725  25.113  27.559  1.00  0.00     0.031 A 
ATOM     77  C   UNL A   1      42.940  27.061  26.837  1.00  0.00     0.131 A 
ATOM     78  C   UNL A   1      42.306  24.394  26.503  1.00  0.00     0.055 A 
ATOM     79  C   UNL A   1      43.463  26.360  25.749  1.00  0.00     0.041 A 
ATOM     80  F   UNL A   1      43.303  28.345  26.981  1.00  0.00    -0.206 F 
ATOM     81  C   UNL A   1      43.160  25.012  25.586  1.00  0.00     0.022 A 
BRANCH  78  82
ATOM     82  S   UNL A   1      42.023  22.603  26.412  1.00  0.00     0.124 S 
ATOM     83  O   UNL A   1      42.474  22.167  27.729  1.00  0.00    -0.237 OA
ATOM     84  O   UNL A   1      40.585  22.538  26.172  1.00  0.00    -0.237 OA
ATOM     85  O   UNL A   1      42.861  22.183  25.292  1.00  0.00    -0.744 OA
ENDBRANCH  78  82
ENDBRANCH  51  75
BRANCH  63  86
ATOM     86  C   UNL A   1      44.590  27.331  34.212  1.00  0.00     0.023 A 
ATOM     87  C   UNL A   1      44.553  26.026  34.731  1.00  0.00     0.031 A 
ATOM     88  C   UNL A   1      45.772  28.075  34.384  1.00  0.00     0.131 A 
ATOM     89  C   UNL A   1      45.650  25.527  35.448  1.00  0.00     0.055 A 
ATOM     90  C   UNL A   1      46.886  27.548  35.037  1.00  0.00     0.041 A 
ATOM     91  F   UNL A   1      45.866  29.330  33.913  1.00  0.00    -0.206 F 
ATOM     92  C   UNL A   1      46.824  26.272  35.587  1.00  0.00     0.022 A 
BRANCH  89  93
ATOM     93  S   UNL A   1      45.486  23.930  36.294  1.00  0.00     0.124 S 
ATOM     94  O   UNL A   1      44.773  23.134  35.300  1.00  0.00    -0.237 OA
ATOM     95  O   UNL A   1      46.877  23.558  36.530  1.00  0.00    -0.237 OA
ATOM     96  O   UNL A   1      44.719  24.255  37.495  1.00  0.00    -0.744 OA
ENDBRANCH  89  93
ENDBRANCH  63  86
ENDBRANCH  37  38
ENDBRANCH  30  32
ENDBRANCH  29  30
ENDBRANCH  28  29
ENDBRANCH  27  28
ENDBRANCH  26  27
ENDBRANCH  25  26
ENDBRANCH   1  25
TORSDOF 24
ENDMDL
MODEL 3
REMARK VINA RESULT:      -9.8      4.929      8.038
REMARK SMILES CCN(C(=O)N[C@@H]1CCOC1)[C@H]1COC[C@H]1C(=O)OCCOCCOCCOC(=O)c1ccc(-c2c3nc(c(-c4cc(S(=O)(=O)[O-])ccc4F)c4ccc([nH]4)c(-c4cc(S(=O)(=O)[O-])ccc4F)c4nc(c(-c5cc(S(=O)(=O)[O-])ccc5F)c5ccc2[nH]5)C=C4)C=C3)cc1
REMARK SMILES IDX 23 1 22 2 21 3 20 4 19 5 17 6 18 7 16 8 12 9 13 10 14 11
REMARK SMILES IDX 15 12 3 13 2 14 1 15 4 16 5 17 6 18 7 20 8 21 11 22 9 23
REMARK SMILES IDX 10 24 24 25 25 26 26 27 27 28 28 29 29 30 30 31 31 32 32 33
REMARK SMILES IDX 93 34 33 35 92 36 34 37 35 38 36 39 86 40 37 41 91 42 85 43
REMARK SMILES IDX 87 44 38 45 90 46 84 47 83 48 39 50 71 51 51 52 70 53 52 54
REMARK SMILES IDX 55 55 69 56 88 57 53 58 54 59 68 61 89 62 56 63 40 64 41 65
REMARK SMILES IDX 49 66 42 67 48 68 50 69 47 70 43 71 44 72 45 73 46 74 72 75
REMARK SMILES IDX 73 76 81 77 74 78 80 79 82 80 79 81 75 82 76 83 77 84 78 85
REMARK SMILES IDX 57 86 58 87 66 88 59 89 65 90 67 91 64 92 60 93 61 94 62 95
REMARK SMILES IDX 63 96
REMARK H PARENT 6 19 87 49 55 60
REMARK Flexibility Score: inf
ROOT
ATOM      1  C   UNL A   1      32.349  20.230  24.633  1.00  0.00     0.188 C 
ENDROOT
BRANCH   1   2
ATOM      2  O   UNL A   1      32.847  20.713  23.397  1.00  0.00    -0.376 OA
BRANCH   2   3
ATOM      3  C   UNL A   1      32.438  21.989  22.927  1.00  0.00     0.202 C 
BRANCH   3   4
ATOM      4  C   UNL A   1      33.510  22.957  22.405  1.00  0.00     0.261 C 
BRANCH   4   5
ATOM      5  O   UNL A   1      33.117  23.885  21.356  1.00  0.00    -0.463 OA
BRANCH   5   6
ATOM      6  C   UNL A   1      32.908  25.151  21.792  1.00  0.00     0.313 C 
ATOM      7  O   UNL A   1      33.756  26.039  21.691  1.00  0.00    -0.252 OA
BRANCH   6   8
ATOM      8  C   UNL A   1      31.559  25.501  22.378  1.00  0.00     0.150 C 
ATOM      9  C   UNL A   1      30.920  25.197  23.731  1.00  0.00     0.129 C 
ATOM     10  C   UNL A   1      29.784  26.240  23.754  1.00  0.00     0.186 C 
ATOM     11  O   UNL A   1      30.204  27.372  22.980  1.00  0.00    -0.378 OA
ATOM     12  C   UNL A   1      31.371  27.002  22.242  1.00  0.00     0.177 C 
BRANCH   9  13
ATOM     13  N   UNL A   1      31.754  25.079  24.961  1.00  0.00    -0.319 N 
BRANCH  13  14
ATOM     14  C   UNL A   1      30.975  24.704  26.130  1.00  0.00     0.118 C 
ATOM     15  C   UNL A   1      30.653  23.224  26.239  1.00  0.00     0.027 C 
ENDBRANCH  13  14
BRANCH  13  16
ATOM     16  C   UNL A   1      33.056  25.526  25.015  1.00  0.00     0.318 C 
ATOM     17  O   UNL A   1      34.028  24.773  25.069  1.00  0.00    -0.249 OA
ATOM     18  N   UNL A   1      33.376  26.844  25.010  1.00  0.00    -0.333 N 
ATOM     19  H   UNL A   1      34.305  27.018  24.731  1.00  0.00     0.165 HD
BRANCH  18  20
ATOM     20  C   UNL A   1      32.633  28.063  25.332  1.00  0.00     0.112 C 
ATOM     21  C   UNL A   1      33.530  29.211  25.754  1.00  0.00     0.056 C 
ATOM     22  C   UNL A   1      31.749  27.886  26.570  1.00  0.00     0.185 C 
ATOM     23  C   UNL A   1      33.685  28.989  27.239  1.00  0.00     0.162 C 
ATOM     24  O   UNL A   1      32.451  28.433  27.700  1.00  0.00    -0.379 OA
ENDBRANCH  18  20
ENDBRANCH  13  16
ENDBRANCH   9  13
ENDBRANCH   6   8
ENDBRANCH   5   6
ENDBRANCH   4   5
ENDBRANCH   3   4
ENDBRANCH   2   3
ENDBRANCH   1   2
BRANCH   1  25
ATOM     25  C   UNL A   1      33.312  20.060  25.810  1.00  0.00     0.188 C 
BRANCH  25  26
ATOM     26  O   UNL A   1      33.427  21.214  26.622  1.00  0.00    -0.376 OA
BRANCH  26  27
ATOM     27  C   UNL A   1      34.695  21.825  26.797  1.00  0.00     0.202 C 
BRANCH  27  28
ATOM     28  C   UNL A   1      35.717  21.432  25.729  1.00  0.00     0.261 C 
BRANCH  28  29
ATOM     29  O   UNL A   1      36.858  22.301  25.675  1.00  0.00    -0.460 OA
BRANCH  29  30
ATOM     30  C   UNL A   1      38.057  21.747  25.980  1.00  0.00     0.338 C 
ATOM     31  O   UNL A   1      38.402  20.594  25.769  1.00  0.00    -0.246 OA
BRANCH  30  32
ATOM     32  C   UNL A   1      38.971  22.845  26.361  1.00  0.00     0.060 A 
ATOM     33  C   UNL A   1      40.026  22.577  27.245  1.00  0.00     0.016 A 
ATOM     34  C   UNL A   1      38.835  24.108  25.780  1.00  0.00     0.016 A 
ATOM     35  C   UNL A   1      40.929  23.588  27.581  1.00  0.00     0.010 A 
ATOM     36  C   UNL A   1      39.731  25.118  26.125  1.00  0.00     0.010 A 
ATOM     37  C   UNL A   1      40.762  24.873  27.051  1.00  0.00    -0.014 A 
BRANCH  37  38
ATOM     38  C   UNL A   1      41.520  26.028  27.592  1.00  0.00     0.031 A 
ATOM     39  C   UNL A   1      40.755  27.059  28.377  1.00  0.00     0.074 A 
ATOM     40  C   UNL A   1      42.833  26.184  27.351  1.00  0.00     0.049 A 
ATOM     41  N   UNL A   1      41.140  28.229  28.811  1.00  0.00    -0.248 NA
ATOM     42  C   UNL A   1      39.356  26.727  28.695  1.00  0.00     0.031 C 
ATOM     43  C   UNL A   1      43.681  25.233  26.635  1.00  0.00     0.029 A 
ATOM     44  N   UNL A   1      43.679  27.221  27.662  1.00  0.00    -0.354 N 
ATOM     45  C   UNL A   1      40.025  28.785  29.432  1.00  0.00     0.074 A 
ATOM     46  C   UNL A   1      38.945  27.833  29.293  1.00  0.00     0.031 C 
ATOM     47  C   UNL A   1      44.923  25.742  26.539  1.00  0.00     0.029 A 
ATOM     48  C   UNL A   1      44.944  27.075  27.140  1.00  0.00     0.049 A 
ATOM     49  H   UNL A   1      43.406  27.994  28.207  1.00  0.00     0.167 HD
ATOM     50  C   UNL A   1      39.917  29.981  30.057  1.00  0.00     0.034 A 
ATOM     51  C   UNL A   1      45.982  27.938  27.114  1.00  0.00     0.034 A 
ATOM     52  C   UNL A   1      41.009  30.915  30.180  1.00  0.00     0.049 A 
ATOM     53  C   UNL A   1      45.817  29.295  27.762  1.00  0.00     0.074 A 
ATOM     54  C   UNL A   1      41.024  32.139  30.827  1.00  0.00     0.029 A 
ATOM     55  N   UNL A   1      42.273  30.738  29.634  1.00  0.00    -0.354 N 
ATOM     56  N   UNL A   1      44.767  29.803  28.366  1.00  0.00    -0.248 NA
ATOM     57  C   UNL A   1      46.981  30.192  27.731  1.00  0.00     0.031 C 
ATOM     58  C   UNL A   1      42.267  32.737  30.598  1.00  0.00     0.029 A 
ATOM     59  C   UNL A   1      43.063  31.848  29.894  1.00  0.00     0.049 A 
ATOM     60  H   UNL A   1      42.567  29.941  29.136  1.00  0.00     0.167 HD
ATOM     61  C   UNL A   1      45.159  31.063  28.818  1.00  0.00     0.074 A 
ATOM     62  C   UNL A   1      46.544  31.228  28.431  1.00  0.00     0.031 C 
ATOM     63  C   UNL A   1      44.443  31.997  29.496  1.00  0.00     0.034 A 
BRANCH  50  64
ATOM     64  C   UNL A   1      38.563  30.370  30.598  1.00  0.00     0.023 A 
ATOM     65  C   UNL A   1      37.660  31.152  29.859  1.00  0.00     0.031 A 
ATOM     66  C   UNL A   1      38.175  29.955  31.885  1.00  0.00     0.131 A 
ATOM     67  C   UNL A   1      36.439  31.543  30.433  1.00  0.00     0.055 A 
ATOM     68  C   UNL A   1      36.927  30.278  32.419  1.00  0.00     0.041 A 
ATOM     69  F   UNL A   1      39.008  29.232  32.650  1.00  0.00    -0.206 F 
ATOM     70  C   UNL A   1      36.056  31.087  31.696  1.00  0.00     0.022 A 
BRANCH  67  71
ATOM     71  S   UNL A   1      35.420  32.762  29.560  1.00  0.00     0.124 S 
ATOM     72  O   UNL A   1      34.409  33.076  30.566  1.00  0.00    -0.237 OA
ATOM     73  O   UNL A   1      36.377  33.821  29.264  1.00  0.00    -0.237 OA
ATOM     74  O   UNL A   1      34.925  32.025  28.399  1.00  0.00    -0.744 OA
ENDBRANCH  67  71
ENDBRANCH  50  64
BRANCH  51  75
ATOM     75  C   UNL A   1      47.251  27.586  26.408  1.00  0.00     0.023 A 
ATOM     76  C   UNL A   1      47.409  27.822  25.033  1.00  0.00     0.031 A 
ATOM     77  C   UNL A   1      48.299  26.937  27.086  1.00  0.00     0.131 A 
ATOM     78  C   UNL A   1      48.557  27.362  24.370  1.00  0.00     0.055 A 
ATOM     79  C   UNL A   1      49.468  26.540  26.435  1.00  0.00     0.041 A 
ATOM     80  F   UNL A   1      48.201  26.678  28.400  1.00  0.00    -0.206 F 
ATOM     81  C   UNL A   1      49.596  26.736  25.064  1.00  0.00     0.022 A 
BRANCH  78  82
ATOM     82  S   UNL A   1      48.623  27.485  22.560  1.00  0.00     0.124 S 
ATOM     83  O   UNL A   1      47.388  28.205  22.270  1.00  0.00    -0.237 OA
ATOM     84  O   UNL A   1      49.862  28.227  22.353  1.00  0.00    -0.237 OA
ATOM     85  O   UNL A   1      48.652  26.091  22.125  1.00  0.00    -0.744 OA
ENDBRANCH  78  82
ENDBRANCH  51  75
BRANCH  63  86
ATOM     86  C   UNL A   1      45.167  33.256  29.915  1.00  0.00     0.023 A 
ATOM     87  C   UNL A   1      45.221  34.395  29.092  1.00  0.00     0.031 A 
ATOM     88  C   UNL A   1      45.819  33.311  31.160  1.00  0.00     0.131 A 
ATOM     89  C   UNL A   1      45.961  35.515  29.498  1.00  0.00     0.055 A 
ATOM     90  C   UNL A   1      46.494  34.454  31.589  1.00  0.00     0.041 A 
ATOM     91  F   UNL A   1      45.806  32.252  31.987  1.00  0.00    -0.206 F 
ATOM     92  C   UNL A   1      46.581  35.560  30.750  1.00  0.00     0.022 A 
BRANCH  89  93
ATOM     93  S   UNL A   1      46.196  36.877  28.322  1.00  0.00     0.124 S 
ATOM     94  O   UNL A   1      45.707  36.290  27.079  1.00  0.00    -0.237 OA
ATOM     95  O   UNL A   1      45.368  37.932  28.898  1.00  0.00    -0.237 OA
ATOM     96  O   UNL A   1      47.636  37.124  28.368  1.00  0.00    -0.744 OA
ENDBRANCH  89  93
ENDBRANCH  63  86
ENDBRANCH  37  38
ENDBRANCH  30  32
ENDBRANCH  29  30
ENDBRANCH  28  29
ENDBRANCH  27  28
ENDBRANCH  26  27
ENDBRANCH  25  26
ENDBRANCH   1  25
TORSDOF 24
ENDMDL
