MODEL 1
REMARK VINA RESULT:     -10.8      0.000      0.000
REMARK SMILES O=C(Cn1cnnn1)Nc1cccc(F)c1C(=O)OCCOCCOCCOC(=O)c1ccc(-c2c3nc(c(-c4cc(S(=O)(=O)[O-])ccc4F)c4ccc([nH]4)c(-c4cc(S(=O)(=O)[O-])ccc4F)c4nc(c(-c5cc(S(=O)(=O)[O-])ccc5F)c5ccc2[nH]5)C=C4)C=C3)cc1
REMARK SMILES IDX 23 1 22 2 21 3 20 4 19 5 17 6 18 7 16 8 10 9 11 10 12 11
REMARK SMILES IDX 14 12 13 13 15 14 9 15 1 16 2 17 3 19 4 20 5 21 8 22 6 23
REMARK SMILES IDX 7 24 24 25 25 26 26 27 27 28 28 29 29 30 30 31 31 32 32 33
REMARK SMILES IDX 93 34 33 35 92 36 34 37 35 38 36 39 86 40 37 41 91 42 85 43
REMARK SMILES IDX 87 44 38 45 90 46 84 47 83 48 39 50 71 51 51 52 70 53 52 54
REMARK SMILES IDX 55 55 69 56 88 57 53 58 54 59 68 61 89 62 56 63 40 64 41 65
REMARK SMILES IDX 49 66 42 67 48 68 50 69 47 70 43 71 44 72 45 73 46 74 72 75
REMARK SMILES IDX 73 76 81 77 74 78 80 79 82 80 79 81 75 82 76 83 77 84 78 85
REMARK SMILES IDX 57 86 58 87 66 88 59 89 65 90 67 91 64 92 60 93 61 94 62 95
REMARK SMILES IDX 63 96
REMARK H PARENT 9 18 87 49 55 60
REMARK Flexibility Score: inf
ROOT
ATOM      1  C   UNL A   1      34.422  32.395  27.643  1.00  0.00     0.188 C 
ENDROOT
BRANCH   1   2
ATOM      2  O   UNL A   1      33.880  31.158  28.045  1.00  0.00    -0.376 OA
BRANCH   2   3
ATOM      3  C   UNL A   1      33.540  30.204  27.055  1.00  0.00     0.202 C 
BRANCH   3   4
ATOM      4  C   UNL A   1      33.497  28.683  27.318  1.00  0.00     0.261 C 
BRANCH   4   5
ATOM      5  O   UNL A   1      34.267  27.832  26.462  1.00  0.00    -0.460 OA
BRANCH   5   6
ATOM      6  C   UNL A   1      33.680  27.373  25.333  1.00  0.00     0.343 C 
ATOM      7  O   UNL A   1      33.985  27.664  24.188  1.00  0.00    -0.246 OA
BRANCH   6   8
ATOM      8  C   UNL A   1      32.740  26.282  25.663  1.00  0.00     0.119 A 
ATOM      9  C   UNL A   1      31.344  26.473  25.551  1.00  0.00     0.058 A 
ATOM     10  C   UNL A   1      30.497  25.398  25.863  1.00  0.00     0.027 A 
ATOM     11  C   UNL A   1      31.014  24.161  26.261  1.00  0.00     0.005 A 
ATOM     12  C   UNL A   1      33.243  25.044  26.077  1.00  0.00     0.139 A 
ATOM     13  C   UNL A   1      32.389  23.983  26.364  1.00  0.00     0.040 A 
ATOM     14  F   UNL A   1      34.563  24.845  26.212  1.00  0.00    -0.206 F 
BRANCH   9  15
ATOM     15  N   UNL A   1      30.819  27.686  25.027  1.00  0.00    -0.324 N 
ATOM     16  O   UNL A   1      30.826  27.237  22.757  1.00  0.00    -0.273 OA
ATOM     17  C   UNL A   1      30.729  28.034  23.690  1.00  0.00     0.246 C 
ATOM     18  H   UNL A   1      30.488  28.345  25.679  1.00  0.00     0.170 HD
BRANCH  17  19
ATOM     19  C   UNL A   1      30.595  29.513  23.391  1.00  0.00     0.248 C 
BRANCH  19  20
ATOM     20  N   UNL A   1      29.369  29.866  22.730  1.00  0.00    -0.223 N 
ATOM     21  C   UNL A   1      28.131  30.039  23.258  1.00  0.00     0.246 A 
ATOM     22  N   UNL A   1      29.325  30.027  21.398  1.00  0.00    -0.045 NA
ATOM     23  N   UNL A   1      27.301  30.309  22.276  1.00  0.00    -0.117 NA
ATOM     24  N   UNL A   1      28.056  30.295  21.126  1.00  0.00    -0.024 NA
ENDBRANCH  19  20
ENDBRANCH  17  19
ENDBRANCH   9  15
ENDBRANCH   6   8
ENDBRANCH   5   6
ENDBRANCH   4   5
ENDBRANCH   3   4
ENDBRANCH   2   3
ENDBRANCH   1   2
BRANCH   1  25
ATOM     25  C   UNL A   1      34.797  33.314  28.823  1.00  0.00     0.188 C 
BRANCH  25  26
ATOM     26  O   UNL A   1      36.137  33.740  29.036  1.00  0.00    -0.376 OA
BRANCH  26  27
ATOM     27  C   UNL A   1      36.937  33.210  30.086  1.00  0.00     0.202 C 
BRANCH  27  28
ATOM     28  C   UNL A   1      37.798  31.963  29.911  1.00  0.00     0.261 C 
BRANCH  28  29
ATOM     29  O   UNL A   1      37.560  31.226  28.729  1.00  0.00    -0.460 OA
BRANCH  29  30
ATOM     30  C   UNL A   1      37.159  29.963  28.950  1.00  0.00     0.338 C 
ATOM     31  O   UNL A   1      36.140  29.601  29.538  1.00  0.00    -0.246 OA
BRANCH  30  32
ATOM     32  C   UNL A   1      38.180  29.048  28.453  1.00  0.00     0.060 A 
ATOM     33  C   UNL A   1      38.620  28.054  29.328  1.00  0.00     0.016 A 
ATOM     34  C   UNL A   1      38.892  29.404  27.298  1.00  0.00     0.016 A 
ATOM     35  C   UNL A   1      39.907  27.595  29.183  1.00  0.00     0.010 A 
ATOM     36  C   UNL A   1      40.183  28.965  27.172  1.00  0.00     0.010 A 
ATOM     37  C   UNL A   1      40.700  28.145  28.170  1.00  0.00    -0.014 A 
BRANCH  37  38
ATOM     38  C   UNL A   1      42.094  27.776  28.116  1.00  0.00     0.031 A 
ATOM     39  C   UNL A   1      42.291  26.454  27.498  1.00  0.00     0.074 A 
ATOM     40  C   UNL A   1      43.082  28.610  28.493  1.00  0.00     0.049 A 
ATOM     41  N   UNL A   1      42.593  25.351  28.095  1.00  0.00    -0.248 NA
ATOM     42  C   UNL A   1      41.886  26.285  26.092  1.00  0.00     0.031 C 
ATOM     43  C   UNL A   1      42.985  30.018  28.886  1.00  0.00     0.029 A 
ATOM     44  N   UNL A   1      44.421  28.383  28.511  1.00  0.00    -0.354 N 
ATOM     45  C   UNL A   1      42.691  24.409  27.083  1.00  0.00     0.074 A 
ATOM     46  C   UNL A   1      42.001  24.965  25.951  1.00  0.00     0.031 C 
ATOM     47  C   UNL A   1      44.223  30.568  28.878  1.00  0.00     0.029 A 
ATOM     48  C   UNL A   1      45.204  29.530  28.607  1.00  0.00     0.049 A 
ATOM     49  H   UNL A   1      44.807  27.479  28.459  1.00  0.00     0.167 HD
ATOM     50  C   UNL A   1      43.601  23.403  27.161  1.00  0.00     0.034 A 
ATOM     51  C   UNL A   1      46.551  29.604  28.412  1.00  0.00     0.034 A 
ATOM     52  C   UNL A   1      44.064  23.223  28.520  1.00  0.00     0.049 A 
ATOM     53  C   UNL A   1      47.078  28.233  28.644  1.00  0.00     0.074 A 
ATOM     54  C   UNL A   1      43.445  22.952  29.726  1.00  0.00     0.029 A 
ATOM     55  N   UNL A   1      45.305  23.720  28.845  1.00  0.00    -0.354 N 
ATOM     56  N   UNL A   1      47.026  27.631  29.802  1.00  0.00    -0.248 NA
ATOM     57  C   UNL A   1      47.209  27.352  27.492  1.00  0.00     0.031 C 
ATOM     58  C   UNL A   1      44.140  23.744  30.686  1.00  0.00     0.029 A 
ATOM     59  C   UNL A   1      45.190  24.396  30.035  1.00  0.00     0.049 A 
ATOM     60  H   UNL A   1      46.131  23.609  28.319  1.00  0.00     0.167 HD
ATOM     61  C   UNL A   1      46.680  26.321  29.507  1.00  0.00     0.074 A 
ATOM     62  C   UNL A   1      46.894  26.187  28.066  1.00  0.00     0.031 C 
ATOM     63  C   UNL A   1      45.982  25.555  30.397  1.00  0.00     0.034 A 
BRANCH  50  64
ATOM     64  C   UNL A   1      44.365  22.877  25.969  1.00  0.00     0.023 A 
ATOM     65  C   UNL A   1      44.343  21.489  25.758  1.00  0.00     0.031 A 
ATOM     66  C   UNL A   1      45.324  23.601  25.217  1.00  0.00     0.131 A 
ATOM     67  C   UNL A   1      45.286  20.875  24.918  1.00  0.00     0.055 A 
ATOM     68  C   UNL A   1      46.215  22.991  24.333  1.00  0.00     0.041 A 
ATOM     69  F   UNL A   1      45.525  24.915  25.359  1.00  0.00    -0.206 F 
ATOM     70  C   UNL A   1      46.222  21.617  24.202  1.00  0.00     0.022 A 
BRANCH  67  71
ATOM     71  S   UNL A   1      45.362  19.068  24.895  1.00  0.00     0.124 S 
ATOM     72  O   UNL A   1      45.226  18.788  23.469  1.00  0.00    -0.237 OA
ATOM     73  O   UNL A   1      46.675  18.817  25.479  1.00  0.00    -0.237 OA
ATOM     74  O   UNL A   1      44.226  18.672  25.722  1.00  0.00    -0.744 OA
ENDBRANCH  67  71
ENDBRANCH  50  64
BRANCH  51  75
ATOM     75  C   UNL A   1      47.332  30.662  27.701  1.00  0.00     0.023 A 
ATOM     76  C   UNL A   1      46.699  31.754  27.060  1.00  0.00     0.031 A 
ATOM     77  C   UNL A   1      48.730  30.765  27.873  1.00  0.00     0.131 A 
ATOM     78  C   UNL A   1      47.451  32.881  26.647  1.00  0.00     0.055 A 
ATOM     79  C   UNL A   1      49.467  31.880  27.461  1.00  0.00     0.041 A 
ATOM     80  F   UNL A   1      49.425  29.828  28.534  1.00  0.00    -0.206 F 
ATOM     81  C   UNL A   1      48.829  32.950  26.858  1.00  0.00     0.022 A 
BRANCH  78  82
ATOM     82  S   UNL A   1      46.627  34.346  25.937  1.00  0.00     0.124 S 
ATOM     83  O   UNL A   1      47.627  34.832  24.993  1.00  0.00    -0.237 OA
ATOM     84  O   UNL A   1      45.412  33.783  25.361  1.00  0.00    -0.237 OA
ATOM     85  O   UNL A   1      46.409  35.207  27.100  1.00  0.00    -0.744 OA
ENDBRANCH  78  82
ENDBRANCH  51  75
BRANCH  63  86
ATOM     86  C   UNL A   1      45.866  26.034  31.829  1.00  0.00     0.023 A 
ATOM     87  C   UNL A   1      44.738  26.679  32.388  1.00  0.00     0.031 A 
ATOM     88  C   UNL A   1      46.910  25.672  32.697  1.00  0.00     0.131 A 
ATOM     89  C   UNL A   1      44.693  26.933  33.776  1.00  0.00     0.055 A 
ATOM     90  C   UNL A   1      46.853  25.907  34.068  1.00  0.00     0.041 A 
ATOM     91  F   UNL A   1      47.992  25.030  32.225  1.00  0.00    -0.206 F 
ATOM     92  C   UNL A   1      45.742  26.540  34.614  1.00  0.00     0.022 A 
BRANCH  89  93
ATOM     93  S   UNL A   1      43.246  27.752  34.530  1.00  0.00     0.124 S 
ATOM     94  O   UNL A   1      42.117  27.130  33.849  1.00  0.00    -0.237 OA
ATOM     95  O   UNL A   1      43.399  27.432  35.947  1.00  0.00    -0.237 OA
ATOM     96  O   UNL A   1      43.446  29.167  34.206  1.00  0.00    -0.744 OA
ENDBRANCH  89  93
ENDBRANCH  63  86
ENDBRANCH  37  38
ENDBRANCH  30  32
ENDBRANCH  29  30
ENDBRANCH  28  29
ENDBRANCH  27  28
ENDBRANCH  26  27
ENDBRANCH  25  26
ENDBRANCH   1  25
TORSDOF 23
ENDMDL
MODEL 2
REMARK VINA RESULT:     -10.4      2.250      3.219
REMARK SMILES O=C(Cn1cnnn1)Nc1cccc(F)c1C(=O)OCCOCCOCCOC(=O)c1ccc(-c2c3nc(c(-c4cc(S(=O)(=O)[O-])ccc4F)c4ccc([nH]4)c(-c4cc(S(=O)(=O)[O-])ccc4F)c4nc(c(-c5cc(S(=O)(=O)[O-])ccc5F)c5ccc2[nH]5)C=C4)C=C3)cc1
REMARK SMILES IDX 23 1 22 2 21 3 20 4 19 5 17 6 18 7 16 8 10 9 11 10 12 11
REMARK SMILES IDX 14 12 13 13 15 14 9 15 1 16 2 17 3 19 4 20 5 21 8 22 6 23
REMARK SMILES IDX 7 24 24 25 25 26 26 27 27 28 28 29 29 30 30 31 31 32 32 33
REMARK SMILES IDX 93 34 33 35 92 36 34 37 35 38 36 39 86 40 37 41 91 42 85 43
REMARK SMILES IDX 87 44 38 45 90 46 84 47 83 48 39 50 71 51 51 52 70 53 52 54
REMARK SMILES IDX 55 55 69 56 88 57 53 58 54 59 68 61 89 62 56 63 40 64 41 65
REMARK SMILES IDX 49 66 42 67 48 68 50 69 47 70 43 71 44 72 45 73 46 74 72 75
REMARK SMILES IDX 73 76 81 77 74 78 80 79 82 80 79 81 75 82 76 83 77 84 78 85
REMARK SMILES IDX 57 86 58 87 66 88 59 89 65 90 67 91 64 92 60 93 61 94 62 95
REMARK SMILES IDX 63 96
REMARK H PARENT 9 18 87 49 55 60
REMARK Flexibility Score: inf
ROOT
ATOM      1  C   UNL A   1      33.573  32.177  27.345  1.00  0.00     0.188 C 
ENDROOT
BRANCH   1   2
ATOM      2  O   UNL A   1      33.575  30.810  27.684  1.00  0.00    -0.376 OA
BRANCH   2   3
ATOM      3  C   UNL A   1      33.415  29.848  26.656  1.00  0.00     0.202 C 
BRANCH   3   4
ATOM      4  C   UNL A   1      33.609  28.332  26.872  1.00  0.00     0.261 C 
BRANCH   4   5
ATOM      5  O   UNL A   1      33.967  27.533  25.739  1.00  0.00    -0.460 OA
BRANCH   5   6
ATOM      6  C   UNL A   1      33.531  27.931  24.522  1.00  0.00     0.343 C 
ATOM      7  O   UNL A   1      34.197  28.473  23.655  1.00  0.00    -0.246 OA
BRANCH   6   8
ATOM      8  C   UNL A   1      32.164  27.420  24.286  1.00  0.00     0.119 A 
ATOM      9  C   UNL A   1      31.897  26.033  24.322  1.00  0.00     0.058 A 
ATOM     10  C   UNL A   1      30.577  25.604  24.106  1.00  0.00     0.027 A 
ATOM     11  C   UNL A   1      29.546  26.519  23.875  1.00  0.00     0.005 A 
ATOM     12  C   UNL A   1      31.126  28.325  24.040  1.00  0.00     0.139 A 
ATOM     13  C   UNL A   1      29.820  27.883  23.846  1.00  0.00     0.040 A 
ATOM     14  F   UNL A   1      31.359  29.645  23.980  1.00  0.00    -0.206 F 
BRANCH   9  15
ATOM     15  N   UNL A   1      32.915  25.108  24.681  1.00  0.00    -0.324 N 
ATOM     16  O   UNL A   1      34.010  24.838  22.660  1.00  0.00    -0.273 OA
ATOM     17  C   UNL A   1      33.795  24.478  23.818  1.00  0.00     0.246 C 
ATOM     18  H   UNL A   1      33.003  24.893  25.638  1.00  0.00     0.170 HD
BRANCH  17  19
ATOM     19  C   UNL A   1      34.448  23.213  24.335  1.00  0.00     0.248 C 
BRANCH  19  20
ATOM     20  N   UNL A   1      33.552  22.094  24.444  1.00  0.00    -0.223 N 
ATOM     21  C   UNL A   1      32.906  21.418  23.461  1.00  0.00     0.246 A 
ATOM     22  N   UNL A   1      33.206  21.603  25.644  1.00  0.00    -0.045 NA
ATOM     23  N   UNL A   1      32.153  20.499  24.023  1.00  0.00    -0.117 NA
ATOM     24  N   UNL A   1      32.347  20.628  25.379  1.00  0.00    -0.024 NA
ENDBRANCH  19  20
ENDBRANCH  17  19
ENDBRANCH   9  15
ENDBRANCH   6   8
ENDBRANCH   5   6
ENDBRANCH   4   5
ENDBRANCH   3   4
ENDBRANCH   2   3
ENDBRANCH   1   2
BRANCH   1  25
ATOM     25  C   UNL A   1      34.133  33.087  28.457  1.00  0.00     0.188 C 
BRANCH  25  26
ATOM     26  O   UNL A   1      35.453  33.614  28.391  1.00  0.00    -0.376 OA
BRANCH  26  27
ATOM     27  C   UNL A   1      36.415  33.363  29.407  1.00  0.00     0.202 C 
BRANCH  27  28
ATOM     28  C   UNL A   1      37.431  32.228  29.312  1.00  0.00     0.261 C 
BRANCH  28  29
ATOM     29  O   UNL A   1      37.126  31.223  28.367  1.00  0.00    -0.460 OA
BRANCH  29  30
ATOM     30  C   UNL A   1      36.888  30.020  28.914  1.00  0.00     0.338 C 
ATOM     31  O   UNL A   1      36.019  29.740  29.740  1.00  0.00    -0.246 OA
BRANCH  30  32
ATOM     32  C   UNL A   1      37.893  29.076  28.440  1.00  0.00     0.060 A 
ATOM     33  C   UNL A   1      38.265  28.055  29.315  1.00  0.00     0.016 A 
ATOM     34  C   UNL A   1      38.658  29.422  27.316  1.00  0.00     0.016 A 
ATOM     35  C   UNL A   1      39.539  27.551  29.208  1.00  0.00     0.010 A 
ATOM     36  C   UNL A   1      39.937  28.938  27.229  1.00  0.00     0.010 A 
ATOM     37  C   UNL A   1      40.387  28.086  28.233  1.00  0.00    -0.014 A 
BRANCH  37  38
ATOM     38  C   UNL A   1      41.769  27.668  28.223  1.00  0.00     0.031 A 
ATOM     39  C   UNL A   1      41.956  26.401  27.496  1.00  0.00     0.074 A 
ATOM     40  C   UNL A   1      42.761  28.424  28.731  1.00  0.00     0.049 A 
ATOM     41  N   UNL A   1      42.183  25.237  28.004  1.00  0.00    -0.248 NA
ATOM     42  C   UNL A   1      41.630  26.377  26.061  1.00  0.00     0.031 C 
ATOM     43  C   UNL A   1      42.690  29.793  29.247  1.00  0.00     0.029 A 
ATOM     44  N   UNL A   1      44.088  28.143  28.802  1.00  0.00    -0.354 N 
ATOM     45  C   UNL A   1      42.309  24.388  26.915  1.00  0.00     0.074 A 
ATOM     46  C   UNL A   1      41.707  25.072  25.803  1.00  0.00     0.031 C 
ATOM     47  C   UNL A   1      43.944  30.292  29.360  1.00  0.00     0.029 A 
ATOM     48  C   UNL A   1      44.903  29.244  29.048  1.00  0.00     0.049 A 
ATOM     49  H   UNL A   1      44.444  27.233  28.688  1.00  0.00     0.167 HD
ATOM     50  C   UNL A   1      43.177  23.344  26.950  1.00  0.00     0.034 A 
ATOM     51  C   UNL A   1      46.261  29.281  28.937  1.00  0.00     0.034 A 
ATOM     52  C   UNL A   1      43.552  23.022  28.310  1.00  0.00     0.049 A 
ATOM     53  C   UNL A   1      46.726  27.875  29.069  1.00  0.00     0.074 A 
ATOM     54  C   UNL A   1      42.853  22.667  29.449  1.00  0.00     0.029 A 
ATOM     55  N   UNL A   1      44.788  23.437  28.749  1.00  0.00    -0.354 N 
ATOM     56  N   UNL A   1      46.584  27.172  30.161  1.00  0.00    -0.248 NA
ATOM     57  C   UNL A   1      46.894  27.098  27.849  1.00  0.00     0.031 C 
ATOM     58  C   UNL A   1      43.517  23.340  30.516  1.00  0.00     0.029 A 
ATOM     59  C   UNL A   1      44.625  24.006  29.988  1.00  0.00     0.049 A 
ATOM     60  H   UNL A   1      45.639  23.341  28.262  1.00  0.00     0.167 HD
ATOM     61  C   UNL A   1      46.211  25.910  29.727  1.00  0.00     0.074 A 
ATOM     62  C   UNL A   1      46.505  25.899  28.294  1.00  0.00     0.031 C 
ATOM     63  C   UNL A   1      45.435  25.095  30.501  1.00  0.00     0.034 A 
BRANCH  50  64
ATOM     64  C   UNL A   1      43.991  22.898  25.759  1.00  0.00     0.023 A 
ATOM     65  C   UNL A   1      43.930  21.537  25.416  1.00  0.00     0.031 A 
ATOM     66  C   UNL A   1      45.020  23.647  25.135  1.00  0.00     0.131 A 
ATOM     67  C   UNL A   1      44.900  20.965  24.576  1.00  0.00     0.055 A 
ATOM     68  C   UNL A   1      45.940  23.084  24.249  1.00  0.00     0.041 A 
ATOM     69  F   UNL A   1      45.261  24.933  25.412  1.00  0.00    -0.206 F 
ATOM     70  C   UNL A   1      45.904  21.729  23.988  1.00  0.00     0.022 A 
BRANCH  67  71
ATOM     71  S   UNL A   1      44.909  19.166  24.386  1.00  0.00     0.124 S 
ATOM     72  O   UNL A   1      44.562  19.019  22.977  1.00  0.00    -0.237 OA
ATOM     73  O   UNL A   1      46.283  18.835  24.750  1.00  0.00    -0.237 OA
ATOM     74  O   UNL A   1      43.890  18.721  25.332  1.00  0.00    -0.744 OA
ENDBRANCH  67  71
ENDBRANCH  50  64
BRANCH  51  75
ATOM     75  C   UNL A   1      47.119  30.368  28.373  1.00  0.00     0.023 A 
ATOM     76  C   UNL A   1      46.597  31.361  27.509  1.00  0.00     0.031 A 
ATOM     77  C   UNL A   1      48.411  30.608  28.890  1.00  0.00     0.131 A 
ATOM     78  C   UNL A   1      47.343  32.529  27.219  1.00  0.00     0.055 A 
ATOM     79  C   UNL A   1      49.145  31.763  28.598  1.00  0.00     0.041 A 
ATOM     80  F   UNL A   1      48.976  29.776  29.776  1.00  0.00    -0.206 F 
ATOM     81  C   UNL A   1      48.608  32.736  27.773  1.00  0.00     0.022 A 
BRANCH  78  82
ATOM     82  S   UNL A   1      46.627  33.871  26.213  1.00  0.00     0.124 S 
ATOM     83  O   UNL A   1      45.532  33.191  25.531  1.00  0.00    -0.237 OA
ATOM     84  O   UNL A   1      46.251  34.860  27.216  1.00  0.00    -0.237 OA
ATOM     85  O   UNL A   1      47.736  34.272  25.347  1.00  0.00    -0.744 OA
ENDBRANCH  78  82
ENDBRANCH  51  75
BRANCH  63  86
ATOM     86  C   UNL A   1      45.250  25.446  31.962  1.00  0.00     0.023 A 
ATOM     87  C   UNL A   1      46.140  25.102  33.006  1.00  0.00     0.031 A 
ATOM     88  C   UNL A   1      44.182  26.307  32.269  1.00  0.00     0.131 A 
ATOM     89  C   UNL A   1      45.936  25.625  34.301  1.00  0.00     0.055 A 
ATOM     90  C   UNL A   1      43.995  26.835  33.544  1.00  0.00     0.041 A 
ATOM     91  F   UNL A   1      43.323  26.690  31.310  1.00  0.00    -0.206 F 
ATOM     92  C   UNL A   1      44.873  26.496  34.566  1.00  0.00     0.022 A 
BRANCH  89  93
ATOM     93  S   UNL A   1      47.073  25.210  35.667  1.00  0.00     0.124 S 
ATOM     94  O   UNL A   1      47.774  24.031  35.173  1.00  0.00    -0.237 OA
ATOM     95  O   UNL A   1      47.872  26.425  35.800  1.00  0.00    -0.237 OA
ATOM     96  O   UNL A   1      46.175  24.953  36.796  1.00  0.00    -0.744 OA
ENDBRANCH  89  93
ENDBRANCH  63  86
ENDBRANCH  37  38
ENDBRANCH  30  32
ENDBRANCH  29  30
ENDBRANCH  28  29
ENDBRANCH  27  28
ENDBRANCH  26  27
ENDBRANCH  25  26
ENDBRANCH   1  25
TORSDOF 23
ENDMDL
MODEL 3
REMARK VINA RESULT:      -9.6      5.617     11.640
REMARK SMILES O=C(Cn1cnnn1)Nc1cccc(F)c1C(=O)OCCOCCOCCOC(=O)c1ccc(-c2c3nc(c(-c4cc(S(=O)(=O)[O-])ccc4F)c4ccc([nH]4)c(-c4cc(S(=O)(=O)[O-])ccc4F)c4nc(c(-c5cc(S(=O)(=O)[O-])ccc5F)c5ccc2[nH]5)C=C4)C=C3)cc1
REMARK SMILES IDX 23 1 22 2 21 3 20 4 19 5 17 6 18 7 16 8 10 9 11 10 12 11
REMARK SMILES IDX 14 12 13 13 15 14 9 15 1 16 2 17 3 19 4 20 5 21 8 22 6 23
REMARK SMILES IDX 7 24 24 25 25 26 26 27 27 28 28 29 29 30 30 31 31 32 32 33
REMARK SMILES IDX 93 34 33 35 92 36 34 37 35 38 36 39 86 40 37 41 91 42 85 43
REMARK SMILES IDX 87 44 38 45 90 46 84 47 83 48 39 50 71 51 51 52 70 53 52 54
REMARK SMILES IDX 55 55 69 56 88 57 53 58 54 59 68 61 89 62 56 63 40 64 41 65
REMARK SMILES IDX 49 66 42 67 48 68 50 69 47 70 43 71 44 72 45 73 46 74 72 75
REMARK SMILES IDX 73 76 81 77 74 78 80 79 82 80 79 81 75 82 76 83 77 84 78 85
REMARK SMILES IDX 57 86 58 87 66 88 59 89 65 90 67 91 64 92 60 93 61 94 62 95
REMARK SMILES IDX 63 96
REMARK H PARENT 9 18 87 49 55 60
REMARK Flexibility Score: inf
ROOT
ATOM      1  C   UNL A   1      44.156  25.473  30.792  1.00  0.00     0.188 C 
ENDROOT
BRANCH   1   2
ATOM      2  O   UNL A   1      44.773  25.552  29.528  1.00  0.00    -0.376 OA
BRANCH   2   3
ATOM      3  C   UNL A   1      44.297  24.727  28.480  1.00  0.00     0.202 C 
BRANCH   3   4
ATOM      4  C   UNL A   1      44.259  25.168  27.000  1.00  0.00     0.261 C 
BRANCH   4   5
ATOM      5  O   UNL A   1      43.556  26.373  26.677  1.00  0.00    -0.460 OA
BRANCH   5   6
ATOM      6  C   UNL A   1      42.329  26.259  26.120  1.00  0.00     0.343 C 
ATOM      7  O   UNL A   1      42.077  25.828  25.007  1.00  0.00    -0.246 OA
BRANCH   6   8
ATOM      8  C   UNL A   1      41.289  26.526  27.135  1.00  0.00     0.119 A 
ATOM      9  C   UNL A   1      40.558  25.465  27.715  1.00  0.00     0.058 A 
ATOM     10  C   UNL A   1      39.592  25.774  28.686  1.00  0.00     0.027 A 
ATOM     11  C   UNL A   1      39.364  27.095  29.085  1.00  0.00     0.005 A 
ATOM     12  C   UNL A   1      41.041  27.844  27.534  1.00  0.00     0.139 A 
ATOM     13  C   UNL A   1      40.092  28.131  28.511  1.00  0.00     0.040 A 
ATOM     14  F   UNL A   1      41.707  28.870  26.982  1.00  0.00    -0.206 F 
BRANCH   9  15
ATOM     15  N   UNL A   1      40.874  24.114  27.406  1.00  0.00    -0.324 N 
ATOM     16  O   UNL A   1      38.942  23.436  26.326  1.00  0.00    -0.273 OA
ATOM     17  C   UNL A   1      40.014  23.170  26.871  1.00  0.00     0.246 C 
ATOM     18  H   UNL A   1      41.795  23.819  27.590  1.00  0.00     0.170 HD
BRANCH  17  19
ATOM     19  C   UNL A   1      40.405  21.720  27.069  1.00  0.00     0.248 C 
BRANCH  19  20
ATOM     20  N   UNL A   1      41.518  21.299  26.264  1.00  0.00    -0.223 N 
ATOM     21  C   UNL A   1      42.049  20.059  26.120  1.00  0.00     0.246 A 
ATOM     22  N   UNL A   1      42.228  22.187  25.550  1.00  0.00    -0.045 NA
ATOM     23  N   UNL A   1      43.088  20.148  25.321  1.00  0.00    -0.117 NA
ATOM     24  N   UNL A   1      43.189  21.476  24.978  1.00  0.00    -0.024 NA
ENDBRANCH  19  20
ENDBRANCH  17  19
ENDBRANCH   9  15
ENDBRANCH   6   8
ENDBRANCH   5   6
ENDBRANCH   4   5
ENDBRANCH   3   4
ENDBRANCH   2   3
ENDBRANCH   1   2
BRANCH   1  25
ATOM     25  C   UNL A   1      45.155  25.482  31.966  1.00  0.00     0.188 C 
BRANCH  25  26
ATOM     26  O   UNL A   1      45.351  24.333  32.782  1.00  0.00    -0.376 OA
BRANCH  26  27
ATOM     27  C   UNL A   1      44.425  23.254  32.797  1.00  0.00     0.202 C 
BRANCH  27  28
ATOM     28  C   UNL A   1      43.547  22.944  34.007  1.00  0.00     0.261 C 
BRANCH  28  29
ATOM     29  O   UNL A   1      42.827  24.042  34.527  1.00  0.00    -0.460 OA
BRANCH  29  30
ATOM     30  C   UNL A   1      43.421  24.631  35.577  1.00  0.00     0.338 C 
ATOM     31  O   UNL A   1      44.209  24.114  36.370  1.00  0.00    -0.246 OA
BRANCH  30  32
ATOM     32  C   UNL A   1      42.919  25.994  35.703  1.00  0.00     0.060 A 
ATOM     33  C   UNL A   1      41.630  26.241  35.227  1.00  0.00     0.016 A 
ATOM     34  C   UNL A   1      43.835  27.023  35.965  1.00  0.00     0.016 A 
ATOM     35  C   UNL A   1      41.347  27.505  34.767  1.00  0.00     0.010 A 
ATOM     36  C   UNL A   1      43.560  28.275  35.480  1.00  0.00     0.010 A 
ATOM     37  C   UNL A   1      42.360  28.468  34.802  1.00  0.00    -0.014 A 
BRANCH  37  38
ATOM     38  C   UNL A   1      42.112  29.746  34.178  1.00  0.00     0.031 A 
ATOM     39  C   UNL A   1      41.817  30.796  35.169  1.00  0.00     0.074 A 
ATOM     40  C   UNL A   1      42.249  29.947  32.853  1.00  0.00     0.049 A 
ATOM     41  N   UNL A   1      40.669  31.322  35.429  1.00  0.00    -0.248 NA
ATOM     42  C   UNL A   1      42.871  31.140  36.138  1.00  0.00     0.031 C 
ATOM     43  C   UNL A   1      42.770  29.025  31.842  1.00  0.00     0.029 A 
ATOM     44  N   UNL A   1      42.029  31.083  32.143  1.00  0.00    -0.354 N 
ATOM     45  C   UNL A   1      40.922  32.271  36.407  1.00  0.00     0.074 A 
ATOM     46  C   UNL A   1      42.198  31.930  36.974  1.00  0.00     0.031 C 
ATOM     47  C   UNL A   1      43.036  29.715  30.706  1.00  0.00     0.029 A 
ATOM     48  C   UNL A   1      42.588  31.090  30.868  1.00  0.00     0.049 A 
ATOM     49  H   UNL A   1      41.516  31.843  32.501  1.00  0.00     0.167 HD
ATOM     50  C   UNL A   1      40.216  33.431  36.443  1.00  0.00     0.034 A 
ATOM     51  C   UNL A   1      42.717  32.172  30.050  1.00  0.00     0.034 A 
ATOM     52  C   UNL A   1      38.992  33.320  35.681  1.00  0.00     0.049 A 
ATOM     53  C   UNL A   1      41.692  33.152  30.497  1.00  0.00     0.074 A 
ATOM     54  C   UNL A   1      37.893  32.482  35.730  1.00  0.00     0.029 A 
ATOM     55  N   UNL A   1      38.957  33.903  34.435  1.00  0.00    -0.354 N 
ATOM     56  N   UNL A   1      40.407  32.932  30.419  1.00  0.00    -0.248 NA
ATOM     57  C   UNL A   1      42.092  34.154  31.476  1.00  0.00     0.031 C 
ATOM     58  C   UNL A   1      37.552  32.239  34.367  1.00  0.00     0.029 A 
ATOM     59  C   UNL A   1      38.405  32.997  33.562  1.00  0.00     0.049 A 
ATOM     60  H   UNL A   1      39.271  34.809  34.208  1.00  0.00     0.167 HD
ATOM     61  C   UNL A   1      39.889  33.424  31.607  1.00  0.00     0.074 A 
ATOM     62  C   UNL A   1      40.958  34.244  32.177  1.00  0.00     0.031 C 
ATOM     63  C   UNL A   1      38.757  32.895  32.159  1.00  0.00     0.034 A 
BRANCH  50  64
ATOM     64  C   UNL A   1      40.824  34.764  36.809  1.00  0.00     0.023 A 
ATOM     65  C   UNL A   1      41.761  35.307  35.915  1.00  0.00     0.031 A 
ATOM     66  C   UNL A   1      40.760  35.379  38.085  1.00  0.00     0.131 A 
ATOM     67  C   UNL A   1      42.629  36.334  36.320  1.00  0.00     0.055 A 
ATOM     68  C   UNL A   1      41.581  36.444  38.459  1.00  0.00     0.041 A 
ATOM     69  F   UNL A   1      39.977  34.934  39.074  1.00  0.00    -0.206 F 
ATOM     70  C   UNL A   1      42.545  36.908  37.585  1.00  0.00     0.022 A 
BRANCH  67  71
ATOM     71  S   UNL A   1      43.975  36.803  35.206  1.00  0.00     0.124 S 
ATOM     72  O   UNL A   1      44.416  38.062  35.796  1.00  0.00    -0.237 OA
ATOM     73  O   UNL A   1      44.885  35.672  35.344  1.00  0.00    -0.237 OA
ATOM     74  O   UNL A   1      43.315  36.917  33.909  1.00  0.00    -0.744 OA
ENDBRANCH  67  71
ENDBRANCH  50  64
BRANCH  51  75
ATOM     75  C   UNL A   1      43.874  32.549  29.181  1.00  0.00     0.023 A 
ATOM     76  C   UNL A   1      43.710  32.853  27.808  1.00  0.00     0.031 A 
ATOM     77  C   UNL A   1      45.123  32.883  29.748  1.00  0.00     0.131 A 
ATOM     78  C   UNL A   1      44.750  33.478  27.079  1.00  0.00     0.055 A 
ATOM     79  C   UNL A   1      46.148  33.499  29.022  1.00  0.00     0.041 A 
ATOM     80  F   UNL A   1      45.366  32.713  31.055  1.00  0.00    -0.206 F 
ATOM     81  C   UNL A   1      45.962  33.812  27.687  1.00  0.00     0.022 A 
BRANCH  78  82
ATOM     82  S   UNL A   1      44.501  33.989  25.345  1.00  0.00     0.124 S 
ATOM     83  O   UNL A   1      44.443  32.707  24.653  1.00  0.00    -0.237 OA
ATOM     84  O   UNL A   1      43.258  34.748  25.409  1.00  0.00    -0.237 OA
ATOM     85  O   UNL A   1      45.691  34.791  25.056  1.00  0.00    -0.744 OA
ENDBRANCH  78  82
ENDBRANCH  51  75
BRANCH  63  86
ATOM     86  C   UNL A   1      37.894  31.986  31.309  1.00  0.00     0.023 A 
ATOM     87  C   UNL A   1      36.950  32.417  30.347  1.00  0.00     0.031 A 
ATOM     88  C   UNL A   1      38.168  30.610  31.388  1.00  0.00     0.131 A 
ATOM     89  C   UNL A   1      36.324  31.470  29.509  1.00  0.00     0.055 A 
ATOM     90  C   UNL A   1      37.561  29.681  30.546  1.00  0.00     0.041 A 
ATOM     91  F   UNL A   1      39.077  30.148  32.263  1.00  0.00    -0.206 F 
ATOM     92  C   UNL A   1      36.636  30.108  29.601  1.00  0.00     0.022 A 
BRANCH  89  93
ATOM     93  S   UNL A   1      35.111  31.993  28.249  1.00  0.00     0.124 S 
ATOM     94  O   UNL A   1      34.916  30.788  27.451  1.00  0.00    -0.237 OA
ATOM     95  O   UNL A   1      33.973  32.421  29.058  1.00  0.00    -0.237 OA
ATOM     96  O   UNL A   1      35.795  33.083  27.546  1.00  0.00    -0.744 OA
ENDBRANCH  89  93
ENDBRANCH  63  86
ENDBRANCH  37  38
ENDBRANCH  30  32
ENDBRANCH  29  30
ENDBRANCH  28  29
ENDBRANCH  27  28
ENDBRANCH  26  27
ENDBRANCH  25  26
ENDBRANCH   1  25
TORSDOF 23
ENDMDL
