MODEL 1
REMARK VINA RESULT:      -9.4      0.000      0.000
REMARK SMILES O=C(OCCOCCOCCOC(=O)[C@@H](CCO)NC(=O)c1c(F)ccc([N+](=O)[O-])c1F)c1ccc(-c2c3nc(c(-c4cc(S(=O)(=O)[O-])ccc4F)c4ccc([nH]4)c(-c4cc(S(=O)(=O)[O-])ccc4F)c4nc(c(-c5cc(S(=O)(=O)[O-])ccc5F)c5ccc2[nH]5)C=C4)C=C3)cc1
REMARK SMILES IDX 7 1 6 2 5 3 4 4 3 5 2 6 1 7 33 8 34 9 95 10 35 11 94 12
REMARK SMILES IDX 36 13 37 14 38 15 88 16 39 17 93 18 87 19 89 20 40 21 92 22
REMARK SMILES IDX 86 23 85 24 41 26 73 27 53 28 72 29 54 30 57 31 71 32 90 33
REMARK SMILES IDX 55 34 56 35 70 37 91 38 58 39 42 40 43 41 51 42 44 43 50 44
REMARK SMILES IDX 52 45 49 46 45 47 46 48 47 49 48 50 74 51 75 52 83 53 76 54
REMARK SMILES IDX 82 55 84 56 81 57 77 58 78 59 79 60 80 61 59 62 60 63 68 64
REMARK SMILES IDX 61 65 67 66 69 67 66 68 62 69 63 70 64 71 65 72 8 73 9 74
REMARK SMILES IDX 10 75 11 76 12 77 13 78 14 79 15 80 16 81 17 82 18 83 19 85
REMARK SMILES IDX 20 86 21 88 22 89 23 90 31 91 24 92 25 93 27 94 32 95 26 96
REMARK SMILES IDX 28 97 29 98 30 99
REMARK H PARENT 89 25 57 36 18 84 19 87
REMARK Flexibility Score: inf
ROOT
ATOM      1  C   UNL A   1      34.960  32.032  28.435  1.00  0.00     0.188 C 
ENDROOT
BRANCH   1   2
ATOM      2  O   UNL A   1      34.908  33.159  27.547  1.00  0.00    -0.376 OA
BRANCH   2   3
ATOM      3  C   UNL A   1      34.775  34.413  28.230  1.00  0.00     0.202 C 
BRANCH   3   4
ATOM      4  C   UNL A   1      33.339  34.927  28.423  1.00  0.00     0.261 C 
BRANCH   4   5
ATOM      5  O   UNL A   1      32.777  34.591  29.699  1.00  0.00    -0.460 OA
BRANCH   5   6
ATOM      6  C   UNL A   1      33.267  34.826  30.942  1.00  0.00     0.338 C 
ATOM      7  O   UNL A   1      32.616  35.575  31.672  1.00  0.00    -0.246 OA
BRANCH   6   8
ATOM      8  C   UNL A   1      34.556  34.275  31.483  1.00  0.00     0.060 A 
ATOM      9  C   UNL A   1      35.746  34.983  31.648  1.00  0.00     0.016 A 
ATOM     10  C   UNL A   1      34.547  32.921  31.886  1.00  0.00     0.016 A 
ATOM     11  C   UNL A   1      36.901  34.360  32.112  1.00  0.00     0.010 A 
ATOM     12  C   UNL A   1      35.697  32.291  32.380  1.00  0.00     0.010 A 
ATOM     13  C   UNL A   1      36.889  33.008  32.462  1.00  0.00    -0.014 A 
BRANCH  13  14
ATOM     14  C   UNL A   1      38.198  32.380  32.743  1.00  0.00     0.031 A 
ATOM     15  C   UNL A   1      38.777  32.569  34.106  1.00  0.00     0.074 A 
ATOM     16  C   UNL A   1      38.713  31.494  31.873  1.00  0.00     0.049 A 
ATOM     17  N   UNL A   1      39.823  32.007  34.641  1.00  0.00    -0.248 NA
ATOM     18  C   UNL A   1      38.077  33.519  34.985  1.00  0.00     0.031 C 
ATOM     19  C   UNL A   1      38.165  31.243  30.550  1.00  0.00     0.029 A 
ATOM     20  N   UNL A   1      39.741  30.597  31.978  1.00  0.00    -0.354 N 
ATOM     21  C   UNL A   1      39.929  32.553  35.913  1.00  0.00     0.074 A 
ATOM     22  C   UNL A   1      38.829  33.479  36.072  1.00  0.00     0.031 C 
ATOM     23  C   UNL A   1      38.756  30.163  30.016  1.00  0.00     0.029 A 
ATOM     24  C   UNL A   1      39.825  29.727  30.909  1.00  0.00     0.049 A 
ATOM     25  H   UNL A   1      40.360  30.572  32.742  1.00  0.00     0.167 HD
ATOM     26  C   UNL A   1      40.887  32.318  36.840  1.00  0.00     0.034 A 
ATOM     27  C   UNL A   1      40.693  28.718  30.680  1.00  0.00     0.034 A 
ATOM     28  C   UNL A   1      42.000  31.435  36.600  1.00  0.00     0.049 A 
ATOM     29  C   UNL A   1      41.781  28.518  31.711  1.00  0.00     0.074 A 
ATOM     30  C   UNL A   1      43.121  31.217  37.376  1.00  0.00     0.029 A 
ATOM     31  N   UNL A   1      42.130  30.626  35.474  1.00  0.00    -0.354 N 
ATOM     32  N   UNL A   1      41.933  29.113  32.876  1.00  0.00    -0.248 NA
ATOM     33  C   UNL A   1      42.835  27.552  31.387  1.00  0.00     0.031 C 
ATOM     34  C   UNL A   1      43.954  30.322  36.693  1.00  0.00     0.029 A 
ATOM     35  C   UNL A   1      43.319  29.919  35.527  1.00  0.00     0.049 A 
ATOM     36  H   UNL A   1      41.472  30.564  34.745  1.00  0.00     0.167 HD
ATOM     37  C   UNL A   1      43.113  28.607  33.410  1.00  0.00     0.074 A 
ATOM     38  C   UNL A   1      43.594  27.612  32.470  1.00  0.00     0.031 C 
ATOM     39  C   UNL A   1      43.763  28.947  34.553  1.00  0.00     0.034 A 
BRANCH  26  40
ATOM     40  C   UNL A   1      40.813  33.144  38.098  1.00  0.00     0.023 A 
ATOM     41  C   UNL A   1      40.124  32.693  39.238  1.00  0.00     0.031 A 
ATOM     42  C   UNL A   1      41.315  34.457  38.107  1.00  0.00     0.131 A 
ATOM     43  C   UNL A   1      39.874  33.580  40.298  1.00  0.00     0.055 A 
ATOM     44  C   UNL A   1      41.139  35.305  39.201  1.00  0.00     0.041 A 
ATOM     45  F   UNL A   1      41.945  34.955  37.031  1.00  0.00    -0.206 F 
ATOM     46  C   UNL A   1      40.398  34.874  40.298  1.00  0.00     0.022 A 
BRANCH  43  47
ATOM     47  S   UNL A   1      38.698  33.078  41.587  1.00  0.00     0.124 S 
ATOM     48  O   UNL A   1      37.542  33.916  41.270  1.00  0.00    -0.237 OA
ATOM     49  O   UNL A   1      38.538  31.651  41.332  1.00  0.00    -0.237 OA
ATOM     50  O   UNL A   1      39.385  33.418  42.830  1.00  0.00    -0.744 OA
ENDBRANCH  43  47
ENDBRANCH  26  40
BRANCH  27  51
ATOM     51  C   UNL A   1      40.645  27.895  29.427  1.00  0.00     0.023 A 
ATOM     52  C   UNL A   1      41.558  28.105  28.377  1.00  0.00     0.031 A 
ATOM     53  C   UNL A   1      39.636  26.937  29.219  1.00  0.00     0.131 A 
ATOM     54  C   UNL A   1      41.415  27.406  27.164  1.00  0.00     0.055 A 
ATOM     55  C   UNL A   1      39.548  26.185  28.044  1.00  0.00     0.041 A 
ATOM     56  F   UNL A   1      38.703  26.714  30.158  1.00  0.00    -0.206 F 
ATOM     57  C   UNL A   1      40.431  26.431  27.000  1.00  0.00     0.022 A 
BRANCH  54  58
ATOM     58  S   UNL A   1      42.450  27.889  25.751  1.00  0.00     0.124 S 
ATOM     59  O   UNL A   1      42.535  26.637  25.006  1.00  0.00    -0.237 OA
ATOM     60  O   UNL A   1      41.651  28.945  25.137  1.00  0.00    -0.237 OA
ATOM     61  O   UNL A   1      43.697  28.330  26.371  1.00  0.00    -0.744 OA
ENDBRANCH  54  58
ENDBRANCH  27  51
BRANCH  39  62
ATOM     62  C   UNL A   1      45.051  28.218  34.832  1.00  0.00     0.023 A 
ATOM     63  C   UNL A   1      45.068  27.001  35.537  1.00  0.00     0.031 A 
ATOM     64  C   UNL A   1      46.274  28.751  34.393  1.00  0.00     0.131 A 
ATOM     65  C   UNL A   1      46.291  26.387  35.834  1.00  0.00     0.055 A 
ATOM     66  C   UNL A   1      47.484  28.103  34.639  1.00  0.00     0.041 A 
ATOM     67  F   UNL A   1      46.311  29.910  33.716  1.00  0.00    -0.206 F 
ATOM     68  C   UNL A   1      47.498  26.921  35.375  1.00  0.00     0.022 A 
BRANCH  65  69
ATOM     69  S   UNL A   1      46.292  24.927  36.910  1.00  0.00     0.124 S 
ATOM     70  O   UNL A   1      45.811  25.480  38.172  1.00  0.00    -0.237 OA
ATOM     71  O   UNL A   1      45.375  24.029  36.216  1.00  0.00    -0.237 OA
ATOM     72  O   UNL A   1      47.691  24.503  36.911  1.00  0.00    -0.744 OA
ENDBRANCH  65  69
ENDBRANCH  39  62
ENDBRANCH  13  14
ENDBRANCH   6   8
ENDBRANCH   5   6
ENDBRANCH   4   5
ENDBRANCH   3   4
ENDBRANCH   2   3
ENDBRANCH   1   2
BRANCH   1  73
ATOM     73  C   UNL A   1      34.211  30.817  27.883  1.00  0.00     0.188 C 
BRANCH  73  74
ATOM     74  O   UNL A   1      34.966  29.938  27.044  1.00  0.00    -0.376 OA
BRANCH  74  75
ATOM     75  C   UNL A   1      34.284  28.816  26.488  1.00  0.00     0.202 C 
BRANCH  75  76
ATOM     76  C   UNL A   1      32.873  29.074  25.957  1.00  0.00     0.261 C 
BRANCH  76  77
ATOM     77  O   UNL A   1      32.304  27.898  25.376  1.00  0.00    -0.462 OA
BRANCH  77  78
ATOM     78  C   UNL A   1      32.019  26.870  26.221  1.00  0.00     0.328 C 
ATOM     79  O   UNL A   1      31.641  27.003  27.381  1.00  0.00    -0.250 OA
BRANCH  78  80
ATOM     80  C   UNL A   1      32.068  25.515  25.498  1.00  0.00     0.194 C 
BRANCH  80  81
ATOM     81  C   UNL A   1      30.737  24.766  25.414  1.00  0.00     0.065 C 
BRANCH  81  82
ATOM     82  C   UNL A   1      30.572  23.569  26.349  1.00  0.00     0.159 C 
BRANCH  82  83
ATOM     83  O   UNL A   1      31.406  23.694  27.489  1.00  0.00    -0.396 OA
ATOM     84  H   UNL A   1      31.386  22.868  27.997  1.00  0.00     0.210 HD
ENDBRANCH  82  83
ENDBRANCH  81  82
ENDBRANCH  80  81
BRANCH  80  85
ATOM     85  N   UNL A   1      32.650  25.666  24.159  1.00  0.00    -0.338 N 
ATOM     86  C   UNL A   1      33.529  24.875  23.480  1.00  0.00     0.258 C 
ATOM     87  H   UNL A   1      32.359  26.470  23.671  1.00  0.00     0.164 HD
ATOM     88  O   UNL A   1      34.014  25.228  22.405  1.00  0.00    -0.269 OA
BRANCH  86  89
ATOM     89  C   UNL A   1      33.899  23.557  23.994  1.00  0.00     0.118 A 
ATOM     90  C   UNL A   1      35.003  23.414  24.836  1.00  0.00     0.139 A 
ATOM     91  C   UNL A   1      33.068  22.465  23.737  1.00  0.00     0.216 A 
ATOM     92  F   UNL A   1      35.798  24.455  25.116  1.00  0.00    -0.206 F 
ATOM     93  C   UNL A   1      35.304  22.180  25.406  1.00  0.00     0.047 A 
ATOM     94  C   UNL A   1      33.364  21.226  24.308  1.00  0.00     0.305 A 
ATOM     95  F   UNL A   1      32.004  22.625  22.937  1.00  0.00    -0.198 F 
ATOM     96  C   UNL A   1      34.487  21.079  25.144  1.00  0.00     0.092 A 
BRANCH  94  97
ATOM     97  N   UNL A   1      32.515  20.062  24.052  1.00  0.00     0.065 N 
ATOM     98  O   UNL A   1      32.160  19.354  25.001  1.00  0.00    -0.258 OA
ATOM     99  O   UNL A   1      32.180  19.855  22.874  1.00  0.00    -0.258 OA
ENDBRANCH  94  97
ENDBRANCH  86  89
ENDBRANCH  80  85
ENDBRANCH  78  80
ENDBRANCH  77  78
ENDBRANCH  76  77
ENDBRANCH  75  76
ENDBRANCH  74  75
ENDBRANCH  73  74
ENDBRANCH   1  73
TORSDOF 26
ENDMDL
MODEL 2
REMARK VINA RESULT:      -9.3      6.227     10.821
REMARK SMILES O=C(OCCOCCOCCOC(=O)[C@@H](CCO)NC(=O)c1c(F)ccc([N+](=O)[O-])c1F)c1ccc(-c2c3nc(c(-c4cc(S(=O)(=O)[O-])ccc4F)c4ccc([nH]4)c(-c4cc(S(=O)(=O)[O-])ccc4F)c4nc(c(-c5cc(S(=O)(=O)[O-])ccc5F)c5ccc2[nH]5)C=C4)C=C3)cc1
REMARK SMILES IDX 7 1 6 2 5 3 4 4 3 5 2 6 1 7 33 8 34 9 95 10 35 11 94 12
REMARK SMILES IDX 36 13 37 14 38 15 88 16 39 17 93 18 87 19 89 20 40 21 92 22
REMARK SMILES IDX 86 23 85 24 41 26 73 27 53 28 72 29 54 30 57 31 71 32 90 33
REMARK SMILES IDX 55 34 56 35 70 37 91 38 58 39 42 40 43 41 51 42 44 43 50 44
REMARK SMILES IDX 52 45 49 46 45 47 46 48 47 49 48 50 74 51 75 52 83 53 76 54
REMARK SMILES IDX 82 55 84 56 81 57 77 58 78 59 79 60 80 61 59 62 60 63 68 64
REMARK SMILES IDX 61 65 67 66 69 67 66 68 62 69 63 70 64 71 65 72 8 73 9 74
REMARK SMILES IDX 10 75 11 76 12 77 13 78 14 79 15 80 16 81 17 82 18 83 19 85
REMARK SMILES IDX 20 86 21 88 22 89 23 90 31 91 24 92 25 93 27 94 32 95 26 96
REMARK SMILES IDX 28 97 29 98 30 99
REMARK H PARENT 89 25 57 36 18 84 19 87
REMARK Flexibility Score: inf
ROOT
ATOM      1  C   UNL A   1      41.030  22.098  27.417  1.00  0.00     0.188 C 
ENDROOT
BRANCH   1   2
ATOM      2  O   UNL A   1      40.586  20.774  27.749  1.00  0.00    -0.376 OA
BRANCH   2   3
ATOM      3  C   UNL A   1      41.537  19.756  27.410  1.00  0.00     0.202 C 
BRANCH   3   4
ATOM      4  C   UNL A   1      41.589  19.347  25.929  1.00  0.00     0.261 C 
BRANCH   4   5
ATOM      5  O   UNL A   1      42.911  19.032  25.469  1.00  0.00    -0.460 OA
BRANCH   5   6
ATOM      6  C   UNL A   1      43.877  19.858  24.997  1.00  0.00     0.338 C 
ATOM      7  O   UNL A   1      44.745  19.360  24.279  1.00  0.00    -0.246 OA
BRANCH   6   8
ATOM      8  C   UNL A   1      43.991  21.324  25.309  1.00  0.00     0.060 A 
ATOM      9  C   UNL A   1      43.632  22.374  24.464  1.00  0.00     0.016 A 
ATOM     10  C   UNL A   1      44.484  21.662  26.589  1.00  0.00     0.016 A 
ATOM     11  C   UNL A   1      43.829  23.701  24.835  1.00  0.00     0.010 A 
ATOM     12  C   UNL A   1      44.661  22.995  26.982  1.00  0.00     0.010 A 
ATOM     13  C   UNL A   1      44.361  24.019  26.086  1.00  0.00    -0.014 A 
BRANCH  13  14
ATOM     14  C   UNL A   1      44.730  25.433  26.313  1.00  0.00     0.031 A 
ATOM     15  C   UNL A   1      43.716  26.316  26.965  1.00  0.00     0.074 A 
ATOM     16  C   UNL A   1      46.005  25.826  26.146  1.00  0.00     0.049 A 
ATOM     17  N   UNL A   1      43.848  27.536  27.401  1.00  0.00    -0.248 NA
ATOM     18  C   UNL A   1      42.376  25.739  27.151  1.00  0.00     0.031 C 
ATOM     19  C   UNL A   1      47.039  24.992  25.554  1.00  0.00     0.029 A 
ATOM     20  N   UNL A   1      46.670  26.964  26.511  1.00  0.00    -0.354 N 
ATOM     21  C   UNL A   1      42.598  27.891  27.892  1.00  0.00     0.074 A 
ATOM     22  C   UNL A   1      41.729  26.748  27.712  1.00  0.00     0.031 C 
ATOM     23  C   UNL A   1      48.237  25.574  25.724  1.00  0.00     0.029 A 
ATOM     24  C   UNL A   1      48.035  26.891  26.320  1.00  0.00     0.049 A 
ATOM     25  H   UNL A   1      46.219  27.759  26.877  1.00  0.00     0.167 HD
ATOM     26  C   UNL A   1      42.217  29.082  28.410  1.00  0.00     0.034 A 
ATOM     27  C   UNL A   1      48.995  27.806  26.574  1.00  0.00     0.034 A 
ATOM     28  C   UNL A   1      43.110  30.209  28.503  1.00  0.00     0.049 A 
ATOM     29  C   UNL A   1      48.529  29.144  27.104  1.00  0.00     0.074 A 
ATOM     30  C   UNL A   1      42.830  31.514  28.858  1.00  0.00     0.029 A 
ATOM     31  N   UNL A   1      44.472  30.156  28.218  1.00  0.00    -0.354 N 
ATOM     32  N   UNL A   1      47.319  29.507  27.474  1.00  0.00    -0.248 NA
ATOM     33  C   UNL A   1      49.535  30.205  27.209  1.00  0.00     0.031 C 
ATOM     34  C   UNL A   1      44.009  32.260  28.732  1.00  0.00     0.029 A 
ATOM     35  C   UNL A   1      45.043  31.407  28.375  1.00  0.00     0.049 A 
ATOM     36  H   UNL A   1      44.960  29.346  27.946  1.00  0.00     0.167 HD
ATOM     37  C   UNL A   1      47.417  30.847  27.834  1.00  0.00     0.074 A 
ATOM     38  C   UNL A   1      48.817  31.204  27.699  1.00  0.00     0.031 C 
ATOM     39  C   UNL A   1      46.446  31.717  28.212  1.00  0.00     0.034 A 
BRANCH  26  40
ATOM     40  C   UNL A   1      40.758  29.221  28.758  1.00  0.00     0.023 A 
ATOM     41  C   UNL A   1      40.309  29.172  30.091  1.00  0.00     0.031 A 
ATOM     42  C   UNL A   1      39.792  29.258  27.738  1.00  0.00     0.131 A 
ATOM     43  C   UNL A   1      38.935  29.065  30.359  1.00  0.00     0.055 A 
ATOM     44  C   UNL A   1      38.425  29.240  28.016  1.00  0.00     0.041 A 
ATOM     45  F   UNL A   1      40.163  29.263  26.447  1.00  0.00    -0.206 F 
ATOM     46  C   UNL A   1      37.989  29.124  29.333  1.00  0.00     0.022 A 
BRANCH  43  47
ATOM     47  S   UNL A   1      38.413  28.659  32.050  1.00  0.00     0.124 S 
ATOM     48  O   UNL A   1      39.407  29.378  32.844  1.00  0.00    -0.237 OA
ATOM     49  O   UNL A   1      37.055  29.191  32.098  1.00  0.00    -0.237 OA
ATOM     50  O   UNL A   1      38.515  27.203  32.102  1.00  0.00    -0.744 OA
ENDBRANCH  43  47
ENDBRANCH  26  40
BRANCH  27  51
ATOM     51  C   UNL A   1      50.440  27.552  26.263  1.00  0.00     0.023 A 
ATOM     52  C   UNL A   1      51.347  27.157  27.263  1.00  0.00     0.031 A 
ATOM     53  C   UNL A   1      50.963  27.778  24.975  1.00  0.00     0.131 A 
ATOM     54  C   UNL A   1      52.719  27.046  26.973  1.00  0.00     0.055 A 
ATOM     55  C   UNL A   1      52.313  27.586  24.671  1.00  0.00     0.041 A 
ATOM     56  F   UNL A   1      50.165  28.200  23.981  1.00  0.00    -0.206 F 
ATOM     57  C   UNL A   1      53.205  27.235  25.677  1.00  0.00     0.022 A 
BRANCH  54  58
ATOM     58  S   UNL A   1      53.885  26.787  28.342  1.00  0.00     0.124 S 
ATOM     59  O   UNL A   1      52.979  26.531  29.457  1.00  0.00    -0.237 OA
ATOM     60  O   UNL A   1      54.658  25.644  27.870  1.00  0.00    -0.237 OA
ATOM     61  O   UNL A   1      54.618  28.050  28.413  1.00  0.00    -0.744 OA
ENDBRANCH  54  58
ENDBRANCH  27  51
BRANCH  39  62
ATOM     62  C   UNL A   1      46.889  33.125  28.512  1.00  0.00     0.023 A 
ATOM     63  C   UNL A   1      46.972  34.099  27.501  1.00  0.00     0.031 A 
ATOM     64  C   UNL A   1      47.237  33.492  29.822  1.00  0.00     0.131 A 
ATOM     65  C   UNL A   1      47.452  35.379  27.807  1.00  0.00     0.055 A 
ATOM     66  C   UNL A   1      47.655  34.786  30.132  1.00  0.00     0.041 A 
ATOM     67  F   UNL A   1      47.174  32.598  30.822  1.00  0.00    -0.206 F 
ATOM     68  C   UNL A   1      47.778  35.734  29.119  1.00  0.00     0.022 A 
BRANCH  65  69
ATOM     69  S   UNL A   1      47.733  36.549  26.451  1.00  0.00     0.124 S 
ATOM     70  O   UNL A   1      48.521  37.589  27.105  1.00  0.00    -0.237 OA
ATOM     71  O   UNL A   1      48.443  35.729  25.474  1.00  0.00    -0.237 OA
ATOM     72  O   UNL A   1      46.382  36.947  26.058  1.00  0.00    -0.744 OA
ENDBRANCH  65  69
ENDBRANCH  39  62
ENDBRANCH  13  14
ENDBRANCH   6   8
ENDBRANCH   5   6
ENDBRANCH   4   5
ENDBRANCH   3   4
ENDBRANCH   2   3
ENDBRANCH   1   2
BRANCH   1  73
ATOM     73  C   UNL A   1      39.873  23.092  27.302  1.00  0.00     0.188 C 
BRANCH  73  74
ATOM     74  O   UNL A   1      39.079  23.003  26.116  1.00  0.00    -0.376 OA
BRANCH  74  75
ATOM     75  C   UNL A   1      37.792  23.615  26.140  1.00  0.00     0.202 C 
BRANCH  75  76
ATOM     76  C   UNL A   1      36.860  23.282  24.973  1.00  0.00     0.261 C 
BRANCH  76  77
ATOM     77  O   UNL A   1      35.485  23.437  25.334  1.00  0.00    -0.462 OA
BRANCH  77  78
ATOM     78  C   UNL A   1      34.698  24.137  24.473  1.00  0.00     0.328 C 
ATOM     79  O   UNL A   1      34.985  24.381  23.305  1.00  0.00    -0.250 OA
BRANCH  78  80
ATOM     80  C   UNL A   1      33.324  24.447  25.088  1.00  0.00     0.194 C 
BRANCH  80  81
ATOM     81  C   UNL A   1      32.607  23.257  25.729  1.00  0.00     0.065 C 
BRANCH  81  82
ATOM     82  C   UNL A   1      31.636  23.583  26.863  1.00  0.00     0.159 C 
BRANCH  82  83
ATOM     83  O   UNL A   1      31.695  22.602  27.884  1.00  0.00    -0.396 OA
ATOM     84  H   UNL A   1      30.795  22.354  28.147  1.00  0.00     0.210 HD
ENDBRANCH  82  83
ENDBRANCH  81  82
ENDBRANCH  80  81
BRANCH  80  85
ATOM     85  N   UNL A   1      33.426  25.554  26.046  1.00  0.00    -0.338 N 
ATOM     86  C   UNL A   1      33.081  26.867  25.924  1.00  0.00     0.258 C 
ATOM     87  H   UNL A   1      33.806  25.308  26.921  1.00  0.00     0.164 HD
ATOM     88  O   UNL A   1      33.361  27.690  26.796  1.00  0.00    -0.269 OA
BRANCH  86  89
ATOM     89  C   UNL A   1      32.331  27.337  24.760  1.00  0.00     0.118 A 
ATOM     90  C   UNL A   1      33.004  27.816  23.635  1.00  0.00     0.139 A 
ATOM     91  C   UNL A   1      30.944  27.187  24.735  1.00  0.00     0.216 A 
ATOM     92  F   UNL A   1      34.338  27.943  23.629  1.00  0.00    -0.206 F 
ATOM     93  C   UNL A   1      32.301  28.175  22.488  1.00  0.00     0.047 A 
ATOM     94  C   UNL A   1      30.234  27.543  23.586  1.00  0.00     0.305 A 
ATOM     95  F   UNL A   1      30.316  26.712  25.820  1.00  0.00    -0.198 F 
ATOM     96  C   UNL A   1      30.912  28.040  22.458  1.00  0.00     0.092 A 
BRANCH  94  97
ATOM     97  N   UNL A   1      28.778  27.402  23.533  1.00  0.00     0.065 N 
ATOM     98  O   UNL A   1      28.087  28.388  23.249  1.00  0.00    -0.258 OA
ATOM     99  O   UNL A   1      28.310  26.276  23.765  1.00  0.00    -0.258 OA
ENDBRANCH  94  97
ENDBRANCH  86  89
ENDBRANCH  80  85
ENDBRANCH  78  80
ENDBRANCH  77  78
ENDBRANCH  76  77
ENDBRANCH  75  76
ENDBRANCH  74  75
ENDBRANCH  73  74
ENDBRANCH   1  73
TORSDOF 26
ENDMDL
MODEL 3
REMARK VINA RESULT:      -9.2      6.013     10.206
REMARK SMILES O=C(OCCOCCOCCOC(=O)[C@@H](CCO)NC(=O)c1c(F)ccc([N+](=O)[O-])c1F)c1ccc(-c2c3nc(c(-c4cc(S(=O)(=O)[O-])ccc4F)c4ccc([nH]4)c(-c4cc(S(=O)(=O)[O-])ccc4F)c4nc(c(-c5cc(S(=O)(=O)[O-])ccc5F)c5ccc2[nH]5)C=C4)C=C3)cc1
REMARK SMILES IDX 7 1 6 2 5 3 4 4 3 5 2 6 1 7 33 8 34 9 95 10 35 11 94 12
REMARK SMILES IDX 36 13 37 14 38 15 88 16 39 17 93 18 87 19 89 20 40 21 92 22
REMARK SMILES IDX 86 23 85 24 41 26 73 27 53 28 72 29 54 30 57 31 71 32 90 33
REMARK SMILES IDX 55 34 56 35 70 37 91 38 58 39 42 40 43 41 51 42 44 43 50 44
REMARK SMILES IDX 52 45 49 46 45 47 46 48 47 49 48 50 74 51 75 52 83 53 76 54
REMARK SMILES IDX 82 55 84 56 81 57 77 58 78 59 79 60 80 61 59 62 60 63 68 64
REMARK SMILES IDX 61 65 67 66 69 67 66 68 62 69 63 70 64 71 65 72 8 73 9 74
REMARK SMILES IDX 10 75 11 76 12 77 13 78 14 79 15 80 16 81 17 82 18 83 19 85
REMARK SMILES IDX 20 86 21 88 22 89 23 90 31 91 24 92 25 93 27 94 32 95 26 96
REMARK SMILES IDX 28 97 29 98 30 99
REMARK H PARENT 89 25 57 36 18 84 19 87
REMARK Flexibility Score: inf
ROOT
ATOM      1  C   UNL A   1      41.113  22.137  27.596  1.00  0.00     0.188 C 
ENDROOT
BRANCH   1   2
ATOM      2  O   UNL A   1      40.685  20.807  27.923  1.00  0.00    -0.376 OA
BRANCH   2   3
ATOM      3  C   UNL A   1      41.607  19.795  27.497  1.00  0.00     0.202 C 
BRANCH   3   4
ATOM      4  C   UNL A   1      41.741  19.600  25.977  1.00  0.00     0.261 C 
BRANCH   4   5
ATOM      5  O   UNL A   1      43.100  19.480  25.534  1.00  0.00    -0.460 OA
BRANCH   5   6
ATOM      6  C   UNL A   1      43.910  20.418  24.982  1.00  0.00     0.338 C 
ATOM      7  O   UNL A   1      44.675  20.048  24.090  1.00  0.00    -0.246 OA
BRANCH   6   8
ATOM      8  C   UNL A   1      43.973  21.861  25.398  1.00  0.00     0.060 A 
ATOM      9  C   UNL A   1      43.531  22.951  24.650  1.00  0.00     0.016 A 
ATOM     10  C   UNL A   1      44.508  22.128  26.678  1.00  0.00     0.016 A 
ATOM     11  C   UNL A   1      43.685  24.255  25.111  1.00  0.00     0.010 A 
ATOM     12  C   UNL A   1      44.643  23.436  27.162  1.00  0.00     0.010 A 
ATOM     13  C   UNL A   1      44.258  24.507  26.358  1.00  0.00    -0.014 A 
BRANCH  13  14
ATOM     14  C   UNL A   1      44.574  25.917  26.675  1.00  0.00     0.031 A 
ATOM     15  C   UNL A   1      43.528  26.718  27.379  1.00  0.00     0.074 A 
ATOM     16  C   UNL A   1      45.833  26.367  26.535  1.00  0.00     0.049 A 
ATOM     17  N   UNL A   1      43.614  27.912  27.893  1.00  0.00    -0.248 NA
ATOM     18  C   UNL A   1      42.210  26.081  27.527  1.00  0.00     0.031 C 
ATOM     19  C   UNL A   1      46.897  25.611  25.893  1.00  0.00     0.029 A 
ATOM     20  N   UNL A   1      46.455  27.504  26.972  1.00  0.00    -0.354 N 
ATOM     21  C   UNL A   1      42.353  28.188  28.402  1.00  0.00     0.074 A 
ATOM     22  C   UNL A   1      41.526  27.027  28.149  1.00  0.00     0.031 C 
ATOM     23  C   UNL A   1      48.072  26.226  26.102  1.00  0.00     0.029 A 
ATOM     24  C   UNL A   1      47.822  27.494  26.779  1.00  0.00     0.049 A 
ATOM     25  H   UNL A   1      45.975  28.256  27.387  1.00  0.00     0.167 HD
ATOM     26  C   UNL A   1      41.927  29.329  28.994  1.00  0.00     0.034 A 
ATOM     27  C   UNL A   1      48.747  28.426  27.092  1.00  0.00     0.034 A 
ATOM     28  C   UNL A   1      42.777  30.480  29.160  1.00  0.00     0.049 A 
ATOM     29  C   UNL A   1      48.231  29.709  27.704  1.00  0.00     0.074 A 
ATOM     30  C   UNL A   1      42.449  31.749  29.596  1.00  0.00     0.029 A 
ATOM     31  N   UNL A   1      44.140  30.497  28.874  1.00  0.00    -0.354 N 
ATOM     32  N   UNL A   1      47.009  30.003  28.095  1.00  0.00    -0.248 NA
ATOM     33  C   UNL A   1      49.197  30.799  27.878  1.00  0.00     0.031 C 
ATOM     34  C   UNL A   1      43.599  32.545  29.520  1.00  0.00     0.029 A 
ATOM     35  C   UNL A   1      44.664  31.756  29.111  1.00  0.00     0.049 A 
ATOM     36  H   UNL A   1      44.658  29.724  28.552  1.00  0.00     0.167 HD
ATOM     37  C   UNL A   1      47.057  31.320  28.539  1.00  0.00     0.074 A 
ATOM     38  C   UNL A   1      48.443  31.737  28.429  1.00  0.00     0.031 C 
ATOM     39  C   UNL A   1      46.054  32.127  28.970  1.00  0.00     0.034 A 
BRANCH  26  40
ATOM     40  C   UNL A   1      40.464  29.391  29.348  1.00  0.00     0.023 A 
ATOM     41  C   UNL A   1      40.022  29.292  30.680  1.00  0.00     0.031 A 
ATOM     42  C   UNL A   1      39.495  29.404  28.331  1.00  0.00     0.131 A 
ATOM     43  C   UNL A   1      38.656  29.114  30.949  1.00  0.00     0.055 A 
ATOM     44  C   UNL A   1      38.131  29.315  28.612  1.00  0.00     0.041 A 
ATOM     45  F   UNL A   1      39.861  29.454  27.039  1.00  0.00    -0.206 F 
ATOM     46  C   UNL A   1      37.705  29.149  29.926  1.00  0.00     0.022 A 
BRANCH  43  47
ATOM     47  S   UNL A   1      38.158  28.647  32.632  1.00  0.00     0.124 S 
ATOM     48  O   UNL A   1      36.770  29.105  32.664  1.00  0.00    -0.237 OA
ATOM     49  O   UNL A   1      38.352  27.201  32.629  1.00  0.00    -0.237 OA
ATOM     50  O   UNL A   1      39.077  29.399  33.483  1.00  0.00    -0.744 OA
ENDBRANCH  43  47
ENDBRANCH  26  40
BRANCH  27  51
ATOM     51  C   UNL A   1      50.200  28.247  26.767  1.00  0.00     0.023 A 
ATOM     52  C   UNL A   1      50.729  28.645  25.526  1.00  0.00     0.031 A 
ATOM     53  C   UNL A   1      51.075  27.599  27.660  1.00  0.00     0.131 A 
ATOM     54  C   UNL A   1      52.066  28.354  25.199  1.00  0.00     0.055 A 
ATOM     55  C   UNL A   1      52.424  27.386  27.364  1.00  0.00     0.041 A 
ATOM     56  F   UNL A   1      50.631  27.151  28.845  1.00  0.00    -0.206 F 
ATOM     57  C   UNL A   1      52.923  27.748  26.119  1.00  0.00     0.022 A 
BRANCH  54  58
ATOM     58  S   UNL A   1      52.635  28.652  23.499  1.00  0.00     0.124 S 
ATOM     59  O   UNL A   1      51.459  28.273  22.723  1.00  0.00    -0.237 OA
ATOM     60  O   UNL A   1      52.950  30.076  23.530  1.00  0.00    -0.237 OA
ATOM     61  O   UNL A   1      53.785  27.761  23.361  1.00  0.00    -0.744 OA
ENDBRANCH  54  58
ENDBRANCH  27  51
BRANCH  39  62
ATOM     62  C   UNL A   1      46.444  33.529  29.359  1.00  0.00     0.023 A 
ATOM     63  C   UNL A   1      46.815  33.849  30.676  1.00  0.00     0.031 A 
ATOM     64  C   UNL A   1      46.438  34.556  28.400  1.00  0.00     0.131 A 
ATOM     65  C   UNL A   1      47.107  35.178  31.014  1.00  0.00     0.055 A 
ATOM     66  C   UNL A   1      46.789  35.865  28.728  1.00  0.00     0.041 A 
ATOM     67  F   UNL A   1      46.091  34.301  27.128  1.00  0.00    -0.206 F 
ATOM     68  C   UNL A   1      47.113  36.184  30.044  1.00  0.00     0.022 A 
BRANCH  65  69
ATOM     69  S   UNL A   1      47.390  35.590  32.757  1.00  0.00     0.124 S 
ATOM     70  O   UNL A   1      47.256  34.288  33.402  1.00  0.00    -0.237 OA
ATOM     71  O   UNL A   1      48.736  36.154  32.729  1.00  0.00    -0.237 OA
ATOM     72  O   UNL A   1      46.326  36.546  33.059  1.00  0.00    -0.744 OA
ENDBRANCH  65  69
ENDBRANCH  39  62
ENDBRANCH  13  14
ENDBRANCH   6   8
ENDBRANCH   5   6
ENDBRANCH   4   5
ENDBRANCH   3   4
ENDBRANCH   2   3
ENDBRANCH   1   2
BRANCH   1  73
ATOM     73  C   UNL A   1      39.990  22.981  26.988  1.00  0.00     0.188 C 
BRANCH  73  74
ATOM     74  O   UNL A   1      39.396  22.472  25.790  1.00  0.00    -0.376 OA
BRANCH  74  75
ATOM     75  C   UNL A   1      38.053  22.001  25.872  1.00  0.00     0.202 C 
BRANCH  75  76
ATOM     76  C   UNL A   1      37.806  20.567  25.398  1.00  0.00     0.261 C 
BRANCH  76  77
ATOM     77  O   UNL A   1      36.790  20.511  24.394  1.00  0.00    -0.462 OA
BRANCH  77  78
ATOM     78  C   UNL A   1      35.956  21.583  24.300  1.00  0.00     0.328 C 
ATOM     79  O   UNL A   1      36.226  22.628  23.716  1.00  0.00    -0.250 OA
BRANCH  78  80
ATOM     80  C   UNL A   1      34.566  21.269  24.872  1.00  0.00     0.194 C 
BRANCH  80  81
ATOM     81  C   UNL A   1      34.034  19.866  24.576  1.00  0.00     0.065 C 
BRANCH  81  82
ATOM     82  C   UNL A   1      32.880  19.380  25.453  1.00  0.00     0.159 C 
BRANCH  82  83
ATOM     83  O   UNL A   1      31.830  20.332  25.489  1.00  0.00    -0.396 OA
ATOM     84  H   UNL A   1      32.191  21.218  25.336  1.00  0.00     0.210 HD
ENDBRANCH  82  83
ENDBRANCH  81  82
ENDBRANCH  80  81
BRANCH  80  85
ATOM     85  N   UNL A   1      34.532  21.530  26.317  1.00  0.00    -0.338 N 
ATOM     86  C   UNL A   1      34.260  22.675  27.005  1.00  0.00     0.258 C 
ATOM     87  H   UNL A   1      34.739  20.750  26.881  1.00  0.00     0.164 HD
ATOM     88  O   UNL A   1      34.407  22.742  28.226  1.00  0.00    -0.269 OA
BRANCH  86  89
ATOM     89  C   UNL A   1      33.750  23.858  26.315  1.00  0.00     0.118 A 
ATOM     90  C   UNL A   1      34.630  24.752  25.704  1.00  0.00     0.139 A 
ATOM     91  C   UNL A   1      32.372  24.020  26.164  1.00  0.00     0.216 A 
ATOM     92  F   UNL A   1      35.957  24.600  25.815  1.00  0.00    -0.206 F 
ATOM     93  C   UNL A   1      34.148  25.829  24.964  1.00  0.00     0.047 A 
ATOM     94  C   UNL A   1      31.882  25.096  25.421  1.00  0.00     0.305 A 
ATOM     95  F   UNL A   1      31.541  23.143  26.746  1.00  0.00    -0.198 F 
ATOM     96  C   UNL A   1      32.772  26.006  24.818  1.00  0.00     0.092 A 
BRANCH  94  97
ATOM     97  N   UNL A   1      30.442  25.295  25.251  1.00  0.00     0.065 N 
ATOM     98  O   UNL A   1      29.933  25.097  24.142  1.00  0.00    -0.258 OA
ATOM     99  O   UNL A   1      29.799  25.645  26.253  1.00  0.00    -0.258 OA
ENDBRANCH  94  97
ENDBRANCH  86  89
ENDBRANCH  80  85
ENDBRANCH  78  80
ENDBRANCH  77  78
ENDBRANCH  76  77
ENDBRANCH  75  76
ENDBRANCH  74  75
ENDBRANCH  73  74
ENDBRANCH   1  73
TORSDOF 26
ENDMDL
