MODEL 1
REMARK VINA RESULT:     -10.8      0.000      0.000
REMARK SMILES O=C(OCCOCCOCCOC(=O)[C@H]1CCCCN1c1cc(-c2ccccc2)nc(-c2cccc(Cl)c2)n1)c1ccc(-c2c3nc(c(-c4cc(S(=O)(=O)[O-])ccc4F)c4ccc([nH]4)c(-c4cc(S(=O)(=O)[O-])ccc4F)c4nc(c(-c5cc(S(=O)(=O)[O-])ccc5F)c5ccc2[nH]5)C=C4)C=C3)cc1
REMARK SMILES IDX 7 1 6 2 5 3 4 4 3 5 2 6 1 7 40 8 41 9 102 10 42 11 101 12
REMARK SMILES IDX 43 13 44 14 45 15 95 16 46 17 100 18 94 19 96 20 47 21 99 22
REMARK SMILES IDX 93 23 92 24 48 26 80 27 60 28 79 29 61 30 64 31 78 32 97 33
REMARK SMILES IDX 62 34 63 35 77 37 98 38 65 39 49 40 50 41 58 42 51 43 57 44
REMARK SMILES IDX 59 45 56 46 52 47 53 48 54 49 55 50 81 51 82 52 90 53 83 54
REMARK SMILES IDX 89 55 91 56 88 57 84 58 85 59 86 60 87 61 66 62 67 63 75 64
REMARK SMILES IDX 68 65 74 66 76 67 73 68 69 69 70 70 71 71 72 72 8 73 9 74
REMARK SMILES IDX 10 75 11 76 12 77 13 78 14 79 15 80 16 81 20 82 17 83 19 84
REMARK SMILES IDX 18 85 21 86 22 87 39 88 23 89 31 90 30 91 24 92 25 93 29 94
REMARK SMILES IDX 26 95 28 96 27 97 32 98 33 99 38 100 34 101 36 102 35 103
REMARK SMILES IDX 37 104
REMARK H PARENT 96 25 64 36
REMARK Flexibility Score: inf
ROOT
ATOM      1  C   UNL A   1      40.525  21.302  26.405  1.00  0.00     0.188 C 
ENDROOT
BRANCH   1   2
ATOM      2  O   UNL A   1      41.495  22.098  25.724  1.00  0.00    -0.376 OA
BRANCH   2   3
ATOM      3  C   UNL A   1      42.174  23.043  26.561  1.00  0.00     0.202 C 
BRANCH   3   4
ATOM      4  C   UNL A   1      41.430  24.365  26.830  1.00  0.00     0.261 C 
BRANCH   4   5
ATOM      5  O   UNL A   1      41.708  25.395  25.864  1.00  0.00    -0.460 OA
BRANCH   5   6
ATOM      6  C   UNL A   1      42.869  26.075  25.667  1.00  0.00     0.338 C 
ATOM      7  O   UNL A   1      43.715  25.572  24.932  1.00  0.00    -0.246 OA
BRANCH   6   8
ATOM      8  C   UNL A   1      43.190  27.382  26.325  1.00  0.00     0.060 A 
ATOM      9  C   UNL A   1      44.258  27.571  27.193  1.00  0.00     0.016 A 
ATOM     10  C   UNL A   1      42.382  28.498  26.038  1.00  0.00     0.016 A 
ATOM     11  C   UNL A   1      44.443  28.755  27.876  1.00  0.00     0.010 A 
ATOM     12  C   UNL A   1      42.600  29.730  26.677  1.00  0.00     0.010 A 
ATOM     13  C   UNL A   1      43.609  29.840  27.637  1.00  0.00    -0.014 A 
BRANCH  13  14
ATOM     14  C   UNL A   1      43.768  30.975  28.566  1.00  0.00     0.031 A 
ATOM     15  C   UNL A   1      44.762  32.041  28.212  1.00  0.00     0.074 A 
ATOM     16  C   UNL A   1      42.838  31.162  29.523  1.00  0.00     0.049 A 
ATOM     17  N   UNL A   1      45.000  33.180  28.800  1.00  0.00    -0.248 NA
ATOM     18  C   UNL A   1      45.579  31.805  27.008  1.00  0.00     0.031 C 
ATOM     19  C   UNL A   1      41.736  30.236  29.812  1.00  0.00     0.029 A 
ATOM     20  N   UNL A   1      42.616  32.211  30.372  1.00  0.00    -0.354 N 
ATOM     21  C   UNL A   1      45.995  33.793  28.046  1.00  0.00     0.074 A 
ATOM     22  C   UNL A   1      46.334  32.890  26.971  1.00  0.00     0.031 C 
ATOM     23  C   UNL A   1      40.933  30.782  30.738  1.00  0.00     0.029 A 
ATOM     24  C   UNL A   1      41.512  32.046  31.178  1.00  0.00     0.049 A 
ATOM     25  H   UNL A   1      43.192  33.009  30.405  1.00  0.00     0.167 HD
ATOM     26  C   UNL A   1      46.568  35.003  28.243  1.00  0.00     0.034 A 
ATOM     27  C   UNL A   1      41.058  32.812  32.188  1.00  0.00     0.034 A 
ATOM     28  C   UNL A   1      46.217  35.859  29.346  1.00  0.00     0.049 A 
ATOM     29  C   UNL A   1      41.814  34.084  32.479  1.00  0.00     0.074 A 
ATOM     30  C   UNL A   1      46.796  37.049  29.742  1.00  0.00     0.029 A 
ATOM     31  N   UNL A   1      45.179  35.603  30.238  1.00  0.00    -0.354 N 
ATOM     32  N   UNL A   1      42.830  34.609  31.827  1.00  0.00    -0.248 NA
ATOM     33  C   UNL A   1      41.374  34.865  33.638  1.00  0.00     0.031 C 
ATOM     34  C   UNL A   1      46.152  37.477  30.909  1.00  0.00     0.029 A 
ATOM     35  C   UNL A   1      45.115  36.600  31.196  1.00  0.00     0.049 A 
ATOM     36  H   UNL A   1      44.577  34.825  30.195  1.00  0.00     0.167 HD
ATOM     37  C   UNL A   1      43.143  35.789  32.493  1.00  0.00     0.074 A 
ATOM     38  C   UNL A   1      42.176  35.917  33.569  1.00  0.00     0.031 C 
ATOM     39  C   UNL A   1      44.139  36.681  32.258  1.00  0.00     0.034 A 
BRANCH  26  40
ATOM     40  C   UNL A   1      47.682  35.392  27.304  1.00  0.00     0.023 A 
ATOM     41  C   UNL A   1      49.008  34.968  27.508  1.00  0.00     0.031 A 
ATOM     42  C   UNL A   1      47.430  36.273  26.238  1.00  0.00     0.131 A 
ATOM     43  C   UNL A   1      50.039  35.483  26.704  1.00  0.00     0.055 A 
ATOM     44  C   UNL A   1      48.448  36.722  25.396  1.00  0.00     0.041 A 
ATOM     45  F   UNL A   1      46.190  36.739  26.016  1.00  0.00    -0.206 F 
ATOM     46  C   UNL A   1      49.765  36.339  25.635  1.00  0.00     0.022 A 
BRANCH  43  47
ATOM     47  S   UNL A   1      51.759  35.139  27.168  1.00  0.00     0.124 S 
ATOM     48  O   UNL A   1      52.354  34.810  25.875  1.00  0.00    -0.237 OA
ATOM     49  O   UNL A   1      52.187  36.402  27.762  1.00  0.00    -0.237 OA
ATOM     50  O   UNL A   1      51.649  34.019  28.099  1.00  0.00    -0.744 OA
ENDBRANCH  43  47
ENDBRANCH  26  40
BRANCH  27  51
ATOM     51  C   UNL A   1      39.923  32.359  33.052  1.00  0.00     0.023 A 
ATOM     52  C   UNL A   1      38.649  32.942  32.972  1.00  0.00     0.031 A 
ATOM     53  C   UNL A   1      40.129  31.381  34.047  1.00  0.00     0.131 A 
ATOM     54  C   UNL A   1      37.656  32.590  33.903  1.00  0.00     0.055 A 
ATOM     55  C   UNL A   1      39.118  30.984  34.923  1.00  0.00     0.041 A 
ATOM     56  F   UNL A   1      41.328  30.794  34.188  1.00  0.00    -0.206 F 
ATOM     57  C   UNL A   1      37.878  31.605  34.867  1.00  0.00     0.022 A 
BRANCH  54  58
ATOM     58  S   UNL A   1      36.106  33.536  33.926  1.00  0.00     0.124 S 
ATOM     59  O   UNL A   1      35.278  32.773  32.998  1.00  0.00    -0.237 OA
ATOM     60  O   UNL A   1      35.728  33.462  35.332  1.00  0.00    -0.237 OA
ATOM     61  O   UNL A   1      36.509  34.861  33.459  1.00  0.00    -0.744 OA
ENDBRANCH  54  58
ENDBRANCH  27  51
BRANCH  39  62
ATOM     62  C   UNL A   1      44.191  37.880  33.170  1.00  0.00     0.023 A 
ATOM     63  C   UNL A   1      43.428  39.031  32.911  1.00  0.00     0.031 A 
ATOM     64  C   UNL A   1      45.036  37.880  34.293  1.00  0.00     0.131 A 
ATOM     65  C   UNL A   1      43.587  40.165  33.717  1.00  0.00     0.055 A 
ATOM     66  C   UNL A   1      45.130  38.985  35.138  1.00  0.00     0.041 A 
ATOM     67  F   UNL A   1      45.788  36.806  34.584  1.00  0.00    -0.206 F 
ATOM     68  C   UNL A   1      44.417  40.143  34.841  1.00  0.00     0.022 A 
BRANCH  65  69
ATOM     69  S   UNL A   1      42.795  41.712  33.199  1.00  0.00     0.124 S 
ATOM     70  O   UNL A   1      42.145  42.145  34.432  1.00  0.00    -0.237 OA
ATOM     71  O   UNL A   1      43.933  42.513  32.762  1.00  0.00    -0.237 OA
ATOM     72  O   UNL A   1      41.887  41.290  32.134  1.00  0.00    -0.744 OA
ENDBRANCH  65  69
ENDBRANCH  39  62
ENDBRANCH  13  14
ENDBRANCH   6   8
ENDBRANCH   5   6
ENDBRANCH   4   5
ENDBRANCH   3   4
ENDBRANCH   2   3
ENDBRANCH   1   2
BRANCH   1  73
ATOM     73  C   UNL A   1      39.088  21.774  26.181  1.00  0.00     0.188 C 
BRANCH  73  74
ATOM     74  O   UNL A   1      38.256  20.988  25.333  1.00  0.00    -0.376 OA
BRANCH  74  75
ATOM     75  C   UNL A   1      37.149  21.629  24.711  1.00  0.00     0.202 C 
BRANCH  75  76
ATOM     76  C   UNL A   1      35.772  21.600  25.402  1.00  0.00     0.261 C 
BRANCH  76  77
ATOM     77  O   UNL A   1      34.677  22.168  24.665  1.00  0.00    -0.462 OA
BRANCH  77  78
ATOM     78  C   UNL A   1      33.927  23.057  25.381  1.00  0.00     0.328 C 
ATOM     79  O   UNL A   1      33.591  22.859  26.546  1.00  0.00    -0.250 OA
BRANCH  78  80
ATOM     80  C   UNL A   1      33.608  24.355  24.580  1.00  0.00     0.193 C 
ATOM     81  C   UNL A   1      33.461  23.987  23.100  1.00  0.00     0.037 C 
ATOM     82  N   UNL A   1      32.351  24.969  25.074  1.00  0.00    -0.343 N 
ATOM     83  C   UNL A   1      32.236  23.104  22.849  1.00  0.00     0.005 C 
ATOM     84  C   UNL A   1      31.129  24.176  24.920  1.00  0.00     0.119 C 
ATOM     85  C   UNL A   1      30.964  23.669  23.485  1.00  0.00     0.022 C 
BRANCH  82  86
ATOM     86  C   UNL A   1      32.171  26.351  25.053  1.00  0.00     0.134 A 
ATOM     87  C   UNL A   1      33.022  27.116  25.833  1.00  0.00     0.076 A 
ATOM     88  N   UNL A   1      31.165  26.917  24.366  1.00  0.00    -0.211 NA
ATOM     89  C   UNL A   1      32.802  28.478  25.899  1.00  0.00     0.076 A 
ATOM     90  C   UNL A   1      31.020  28.258  24.488  1.00  0.00     0.162 A 
ATOM     91  N   UNL A   1      31.793  29.064  25.241  1.00  0.00    -0.228 NA
BRANCH  89  92
ATOM     92  C   UNL A   1      33.665  29.363  26.689  1.00  0.00     0.000 A 
ATOM     93  C   UNL A   1      34.964  28.987  27.064  1.00  0.00     0.010 A 
ATOM     94  C   UNL A   1      33.205  30.627  27.090  1.00  0.00     0.010 A 
ATOM     95  C   UNL A   1      35.780  29.856  27.797  1.00  0.00     0.001 A 
ATOM     96  C   UNL A   1      34.010  31.490  27.837  1.00  0.00     0.001 A 
ATOM     97  C   UNL A   1      35.302  31.107  28.183  1.00  0.00     0.000 A 
ENDBRANCH  89  92
BRANCH  90  98
ATOM     98  C   UNL A   1      29.910  28.926  23.796  1.00  0.00     0.021 A 
ATOM     99  C   UNL A   1      28.831  28.202  23.259  1.00  0.00     0.012 A 
ATOM    100  C   UNL A   1      29.861  30.331  23.722  1.00  0.00     0.032 A 
ATOM    101  C   UNL A   1      27.742  28.858  22.671  1.00  0.00     0.002 A 
ATOM    102  C   UNL A   1      28.783  30.981  23.120  1.00  0.00     0.041 A 
ATOM    103  C   UNL A   1      27.722  30.249  22.596  1.00  0.00     0.020 A 
ATOM    104  Cl  UNL A   1      28.758  32.700  23.044  1.00  0.00    -0.084 Cl
ENDBRANCH  90  98
ENDBRANCH  82  86
ENDBRANCH  78  80
ENDBRANCH  77  78
ENDBRANCH  76  77
ENDBRANCH  75  76
ENDBRANCH  74  75
ENDBRANCH  73  74
ENDBRANCH   1  73
TORSDOF 23
ENDMDL
MODEL 2
REMARK VINA RESULT:     -10.5      1.192      2.924
REMARK SMILES O=C(OCCOCCOCCOC(=O)[C@H]1CCCCN1c1cc(-c2ccccc2)nc(-c2cccc(Cl)c2)n1)c1ccc(-c2c3nc(c(-c4cc(S(=O)(=O)[O-])ccc4F)c4ccc([nH]4)c(-c4cc(S(=O)(=O)[O-])ccc4F)c4nc(c(-c5cc(S(=O)(=O)[O-])ccc5F)c5ccc2[nH]5)C=C4)C=C3)cc1
REMARK SMILES IDX 7 1 6 2 5 3 4 4 3 5 2 6 1 7 40 8 41 9 102 10 42 11 101 12
REMARK SMILES IDX 43 13 44 14 45 15 95 16 46 17 100 18 94 19 96 20 47 21 99 22
REMARK SMILES IDX 93 23 92 24 48 26 80 27 60 28 79 29 61 30 64 31 78 32 97 33
REMARK SMILES IDX 62 34 63 35 77 37 98 38 65 39 49 40 50 41 58 42 51 43 57 44
REMARK SMILES IDX 59 45 56 46 52 47 53 48 54 49 55 50 81 51 82 52 90 53 83 54
REMARK SMILES IDX 89 55 91 56 88 57 84 58 85 59 86 60 87 61 66 62 67 63 75 64
REMARK SMILES IDX 68 65 74 66 76 67 73 68 69 69 70 70 71 71 72 72 8 73 9 74
REMARK SMILES IDX 10 75 11 76 12 77 13 78 14 79 15 80 16 81 20 82 17 83 19 84
REMARK SMILES IDX 18 85 21 86 22 87 39 88 23 89 31 90 30 91 24 92 25 93 29 94
REMARK SMILES IDX 26 95 28 96 27 97 32 98 33 99 38 100 34 101 36 102 35 103
REMARK SMILES IDX 37 104
REMARK H PARENT 96 25 64 36
REMARK Flexibility Score: inf
ROOT
ATOM      1  C   UNL A   1      40.429  21.252  26.397  1.00  0.00     0.188 C 
ENDROOT
BRANCH   1   2
ATOM      2  O   UNL A   1      41.466  21.844  25.615  1.00  0.00    -0.376 OA
BRANCH   2   3
ATOM      3  C   UNL A   1      42.208  22.864  26.295  1.00  0.00     0.202 C 
BRANCH   3   4
ATOM      4  C   UNL A   1      41.506  24.228  26.440  1.00  0.00     0.261 C 
BRANCH   4   5
ATOM      5  O   UNL A   1      41.940  25.210  25.481  1.00  0.00    -0.460 OA
BRANCH   5   6
ATOM      6  C   UNL A   1      43.133  25.859  25.419  1.00  0.00     0.338 C 
ATOM      7  O   UNL A   1      44.058  25.311  24.825  1.00  0.00    -0.246 OA
BRANCH   6   8
ATOM      8  C   UNL A   1      43.395  27.183  26.068  1.00  0.00     0.060 A 
ATOM      9  C   UNL A   1      44.514  27.459  26.842  1.00  0.00     0.016 A 
ATOM     10  C   UNL A   1      42.469  28.225  25.871  1.00  0.00     0.016 A 
ATOM     11  C   UNL A   1      44.654  28.649  27.526  1.00  0.00     0.010 A 
ATOM     12  C   UNL A   1      42.633  29.466  26.508  1.00  0.00     0.010 A 
ATOM     13  C   UNL A   1      43.709  29.658  27.378  1.00  0.00    -0.014 A 
BRANCH  13  14
ATOM     14  C   UNL A   1      43.849  30.795  28.308  1.00  0.00     0.031 A 
ATOM     15  C   UNL A   1      44.897  31.824  28.008  1.00  0.00     0.074 A 
ATOM     16  C   UNL A   1      42.869  31.020  29.205  1.00  0.00     0.049 A 
ATOM     17  N   UNL A   1      45.136  32.960  28.603  1.00  0.00    -0.248 NA
ATOM     18  C   UNL A   1      45.777  31.552  26.858  1.00  0.00     0.031 C 
ATOM     19  C   UNL A   1      41.721  30.132  29.432  1.00  0.00     0.029 A 
ATOM     20  N   UNL A   1      42.631  32.082  30.033  1.00  0.00    -0.354 N 
ATOM     21  C   UNL A   1      46.196  33.534  27.908  1.00  0.00     0.074 A 
ATOM     22  C   UNL A   1      46.569  32.612  26.860  1.00  0.00     0.031 C 
ATOM     23  C   UNL A   1      40.883  30.712  30.304  1.00  0.00     0.029 A 
ATOM     24  C   UNL A   1      41.475  31.959  30.771  1.00  0.00     0.049 A 
ATOM     25  H   UNL A   1      43.230  32.861  30.096  1.00  0.00     0.167 HD
ATOM     26  C   UNL A   1      46.795  34.727  28.131  1.00  0.00     0.034 A 
ATOM     27  C   UNL A   1      40.985  32.748  31.747  1.00  0.00     0.034 A 
ATOM     28  C   UNL A   1      46.405  35.603  29.206  1.00  0.00     0.049 A 
ATOM     29  C   UNL A   1      41.765  33.998  32.076  1.00  0.00     0.074 A 
ATOM     30  C   UNL A   1      46.999  36.776  29.629  1.00  0.00     0.029 A 
ATOM     31  N   UNL A   1      45.307  35.387  30.035  1.00  0.00    -0.354 N 
ATOM     32  N   UNL A   1      42.835  34.483  31.484  1.00  0.00    -0.248 NA
ATOM     33  C   UNL A   1      41.281  34.802  33.201  1.00  0.00     0.031 C 
ATOM     34  C   UNL A   1      46.299  37.234  30.752  1.00  0.00     0.029 A 
ATOM     35  C   UNL A   1      45.219  36.394  30.981  1.00  0.00     0.049 A 
ATOM     36  H   UNL A   1      44.684  34.629  29.960  1.00  0.00     0.167 HD
ATOM     37  C   UNL A   1      43.145  35.658  32.160  1.00  0.00     0.074 A 
ATOM     38  C   UNL A   1      42.120  35.826  33.174  1.00  0.00     0.031 C 
ATOM     39  C   UNL A   1      44.183  36.516  31.981  1.00  0.00     0.034 A 
BRANCH  26  40
ATOM     40  C   UNL A   1      47.976  35.071  27.260  1.00  0.00     0.023 A 
ATOM     41  C   UNL A   1      49.289  34.701  27.607  1.00  0.00     0.031 A 
ATOM     42  C   UNL A   1      47.797  35.859  26.110  1.00  0.00     0.131 A 
ATOM     43  C   UNL A   1      50.373  35.180  26.852  1.00  0.00     0.055 A 
ATOM     44  C   UNL A   1      48.873  36.269  25.321  1.00  0.00     0.041 A 
ATOM     45  F   UNL A   1      46.571  36.272  25.749  1.00  0.00    -0.206 F 
ATOM     46  C   UNL A   1      50.172  35.942  25.698  1.00  0.00     0.022 A 
BRANCH  43  47
ATOM     47  S   UNL A   1      52.055  34.921  27.482  1.00  0.00     0.124 S 
ATOM     48  O   UNL A   1      51.801  34.627  28.891  1.00  0.00    -0.237 OA
ATOM     49  O   UNL A   1      52.528  33.802  26.674  1.00  0.00    -0.237 OA
ATOM     50  O   UNL A   1      52.719  36.197  27.228  1.00  0.00    -0.744 OA
ENDBRANCH  43  47
ENDBRANCH  26  40
BRANCH  27  51
ATOM     51  C   UNL A   1      39.786  32.339  32.543  1.00  0.00     0.023 A 
ATOM     52  C   UNL A   1      38.534  32.950  32.367  1.00  0.00     0.031 A 
ATOM     53  C   UNL A   1      39.903  31.378  33.567  1.00  0.00     0.131 A 
ATOM     54  C   UNL A   1      37.474  32.640  33.238  1.00  0.00     0.055 A 
ATOM     55  C   UNL A   1      38.827  31.022  34.382  1.00  0.00     0.041 A 
ATOM     56  F   UNL A   1      41.075  30.767  33.799  1.00  0.00    -0.206 F 
ATOM     57  C   UNL A   1      37.609  31.670  34.233  1.00  0.00     0.022 A 
BRANCH  54  58
ATOM     58  S   UNL A   1      35.950  33.622  33.140  1.00  0.00     0.124 S 
ATOM     59  O   UNL A   1      35.094  32.941  34.105  1.00  0.00    -0.237 OA
ATOM     60  O   UNL A   1      36.420  34.948  33.524  1.00  0.00    -0.237 OA
ATOM     61  O   UNL A   1      35.547  33.485  31.742  1.00  0.00    -0.744 OA
ENDBRANCH  54  58
ENDBRANCH  27  51
BRANCH  39  62
ATOM     62  C   UNL A   1      44.219  37.720  32.886  1.00  0.00     0.023 A 
ATOM     63  C   UNL A   1      43.532  38.901  32.562  1.00  0.00     0.031 A 
ATOM     64  C   UNL A   1      44.973  37.692  34.072  1.00  0.00     0.131 A 
ATOM     65  C   UNL A   1      43.680  40.035  33.371  1.00  0.00     0.055 A 
ATOM     66  C   UNL A   1      45.052  38.799  34.915  1.00  0.00     0.041 A 
ATOM     67  F   UNL A   1      45.650  36.588  34.428  1.00  0.00    -0.206 F 
ATOM     68  C   UNL A   1      44.418  39.986  34.557  1.00  0.00     0.022 A 
BRANCH  65  69
ATOM     69  S   UNL A   1      43.002  41.611  32.783  1.00  0.00     0.124 S 
ATOM     70  O   UNL A   1      41.897  41.167  31.940  1.00  0.00    -0.237 OA
ATOM     71  O   UNL A   1      42.629  42.273  34.029  1.00  0.00    -0.237 OA
ATOM     72  O   UNL A   1      44.122  42.219  32.069  1.00  0.00    -0.744 OA
ENDBRANCH  65  69
ENDBRANCH  39  62
ENDBRANCH  13  14
ENDBRANCH   6   8
ENDBRANCH   5   6
ENDBRANCH   4   5
ENDBRANCH   3   4
ENDBRANCH   2   3
ENDBRANCH   1   2
BRANCH   1  73
ATOM     73  C   UNL A   1      39.061  21.897  26.177  1.00  0.00     0.188 C 
BRANCH  73  74
ATOM     74  O   UNL A   1      38.072  21.138  25.488  1.00  0.00    -0.376 OA
BRANCH  74  75
ATOM     75  C   UNL A   1      36.880  21.805  25.090  1.00  0.00     0.202 C 
BRANCH  75  76
ATOM     76  C   UNL A   1      35.618  21.686  25.966  1.00  0.00     0.261 C 
BRANCH  76  77
ATOM     77  O   UNL A   1      34.369  21.999  25.329  1.00  0.00    -0.462 OA
BRANCH  77  78
ATOM     78  C   UNL A   1      33.642  22.959  25.972  1.00  0.00     0.328 C 
ATOM     79  O   UNL A   1      33.220  22.820  27.118  1.00  0.00    -0.250 OA
BRANCH  78  80
ATOM     80  C   UNL A   1      33.470  24.253  25.121  1.00  0.00     0.193 C 
ATOM     81  C   UNL A   1      33.545  23.872  23.640  1.00  0.00     0.037 C 
ATOM     82  N   UNL A   1      32.161  24.889  25.412  1.00  0.00    -0.343 N 
ATOM     83  C   UNL A   1      32.359  23.003  23.211  1.00  0.00     0.005 C 
ATOM     84  C   UNL A   1      30.965  24.112  25.079  1.00  0.00     0.119 C 
ATOM     85  C   UNL A   1      31.014  23.593  23.640  1.00  0.00     0.022 C 
BRANCH  82  86
ATOM     86  C   UNL A   1      32.008  26.273  25.352  1.00  0.00     0.134 A 
ATOM     87  C   UNL A   1      31.055  26.772  24.479  1.00  0.00     0.076 A 
ATOM     88  N   UNL A   1      32.803  27.098  26.053  1.00  0.00    -0.211 NA
ATOM     89  C   UNL A   1      30.951  28.142  24.336  1.00  0.00     0.076 A 
ATOM     90  C   UNL A   1      32.635  28.427  25.852  1.00  0.00     0.162 A 
ATOM     91  N   UNL A   1      31.747  28.985  25.008  1.00  0.00    -0.228 NA
BRANCH  89  92
ATOM     92  C   UNL A   1      29.959  28.753  23.445  1.00  0.00     0.000 A 
ATOM     93  C   UNL A   1      30.325  29.675  22.452  1.00  0.00     0.010 A 
ATOM     94  C   UNL A   1      28.601  28.421  23.564  1.00  0.00     0.010 A 
ATOM     95  C   UNL A   1      29.367  30.228  21.596  1.00  0.00     0.001 A 
ATOM     96  C   UNL A   1      27.638  28.984  22.723  1.00  0.00     0.001 A 
ATOM     97  C   UNL A   1      28.023  29.882  21.733  1.00  0.00     0.000 A 
ENDBRANCH  89  92
BRANCH  90  98
ATOM     98  C   UNL A   1      33.506  29.376  26.557  1.00  0.00     0.021 A 
ATOM     99  C   UNL A   1      33.039  30.632  26.981  1.00  0.00     0.012 A 
ATOM    100  C   UNL A   1      34.823  29.015  26.897  1.00  0.00     0.032 A 
ATOM    101  C   UNL A   1      33.858  31.495  27.721  1.00  0.00     0.002 A 
ATOM    102  C   UNL A   1      35.642  29.884  27.619  1.00  0.00     0.041 A 
ATOM    103  C   UNL A   1      35.164  31.123  28.034  1.00  0.00     0.020 A 
ATOM    104  Cl  UNL A   1      37.249  29.410  28.015  1.00  0.00    -0.084 Cl
ENDBRANCH  90  98
ENDBRANCH  82  86
ENDBRANCH  78  80
ENDBRANCH  77  78
ENDBRANCH  76  77
ENDBRANCH  75  76
ENDBRANCH  74  75
ENDBRANCH  73  74
ENDBRANCH   1  73
TORSDOF 23
ENDMDL
MODEL 3
REMARK VINA RESULT:     -10.3      2.129      3.606
REMARK SMILES O=C(OCCOCCOCCOC(=O)[C@H]1CCCCN1c1cc(-c2ccccc2)nc(-c2cccc(Cl)c2)n1)c1ccc(-c2c3nc(c(-c4cc(S(=O)(=O)[O-])ccc4F)c4ccc([nH]4)c(-c4cc(S(=O)(=O)[O-])ccc4F)c4nc(c(-c5cc(S(=O)(=O)[O-])ccc5F)c5ccc2[nH]5)C=C4)C=C3)cc1
REMARK SMILES IDX 7 1 6 2 5 3 4 4 3 5 2 6 1 7 40 8 41 9 102 10 42 11 101 12
REMARK SMILES IDX 43 13 44 14 45 15 95 16 46 17 100 18 94 19 96 20 47 21 99 22
REMARK SMILES IDX 93 23 92 24 48 26 80 27 60 28 79 29 61 30 64 31 78 32 97 33
REMARK SMILES IDX 62 34 63 35 77 37 98 38 65 39 49 40 50 41 58 42 51 43 57 44
REMARK SMILES IDX 59 45 56 46 52 47 53 48 54 49 55 50 81 51 82 52 90 53 83 54
REMARK SMILES IDX 89 55 91 56 88 57 84 58 85 59 86 60 87 61 66 62 67 63 75 64
REMARK SMILES IDX 68 65 74 66 76 67 73 68 69 69 70 70 71 71 72 72 8 73 9 74
REMARK SMILES IDX 10 75 11 76 12 77 13 78 14 79 15 80 16 81 20 82 17 83 19 84
REMARK SMILES IDX 18 85 21 86 22 87 39 88 23 89 31 90 30 91 24 92 25 93 29 94
REMARK SMILES IDX 26 95 28 96 27 97 32 98 33 99 38 100 34 101 36 102 35 103
REMARK SMILES IDX 37 104
REMARK H PARENT 96 25 64 36
REMARK Flexibility Score: inf
ROOT
ATOM      1  C   UNL A   1      40.398  22.187  26.995  1.00  0.00     0.188 C 
ENDROOT
BRANCH   1   2
ATOM      2  O   UNL A   1      41.302  23.257  26.724  1.00  0.00    -0.376 OA
BRANCH   2   3
ATOM      3  C   UNL A   1      42.314  22.944  25.760  1.00  0.00     0.202 C 
BRANCH   3   4
ATOM      4  C   UNL A   1      43.631  22.373  26.321  1.00  0.00     0.261 C 
BRANCH   4   5
ATOM      5  O   UNL A   1      44.771  23.225  26.109  1.00  0.00    -0.460 OA
BRANCH   5   6
ATOM      6  C   UNL A   1      44.790  24.528  25.719  1.00  0.00     0.338 C 
ATOM      7  O   UNL A   1      45.126  24.780  24.565  1.00  0.00    -0.246 OA
BRANCH   6   8
ATOM      8  C   UNL A   1      44.461  25.673  26.628  1.00  0.00     0.060 A 
ATOM      9  C   UNL A   1      44.030  26.916  26.183  1.00  0.00     0.016 A 
ATOM     10  C   UNL A   1      44.571  25.483  28.018  1.00  0.00     0.016 A 
ATOM     11  C   UNL A   1      43.861  27.981  27.044  1.00  0.00     0.010 A 
ATOM     12  C   UNL A   1      44.336  26.541  28.912  1.00  0.00     0.010 A 
ATOM     13  C   UNL A   1      44.026  27.809  28.413  1.00  0.00    -0.014 A 
BRANCH  13  14
ATOM     14  C   UNL A   1      44.025  29.051  29.210  1.00  0.00     0.031 A 
ATOM     15  C   UNL A   1      45.246  29.921  29.158  1.00  0.00     0.074 A 
ATOM     16  C   UNL A   1      42.857  29.496  29.710  1.00  0.00     0.049 A 
ATOM     17  N   UNL A   1      45.442  31.103  29.673  1.00  0.00    -0.248 NA
ATOM     18  C   UNL A   1      46.393  29.401  28.391  1.00  0.00     0.031 C 
ATOM     19  C   UNL A   1      41.585  28.765  29.647  1.00  0.00     0.029 A 
ATOM     20  N   UNL A   1      42.522  30.686  30.297  1.00  0.00    -0.354 N 
ATOM     21  C   UNL A   1      46.733  31.466  29.301  1.00  0.00     0.074 A 
ATOM     22  C   UNL A   1      47.282  30.369  28.537  1.00  0.00     0.031 C 
ATOM     23  C   UNL A   1      40.606  29.542  30.132  1.00  0.00     0.029 A 
ATOM     24  C   UNL A   1      41.190  30.782  30.629  1.00  0.00     0.049 A 
ATOM     25  H   UNL A   1      43.173  31.405  30.467  1.00  0.00     0.167 HD
ATOM     26  C   UNL A   1      47.391  32.616  29.577  1.00  0.00     0.034 A 
ATOM     27  C   UNL A   1      40.535  31.748  31.302  1.00  0.00     0.034 A 
ATOM     28  C   UNL A   1      46.812  33.672  30.367  1.00  0.00     0.049 A 
ATOM     29  C   UNL A   1      41.337  32.952  31.730  1.00  0.00     0.074 A 
ATOM     30  C   UNL A   1      47.400  34.832  30.832  1.00  0.00     0.029 A 
ATOM     31  N   UNL A   1      45.493  33.685  30.812  1.00  0.00    -0.354 N 
ATOM     32  N   UNL A   1      42.594  33.241  31.469  1.00  0.00    -0.248 NA
ATOM     33  C   UNL A   1      40.644  33.953  32.544  1.00  0.00     0.031 C 
ATOM     34  C   UNL A   1      46.457  35.513  31.611  1.00  0.00     0.029 A 
ATOM     35  C   UNL A   1      45.255  34.823  31.565  1.00  0.00     0.049 A 
ATOM     36  H   UNL A   1      44.826  32.987  30.622  1.00  0.00     0.167 HD
ATOM     37  C   UNL A   1      42.838  34.467  32.079  1.00  0.00     0.074 A 
ATOM     38  C   UNL A   1      41.582  34.878  32.681  1.00  0.00     0.031 C 
ATOM     39  C   UNL A   1      43.987  35.187  32.155  1.00  0.00     0.034 A 
BRANCH  26  40
ATOM     40  C   UNL A   1      48.819  32.716  29.105  1.00  0.00     0.023 A 
ATOM     41  C   UNL A   1      49.149  33.227  27.836  1.00  0.00     0.031 A 
ATOM     42  C   UNL A   1      49.861  32.209  29.901  1.00  0.00     0.131 A 
ATOM     43  C   UNL A   1      50.473  33.154  27.375  1.00  0.00     0.055 A 
ATOM     44  C   UNL A   1      51.187  32.208  29.466  1.00  0.00     0.041 A 
ATOM     45  F   UNL A   1      49.603  31.676  31.106  1.00  0.00    -0.206 F 
ATOM     46  C   UNL A   1      51.499  32.668  28.190  1.00  0.00     0.022 A 
BRANCH  43  47
ATOM     47  S   UNL A   1      50.815  33.560  25.639  1.00  0.00     0.124 S 
ATOM     48  O   UNL A   1      49.581  34.234  25.244  1.00  0.00    -0.237 OA
ATOM     49  O   UNL A   1      52.000  34.407  25.739  1.00  0.00    -0.237 OA
ATOM     50  O   UNL A   1      51.032  32.257  25.016  1.00  0.00    -0.744 OA
ENDBRANCH  43  47
ENDBRANCH  26  40
BRANCH  27  51
ATOM     51  C   UNL A   1      39.104  31.576  31.705  1.00  0.00     0.023 A 
ATOM     52  C   UNL A   1      38.076  32.351  31.146  1.00  0.00     0.031 A 
ATOM     53  C   UNL A   1      38.755  30.680  32.736  1.00  0.00     0.131 A 
ATOM     54  C   UNL A   1      36.770  32.261  31.660  1.00  0.00     0.055 A 
ATOM     55  C   UNL A   1      37.444  30.543  33.193  1.00  0.00     0.041 A 
ATOM     56  F   UNL A   1      39.692  29.919  33.325  1.00  0.00    -0.206 F 
ATOM     57  C   UNL A   1      36.445  31.352  32.668  1.00  0.00     0.022 A 
BRANCH  54  58
ATOM     58  S   UNL A   1      35.522  33.447  31.084  1.00  0.00     0.124 S 
ATOM     59  O   UNL A   1      34.311  32.636  31.097  1.00  0.00    -0.237 OA
ATOM     60  O   UNL A   1      35.607  34.490  32.100  1.00  0.00    -0.237 OA
ATOM     61  O   UNL A   1      36.004  33.830  29.758  1.00  0.00    -0.744 OA
ENDBRANCH  54  58
ENDBRANCH  27  51
BRANCH  39  62
ATOM     62  C   UNL A   1      43.906  36.501  32.889  1.00  0.00     0.023 A 
ATOM     63  C   UNL A   1      43.591  37.695  32.220  1.00  0.00     0.031 A 
ATOM     64  C   UNL A   1      44.175  36.560  34.267  1.00  0.00     0.131 A 
ATOM     65  C   UNL A   1      43.634  38.911  32.913  1.00  0.00     0.055 A 
ATOM     66  C   UNL A   1      44.139  37.765  34.968  1.00  0.00     0.041 A 
ATOM     67  F   UNL A   1      44.484  35.448  34.954  1.00  0.00    -0.206 F 
ATOM     68  C   UNL A   1      43.885  38.952  34.287  1.00  0.00     0.022 A 
BRANCH  65  69
ATOM     69  S   UNL A   1      43.488  40.451  31.966  1.00  0.00     0.124 S 
ATOM     70  O   UNL A   1      42.387  41.121  32.650  1.00  0.00    -0.237 OA
ATOM     71  O   UNL A   1      44.807  41.050  32.142  1.00  0.00    -0.237 OA
ATOM     72  O   UNL A   1      43.191  39.992  30.612  1.00  0.00    -0.744 OA
ENDBRANCH  65  69
ENDBRANCH  39  62
ENDBRANCH  13  14
ENDBRANCH   6   8
ENDBRANCH   5   6
ENDBRANCH   4   5
ENDBRANCH   3   4
ENDBRANCH   2   3
ENDBRANCH   1   2
BRANCH   1  73
ATOM     73  C   UNL A   1      39.106  22.263  26.182  1.00  0.00     0.188 C 
BRANCH  73  74
ATOM     74  O   UNL A   1      38.591  21.050  25.639  1.00  0.00    -0.376 OA
BRANCH  74  75
ATOM     75  C   UNL A   1      37.305  21.089  25.031  1.00  0.00     0.202 C 
BRANCH  75  76
ATOM     76  C   UNL A   1      36.335  22.233  25.385  1.00  0.00     0.261 C 
BRANCH  76  77
ATOM     77  O   UNL A   1      35.025  22.160  24.800  1.00  0.00    -0.462 OA
BRANCH  77  78
ATOM     78  C   UNL A   1      34.092  22.931  25.430  1.00  0.00     0.328 C 
ATOM     79  O   UNL A   1      33.567  22.609  26.494  1.00  0.00    -0.250 OA
BRANCH  78  80
ATOM     80  C   UNL A   1      33.823  24.275  24.688  1.00  0.00     0.193 C 
ATOM     81  C   UNL A   1      33.884  24.016  23.180  1.00  0.00     0.037 C 
ATOM     82  N   UNL A   1      32.488  24.808  25.054  1.00  0.00    -0.343 N 
ATOM     83  C   UNL A   1      32.740  23.114  22.708  1.00  0.00     0.005 C 
ATOM     84  C   UNL A   1      31.331  23.988  24.686  1.00  0.00     0.119 C 
ATOM     85  C   UNL A   1      31.374  23.586  23.210  1.00  0.00     0.022 C 
BRANCH  82  86
ATOM     86  C   UNL A   1      32.253  26.180  25.107  1.00  0.00     0.134 A 
ATOM     87  C   UNL A   1      31.255  26.689  24.291  1.00  0.00     0.076 A 
ATOM     88  N   UNL A   1      33.012  26.994  25.860  1.00  0.00    -0.211 NA
ATOM     89  C   UNL A   1      31.069  28.057  24.259  1.00  0.00     0.076 A 
ATOM     90  C   UNL A   1      32.763  28.322  25.768  1.00  0.00     0.162 A 
ATOM     91  N   UNL A   1      31.827  28.890  24.984  1.00  0.00    -0.228 NA
BRANCH  89  92
ATOM     92  C   UNL A   1      30.026  28.676  23.434  1.00  0.00     0.000 A 
ATOM     93  C   UNL A   1      30.301  29.759  22.585  1.00  0.00     0.010 A 
ATOM     94  C   UNL A   1      28.710  28.189  23.473  1.00  0.00     0.010 A 
ATOM     95  C   UNL A   1      29.297  30.319  21.787  1.00  0.00     0.001 A 
ATOM     96  C   UNL A   1      27.701  28.757  22.693  1.00  0.00     0.001 A 
ATOM     97  C   UNL A   1      27.997  29.818  21.843  1.00  0.00     0.000 A 
ENDBRANCH  89  92
BRANCH  90  98
ATOM     98  C   UNL A   1      33.591  29.263  26.533  1.00  0.00     0.021 A 
ATOM     99  C   UNL A   1      33.111  30.528  26.913  1.00  0.00     0.012 A 
ATOM    100  C   UNL A   1      34.872  28.885  26.977  1.00  0.00     0.032 A 
ATOM    101  C   UNL A   1      33.883  31.384  27.710  1.00  0.00     0.002 A 
ATOM    102  C   UNL A   1      35.646  29.747  27.755  1.00  0.00     0.041 A 
ATOM    103  C   UNL A   1      35.154  30.995  28.126  1.00  0.00     0.020 A 
ATOM    104  Cl  UNL A   1      37.209  29.252  28.277  1.00  0.00    -0.084 Cl
ENDBRANCH  90  98
ENDBRANCH  82  86
ENDBRANCH  78  80
ENDBRANCH  77  78
ENDBRANCH  76  77
ENDBRANCH  75  76
ENDBRANCH  74  75
ENDBRANCH  73  74
ENDBRANCH   1  73
TORSDOF 23
ENDMDL
