MODEL 1
REMARK VINA RESULT:     -10.5      0.000      0.000
REMARK SMILES Cc1c(Cl)ccc2c1C=C(C(=O)OCCOCCOCCOC(=O)c1ccc(-c3c4nc(c(-c5cc(S(=O)(=O)[O-])ccc5F)c5ccc([nH]5)c(-c5cc(S(=O)(=O)[O-])ccc5F)c5nc(c(-c6cc(S(=O)(=O)[O-])ccc6F)c6ccc3[nH]6)C=C5)C=C4)cc1)[C@@H](C(F)(F)F)O2
REMARK SMILES IDX 18 1 17 2 16 3 15 4 14 5 13 6 11 7 12 8 10 9 1 10 2 11 3 12
REMARK SMILES IDX 8 13 4 14 5 15 7 16 9 17 6 18 93 19 88 20 89 21 90 22 91 23
REMARK SMILES IDX 92 24 19 25 20 26 21 27 22 28 23 29 24 30 25 31 26 32 87 33
REMARK SMILES IDX 27 34 86 35 28 36 29 37 30 38 80 39 31 40 85 41 79 42 81 43
REMARK SMILES IDX 32 44 84 45 78 46 77 47 33 49 65 50 45 51 64 52 46 53 49 54
REMARK SMILES IDX 63 55 82 56 47 57 48 58 62 60 83 61 50 62 34 63 35 64 43 65
REMARK SMILES IDX 36 66 42 67 44 68 41 69 37 70 38 71 39 72 40 73 66 74 67 75
REMARK SMILES IDX 75 76 68 77 74 78 76 79 73 80 69 81 70 82 71 83 72 84 51 85
REMARK SMILES IDX 52 86 60 87 53 88 59 89 61 90 58 91 54 92 55 93 56 94 57 95
REMARK H PARENT 81 48 49 59
REMARK Flexibility Score: inf
ROOT
ATOM      1  C   UNL A   1      36.276  21.395  24.825  1.00  0.00     0.188 C 
ENDROOT
BRANCH   1   2
ATOM      2  C   UNL A   1      35.051  21.559  25.747  1.00  0.00     0.188 C 
BRANCH   2   3
ATOM      3  O   UNL A   1      35.239  22.568  26.727  1.00  0.00    -0.376 OA
BRANCH   3   4
ATOM      4  C   UNL A   1      34.421  22.493  27.881  1.00  0.00     0.202 C 
BRANCH   4   5
ATOM      5  C   UNL A   1      33.003  21.957  27.652  1.00  0.00     0.261 C 
BRANCH   5   6
ATOM      6  O   UNL A   1      31.966  22.952  27.683  1.00  0.00    -0.460 OA
BRANCH   6   7
ATOM      7  C   UNL A   1      31.275  23.168  26.544  1.00  0.00     0.338 C 
ATOM      8  O   UNL A   1      30.307  22.542  26.151  1.00  0.00    -0.246 OA
BRANCH   7   9
ATOM      9  C   UNL A   1      31.839  24.366  25.879  1.00  0.00     0.087 C 
ATOM     10  C   UNL A   1      31.362  28.253  27.721  1.00  0.00     0.047 C 
ATOM     11  C   UNL A   1      32.005  28.057  26.370  1.00  0.00    -0.021 A 
ATOM     12  C   UNL A   1      32.415  29.167  25.600  1.00  0.00     0.044 A 
ATOM     13  C   UNL A   1      32.177  26.758  25.825  1.00  0.00     0.022 A 
ATOM     14  Cl  UNL A   1      32.131  30.798  26.097  1.00  0.00    -0.084 Cl
ATOM     15  C   UNL A   1      33.056  28.994  24.371  1.00  0.00     0.024 A 
ATOM     16  C   UNL A   1      32.856  26.603  24.606  1.00  0.00     0.128 A 
ATOM     17  C   UNL A   1      31.631  25.556  26.459  1.00  0.00     0.027 C 
ATOM     18  C   UNL A   1      33.299  27.714  23.889  1.00  0.00     0.048 A 
ATOM     19  O   UNL A   1      33.140  25.403  24.022  1.00  0.00    -0.475 OA
ATOM     20  C   UNL A   1      32.642  24.181  24.619  1.00  0.00     0.316 C 
BRANCH  20  21
ATOM     21  C   UNL A   1      31.872  23.411  23.537  1.00  0.00     0.430 C 
ATOM     22  F   UNL A   1      30.574  23.800  23.487  1.00  0.00    -0.167 F 
ATOM     23  F   UNL A   1      32.379  23.621  22.299  1.00  0.00    -0.167 F 
ATOM     24  F   UNL A   1      31.883  22.076  23.755  1.00  0.00    -0.167 F 
ENDBRANCH  20  21
ENDBRANCH   7   9
ENDBRANCH   6   7
ENDBRANCH   5   6
ENDBRANCH   4   5
ENDBRANCH   3   4
ENDBRANCH   2   3
ENDBRANCH   1   2
BRANCH   1  25
ATOM     25  O   UNL A   1      37.139  20.276  24.999  1.00  0.00    -0.376 OA
BRANCH  25  26
ATOM     26  C   UNL A   1      38.502  20.517  25.335  1.00  0.00     0.202 C 
BRANCH  26  27
ATOM     27  C   UNL A   1      39.438  19.311  25.494  1.00  0.00     0.261 C 
BRANCH  27  28
ATOM     28  O   UNL A   1      40.401  19.441  26.555  1.00  0.00    -0.460 OA
BRANCH  28  29
ATOM     29  C   UNL A   1      41.613  19.933  26.190  1.00  0.00     0.338 C 
ATOM     30  O   UNL A   1      42.444  19.397  25.478  1.00  0.00    -0.246 OA
BRANCH  29  31
ATOM     31  C   UNL A   1      41.730  21.333  26.644  1.00  0.00     0.060 A 
ATOM     32  C   UNL A   1      41.567  22.356  25.700  1.00  0.00     0.016 A 
ATOM     33  C   UNL A   1      42.052  21.636  27.968  1.00  0.00     0.016 A 
ATOM     34  C   UNL A   1      41.716  23.687  26.080  1.00  0.00     0.010 A 
ATOM     35  C   UNL A   1      42.238  22.973  28.339  1.00  0.00     0.010 A 
ATOM     36  C   UNL A   1      42.086  24.001  27.393  1.00  0.00    -0.014 A 
BRANCH  36  37
ATOM     37  C   UNL A   1      42.449  25.401  27.720  1.00  0.00     0.031 A 
ATOM     38  C   UNL A   1      43.819  25.898  27.359  1.00  0.00     0.074 A 
ATOM     39  C   UNL A   1      41.555  26.230  28.286  1.00  0.00     0.049 A 
ATOM     40  N   UNL A   1      44.317  27.100  27.479  1.00  0.00    -0.248 NA
ATOM     41  C   UNL A   1      44.745  24.914  26.776  1.00  0.00     0.031 C 
ATOM     42  C   UNL A   1      40.189  25.869  28.658  1.00  0.00     0.029 A 
ATOM     43  N   UNL A   1      41.668  27.550  28.647  1.00  0.00    -0.354 N 
ATOM     44  C   UNL A   1      45.606  27.024  26.969  1.00  0.00     0.074 A 
ATOM     45  C   UNL A   1      45.827  25.650  26.572  1.00  0.00     0.031 C 
ATOM     46  C   UNL A   1      39.592  26.942  29.207  1.00  0.00     0.029 A 
ATOM     47  C   UNL A   1      40.537  28.059  29.239  1.00  0.00     0.049 A 
ATOM     48  H   UNL A   1      42.482  28.082  28.496  1.00  0.00     0.167 HD
ATOM     49  C   UNL A   1      46.518  28.015  26.830  1.00  0.00     0.034 A 
ATOM     50  C   UNL A   1      40.294  29.283  29.754  1.00  0.00     0.034 A 
ATOM     51  C   UNL A   1      46.307  29.373  27.254  1.00  0.00     0.049 A 
ATOM     52  C   UNL A   1      41.356  30.351  29.662  1.00  0.00     0.074 A 
ATOM     53  C   UNL A   1      47.170  30.448  27.137  1.00  0.00     0.029 A 
ATOM     54  N   UNL A   1      45.167  29.842  27.888  1.00  0.00    -0.354 N 
ATOM     55  N   UNL A   1      42.541  30.290  29.100  1.00  0.00    -0.248 NA
ATOM     56  C   UNL A   1      41.049  31.656  30.264  1.00  0.00     0.031 C 
ATOM     57  C   UNL A   1      46.575  31.553  27.749  1.00  0.00     0.029 A 
ATOM     58  C   UNL A   1      45.317  31.183  28.199  1.00  0.00     0.049 A 
ATOM     59  H   UNL A   1      44.368  29.302  28.087  1.00  0.00     0.167 HD
ATOM     60  C   UNL A   1      43.112  31.549  29.266  1.00  0.00     0.074 A 
ATOM     61  C   UNL A   1      42.132  32.360  29.957  1.00  0.00     0.031 C 
ATOM     62  C   UNL A   1      44.337  31.991  28.884  1.00  0.00     0.034 A 
BRANCH  49  63
ATOM     63  C   UNL A   1      47.837  27.678  26.191  1.00  0.00     0.023 A 
ATOM     64  C   UNL A   1      47.972  27.707  24.793  1.00  0.00     0.031 A 
ATOM     65  C   UNL A   1      48.922  27.223  26.962  1.00  0.00     0.131 A 
ATOM     66  C   UNL A   1      49.159  27.259  24.202  1.00  0.00     0.055 A 
ATOM     67  C   UNL A   1      50.115  26.808  26.369  1.00  0.00     0.041 A 
ATOM     68  F   UNL A   1      48.838  27.187  28.302  1.00  0.00    -0.206 F 
ATOM     69  C   UNL A   1      50.233  26.815  24.982  1.00  0.00     0.022 A 
BRANCH  66  70
ATOM     70  S   UNL A   1      49.343  27.206  22.400  1.00  0.00     0.124 S 
ATOM     71  O   UNL A   1      48.545  26.033  22.048  1.00  0.00    -0.237 OA
ATOM     72  O   UNL A   1      48.776  28.489  21.998  1.00  0.00    -0.237 OA
ATOM     73  O   UNL A   1      50.780  27.056  22.200  1.00  0.00    -0.744 OA
ENDBRANCH  66  70
ENDBRANCH  49  63
BRANCH  50  74
ATOM     74  C   UNL A   1      38.967  29.561  30.372  1.00  0.00     0.023 A 
ATOM     75  C   UNL A   1      37.994  30.312  29.687  1.00  0.00     0.031 A 
ATOM     76  C   UNL A   1      38.679  29.139  31.680  1.00  0.00     0.131 A 
ATOM     77  C   UNL A   1      36.803  30.661  30.333  1.00  0.00     0.055 A 
ATOM     78  C   UNL A   1      37.465  29.440  32.299  1.00  0.00     0.041 A 
ATOM     79  F   UNL A   1      39.579  28.425  32.372  1.00  0.00    -0.206 F 
ATOM     80  C   UNL A   1      36.523  30.216  31.629  1.00  0.00     0.022 A 
BRANCH  77  81
ATOM     81  S   UNL A   1      35.609  31.775  29.542  1.00  0.00     0.124 S 
ATOM     82  O   UNL A   1      36.475  32.814  28.993  1.00  0.00    -0.237 OA
ATOM     83  O   UNL A   1      34.987  30.889  28.561  1.00  0.00    -0.237 OA
ATOM     84  O   UNL A   1      34.746  32.193  30.641  1.00  0.00    -0.744 OA
ENDBRANCH  77  81
ENDBRANCH  50  74
BRANCH  62  85
ATOM     85  C   UNL A   1      44.725  33.414  29.204  1.00  0.00     0.023 A 
ATOM     86  C   UNL A   1      45.307  33.730  30.447  1.00  0.00     0.031 A 
ATOM     87  C   UNL A   1      44.387  34.471  28.341  1.00  0.00     0.131 A 
ATOM     88  C   UNL A   1      45.500  35.069  30.807  1.00  0.00     0.055 A 
ATOM     89  C   UNL A   1      44.622  35.802  28.685  1.00  0.00     0.041 A 
ATOM     90  F   UNL A   1      43.822  34.221  27.148  1.00  0.00    -0.206 F 
ATOM     91  C   UNL A   1      45.168  36.107  29.929  1.00  0.00     0.022 A 
BRANCH  88  92
ATOM     92  S   UNL A   1      46.123  35.521  32.450  1.00  0.00     0.124 S 
ATOM     93  O   UNL A   1      45.776  34.342  33.240  1.00  0.00    -0.237 OA
ATOM     94  O   UNL A   1      47.550  35.705  32.197  1.00  0.00    -0.237 OA
ATOM     95  O   UNL A   1      45.384  36.733  32.786  1.00  0.00    -0.744 OA
ENDBRANCH  88  92
ENDBRANCH  62  85
ENDBRANCH  36  37
ENDBRANCH  29  31
ENDBRANCH  28  29
ENDBRANCH  27  28
ENDBRANCH  26  27
ENDBRANCH  25  26
ENDBRANCH   1  25
TORSDOF 21
ENDMDL
MODEL 2
REMARK VINA RESULT:     -10.4      2.002      2.442
REMARK SMILES Cc1c(Cl)ccc2c1C=C(C(=O)OCCOCCOCCOC(=O)c1ccc(-c3c4nc(c(-c5cc(S(=O)(=O)[O-])ccc5F)c5ccc([nH]5)c(-c5cc(S(=O)(=O)[O-])ccc5F)c5nc(c(-c6cc(S(=O)(=O)[O-])ccc6F)c6ccc3[nH]6)C=C5)C=C4)cc1)[C@@H](C(F)(F)F)O2
REMARK SMILES IDX 18 1 17 2 16 3 15 4 14 5 13 6 11 7 12 8 10 9 1 10 2 11 3 12
REMARK SMILES IDX 8 13 4 14 5 15 7 16 9 17 6 18 93 19 88 20 89 21 90 22 91 23
REMARK SMILES IDX 92 24 19 25 20 26 21 27 22 28 23 29 24 30 25 31 26 32 87 33
REMARK SMILES IDX 27 34 86 35 28 36 29 37 30 38 80 39 31 40 85 41 79 42 81 43
REMARK SMILES IDX 32 44 84 45 78 46 77 47 33 49 65 50 45 51 64 52 46 53 49 54
REMARK SMILES IDX 63 55 82 56 47 57 48 58 62 60 83 61 50 62 34 63 35 64 43 65
REMARK SMILES IDX 36 66 42 67 44 68 41 69 37 70 38 71 39 72 40 73 66 74 67 75
REMARK SMILES IDX 75 76 68 77 74 78 76 79 73 80 69 81 70 82 71 83 72 84 51 85
REMARK SMILES IDX 52 86 60 87 53 88 59 89 61 90 58 91 54 92 55 93 56 94 57 95
REMARK H PARENT 81 48 49 59
REMARK Flexibility Score: inf
ROOT
ATOM      1  C   UNL A   1      35.141  20.917  24.811  1.00  0.00     0.188 C 
ENDROOT
BRANCH   1   2
ATOM      2  C   UNL A   1      33.841  20.103  24.976  1.00  0.00     0.188 C 
BRANCH   2   3
ATOM      3  O   UNL A   1      32.747  20.906  25.394  1.00  0.00    -0.376 OA
BRANCH   3   4
ATOM      4  C   UNL A   1      32.273  21.865  24.465  1.00  0.00     0.202 C 
BRANCH   4   5
ATOM      5  C   UNL A   1      31.576  23.086  25.076  1.00  0.00     0.261 C 
BRANCH   5   6
ATOM      6  O   UNL A   1      30.872  23.916  24.136  1.00  0.00    -0.460 OA
BRANCH   6   7
ATOM      7  C   UNL A   1      31.605  24.766  23.385  1.00  0.00     0.338 C 
ATOM      8  O   UNL A   1      32.174  24.505  22.339  1.00  0.00    -0.246 OA
BRANCH   7   9
ATOM      9  C   UNL A   1      31.531  26.111  24.000  1.00  0.00     0.087 C 
ATOM     10  C   UNL A   1      28.794  29.050  22.386  1.00  0.00     0.047 C 
ATOM     11  C   UNL A   1      29.760  29.353  23.506  1.00  0.00    -0.021 A 
ATOM     12  C   UNL A   1      29.866  30.660  24.029  1.00  0.00     0.044 A 
ATOM     13  C   UNL A   1      30.609  28.345  24.030  1.00  0.00     0.022 A 
ATOM     14  Cl  UNL A   1      28.985  31.996  23.377  1.00  0.00    -0.084 Cl
ATOM     15  C   UNL A   1      30.721  30.939  25.098  1.00  0.00     0.024 A 
ATOM     16  C   UNL A   1      31.433  28.637  25.128  1.00  0.00     0.128 A 
ATOM     17  C   UNL A   1      30.704  27.007  23.443  1.00  0.00     0.027 C 
ATOM     18  C   UNL A   1      31.482  29.923  25.662  1.00  0.00     0.048 A 
ATOM     19  O   UNL A   1      32.238  27.732  25.757  1.00  0.00    -0.475 OA
ATOM     20  C   UNL A   1      32.352  26.388  25.230  1.00  0.00     0.316 C 
BRANCH  20  21
ATOM     21  C   UNL A   1      33.845  26.091  25.023  1.00  0.00     0.430 C 
ATOM     22  F   UNL A   1      34.600  26.683  25.983  1.00  0.00    -0.167 F 
ATOM     23  F   UNL A   1      34.118  24.767  25.087  1.00  0.00    -0.167 F 
ATOM     24  F   UNL A   1      34.292  26.538  23.828  1.00  0.00    -0.167 F 
ENDBRANCH  20  21
ENDBRANCH   7   9
ENDBRANCH   6   7
ENDBRANCH   5   6
ENDBRANCH   4   5
ENDBRANCH   3   4
ENDBRANCH   2   3
ENDBRANCH   1   2
BRANCH   1  25
ATOM     25  O   UNL A   1      36.358  20.239  24.515  1.00  0.00    -0.376 OA
BRANCH  25  26
ATOM     26  C   UNL A   1      37.540  20.637  25.201  1.00  0.00     0.202 C 
BRANCH  26  27
ATOM     27  C   UNL A   1      38.667  19.608  25.372  1.00  0.00     0.261 C 
BRANCH  27  28
ATOM     28  O   UNL A   1      39.493  19.818  26.530  1.00  0.00    -0.460 OA
BRANCH  28  29
ATOM     29  C   UNL A   1      40.774  20.193  26.277  1.00  0.00     0.338 C 
ATOM     30  O   UNL A   1      41.608  19.584  25.630  1.00  0.00    -0.246 OA
BRANCH  29  31
ATOM     31  C   UNL A   1      40.985  21.572  26.760  1.00  0.00     0.060 A 
ATOM     32  C   UNL A   1      40.619  22.635  25.923  1.00  0.00     0.016 A 
ATOM     33  C   UNL A   1      41.586  21.818  27.995  1.00  0.00     0.016 A 
ATOM     34  C   UNL A   1      40.846  23.948  26.323  1.00  0.00     0.010 A 
ATOM     35  C   UNL A   1      41.847  23.138  28.380  1.00  0.00     0.010 A 
ATOM     36  C   UNL A   1      41.492  24.207  27.539  1.00  0.00    -0.014 A 
BRANCH  36  37
ATOM     37  C   UNL A   1      41.915  25.594  27.845  1.00  0.00     0.031 A 
ATOM     38  C   UNL A   1      43.270  26.056  27.390  1.00  0.00     0.074 A 
ATOM     39  C   UNL A   1      41.087  26.444  28.475  1.00  0.00     0.049 A 
ATOM     40  N   UNL A   1      43.808  27.243  27.480  1.00  0.00    -0.248 NA
ATOM     41  C   UNL A   1      44.126  25.050  26.740  1.00  0.00     0.031 C 
ATOM     42  C   UNL A   1      39.741  26.118  28.941  1.00  0.00     0.029 A 
ATOM     43  N   UNL A   1      41.261  27.758  28.833  1.00  0.00    -0.354 N 
ATOM     44  C   UNL A   1      45.056  27.135  26.880  1.00  0.00     0.074 A 
ATOM     45  C   UNL A   1      45.211  25.758  26.463  1.00  0.00     0.031 C 
ATOM     46  C   UNL A   1      39.214  27.203  29.535  1.00  0.00     0.029 A 
ATOM     47  C   UNL A   1      40.189  28.294  29.506  1.00  0.00     0.049 A 
ATOM     48  H   UNL A   1      42.077  28.269  28.627  1.00  0.00     0.167 HD
ATOM     49  C   UNL A   1      45.983  28.101  26.681  1.00  0.00     0.034 A 
ATOM     50  C   UNL A   1      40.016  29.521  30.041  1.00  0.00     0.034 A 
ATOM     51  C   UNL A   1      45.839  29.462  27.125  1.00  0.00     0.049 A 
ATOM     52  C   UNL A   1      41.099  30.560  29.878  1.00  0.00     0.074 A 
ATOM     53  C   UNL A   1      46.721  30.514  26.951  1.00  0.00     0.029 A 
ATOM     54  N   UNL A   1      44.760  29.959  27.838  1.00  0.00    -0.354 N 
ATOM     55  N   UNL A   1      42.239  30.471  29.234  1.00  0.00    -0.248 NA
ATOM     56  C   UNL A   1      40.871  31.870  30.506  1.00  0.00     0.031 C 
ATOM     57  C   UNL A   1      46.202  31.631  27.607  1.00  0.00     0.029 A 
ATOM     58  C   UNL A   1      44.969  31.293  28.144  1.00  0.00     0.049 A 
ATOM     59  H   UNL A   1      43.962  29.440  28.091  1.00  0.00     0.167 HD
ATOM     60  C   UNL A   1      42.854  31.713  29.364  1.00  0.00     0.074 A 
ATOM     61  C   UNL A   1      41.948  32.546  30.126  1.00  0.00     0.031 C 
ATOM     62  C   UNL A   1      44.062  32.123  28.899  1.00  0.00     0.034 A 
BRANCH  49  63
ATOM     63  C   UNL A   1      47.244  27.733  25.950  1.00  0.00     0.023 A 
ATOM     64  C   UNL A   1      47.329  27.906  24.557  1.00  0.00     0.031 A 
ATOM     65  C   UNL A   1      48.314  27.109  26.615  1.00  0.00     0.131 A 
ATOM     66  C   UNL A   1      48.450  27.433  23.868  1.00  0.00     0.055 A 
ATOM     67  C   UNL A   1      49.444  26.667  25.928  1.00  0.00     0.041 A 
ATOM     68  F   UNL A   1      48.276  26.930  27.946  1.00  0.00    -0.206 F 
ATOM     69  C   UNL A   1      49.511  26.820  24.546  1.00  0.00     0.022 A 
BRANCH  66  70
ATOM     70  S   UNL A   1      48.563  27.566  22.064  1.00  0.00     0.124 S 
ATOM     71  O   UNL A   1      48.786  26.175  21.671  1.00  0.00    -0.237 OA
ATOM     72  O   UNL A   1      47.254  28.109  21.717  1.00  0.00    -0.237 OA
ATOM     73  O   UNL A   1      49.698  28.457  21.849  1.00  0.00    -0.744 OA
ENDBRANCH  66  70
ENDBRANCH  49  63
BRANCH  50  74
ATOM     74  C   UNL A   1      38.744  29.832  30.752  1.00  0.00     0.023 A 
ATOM     75  C   UNL A   1      37.750  30.618  30.142  1.00  0.00     0.031 A 
ATOM     76  C   UNL A   1      38.535  29.405  32.074  1.00  0.00     0.131 A 
ATOM     77  C   UNL A   1      36.616  30.995  30.872  1.00  0.00     0.055 A 
ATOM     78  C   UNL A   1      37.377  29.736  32.778  1.00  0.00     0.041 A 
ATOM     79  F   UNL A   1      39.460  28.659  32.696  1.00  0.00    -0.206 F 
ATOM     80  C   UNL A   1      36.414  30.545  32.181  1.00  0.00     0.022 A 
BRANCH  77  81
ATOM     81  S   UNL A   1      35.404  32.150  30.174  1.00  0.00     0.124 S 
ATOM     82  O   UNL A   1      36.231  33.312  29.861  1.00  0.00    -0.237 OA
ATOM     83  O   UNL A   1      34.911  31.398  29.024  1.00  0.00    -0.237 OA
ATOM     84  O   UNL A   1      34.444  32.337  31.256  1.00  0.00    -0.744 OA
ENDBRANCH  77  81
ENDBRANCH  50  74
BRANCH  62  85
ATOM     85  C   UNL A   1      44.511  33.534  29.196  1.00  0.00     0.023 A 
ATOM     86  C   UNL A   1      44.160  34.587  28.329  1.00  0.00     0.031 A 
ATOM     87  C   UNL A   1      45.400  33.807  30.250  1.00  0.00     0.131 A 
ATOM     88  C   UNL A   1      44.725  35.856  28.511  1.00  0.00     0.055 A 
ATOM     89  C   UNL A   1      45.926  35.083  30.452  1.00  0.00     0.041 A 
ATOM     90  F   UNL A   1      45.771  32.833  31.097  1.00  0.00    -0.206 F 
ATOM     91  C   UNL A   1      45.600  36.112  29.573  1.00  0.00     0.022 A 
BRANCH  88  92
ATOM     92  S   UNL A   1      44.403  37.204  27.340  1.00  0.00     0.124 S 
ATOM     93  O   UNL A   1      44.119  38.322  28.237  1.00  0.00    -0.237 OA
ATOM     94  O   UNL A   1      45.668  37.291  26.617  1.00  0.00    -0.237 OA
ATOM     95  O   UNL A   1      43.264  36.730  26.561  1.00  0.00    -0.744 OA
ENDBRANCH  88  92
ENDBRANCH  62  85
ENDBRANCH  36  37
ENDBRANCH  29  31
ENDBRANCH  28  29
ENDBRANCH  27  28
ENDBRANCH  26  27
ENDBRANCH  25  26
ENDBRANCH   1  25
TORSDOF 21
ENDMDL
MODEL 3
REMARK VINA RESULT:     -10.2      6.291     11.601
REMARK SMILES Cc1c(Cl)ccc2c1C=C(C(=O)OCCOCCOCCOC(=O)c1ccc(-c3c4nc(c(-c5cc(S(=O)(=O)[O-])ccc5F)c5ccc([nH]5)c(-c5cc(S(=O)(=O)[O-])ccc5F)c5nc(c(-c6cc(S(=O)(=O)[O-])ccc6F)c6ccc3[nH]6)C=C5)C=C4)cc1)[C@@H](C(F)(F)F)O2
REMARK SMILES IDX 18 1 17 2 16 3 15 4 14 5 13 6 11 7 12 8 10 9 1 10 2 11 3 12
REMARK SMILES IDX 8 13 4 14 5 15 7 16 9 17 6 18 93 19 88 20 89 21 90 22 91 23
REMARK SMILES IDX 92 24 19 25 20 26 21 27 22 28 23 29 24 30 25 31 26 32 87 33
REMARK SMILES IDX 27 34 86 35 28 36 29 37 30 38 80 39 31 40 85 41 79 42 81 43
REMARK SMILES IDX 32 44 84 45 78 46 77 47 33 49 65 50 45 51 64 52 46 53 49 54
REMARK SMILES IDX 63 55 82 56 47 57 48 58 62 60 83 61 50 62 34 63 35 64 43 65
REMARK SMILES IDX 36 66 42 67 44 68 41 69 37 70 38 71 39 72 40 73 66 74 67 75
REMARK SMILES IDX 75 76 68 77 74 78 76 79 73 80 69 81 70 82 71 83 72 84 51 85
REMARK SMILES IDX 52 86 60 87 53 88 59 89 61 90 58 91 54 92 55 93 56 94 57 95
REMARK H PARENT 81 48 49 59
REMARK Flexibility Score: inf
ROOT
ATOM      1  C   UNL A   1      35.403  33.661  28.577  1.00  0.00     0.188 C 
ENDROOT
BRANCH   1   2
ATOM      2  C   UNL A   1      34.867  32.556  29.511  1.00  0.00     0.188 C 
BRANCH   2   3
ATOM      3  O   UNL A   1      34.096  31.586  28.818  1.00  0.00    -0.376 OA
BRANCH   3   4
ATOM      4  C   UNL A   1      34.646  31.079  27.616  1.00  0.00     0.202 C 
BRANCH   4   5
ATOM      5  C   UNL A   1      34.660  29.551  27.489  1.00  0.00     0.261 C 
BRANCH   5   6
ATOM      6  O   UNL A   1      33.847  29.023  26.427  1.00  0.00    -0.460 OA
BRANCH   6   7
ATOM      7  C   UNL A   1      32.911  28.107  26.755  1.00  0.00     0.338 C 
ATOM      8  O   UNL A   1      32.099  28.190  27.659  1.00  0.00    -0.246 OA
BRANCH   7   9
ATOM      9  C   UNL A   1      32.974  27.005  25.767  1.00  0.00     0.087 C 
ATOM     10  C   UNL A   1      36.300  24.237  25.862  1.00  0.00     0.047 C 
ATOM     11  C   UNL A   1      35.225  24.196  24.802  1.00  0.00    -0.021 A 
ATOM     12  C   UNL A   1      35.308  23.281  23.730  1.00  0.00     0.044 A 
ATOM     13  C   UNL A   1      34.132  25.099  24.836  1.00  0.00     0.022 A 
ATOM     14  Cl  UNL A   1      36.662  22.231  23.507  1.00  0.00    -0.084 Cl
ATOM     15  C   UNL A   1      34.294  23.202  22.773  1.00  0.00     0.024 A 
ATOM     16  C   UNL A   1      33.105  24.978  23.887  1.00  0.00     0.128 A 
ATOM     17  C   UNL A   1      34.043  26.197  25.801  1.00  0.00     0.027 C 
ATOM     18  C   UNL A   1      33.183  24.030  22.868  1.00  0.00     0.048 A 
ATOM     19  O   UNL A   1      31.975  25.742  23.864  1.00  0.00    -0.475 OA
ATOM     20  C   UNL A   1      31.826  26.829  24.809  1.00  0.00     0.316 C 
BRANCH  20  21
ATOM     21  C   UNL A   1      31.521  28.105  24.012  1.00  0.00     0.430 C 
ATOM     22  F   UNL A   1      30.764  27.832  22.919  1.00  0.00    -0.167 F 
ATOM     23  F   UNL A   1      30.826  29.011  24.739  1.00  0.00    -0.167 F 
ATOM     24  F   UNL A   1      32.647  28.716  23.578  1.00  0.00    -0.167 F 
ENDBRANCH  20  21
ENDBRANCH   7   9
ENDBRANCH   6   7
ENDBRANCH   5   6
ENDBRANCH   4   5
ENDBRANCH   3   4
ENDBRANCH   2   3
ENDBRANCH   1   2
BRANCH   1  25
ATOM     25  O   UNL A   1      34.632  34.841  28.374  1.00  0.00    -0.376 OA
BRANCH  25  26
ATOM     26  C   UNL A   1      33.277  34.849  28.813  1.00  0.00     0.202 C 
BRANCH  26  27
ATOM     27  C   UNL A   1      32.756  36.093  29.546  1.00  0.00     0.261 C 
BRANCH  27  28
ATOM     28  O   UNL A   1      33.387  36.346  30.813  1.00  0.00    -0.460 OA
BRANCH  28  29
ATOM     29  C   UNL A   1      32.998  35.538  31.833  1.00  0.00     0.338 C 
ATOM     30  O   UNL A   1      31.859  35.250  32.155  1.00  0.00    -0.246 OA
BRANCH  29  31
ATOM     31  C   UNL A   1      34.186  34.887  32.422  1.00  0.00     0.060 A 
ATOM     32  C   UNL A   1      35.451  35.411  32.121  1.00  0.00     0.016 A 
ATOM     33  C   UNL A   1      34.063  33.744  33.213  1.00  0.00     0.016 A 
ATOM     34  C   UNL A   1      36.597  34.797  32.619  1.00  0.00     0.010 A 
ATOM     35  C   UNL A   1      35.218  33.107  33.683  1.00  0.00     0.010 A 
ATOM     36  C   UNL A   1      36.488  33.622  33.374  1.00  0.00    -0.014 A 
BRANCH  36  37
ATOM     37  C   UNL A   1      37.720  32.870  33.710  1.00  0.00     0.031 A 
ATOM     38  C   UNL A   1      38.484  33.244  34.947  1.00  0.00     0.074 A 
ATOM     39  C   UNL A   1      38.127  31.838  32.951  1.00  0.00     0.049 A 
ATOM     40  N   UNL A   1      39.537  32.674  35.470  1.00  0.00    -0.248 NA
ATOM     41  C   UNL A   1      37.991  34.410  35.699  1.00  0.00     0.031 C 
ATOM     42  C   UNL A   1      37.454  31.366  31.742  1.00  0.00     0.029 A 
ATOM     43  N   UNL A   1      39.207  31.002  33.087  1.00  0.00    -0.354 N 
ATOM     44  C   UNL A   1      39.821  33.394  36.622  1.00  0.00     0.074 A 
ATOM     45  C   UNL A   1      38.853  34.466  36.704  1.00  0.00     0.031 C 
ATOM     46  C   UNL A   1      38.145  30.328  31.240  1.00  0.00     0.029 A 
ATOM     47  C   UNL A   1      39.316  30.072  32.080  1.00  0.00     0.049 A 
ATOM     48  H   UNL A   1      39.844  31.062  33.835  1.00  0.00     0.167 HD
ATOM     49  C   UNL A   1      40.792  33.172  37.538  1.00  0.00     0.034 A 
ATOM     50  C   UNL A   1      40.255  29.128  31.858  1.00  0.00     0.034 A 
ATOM     51  C   UNL A   1      41.772  32.124  37.438  1.00  0.00     0.049 A 
ATOM     52  C   UNL A   1      41.377  28.951  32.852  1.00  0.00     0.074 A 
ATOM     53  C   UNL A   1      42.784  31.813  38.330  1.00  0.00     0.029 A 
ATOM     54  N   UNL A   1      41.878  31.228  36.385  1.00  0.00    -0.354 N 
ATOM     55  N   UNL A   1      41.585  29.583  33.983  1.00  0.00    -0.248 NA
ATOM     56  C   UNL A   1      42.388  27.928  32.547  1.00  0.00     0.031 C 
ATOM     57  C   UNL A   1      43.535  30.768  37.790  1.00  0.00     0.029 A 
ATOM     58  C   UNL A   1      42.959  30.387  36.588  1.00  0.00     0.049 A 
ATOM     59  H   UNL A   1      41.274  31.196  35.609  1.00  0.00     0.167 HD
ATOM     60  C   UNL A   1      42.737  29.025  34.531  1.00  0.00     0.074 A 
ATOM     61  C   UNL A   1      43.166  27.984  33.620  1.00  0.00     0.031 C 
ATOM     62  C   UNL A   1      43.382  29.348  35.680  1.00  0.00     0.034 A 
BRANCH  49  63
ATOM     63  C   UNL A   1      40.853  34.075  38.739  1.00  0.00     0.023 A 
ATOM     64  C   UNL A   1      39.976  33.873  39.819  1.00  0.00     0.031 A 
ATOM     65  C   UNL A   1      41.700  35.197  38.762  1.00  0.00     0.131 A 
ATOM     66  C   UNL A   1      39.945  34.800  40.867  1.00  0.00     0.055 A 
ATOM     67  C   UNL A   1      41.688  36.100  39.825  1.00  0.00     0.041 A 
ATOM     68  F   UNL A   1      42.559  35.422  37.753  1.00  0.00    -0.206 F 
ATOM     69  C   UNL A   1      40.800  35.908  40.879  1.00  0.00     0.022 A 
BRANCH  66  70
ATOM     70  S   UNL A   1      38.774  34.619  42.239  1.00  0.00     0.124 S 
ATOM     71  O   UNL A   1      38.842  35.936  42.870  1.00  0.00    -0.237 OA
ATOM     72  O   UNL A   1      37.528  34.326  41.538  1.00  0.00    -0.237 OA
ATOM     73  O   UNL A   1      39.329  33.527  43.031  1.00  0.00    -0.744 OA
ENDBRANCH  66  70
ENDBRANCH  49  63
BRANCH  50  74
ATOM     74  C   UNL A   1      40.142  28.258  30.654  1.00  0.00     0.023 A 
ATOM     75  C   UNL A   1      40.900  28.522  29.499  1.00  0.00     0.031 A 
ATOM     76  C   UNL A   1      39.226  27.194  30.618  1.00  0.00     0.131 A 
ATOM     77  C   UNL A   1      40.689  27.764  28.341  1.00  0.00     0.055 A 
ATOM     78  C   UNL A   1      39.061  26.404  29.480  1.00  0.00     0.041 A 
ATOM     79  F   UNL A   1      38.478  26.911  31.695  1.00  0.00    -0.206 F 
ATOM     80  C   UNL A   1      39.788  26.695  28.328  1.00  0.00     0.022 A 
BRANCH  77  81
ATOM     81  S   UNL A   1      41.521  28.192  26.787  1.00  0.00     0.124 S 
ATOM     82  O   UNL A   1      40.529  29.039  26.130  1.00  0.00    -0.237 OA
ATOM     83  O   UNL A   1      42.715  28.879  27.272  1.00  0.00    -0.237 OA
ATOM     84  O   UNL A   1      41.758  26.899  26.155  1.00  0.00    -0.744 OA
ENDBRANCH  77  81
ENDBRANCH  50  74
BRANCH  62  85
ATOM     85  C   UNL A   1      44.638  28.591  36.043  1.00  0.00     0.023 A 
ATOM     86  C   UNL A   1      44.566  27.448  36.863  1.00  0.00     0.031 A 
ATOM     87  C   UNL A   1      45.908  29.084  35.700  1.00  0.00     0.131 A 
ATOM     88  C   UNL A   1      45.742  26.857  37.341  1.00  0.00     0.055 A 
ATOM     89  C   UNL A   1      47.078  28.466  36.143  1.00  0.00     0.041 A 
ATOM     90  F   UNL A   1      46.029  30.177  34.928  1.00  0.00    -0.206 F 
ATOM     91  C   UNL A   1      46.999  27.356  36.978  1.00  0.00     0.022 A 
BRANCH  88  92
ATOM     92  S   UNL A   1      45.691  25.466  38.504  1.00  0.00     0.124 S 
ATOM     93  O   UNL A   1      47.103  25.300  38.839  1.00  0.00    -0.237 OA
ATOM     94  O   UNL A   1      44.853  25.993  39.576  1.00  0.00    -0.237 OA
ATOM     95  O   UNL A   1      45.106  24.379  37.726  1.00  0.00    -0.744 OA
ENDBRANCH  88  92
ENDBRANCH  62  85
ENDBRANCH  36  37
ENDBRANCH  29  31
ENDBRANCH  28  29
ENDBRANCH  27  28
ENDBRANCH  26  27
ENDBRANCH  25  26
ENDBRANCH   1  25
TORSDOF 21
ENDMDL
