MODEL 1
REMARK VINA RESULT:     -10.5      0.000      0.000
REMARK SMILES Cc1ccc(C)n1-c1ccccc1S[C@H](C)C(=O)OCCOCCOCCOC(=O)c1ccc(-c2c3nc(c(-c4cc(S(=O)(=O)[O-])ccc4F)c4ccc([nH]4)c(-c4cc(S(=O)(=O)[O-])ccc4F)c4nc(c(-c5cc(S(=O)(=O)[O-])ccc5F)c5ccc2[nH]5)C=C4)C=C3)cc1
REMARK SMILES IDX 23 1 22 2 21 3 20 4 19 5 17 6 18 7 15 8 16 9 14 10 13 11
REMARK SMILES IDX 8 12 9 13 10 14 12 15 11 16 7 17 1 18 2 19 3 20 4 21 5 22
REMARK SMILES IDX 6 23 24 24 25 25 26 26 27 27 28 28 29 29 30 30 31 31 32 32
REMARK SMILES IDX 93 33 33 34 92 35 34 36 35 37 36 38 86 39 37 40 91 41 85 42
REMARK SMILES IDX 87 43 38 44 90 45 84 46 83 47 39 49 71 50 51 51 70 52 52 53
REMARK SMILES IDX 55 54 69 55 88 56 53 57 54 58 68 60 89 61 56 62 40 63 41 64
REMARK SMILES IDX 49 65 42 66 48 67 50 68 47 69 43 70 44 71 45 72 46 73 72 74
REMARK SMILES IDX 73 75 81 76 74 77 80 78 82 79 79 80 75 81 76 82 77 83 78 84
REMARK SMILES IDX 57 85 58 86 66 87 59 88 65 89 67 90 64 91 60 92 61 93 62 94
REMARK SMILES IDX 63 95
REMARK H PARENT 87 48 55 59
REMARK Flexibility Score: inf
ROOT
ATOM      1  C   UNL A   1      31.688  29.902  25.747  1.00  0.00     0.188 C 
ENDROOT
BRANCH   1   2
ATOM      2  O   UNL A   1      32.276  28.674  26.137  1.00  0.00    -0.376 OA
BRANCH   2   3
ATOM      3  C   UNL A   1      31.520  27.664  26.794  1.00  0.00     0.202 C 
BRANCH   3   4
ATOM      4  C   UNL A   1      31.211  26.310  26.149  1.00  0.00     0.261 C 
BRANCH   4   5
ATOM      5  O   UNL A   1      31.485  26.230  24.748  1.00  0.00    -0.462 OA
BRANCH   5   6
ATOM      6  C   UNL A   1      31.162  25.036  24.181  1.00  0.00     0.319 C 
ATOM      7  O   UNL A   1      30.596  24.121  24.776  1.00  0.00    -0.251 OA
BRANCH   6   8
ATOM      8  C   UNL A   1      31.571  24.929  22.722  1.00  0.00     0.158 C 
ATOM      9  C   UNL A   1      31.409  26.120  21.785  1.00  0.00     0.032 C 
BRANCH   8  10
ATOM     10  S   UNL A   1      33.226  24.161  22.649  1.00  0.00    -0.109 SA
BRANCH  10  11
ATOM     11  C   UNL A   1      33.079  22.429  23.113  1.00  0.00     0.032 A 
ATOM     12  C   UNL A   1      33.848  21.927  24.192  1.00  0.00     0.059 A 
ATOM     13  C   UNL A   1      33.759  20.584  24.600  1.00  0.00     0.028 A 
ATOM     14  C   UNL A   1      32.899  19.712  23.940  1.00  0.00     0.002 A 
ATOM     15  C   UNL A   1      32.246  21.514  22.456  1.00  0.00     0.017 A 
ATOM     16  C   UNL A   1      32.152  20.176  22.864  1.00  0.00     0.001 A 
BRANCH  12  17
ATOM     17  N   UNL A   1      34.823  22.736  24.836  1.00  0.00    -0.317 N 
ATOM     18  C   UNL A   1      36.679  22.549  23.090  1.00  0.00     0.065 C 
ATOM     19  C   UNL A   1      36.121  22.987  24.404  1.00  0.00     0.020 A 
ATOM     20  C   UNL A   1      36.779  23.667  25.410  1.00  0.00     0.023 A 
ATOM     21  C   UNL A   1      35.855  23.908  26.445  1.00  0.00     0.023 A 
ATOM     22  C   UNL A   1      34.645  23.355  26.071  1.00  0.00     0.020 A 
ATOM     23  C   UNL A   1      33.388  23.304  26.872  1.00  0.00     0.065 C 
ENDBRANCH  12  17
ENDBRANCH  10  11
ENDBRANCH   8  10
ENDBRANCH   6   8
ENDBRANCH   5   6
ENDBRANCH   4   5
ENDBRANCH   3   4
ENDBRANCH   2   3
ENDBRANCH   1   2
BRANCH   1  24
ATOM     24  C   UNL A   1      32.153  31.235  26.359  1.00  0.00     0.188 C 
BRANCH  24  25
ATOM     25  O   UNL A   1      32.776  31.186  27.628  1.00  0.00    -0.376 OA
BRANCH  25  26
ATOM     26  C   UNL A   1      34.195  31.394  27.630  1.00  0.00     0.202 C 
BRANCH  26  27
ATOM     27  C   UNL A   1      35.049  30.691  28.714  1.00  0.00     0.261 C 
BRANCH  27  28
ATOM     28  O   UNL A   1      35.452  31.506  29.873  1.00  0.00    -0.460 OA
BRANCH  28  29
ATOM     29  C   UNL A   1      36.543  32.320  29.667  1.00  0.00     0.338 C 
ATOM     30  O   UNL A   1      36.479  33.540  29.717  1.00  0.00    -0.246 OA
BRANCH  29  31
ATOM     31  C   UNL A   1      37.858  31.626  29.332  1.00  0.00     0.060 A 
ATOM     32  C   UNL A   1      37.954  30.820  28.205  1.00  0.00     0.016 A 
ATOM     33  C   UNL A   1      38.902  31.477  30.273  1.00  0.00     0.016 A 
ATOM     34  C   UNL A   1      39.063  29.925  28.031  1.00  0.00     0.010 A 
ATOM     35  C   UNL A   1      40.000  30.522  30.116  1.00  0.00     0.010 A 
ATOM     36  C   UNL A   1      40.115  29.685  28.993  1.00  0.00    -0.014 A 
BRANCH  36  37
ATOM     37  C   UNL A   1      40.909  28.285  28.884  1.00  0.00     0.031 A 
ATOM     38  C   UNL A   1      41.911  28.360  29.991  1.00  0.00     0.074 A 
ATOM     39  C   UNL A   1      41.036  27.127  28.110  1.00  0.00     0.049 A 
ATOM     40  N   UNL A   1      42.725  29.372  30.111  1.00  0.00    -0.248 NA
ATOM     41  C   UNL A   1      41.802  27.520  31.187  1.00  0.00     0.031 C 
ATOM     42  C   UNL A   1      40.329  26.789  26.865  1.00  0.00     0.029 A 
ATOM     43  N   UNL A   1      41.840  25.941  28.256  1.00  0.00    -0.354 N 
ATOM     44  C   UNL A   1      43.485  29.099  31.220  1.00  0.00     0.074 A 
ATOM     45  C   UNL A   1      42.709  28.118  31.964  1.00  0.00     0.031 C 
ATOM     46  C   UNL A   1      40.605  25.515  26.453  1.00  0.00     0.029 A 
ATOM     47  C   UNL A   1      41.574  24.862  27.333  1.00  0.00     0.049 A 
ATOM     48  H   UNL A   1      42.535  25.871  28.949  1.00  0.00     0.167 HD
ATOM     49  C   UNL A   1      44.841  29.154  31.075  1.00  0.00     0.034 A 
ATOM     50  C   UNL A   1      42.108  23.575  27.217  1.00  0.00     0.034 A 
ATOM     51  C   UNL A   1      45.447  27.850  31.099  1.00  0.00     0.049 A 
ATOM     52  C   UNL A   1      43.417  23.560  27.874  1.00  0.00     0.074 A 
ATOM     53  C   UNL A   1      45.318  26.746  31.917  1.00  0.00     0.029 A 
ATOM     54  N   UNL A   1      45.999  27.401  29.916  1.00  0.00    -0.354 N 
ATOM     55  N   UNL A   1      44.469  24.035  27.289  1.00  0.00    -0.248 NA
ATOM     56  C   UNL A   1      43.656  22.902  29.154  1.00  0.00     0.031 C 
ATOM     57  C   UNL A   1      45.360  25.630  31.046  1.00  0.00     0.029 A 
ATOM     58  C   UNL A   1      45.788  26.044  29.789  1.00  0.00     0.049 A 
ATOM     59  H   UNL A   1      46.471  27.964  29.261  1.00  0.00     0.167 HD
ATOM     60  C   UNL A   1      45.341  24.214  28.315  1.00  0.00     0.074 A 
ATOM     61  C   UNL A   1      44.932  23.259  29.326  1.00  0.00     0.031 C 
ATOM     62  C   UNL A   1      45.852  25.462  28.458  1.00  0.00     0.034 A 
BRANCH  49  63
ATOM     63  C   UNL A   1      45.339  30.294  30.233  1.00  0.00     0.023 A 
ATOM     64  C   UNL A   1      44.752  30.536  28.986  1.00  0.00     0.031 A 
ATOM     65  C   UNL A   1      46.453  31.076  30.602  1.00  0.00     0.131 A 
ATOM     66  C   UNL A   1      45.318  31.487  28.122  1.00  0.00     0.055 A 
ATOM     67  C   UNL A   1      47.044  31.982  29.725  1.00  0.00     0.041 A 
ATOM     68  F   UNL A   1      46.983  30.970  31.833  1.00  0.00    -0.206 F 
ATOM     69  C   UNL A   1      46.483  32.183  28.469  1.00  0.00     0.022 A 
BRANCH  66  70
ATOM     70  S   UNL A   1      44.509  31.830  26.536  1.00  0.00     0.124 S 
ATOM     71  O   UNL A   1      43.531  30.737  26.442  1.00  0.00    -0.237 OA
ATOM     72  O   UNL A   1      43.924  33.158  26.777  1.00  0.00    -0.237 OA
ATOM     73  O   UNL A   1      45.577  31.793  25.572  1.00  0.00    -0.744 OA
ENDBRANCH  66  70
ENDBRANCH  49  63
BRANCH  50  74
ATOM     74  C   UNL A   1      41.889  22.210  26.510  1.00  0.00     0.023 A 
ATOM     75  C   UNL A   1      42.993  21.461  25.933  1.00  0.00     0.031 A 
ATOM     76  C   UNL A   1      40.723  21.462  26.698  1.00  0.00     0.131 A 
ATOM     77  C   UNL A   1      42.919  20.070  25.643  1.00  0.00     0.055 A 
ATOM     78  C   UNL A   1      40.645  20.082  26.384  1.00  0.00     0.041 A 
ATOM     79  F   UNL A   1      39.654  22.014  27.289  1.00  0.00    -0.206 F 
ATOM     80  C   UNL A   1      41.739  19.379  25.878  1.00  0.00     0.022 A 
BRANCH  77  81
ATOM     81  S   UNL A   1      44.406  19.089  25.157  1.00  0.00     0.124 S 
ATOM     82  O   UNL A   1      44.099  18.682  23.793  1.00  0.00    -0.237 OA
ATOM     83  O   UNL A   1      45.496  20.046  25.323  1.00  0.00    -0.237 OA
ATOM     84  O   UNL A   1      44.422  17.994  26.130  1.00  0.00    -0.744 OA
ENDBRANCH  77  81
ENDBRANCH  50  74
BRANCH  62  85
ATOM     85  C   UNL A   1      46.214  26.222  27.173  1.00  0.00     0.023 A 
ATOM     86  C   UNL A   1      47.446  26.147  26.463  1.00  0.00     0.031 A 
ATOM     87  C   UNL A   1      45.277  27.141  26.674  1.00  0.00     0.131 A 
ATOM     88  C   UNL A   1      47.717  26.988  25.366  1.00  0.00     0.055 A 
ATOM     89  C   UNL A   1      45.523  27.938  25.551  1.00  0.00     0.041 A 
ATOM     90  F   UNL A   1      44.088  27.287  27.278  1.00  0.00    -0.206 F 
ATOM     91  C   UNL A   1      46.752  27.879  24.904  1.00  0.00     0.022 A 
BRANCH  88  92
ATOM     92  S   UNL A   1      49.370  26.988  24.586  1.00  0.00     0.124 S 
ATOM     93  O   UNL A   1      49.923  28.284  24.962  1.00  0.00    -0.237 OA
ATOM     94  O   UNL A   1      50.011  25.823  25.188  1.00  0.00    -0.237 OA
ATOM     95  O   UNL A   1      49.072  26.849  23.159  1.00  0.00    -0.744 OA
ENDBRANCH  88  92
ENDBRANCH  62  85
ENDBRANCH  36  37
ENDBRANCH  29  31
ENDBRANCH  28  29
ENDBRANCH  27  28
ENDBRANCH  26  27
ENDBRANCH  25  26
ENDBRANCH  24  25
ENDBRANCH   1  24
TORSDOF 23
ENDMDL
MODEL 2
REMARK VINA RESULT:     -10.4      3.954      9.237
REMARK SMILES Cc1ccc(C)n1-c1ccccc1S[C@H](C)C(=O)OCCOCCOCCOC(=O)c1ccc(-c2c3nc(c(-c4cc(S(=O)(=O)[O-])ccc4F)c4ccc([nH]4)c(-c4cc(S(=O)(=O)[O-])ccc4F)c4nc(c(-c5cc(S(=O)(=O)[O-])ccc5F)c5ccc2[nH]5)C=C4)C=C3)cc1
REMARK SMILES IDX 23 1 22 2 21 3 20 4 19 5 17 6 18 7 15 8 16 9 14 10 13 11
REMARK SMILES IDX 8 12 9 13 10 14 12 15 11 16 7 17 1 18 2 19 3 20 4 21 5 22
REMARK SMILES IDX 6 23 24 24 25 25 26 26 27 27 28 28 29 29 30 30 31 31 32 32
REMARK SMILES IDX 93 33 33 34 92 35 34 36 35 37 36 38 86 39 37 40 91 41 85 42
REMARK SMILES IDX 87 43 38 44 90 45 84 46 83 47 39 49 71 50 51 51 70 52 52 53
REMARK SMILES IDX 55 54 69 55 88 56 53 57 54 58 68 60 89 61 56 62 40 63 41 64
REMARK SMILES IDX 49 65 42 66 48 67 50 68 47 69 43 70 44 71 45 72 46 73 72 74
REMARK SMILES IDX 73 75 81 76 74 77 80 78 82 79 79 80 75 81 76 82 77 83 78 84
REMARK SMILES IDX 57 85 58 86 66 87 59 88 65 89 67 90 64 91 60 92 61 93 62 94
REMARK SMILES IDX 63 95
REMARK H PARENT 87 48 55 59
REMARK Flexibility Score: inf
ROOT
ATOM      1  C   UNL A   1      35.876  22.960  25.180  1.00  0.00     0.188 C 
ENDROOT
BRANCH   1   2
ATOM      2  O   UNL A   1      35.444  21.844  24.421  1.00  0.00    -0.376 OA
BRANCH   2   3
ATOM      3  C   UNL A   1      34.728  20.771  25.019  1.00  0.00     0.202 C 
BRANCH   3   4
ATOM      4  C   UNL A   1      33.208  20.622  24.901  1.00  0.00     0.261 C 
BRANCH   4   5
ATOM      5  O   UNL A   1      32.563  21.617  24.102  1.00  0.00    -0.462 OA
BRANCH   5   6
ATOM      6  C   UNL A   1      31.898  22.565  24.816  1.00  0.00     0.319 C 
ATOM      7  O   UNL A   1      31.036  22.317  25.656  1.00  0.00    -0.251 OA
BRANCH   6   8
ATOM      8  C   UNL A   1      32.320  23.985  24.477  1.00  0.00     0.158 C 
ATOM      9  C   UNL A   1      32.240  24.492  23.042  1.00  0.00     0.032 C 
BRANCH   8  10
ATOM     10  S   UNL A   1      31.560  25.112  25.695  1.00  0.00    -0.109 SA
BRANCH  10  11
ATOM     11  C   UNL A   1      30.693  26.417  24.811  1.00  0.00     0.032 A 
ATOM     12  C   UNL A   1      31.251  27.718  24.763  1.00  0.00     0.059 A 
ATOM     13  C   UNL A   1      30.617  28.768  24.075  1.00  0.00     0.028 A 
ATOM     14  C   UNL A   1      29.412  28.541  23.417  1.00  0.00     0.002 A 
ATOM     15  C   UNL A   1      29.466  26.236  24.161  1.00  0.00     0.017 A 
ATOM     16  C   UNL A   1      28.835  27.278  23.469  1.00  0.00     0.001 A 
BRANCH  12  17
ATOM     17  N   UNL A   1      32.420  28.042  25.503  1.00  0.00    -0.317 N 
ATOM     18  C   UNL A   1      31.357  28.243  27.818  1.00  0.00     0.065 C 
ATOM     19  C   UNL A   1      32.497  28.344  26.858  1.00  0.00     0.020 A 
ATOM     20  C   UNL A   1      33.782  28.774  27.125  1.00  0.00     0.023 A 
ATOM     21  C   UNL A   1      34.530  28.664  25.937  1.00  0.00     0.023 A 
ATOM     22  C   UNL A   1      33.690  28.186  24.949  1.00  0.00     0.020 A 
ATOM     23  C   UNL A   1      34.018  27.967  23.510  1.00  0.00     0.065 C 
ENDBRANCH  12  17
ENDBRANCH  10  11
ENDBRANCH   8  10
ENDBRANCH   6   8
ENDBRANCH   5   6
ENDBRANCH   4   5
ENDBRANCH   3   4
ENDBRANCH   2   3
ENDBRANCH   1   2
BRANCH   1  24
ATOM     24  C   UNL A   1      37.369  23.312  25.296  1.00  0.00     0.188 C 
BRANCH  24  25
ATOM     25  O   UNL A   1      38.164  22.505  26.143  1.00  0.00    -0.376 OA
BRANCH  25  26
ATOM     26  C   UNL A   1      38.544  21.230  25.607  1.00  0.00     0.202 C 
BRANCH  26  27
ATOM     27  C   UNL A   1      39.845  20.564  26.120  1.00  0.00     0.261 C 
BRANCH  27  28
ATOM     28  O   UNL A   1      40.384  21.061  27.398  1.00  0.00    -0.460 OA
BRANCH  28  29
ATOM     29  C   UNL A   1      41.705  21.446  27.368  1.00  0.00     0.338 C 
ATOM     30  O   UNL A   1      42.628  20.646  27.304  1.00  0.00    -0.246 OA
BRANCH  29  31
ATOM     31  C   UNL A   1      41.981  22.942  27.455  1.00  0.00     0.060 A 
ATOM     32  C   UNL A   1      42.386  23.508  28.657  1.00  0.00     0.016 A 
ATOM     33  C   UNL A   1      41.533  23.858  26.476  1.00  0.00     0.016 A 
ATOM     34  C   UNL A   1      42.358  24.931  28.848  1.00  0.00     0.010 A 
ATOM     35  C   UNL A   1      41.453  25.303  26.699  1.00  0.00     0.010 A 
ATOM     36  C   UNL A   1      41.843  25.901  27.909  1.00  0.00    -0.014 A 
BRANCH  36  37
ATOM     37  C   UNL A   1      41.372  27.324  28.501  1.00  0.00     0.031 A 
ATOM     38  C   UNL A   1      42.445  28.266  28.058  1.00  0.00     0.074 A 
ATOM     39  C   UNL A   1      40.407  27.938  29.307  1.00  0.00     0.049 A 
ATOM     40  N   UNL A   1      43.705  28.032  28.303  1.00  0.00    -0.248 NA
ATOM     41  C   UNL A   1      42.201  29.284  27.034  1.00  0.00     0.031 C 
ATOM     42  C   UNL A   1      39.300  27.300  30.038  1.00  0.00     0.029 A 
ATOM     43  N   UNL A   1      40.172  29.311  29.672  1.00  0.00    -0.354 N 
ATOM     44  C   UNL A   1      44.385  29.091  27.758  1.00  0.00     0.074 A 
ATOM     45  C   UNL A   1      43.459  29.661  26.790  1.00  0.00     0.031 C 
ATOM     46  C   UNL A   1      38.474  28.223  30.617  1.00  0.00     0.029 A 
ATOM     47  C   UNL A   1      38.955  29.588  30.400  1.00  0.00     0.049 A 
ATOM     48  H   UNL A   1      40.808  30.024  29.437  1.00  0.00     0.167 HD
ATOM     49  C   UNL A   1      45.257  29.755  28.570  1.00  0.00     0.034 A 
ATOM     50  C   UNL A   1      38.388  30.780  30.858  1.00  0.00     0.034 A 
ATOM     51  C   UNL A   1      44.772  31.057  28.945  1.00  0.00     0.049 A 
ATOM     52  C   UNL A   1      39.450  31.783  30.964  1.00  0.00     0.074 A 
ATOM     53  C   UNL A   1      44.209  32.109  28.252  1.00  0.00     0.029 A 
ATOM     54  N   UNL A   1      44.431  31.230  30.271  1.00  0.00    -0.354 N 
ATOM     55  N   UNL A   1      40.264  31.799  31.971  1.00  0.00    -0.248 NA
ATOM     56  C   UNL A   1      39.586  32.898  30.033  1.00  0.00     0.031 C 
ATOM     57  C   UNL A   1      43.187  32.606  29.096  1.00  0.00     0.029 A 
ATOM     58  C   UNL A   1      43.327  32.053  30.364  1.00  0.00     0.049 A 
ATOM     59  H   UNL A   1      44.903  30.829  31.036  1.00  0.00     0.167 HD
ATOM     60  C   UNL A   1      41.296  32.559  31.523  1.00  0.00     0.074 A 
ATOM     61  C   UNL A   1      40.718  33.421  30.511  1.00  0.00     0.031 C 
ATOM     62  C   UNL A   1      42.528  31.992  31.577  1.00  0.00     0.034 A 
BRANCH  49  63
ATOM     63  C   UNL A   1      46.076  28.875  29.469  1.00  0.00     0.023 A 
ATOM     64  C   UNL A   1      45.446  28.164  30.496  1.00  0.00     0.031 A 
ATOM     65  C   UNL A   1      47.484  28.812  29.388  1.00  0.00     0.131 A 
ATOM     66  C   UNL A   1      46.220  27.474  31.443  1.00  0.00     0.055 A 
ATOM     67  C   UNL A   1      48.252  28.170  30.357  1.00  0.00     0.041 A 
ATOM     68  F   UNL A   1      48.133  29.375  28.356  1.00  0.00    -0.206 F 
ATOM     69  C   UNL A   1      47.619  27.505  31.402  1.00  0.00     0.022 A 
BRANCH  66  70
ATOM     70  S   UNL A   1      45.384  26.508  32.730  1.00  0.00     0.124 S 
ATOM     71  O   UNL A   1      46.235  25.314  32.826  1.00  0.00    -0.237 OA
ATOM     72  O   UNL A   1      45.466  27.413  33.887  1.00  0.00    -0.237 OA
ATOM     73  O   UNL A   1      44.059  26.288  32.212  1.00  0.00    -0.744 OA
ENDBRANCH  66  70
ENDBRANCH  49  63
BRANCH  50  74
ATOM     74  C   UNL A   1      37.079  31.377  31.445  1.00  0.00     0.023 A 
ATOM     75  C   UNL A   1      37.088  32.240  32.614  1.00  0.00     0.031 A 
ATOM     76  C   UNL A   1      35.895  31.426  30.703  1.00  0.00     0.131 A 
ATOM     77  C   UNL A   1      36.012  33.111  32.944  1.00  0.00     0.055 A 
ATOM     78  C   UNL A   1      34.815  32.276  31.049  1.00  0.00     0.041 A 
ATOM     79  F   UNL A   1      35.784  30.733  29.561  1.00  0.00    -0.206 F 
ATOM     80  C   UNL A   1      34.874  33.131  32.150  1.00  0.00     0.022 A 
BRANCH  77  81
ATOM     81  S   UNL A   1      36.152  34.380  34.278  1.00  0.00     0.124 S 
ATOM     82  O   UNL A   1      35.762  33.644  35.473  1.00  0.00    -0.237 OA
ATOM     83  O   UNL A   1      37.549  34.793  34.191  1.00  0.00    -0.237 OA
ATOM     84  O   UNL A   1      35.199  35.414  33.863  1.00  0.00    -0.744 OA
ENDBRANCH  77  81
ENDBRANCH  50  74
BRANCH  62  85
ATOM     85  C   UNL A   1      42.851  31.138  32.813  1.00  0.00     0.023 A 
ATOM     86  C   UNL A   1      42.210  29.926  33.196  1.00  0.00     0.031 A 
ATOM     87  C   UNL A   1      43.823  31.623  33.703  1.00  0.00     0.131 A 
ATOM     88  C   UNL A   1      42.500  29.294  34.422  1.00  0.00     0.055 A 
ATOM     89  C   UNL A   1      44.152  30.967  34.894  1.00  0.00     0.041 A 
ATOM     90  F   UNL A   1      44.479  32.762  33.431  1.00  0.00    -0.206 F 
ATOM     91  C   UNL A   1      43.478  29.810  35.267  1.00  0.00     0.022 A 
BRANCH  88  92
ATOM     92  S   UNL A   1      41.537  27.838  34.963  1.00  0.00     0.124 S 
ATOM     93  O   UNL A   1      40.467  27.754  33.977  1.00  0.00    -0.237 OA
ATOM     94  O   UNL A   1      42.527  26.765  34.923  1.00  0.00    -0.237 OA
ATOM     95  O   UNL A   1      41.092  28.206  36.308  1.00  0.00    -0.744 OA
ENDBRANCH  88  92
ENDBRANCH  62  85
ENDBRANCH  36  37
ENDBRANCH  29  31
ENDBRANCH  28  29
ENDBRANCH  27  28
ENDBRANCH  26  27
ENDBRANCH  25  26
ENDBRANCH  24  25
ENDBRANCH   1  24
TORSDOF 23
ENDMDL
MODEL 3
REMARK VINA RESULT:     -10.2      2.571      3.800
REMARK SMILES Cc1ccc(C)n1-c1ccccc1S[C@H](C)C(=O)OCCOCCOCCOC(=O)c1ccc(-c2c3nc(c(-c4cc(S(=O)(=O)[O-])ccc4F)c4ccc([nH]4)c(-c4cc(S(=O)(=O)[O-])ccc4F)c4nc(c(-c5cc(S(=O)(=O)[O-])ccc5F)c5ccc2[nH]5)C=C4)C=C3)cc1
REMARK SMILES IDX 23 1 22 2 21 3 20 4 19 5 17 6 18 7 15 8 16 9 14 10 13 11
REMARK SMILES IDX 8 12 9 13 10 14 12 15 11 16 7 17 1 18 2 19 3 20 4 21 5 22
REMARK SMILES IDX 6 23 24 24 25 25 26 26 27 27 28 28 29 29 30 30 31 31 32 32
REMARK SMILES IDX 93 33 33 34 92 35 34 36 35 37 36 38 86 39 37 40 91 41 85 42
REMARK SMILES IDX 87 43 38 44 90 45 84 46 83 47 39 49 71 50 51 51 70 52 52 53
REMARK SMILES IDX 55 54 69 55 88 56 53 57 54 58 68 60 89 61 56 62 40 63 41 64
REMARK SMILES IDX 49 65 42 66 48 67 50 68 47 69 43 70 44 71 45 72 46 73 72 74
REMARK SMILES IDX 73 75 81 76 74 77 80 78 82 79 79 80 75 81 76 82 77 83 78 84
REMARK SMILES IDX 57 85 58 86 66 87 59 88 65 89 67 90 64 91 60 92 61 93 62 94
REMARK SMILES IDX 63 95
REMARK H PARENT 87 48 55 59
REMARK Flexibility Score: inf
ROOT
ATOM      1  C   UNL A   1      32.963  30.414  26.718  1.00  0.00     0.188 C 
ENDROOT
BRANCH   1   2
ATOM      2  O   UNL A   1      33.484  29.445  25.825  1.00  0.00    -0.376 OA
BRANCH   2   3
ATOM      3  C   UNL A   1      32.902  29.223  24.547  1.00  0.00     0.202 C 
BRANCH   3   4
ATOM      4  C   UNL A   1      33.289  28.041  23.654  1.00  0.00     0.261 C 
BRANCH   4   5
ATOM      5  O   UNL A   1      32.358  26.955  23.649  1.00  0.00    -0.462 OA
BRANCH   5   6
ATOM      6  C   UNL A   1      31.745  26.749  22.453  1.00  0.00     0.319 C 
ATOM      7  O   UNL A   1      30.870  27.479  21.991  1.00  0.00    -0.251 OA
BRANCH   6   8
ATOM      8  C   UNL A   1      32.243  25.513  21.723  1.00  0.00     0.158 C 
ATOM      9  C   UNL A   1      32.583  25.576  20.238  1.00  0.00     0.032 C 
BRANCH   8  10
ATOM     10  S   UNL A   1      33.546  24.737  22.739  1.00  0.00    -0.109 SA
BRANCH  10  11
ATOM     11  C   UNL A   1      33.158  22.992  22.942  1.00  0.00     0.032 A 
ATOM     12  C   UNL A   1      33.755  22.261  23.997  1.00  0.00     0.059 A 
ATOM     13  C   UNL A   1      33.474  20.898  24.204  1.00  0.00     0.028 A 
ATOM     14  C   UNL A   1      32.588  20.236  23.362  1.00  0.00     0.002 A 
ATOM     15  C   UNL A   1      32.293  22.283  22.098  1.00  0.00     0.017 A 
ATOM     16  C   UNL A   1      32.006  20.927  22.305  1.00  0.00     0.001 A 
BRANCH  12  17
ATOM     17  N   UNL A   1      34.750  22.849  24.825  1.00  0.00    -0.317 N 
ATOM     18  C   UNL A   1      33.322  23.243  26.907  1.00  0.00     0.065 C 
ATOM     19  C   UNL A   1      34.578  23.356  26.109  1.00  0.00     0.020 A 
ATOM     20  C   UNL A   1      35.749  23.993  26.473  1.00  0.00     0.023 A 
ATOM     21  C   UNL A   1      36.681  23.811  25.434  1.00  0.00     0.023 A 
ATOM     22  C   UNL A   1      36.066  23.081  24.434  1.00  0.00     0.020 A 
ATOM     23  C   UNL A   1      36.639  22.699  23.111  1.00  0.00     0.065 C 
ENDBRANCH  12  17
ENDBRANCH  10  11
ENDBRANCH   8  10
ENDBRANCH   6   8
ENDBRANCH   5   6
ENDBRANCH   4   5
ENDBRANCH   3   4
ENDBRANCH   2   3
ENDBRANCH   1   2
BRANCH   1  24
ATOM     24  C   UNL A   1      33.896  31.344  27.512  1.00  0.00     0.188 C 
BRANCH  24  25
ATOM     25  O   UNL A   1      33.340  32.540  28.024  1.00  0.00    -0.376 OA
BRANCH  25  26
ATOM     26  C   UNL A   1      34.233  33.661  28.088  1.00  0.00     0.202 C 
BRANCH  26  27
ATOM     27  C   UNL A   1      34.418  34.390  29.443  1.00  0.00     0.261 C 
BRANCH  27  28
ATOM     28  O   UNL A   1      35.571  33.980  30.264  1.00  0.00    -0.460 OA
BRANCH  28  29
ATOM     29  C   UNL A   1      35.483  32.720  30.811  1.00  0.00     0.338 C 
ATOM     30  O   UNL A   1      34.818  32.475  31.807  1.00  0.00    -0.246 OA
BRANCH  29  31
ATOM     31  C   UNL A   1      36.296  31.624  30.132  1.00  0.00     0.060 A 
ATOM     32  C   UNL A   1      36.184  30.307  30.559  1.00  0.00     0.016 A 
ATOM     33  C   UNL A   1      37.413  31.900  29.311  1.00  0.00     0.016 A 
ATOM     34  C   UNL A   1      37.143  29.317  30.156  1.00  0.00     0.010 A 
ATOM     35  C   UNL A   1      38.417  30.899  28.951  1.00  0.00     0.010 A 
ATOM     36  C   UNL A   1      38.337  29.563  29.380  1.00  0.00    -0.014 A 
BRANCH  36  37
ATOM     37  C   UNL A   1      39.539  28.498  29.517  1.00  0.00     0.031 A 
ATOM     38  C   UNL A   1      39.953  28.613  30.949  1.00  0.00     0.074 A 
ATOM     39  C   UNL A   1      40.339  27.612  28.788  1.00  0.00     0.049 A 
ATOM     40  N   UNL A   1      40.260  29.763  31.483  1.00  0.00    -0.248 NA
ATOM     41  C   UNL A   1      39.691  27.543  31.915  1.00  0.00     0.031 C 
ATOM     42  C   UNL A   1      40.323  27.362  27.338  1.00  0.00     0.029 A 
ATOM     43  N   UNL A   1      41.380  26.695  29.175  1.00  0.00    -0.354 N 
ATOM     44  C   UNL A   1      40.584  29.485  32.786  1.00  0.00     0.074 A 
ATOM     45  C   UNL A   1      39.969  28.192  33.049  1.00  0.00     0.031 C 
ATOM     46  C   UNL A   1      41.153  26.333  26.990  1.00  0.00     0.029 A 
ATOM     47  C   UNL A   1      41.873  25.806  28.149  1.00  0.00     0.049 A 
ATOM     48  H   UNL A   1      41.738  26.677  30.091  1.00  0.00     0.167 HD
ATOM     49  C   UNL A   1      41.784  29.946  33.242  1.00  0.00     0.034 A 
ATOM     50  C   UNL A   1      42.816  24.774  28.177  1.00  0.00     0.034 A 
ATOM     51  C   UNL A   1      42.742  28.889  33.426  1.00  0.00     0.049 A 
ATOM     52  C   UNL A   1      43.696  24.987  29.328  1.00  0.00     0.074 A 
ATOM     53  C   UNL A   1      42.697  27.646  34.023  1.00  0.00     0.029 A 
ATOM     54  N   UNL A   1      43.820  28.873  32.564  1.00  0.00    -0.354 N 
ATOM     55  N   UNL A   1      44.660  25.850  29.289  1.00  0.00    -0.248 NA
ATOM     56  C   UNL A   1      43.639  24.167  30.533  1.00  0.00     0.031 C 
ATOM     57  C   UNL A   1      43.448  26.797  33.174  1.00  0.00     0.029 A 
ATOM     58  C   UNL A   1      44.152  27.570  32.257  1.00  0.00     0.049 A 
ATOM     59  H   UNL A   1      44.282  29.671  32.220  1.00  0.00     0.167 HD
ATOM     60  C   UNL A   1      44.956  26.043  30.600  1.00  0.00     0.074 A 
ATOM     61  C   UNL A   1      44.546  24.821  31.263  1.00  0.00     0.031 C 
ATOM     62  C   UNL A   1      44.914  27.325  31.043  1.00  0.00     0.034 A 
BRANCH  49  63
ATOM     63  C   UNL A   1      42.142  31.331  32.784  1.00  0.00     0.023 A 
ATOM     64  C   UNL A   1      41.990  32.408  33.664  1.00  0.00     0.031 A 
ATOM     65  C   UNL A   1      42.533  31.611  31.457  1.00  0.00     0.131 A 
ATOM     66  C   UNL A   1      42.160  33.720  33.196  1.00  0.00     0.055 A 
ATOM     67  C   UNL A   1      42.651  32.915  30.982  1.00  0.00     0.041 A 
ATOM     68  F   UNL A   1      42.809  30.613  30.603  1.00  0.00    -0.206 F 
ATOM     69  C   UNL A   1      42.452  33.982  31.851  1.00  0.00     0.022 A 
BRANCH  66  70
ATOM     70  S   UNL A   1      42.018  35.099  34.365  1.00  0.00     0.124 S 
ATOM     71  O   UNL A   1      43.050  36.027  33.880  1.00  0.00    -0.237 OA
ATOM     72  O   UNL A   1      40.636  35.547  34.137  1.00  0.00    -0.237 OA
ATOM     73  O   UNL A   1      42.271  34.507  35.653  1.00  0.00    -0.744 OA
ENDBRANCH  66  70
ENDBRANCH  49  63
BRANCH  50  74
ATOM     74  C   UNL A   1      43.365  23.584  27.343  1.00  0.00     0.023 A 
ATOM     75  C   UNL A   1      42.743  22.271  27.381  1.00  0.00     0.031 A 
ATOM     76  C   UNL A   1      44.229  23.780  26.261  1.00  0.00     0.131 A 
ATOM     77  C   UNL A   1      42.943  21.288  26.372  1.00  0.00     0.055 A 
ATOM     78  C   UNL A   1      44.445  22.789  25.271  1.00  0.00     0.041 A 
ATOM     79  F   UNL A   1      44.811  24.972  26.068  1.00  0.00    -0.206 F 
ATOM     80  C   UNL A   1      43.794  21.555  25.309  1.00  0.00     0.022 A 
BRANCH  77  81
ATOM     81  S   UNL A   1      41.946  19.735  26.306  1.00  0.00     0.124 S 
ATOM     82  O   UNL A   1      40.584  20.226  26.155  1.00  0.00    -0.237 OA
ATOM     83  O   UNL A   1      42.517  19.030  25.162  1.00  0.00    -0.237 OA
ATOM     84  O   UNL A   1      42.224  19.098  27.596  1.00  0.00    -0.744 OA
ENDBRANCH  77  81
ENDBRANCH  50  74
BRANCH  62  85
ATOM     85  C   UNL A   1      45.454  28.410  30.098  1.00  0.00     0.023 A 
ATOM     86  C   UNL A   1      44.941  28.746  28.813  1.00  0.00     0.031 A 
ATOM     87  C   UNL A   1      46.611  29.100  30.493  1.00  0.00     0.131 A 
ATOM     88  C   UNL A   1      45.596  29.671  27.977  1.00  0.00     0.055 A 
ATOM     89  C   UNL A   1      47.232  30.059  29.687  1.00  0.00     0.041 A 
ATOM     90  F   UNL A   1      47.172  28.848  31.686  1.00  0.00    -0.206 F 
ATOM     91  C   UNL A   1      46.738  30.334  28.417  1.00  0.00     0.022 A 
BRANCH  88  92
ATOM     92  S   UNL A   1      45.011  29.950  26.268  1.00  0.00     0.124 S 
ATOM     93  O   UNL A   1      44.636  28.616  25.816  1.00  0.00    -0.237 OA
ATOM     94  O   UNL A   1      43.912  30.893  26.455  1.00  0.00    -0.237 OA
ATOM     95  O   UNL A   1      46.184  30.510  25.594  1.00  0.00    -0.744 OA
ENDBRANCH  88  92
ENDBRANCH  62  85
ENDBRANCH  36  37
ENDBRANCH  29  31
ENDBRANCH  28  29
ENDBRANCH  27  28
ENDBRANCH  26  27
ENDBRANCH  25  26
ENDBRANCH  24  25
ENDBRANCH   1  24
TORSDOF 23
ENDMDL
