MODEL 1
REMARK VINA RESULT:     -10.5      0.000      0.000
REMARK SMILES Cc1nsc(NC(=O)[C@]2([NH3+])CCC[C@@H](C)C2)c1C(=O)OCCOCCOCCOC(=O)c1ccc(-c2c3nc(c(-c4cc(S(=O)(=O)[O-])ccc4F)c4ccc([nH]4)c(-c4cc(S(=O)(=O)[O-])ccc4F)c4nc(c(-c5cc(S(=O)(=O)[O-])ccc5F)c5ccc2[nH]5)C=C4)C=C3)cc1
REMARK SMILES IDX 24 1 23 2 22 3 21 4 20 5 18 6 19 7 17 8 1 9 2 10 3 11 4 12
REMARK SMILES IDX 5 13 6 14 7 15 8 17 9 18 11 19 16 20 12 21 14 22 13 23 15 24
REMARK SMILES IDX 10 25 25 29 26 30 27 31 28 32 29 33 30 34 31 35 32 36 33 37
REMARK SMILES IDX 94 38 34 39 93 40 35 41 36 42 37 43 87 44 38 45 92 46 86 47
REMARK SMILES IDX 88 48 39 49 91 50 85 51 84 52 40 54 72 55 52 56 71 57 53 58
REMARK SMILES IDX 56 59 70 60 89 61 54 62 55 63 69 65 90 66 57 67 41 68 42 69
REMARK SMILES IDX 50 70 43 71 49 72 51 73 48 74 44 75 45 76 46 77 47 78 73 79
REMARK SMILES IDX 74 80 82 81 75 82 81 83 83 84 80 85 76 86 77 87 78 88 79 89
REMARK SMILES IDX 58 90 59 91 67 92 60 93 66 94 68 95 65 96 61 97 62 98 63 99
REMARK SMILES IDX 64 100
REMARK H PARENT 6 16 10 26 10 27 10 28 88 53 56 64
REMARK Flexibility Score: inf
ROOT
ATOM      1  C   UNL A   1      31.719  27.917  27.118  1.00  0.00     0.188 C 
ENDROOT
BRANCH   1   2
ATOM      2  O   UNL A   1      31.569  26.589  26.640  1.00  0.00    -0.376 OA
BRANCH   2   3
ATOM      3  C   UNL A   1      30.300  25.954  26.624  1.00  0.00     0.202 C 
BRANCH   3   4
ATOM      4  C   UNL A   1      29.542  25.686  25.307  1.00  0.00     0.261 C 
BRANCH   4   5
ATOM      5  O   UNL A   1      30.305  25.799  24.098  1.00  0.00    -0.460 OA
BRANCH   5   6
ATOM      6  C   UNL A   1      30.206  26.989  23.430  1.00  0.00     0.343 C 
ATOM      7  O   UNL A   1      29.174  27.479  23.043  1.00  0.00    -0.246 OA
BRANCH   6   8
ATOM      8  C   UNL A   1      31.481  27.704  23.387  1.00  0.00     0.117 A 
ATOM      9  C   UNL A   1      30.802  30.048  24.390  1.00  0.00     0.069 C 
ATOM     10  C   UNL A   1      31.762  29.049  23.845  1.00  0.00     0.068 A 
ATOM     11  N   UNL A   1      33.023  29.453  23.709  1.00  0.00    -0.195 NA
ATOM     12  S   UNL A   1      33.850  28.313  22.884  1.00  0.00    -0.017 S 
ATOM     13  C   UNL A   1      32.592  27.194  22.709  1.00  0.00     0.131 A 
BRANCH  13  14
ATOM     14  N   UNL A   1      32.641  26.048  21.919  1.00  0.00    -0.310 N 
ATOM     15  C   UNL A   1      33.114  24.766  22.051  1.00  0.00     0.286 C 
ATOM     16  H   UNL A   1      32.228  26.196  21.037  1.00  0.00     0.171 HD
ATOM     17  O   UNL A   1      33.156  24.104  21.005  1.00  0.00    -0.267 OA
BRANCH  15  18
ATOM     18  C   UNL A   1      33.537  24.124  23.403  1.00  0.00     0.174 C 
ATOM     19  C   UNL A   1      34.557  25.040  24.115  1.00  0.00     0.079 C 
ATOM     20  C   UNL A   1      34.259  22.763  23.212  1.00  0.00     0.082 C 
ATOM     21  C   UNL A   1      34.956  24.506  25.486  1.00  0.00     0.007 C 
ATOM     22  C   UNL A   1      34.760  22.125  24.538  1.00  0.00    -0.008 C 
ATOM     23  C   UNL A   1      35.586  23.119  25.373  1.00  0.00     0.004 C 
ATOM     24  C   UNL A   1      33.639  21.504  25.384  1.00  0.00     0.008 C 
BRANCH  18  25
ATOM     25  N   UNL A   1      32.306  23.798  24.155  1.00  0.00    -0.345 N 
ATOM     26  H   UNL A   1      32.335  22.821  24.447  1.00  0.00     0.345 HD
ATOM     27  H   UNL A   1      31.493  23.950  23.559  1.00  0.00     0.345 HD
ATOM     28  H   UNL A   1      32.242  24.397  24.978  1.00  0.00     0.345 HD
ENDBRANCH  18  25
ENDBRANCH  15  18
ENDBRANCH  13  14
ENDBRANCH   6   8
ENDBRANCH   5   6
ENDBRANCH   4   5
ENDBRANCH   3   4
ENDBRANCH   2   3
ENDBRANCH   1   2
BRANCH   1  29
ATOM     29  C   UNL A   1      33.078  28.441  27.631  1.00  0.00     0.188 C 
BRANCH  29  30
ATOM     30  O   UNL A   1      33.673  29.430  26.819  1.00  0.00    -0.376 OA
BRANCH  30  31
ATOM     31  C   UNL A   1      33.876  30.748  27.305  1.00  0.00     0.202 C 
BRANCH  31  32
ATOM     32  C   UNL A   1      34.845  31.090  28.439  1.00  0.00     0.261 C 
BRANCH  32  33
ATOM     33  O   UNL A   1      36.208  30.850  28.172  1.00  0.00    -0.460 OA
BRANCH  33  34
ATOM     34  C   UNL A   1      36.899  30.362  29.223  1.00  0.00     0.338 C 
ATOM     35  O   UNL A   1      36.832  30.737  30.380  1.00  0.00    -0.246 OA
BRANCH  34  36
ATOM     36  C   UNL A   1      37.752  29.279  28.736  1.00  0.00     0.060 A 
ATOM     37  C   UNL A   1      38.074  28.271  29.646  1.00  0.00     0.016 A 
ATOM     38  C   UNL A   1      38.467  29.489  27.548  1.00  0.00     0.016 A 
ATOM     39  C   UNL A   1      39.315  27.696  29.534  1.00  0.00     0.010 A 
ATOM     40  C   UNL A   1      39.705  28.924  27.445  1.00  0.00     0.010 A 
ATOM     41  C   UNL A   1      40.153  28.154  28.514  1.00  0.00    -0.014 A 
BRANCH  41  42
ATOM     42  C   UNL A   1      41.559  27.849  28.586  1.00  0.00     0.031 A 
ATOM     43  C   UNL A   1      41.904  26.635  27.828  1.00  0.00     0.074 A 
ATOM     44  C   UNL A   1      42.421  28.690  29.191  1.00  0.00     0.049 A 
ATOM     45  N   UNL A   1      42.233  25.482  28.303  1.00  0.00    -0.248 NA
ATOM     46  C   UNL A   1      41.621  26.634  26.382  1.00  0.00     0.031 C 
ATOM     47  C   UNL A   1      42.164  30.022  29.751  1.00  0.00     0.029 A 
ATOM     48  N   UNL A   1      43.761  28.563  29.344  1.00  0.00    -0.354 N 
ATOM     49  C   UNL A   1      42.463  24.691  27.187  1.00  0.00     0.074 A 
ATOM     50  C   UNL A   1      41.818  25.351  26.086  1.00  0.00     0.031 C 
ATOM     51  C   UNL A   1      43.342  30.660  29.951  1.00  0.00     0.029 A 
ATOM     52  C   UNL A   1      44.430  29.741  29.659  1.00  0.00     0.049 A 
ATOM     53  H   UNL A   1      44.227  27.701  29.240  1.00  0.00     0.167 HD
ATOM     54  C   UNL A   1      43.431  23.738  27.201  1.00  0.00     0.034 A 
ATOM     55  C   UNL A   1      45.776  29.949  29.595  1.00  0.00     0.034 A 
ATOM     56  C   UNL A   1      43.814  23.404  28.554  1.00  0.00     0.049 A 
ATOM     57  C   UNL A   1      46.405  28.599  29.640  1.00  0.00     0.074 A 
ATOM     58  C   UNL A   1      43.135  22.912  29.653  1.00  0.00     0.029 A 
ATOM     59  N   UNL A   1      44.971  23.962  29.053  1.00  0.00    -0.354 N 
ATOM     60  N   UNL A   1      46.319  27.815  30.684  1.00  0.00    -0.248 NA
ATOM     61  C   UNL A   1      46.642  27.910  28.377  1.00  0.00     0.031 C 
ATOM     62  C   UNL A   1      43.662  23.635  30.765  1.00  0.00     0.029 A 
ATOM     63  C   UNL A   1      44.687  24.465  30.303  1.00  0.00     0.049 A 
ATOM     64  H   UNL A   1      45.843  23.996  28.598  1.00  0.00     0.167 HD
ATOM     65  C   UNL A   1      46.054  26.551  30.173  1.00  0.00     0.074 A 
ATOM     66  C   UNL A   1      46.349  26.656  28.742  1.00  0.00     0.031 C 
ATOM     67  C   UNL A   1      45.333  25.631  30.883  1.00  0.00     0.034 A 
BRANCH  54  68
ATOM     68  C   UNL A   1      44.293  23.414  26.005  1.00  0.00     0.023 A 
ATOM     69  C   UNL A   1      44.259  22.091  25.534  1.00  0.00     0.031 A 
ATOM     70  C   UNL A   1      45.332  24.227  25.491  1.00  0.00     0.131 A 
ATOM     71  C   UNL A   1      45.263  21.610  24.679  1.00  0.00     0.055 A 
ATOM     72  C   UNL A   1      46.284  23.763  24.583  1.00  0.00     0.041 A 
ATOM     73  F   UNL A   1      45.558  25.478  25.907  1.00  0.00    -0.206 F 
ATOM     74  C   UNL A   1      46.273  22.438  24.196  1.00  0.00     0.022 A 
BRANCH  71  75
ATOM     75  S   UNL A   1      45.329  19.832  24.356  1.00  0.00     0.124 S 
ATOM     76  O   UNL A   1      46.766  19.598  24.276  1.00  0.00    -0.237 OA
ATOM     77  O   UNL A   1      44.651  19.290  25.529  1.00  0.00    -0.237 OA
ATOM     78  O   UNL A   1      44.604  19.692  23.095  1.00  0.00    -0.744 OA
ENDBRANCH  71  75
ENDBRANCH  54  68
BRANCH  55  79
ATOM     79  C   UNL A   1      46.441  31.170  29.040  1.00  0.00     0.023 A 
ATOM     80  C   UNL A   1      46.011  31.852  27.877  1.00  0.00     0.031 A 
ATOM     81  C   UNL A   1      47.432  31.820  29.814  1.00  0.00     0.131 A 
ATOM     82  C   UNL A   1      46.581  33.107  27.531  1.00  0.00     0.055 A 
ATOM     83  C   UNL A   1      47.990  33.051  29.467  1.00  0.00     0.041 A 
ATOM     84  F   UNL A   1      47.839  31.309  30.988  1.00  0.00    -0.206 F 
ATOM     85  C   UNL A   1      47.564  33.703  28.324  1.00  0.00     0.022 A 
BRANCH  82  86
ATOM     86  S   UNL A   1      46.020  34.024  26.054  1.00  0.00     0.124 S 
ATOM     87  O   UNL A   1      47.272  34.301  25.360  1.00  0.00    -0.237 OA
ATOM     88  O   UNL A   1      45.121  33.068  25.417  1.00  0.00    -0.237 OA
ATOM     89  O   UNL A   1      45.357  35.204  26.613  1.00  0.00    -0.744 OA
ENDBRANCH  82  86
ENDBRANCH  55  79
BRANCH  67  90
ATOM     90  C   UNL A   1      45.009  25.940  32.335  1.00  0.00     0.023 A 
ATOM     91  C   UNL A   1      43.838  26.600  32.784  1.00  0.00     0.031 A 
ATOM     92  C   UNL A   1      45.872  25.416  33.312  1.00  0.00     0.131 A 
ATOM     93  C   UNL A   1      43.579  26.720  34.167  1.00  0.00     0.055 A 
ATOM     94  C   UNL A   1      45.601  25.518  34.677  1.00  0.00     0.041 A 
ATOM     95  F   UNL A   1      46.983  24.752  32.952  1.00  0.00    -0.206 F 
ATOM     96  C   UNL A   1      44.455  26.174  35.110  1.00  0.00     0.022 A 
BRANCH  93  97
ATOM     97  S   UNL A   1      42.095  27.596  34.768  1.00  0.00     0.124 S 
ATOM     98  O   UNL A   1      41.121  26.527  34.950  1.00  0.00    -0.237 OA
ATOM     99  O   UNL A   1      42.577  28.239  35.987  1.00  0.00    -0.237 OA
ATOM    100  O   UNL A   1      41.782  28.523  33.677  1.00  0.00    -0.744 OA
ENDBRANCH  93  97
ENDBRANCH  67  90
ENDBRANCH  41  42
ENDBRANCH  34  36
ENDBRANCH  33  34
ENDBRANCH  32  33
ENDBRANCH  31  32
ENDBRANCH  30  31
ENDBRANCH  29  30
ENDBRANCH   1  29
TORSDOF 23
ENDMDL
MODEL 2
REMARK VINA RESULT:      -9.6      3.548      8.626
REMARK SMILES Cc1nsc(NC(=O)[C@]2([NH3+])CCC[C@@H](C)C2)c1C(=O)OCCOCCOCCOC(=O)c1ccc(-c2c3nc(c(-c4cc(S(=O)(=O)[O-])ccc4F)c4ccc([nH]4)c(-c4cc(S(=O)(=O)[O-])ccc4F)c4nc(c(-c5cc(S(=O)(=O)[O-])ccc5F)c5ccc2[nH]5)C=C4)C=C3)cc1
REMARK SMILES IDX 24 1 23 2 22 3 21 4 20 5 18 6 19 7 17 8 1 9 2 10 3 11 4 12
REMARK SMILES IDX 5 13 6 14 7 15 8 17 9 18 11 19 16 20 12 21 14 22 13 23 15 24
REMARK SMILES IDX 10 25 25 29 26 30 27 31 28 32 29 33 30 34 31 35 32 36 33 37
REMARK SMILES IDX 94 38 34 39 93 40 35 41 36 42 37 43 87 44 38 45 92 46 86 47
REMARK SMILES IDX 88 48 39 49 91 50 85 51 84 52 40 54 72 55 52 56 71 57 53 58
REMARK SMILES IDX 56 59 70 60 89 61 54 62 55 63 69 65 90 66 57 67 41 68 42 69
REMARK SMILES IDX 50 70 43 71 49 72 51 73 48 74 44 75 45 76 46 77 47 78 73 79
REMARK SMILES IDX 74 80 82 81 75 82 81 83 83 84 80 85 76 86 77 87 78 88 79 89
REMARK SMILES IDX 58 90 59 91 67 92 60 93 66 94 68 95 65 96 61 97 62 98 63 99
REMARK SMILES IDX 64 100
REMARK H PARENT 6 16 10 26 10 27 10 28 88 53 56 64
REMARK Flexibility Score: inf
ROOT
ATOM      1  C   UNL A   1      39.076  20.031  25.295  1.00  0.00     0.188 C 
ENDROOT
BRANCH   1   2
ATOM      2  O   UNL A   1      38.071  20.798  25.939  1.00  0.00    -0.376 OA
BRANCH   2   3
ATOM      3  C   UNL A   1      36.911  21.224  25.240  1.00  0.00     0.202 C 
BRANCH   3   4
ATOM      4  C   UNL A   1      36.457  22.699  25.245  1.00  0.00     0.261 C 
BRANCH   4   5
ATOM      5  O   UNL A   1      35.346  23.022  26.093  1.00  0.00    -0.460 OA
BRANCH   5   6
ATOM      6  C   UNL A   1      34.643  24.148  25.764  1.00  0.00     0.343 C 
ATOM      7  O   UNL A   1      35.138  25.208  25.467  1.00  0.00    -0.246 OA
BRANCH   6   8
ATOM      8  C   UNL A   1      33.210  23.886  25.637  1.00  0.00     0.117 A 
ATOM      9  C   UNL A   1      32.743  22.461  27.809  1.00  0.00     0.069 C 
ATOM     10  C   UNL A   1      32.352  23.170  26.559  1.00  0.00     0.068 A 
ATOM     11  N   UNL A   1      31.070  23.094  26.211  1.00  0.00    -0.195 NA
ATOM     12  S   UNL A   1      30.896  23.718  24.714  1.00  0.00    -0.017 S 
ATOM     13  C   UNL A   1      32.507  24.174  24.464  1.00  0.00     0.131 A 
BRANCH  13  14
ATOM     14  N   UNL A   1      33.036  24.627  23.258  1.00  0.00    -0.310 N 
ATOM     15  C   UNL A   1      33.030  25.802  22.546  1.00  0.00     0.286 C 
ATOM     16  H   UNL A   1      33.547  23.923  22.797  1.00  0.00     0.171 HD
ATOM     17  O   UNL A   1      33.449  25.721  21.383  1.00  0.00    -0.267 OA
BRANCH  15  18
ATOM     18  C   UNL A   1      32.586  27.175  23.126  1.00  0.00     0.174 C 
ATOM     19  C   UNL A   1      33.646  27.680  24.129  1.00  0.00     0.079 C 
ATOM     20  C   UNL A   1      31.261  27.077  23.931  1.00  0.00     0.082 C 
ATOM     21  C   UNL A   1      33.309  29.062  24.679  1.00  0.00     0.007 C 
ATOM     22  C   UNL A   1      30.823  28.416  24.586  1.00  0.00    -0.008 C 
ATOM     23  C   UNL A   1      31.962  29.053  25.401  1.00  0.00     0.004 C 
ATOM     24  C   UNL A   1      30.238  29.426  23.589  1.00  0.00     0.008 C 
BRANCH  18  25
ATOM     25  N   UNL A   1      32.274  28.068  21.989  1.00  0.00    -0.345 N 
ATOM     26  H   UNL A   1      31.519  27.662  21.436  1.00  0.00     0.345 HD
ATOM     27  H   UNL A   1      33.102  28.177  21.405  1.00  0.00     0.345 HD
ATOM     28  H   UNL A   1      31.984  28.980  22.343  1.00  0.00     0.345 HD
ENDBRANCH  18  25
ENDBRANCH  15  18
ENDBRANCH  13  14
ENDBRANCH   6   8
ENDBRANCH   5   6
ENDBRANCH   4   5
ENDBRANCH   3   4
ENDBRANCH   2   3
ENDBRANCH   1   2
BRANCH   1  29
ATOM     29  C   UNL A   1      40.348  19.576  26.043  1.00  0.00     0.188 C 
BRANCH  29  30
ATOM     30  O   UNL A   1      40.691  20.370  27.158  1.00  0.00    -0.376 OA
BRANCH  30  31
ATOM     31  C   UNL A   1      41.034  21.739  27.001  1.00  0.00     0.202 C 
BRANCH  31  32
ATOM     32  C   UNL A   1      42.273  22.217  26.242  1.00  0.00     0.261 C 
BRANCH  32  33
ATOM     33  O   UNL A   1      42.160  23.476  25.618  1.00  0.00    -0.460 OA
BRANCH  33  34
ATOM     34  C   UNL A   1      42.921  24.440  26.177  1.00  0.00     0.338 C 
ATOM     35  O   UNL A   1      44.077  24.710  25.903  1.00  0.00    -0.246 OA
BRANCH  34  36
ATOM     36  C   UNL A   1      42.109  25.129  27.181  1.00  0.00     0.060 A 
ATOM     37  C   UNL A   1      41.046  25.901  26.710  1.00  0.00     0.016 A 
ATOM     38  C   UNL A   1      42.638  25.267  28.471  1.00  0.00     0.016 A 
ATOM     39  C   UNL A   1      40.738  27.040  27.411  1.00  0.00     0.010 A 
ATOM     40  C   UNL A   1      42.338  26.406  29.160  1.00  0.00     0.010 A 
ATOM     41  C   UNL A   1      41.503  27.332  28.542  1.00  0.00    -0.014 A 
BRANCH  41  42
ATOM     42  C   UNL A   1      41.458  28.667  29.080  1.00  0.00     0.031 A 
ATOM     43  C   UNL A   1      42.558  29.506  28.579  1.00  0.00     0.074 A 
ATOM     44  C   UNL A   1      40.427  29.070  29.850  1.00  0.00     0.049 A 
ATOM     45  N   UNL A   1      43.593  29.913  29.231  1.00  0.00    -0.248 NA
ATOM     46  C   UNL A   1      42.641  29.720  27.123  1.00  0.00     0.031 C 
ATOM     47  C   UNL A   1      39.192  28.351  30.182  1.00  0.00     0.029 A 
ATOM     48  N   UNL A   1      40.225  30.280  30.429  1.00  0.00    -0.354 N 
ATOM     49  C   UNL A   1      44.315  30.667  28.319  1.00  0.00     0.074 A 
ATOM     50  C   UNL A   1      43.841  30.287  27.018  1.00  0.00     0.031 C 
ATOM     51  C   UNL A   1      38.286  29.223  30.686  1.00  0.00     0.029 A 
ATOM     52  C   UNL A   1      38.918  30.524  30.834  1.00  0.00     0.049 A 
ATOM     53  H   UNL A   1      40.950  30.935  30.552  1.00  0.00     0.167 HD
ATOM     54  C   UNL A   1      45.005  31.766  28.720  1.00  0.00     0.034 A 
ATOM     55  C   UNL A   1      38.390  31.733  31.179  1.00  0.00     0.034 A 
ATOM     56  C   UNL A   1      45.224  31.751  30.149  1.00  0.00     0.049 A 
ATOM     57  C   UNL A   1      39.548  32.601  31.538  1.00  0.00     0.074 A 
ATOM     58  C   UNL A   1      45.856  30.880  31.017  1.00  0.00     0.029 A 
ATOM     59  N   UNL A   1      44.399  32.523  30.936  1.00  0.00    -0.354 N 
ATOM     60  N   UNL A   1      40.320  32.357  32.566  1.00  0.00    -0.248 NA
ATOM     61  C   UNL A   1      40.170  33.387  30.480  1.00  0.00     0.031 C 
ATOM     62  C   UNL A   1      45.017  30.837  32.170  1.00  0.00     0.029 A 
ATOM     63  C   UNL A   1      43.969  31.741  31.984  1.00  0.00     0.049 A 
ATOM     64  H   UNL A   1      44.159  33.465  30.778  1.00  0.00     0.167 HD
ATOM     65  C   UNL A   1      41.615  32.567  32.110  1.00  0.00     0.074 A 
ATOM     66  C   UNL A   1      41.454  33.282  30.842  1.00  0.00     0.031 C 
ATOM     67  C   UNL A   1      42.676  31.880  32.634  1.00  0.00     0.034 A 
BRANCH  54  68
ATOM     68  C   UNL A   1      45.122  33.021  27.890  1.00  0.00     0.023 A 
ATOM     69  C   UNL A   1      44.288  34.097  28.238  1.00  0.00     0.031 A 
ATOM     70  C   UNL A   1      45.776  33.126  26.638  1.00  0.00     0.131 A 
ATOM     71  C   UNL A   1      44.066  35.151  27.337  1.00  0.00     0.055 A 
ATOM     72  C   UNL A   1      45.609  34.212  25.779  1.00  0.00     0.041 A 
ATOM     73  F   UNL A   1      46.529  32.148  26.121  1.00  0.00    -0.206 F 
ATOM     74  C   UNL A   1      44.724  35.219  26.112  1.00  0.00     0.022 A 
BRANCH  71  75
ATOM     75  S   UNL A   1      42.758  36.338  27.720  1.00  0.00     0.124 S 
ATOM     76  O   UNL A   1      42.870  36.445  29.170  1.00  0.00    -0.237 OA
ATOM     77  O   UNL A   1      43.180  37.506  26.952  1.00  0.00    -0.237 OA
ATOM     78  O   UNL A   1      41.549  35.676  27.236  1.00  0.00    -0.744 OA
ENDBRANCH  71  75
ENDBRANCH  54  68
BRANCH  55  79
ATOM     79  C   UNL A   1      37.050  32.249  30.758  1.00  0.00     0.023 A 
ATOM     80  C   UNL A   1      36.151  32.925  31.616  1.00  0.00     0.031 A 
ATOM     81  C   UNL A   1      36.723  32.255  29.380  1.00  0.00     0.131 A 
ATOM     82  C   UNL A   1      34.987  33.547  31.087  1.00  0.00     0.055 A 
ATOM     83  C   UNL A   1      35.577  32.865  28.868  1.00  0.00     0.041 A 
ATOM     84  F   UNL A   1      37.556  31.730  28.468  1.00  0.00    -0.206 F 
ATOM     85  C   UNL A   1      34.704  33.517  29.720  1.00  0.00     0.022 A 
BRANCH  82  86
ATOM     86  S   UNL A   1      33.828  34.455  32.168  1.00  0.00     0.124 S 
ATOM     87  O   UNL A   1      33.296  33.398  33.020  1.00  0.00    -0.237 OA
ATOM     88  O   UNL A   1      34.702  35.429  32.813  1.00  0.00    -0.237 OA
ATOM     89  O   UNL A   1      32.861  35.029  31.231  1.00  0.00    -0.744 OA
ENDBRANCH  82  86
ENDBRANCH  55  79
BRANCH  67  90
ATOM     90  C   UNL A   1      42.441  31.039  33.878  1.00  0.00     0.023 A 
ATOM     91  C   UNL A   1      42.102  29.663  33.876  1.00  0.00     0.031 A 
ATOM     92  C   UNL A   1      42.709  31.638  35.120  1.00  0.00     0.131 A 
ATOM     93  C   UNL A   1      42.035  28.949  35.092  1.00  0.00     0.055 A 
ATOM     94  C   UNL A   1      42.662  30.923  36.317  1.00  0.00     0.041 A 
ATOM     95  F   UNL A   1      43.066  32.931  35.187  1.00  0.00    -0.206 F 
ATOM     96  C   UNL A   1      42.321  29.576  36.308  1.00  0.00     0.022 A 
BRANCH  93  97
ATOM     97  S   UNL A   1      41.566  27.185  35.115  1.00  0.00     0.124 S 
ATOM     98  O   UNL A   1      40.504  27.104  34.119  1.00  0.00    -0.237 OA
ATOM     99  O   UNL A   1      42.819  26.518  34.773  1.00  0.00    -0.237 OA
ATOM    100  O   UNL A   1      41.121  26.969  36.494  1.00  0.00    -0.744 OA
ENDBRANCH  93  97
ENDBRANCH  67  90
ENDBRANCH  41  42
ENDBRANCH  34  36
ENDBRANCH  33  34
ENDBRANCH  32  33
ENDBRANCH  31  32
ENDBRANCH  30  31
ENDBRANCH  29  30
ENDBRANCH   1  29
TORSDOF 23
ENDMDL
MODEL 3
REMARK VINA RESULT:      -9.4      7.861     14.654
REMARK SMILES Cc1nsc(NC(=O)[C@]2([NH3+])CCC[C@@H](C)C2)c1C(=O)OCCOCCOCCOC(=O)c1ccc(-c2c3nc(c(-c4cc(S(=O)(=O)[O-])ccc4F)c4ccc([nH]4)c(-c4cc(S(=O)(=O)[O-])ccc4F)c4nc(c(-c5cc(S(=O)(=O)[O-])ccc5F)c5ccc2[nH]5)C=C4)C=C3)cc1
REMARK SMILES IDX 24 1 23 2 22 3 21 4 20 5 18 6 19 7 17 8 1 9 2 10 3 11 4 12
REMARK SMILES IDX 5 13 6 14 7 15 8 17 9 18 11 19 16 20 12 21 14 22 13 23 15 24
REMARK SMILES IDX 10 25 25 29 26 30 27 31 28 32 29 33 30 34 31 35 32 36 33 37
REMARK SMILES IDX 94 38 34 39 93 40 35 41 36 42 37 43 87 44 38 45 92 46 86 47
REMARK SMILES IDX 88 48 39 49 91 50 85 51 84 52 40 54 72 55 52 56 71 57 53 58
REMARK SMILES IDX 56 59 70 60 89 61 54 62 55 63 69 65 90 66 57 67 41 68 42 69
REMARK SMILES IDX 50 70 43 71 49 72 51 73 48 74 44 75 45 76 46 77 47 78 73 79
REMARK SMILES IDX 74 80 82 81 75 82 81 83 83 84 80 85 76 86 77 87 78 88 79 89
REMARK SMILES IDX 58 90 59 91 67 92 60 93 66 94 68 95 65 96 61 97 62 98 63 99
REMARK SMILES IDX 64 100
REMARK H PARENT 6 16 10 26 10 27 10 28 88 53 56 64
REMARK Flexibility Score: inf
ROOT
ATOM      1  C   UNL A   1      47.592  18.972  39.145  1.00  0.00     0.188 C 
ENDROOT
BRANCH   1   2
ATOM      2  O   UNL A   1      48.228  18.112  40.078  1.00  0.00    -0.376 OA
BRANCH   2   3
ATOM      3  C   UNL A   1      47.472  17.352  41.009  1.00  0.00     0.202 C 
BRANCH   3   4
ATOM      4  C   UNL A   1      45.938  17.224  40.897  1.00  0.00     0.261 C 
BRANCH   4   5
ATOM      5  O   UNL A   1      45.300  16.355  41.844  1.00  0.00    -0.460 OA
BRANCH   5   6
ATOM      6  C   UNL A   1      43.962  16.557  42.042  1.00  0.00     0.343 C 
ATOM      7  O   UNL A   1      43.482  17.531  42.568  1.00  0.00    -0.246 OA
BRANCH   6   8
ATOM      8  C   UNL A   1      43.148  15.537  41.383  1.00  0.00     0.117 A 
ATOM      9  C   UNL A   1      43.488  16.157  38.841  1.00  0.00     0.069 C 
ATOM     10  C   UNL A   1      42.962  15.329  39.962  1.00  0.00     0.068 A 
ATOM     11  N   UNL A   1      42.180  14.306  39.626  1.00  0.00    -0.195 NA
ATOM     12  S   UNL A   1      41.522  13.684  40.984  1.00  0.00    -0.017 S 
ATOM     13  C   UNL A   1      42.281  14.706  42.099  1.00  0.00     0.131 A 
BRANCH  13  14
ATOM     14  N   UNL A   1      41.983  14.776  43.457  1.00  0.00    -0.310 N 
ATOM     15  C   UNL A   1      42.267  14.038  44.580  1.00  0.00     0.286 C 
ATOM     16  H   UNL A   1      41.422  15.558  43.667  1.00  0.00     0.171 HD
ATOM     17  O   UNL A   1      41.609  14.328  45.589  1.00  0.00    -0.267 OA
BRANCH  15  18
ATOM     18  C   UNL A   1      43.362  12.935  44.648  1.00  0.00     0.174 C 
ATOM     19  C   UNL A   1      42.881  11.680  43.887  1.00  0.00     0.079 C 
ATOM     20  C   UNL A   1      43.637  12.464  46.101  1.00  0.00     0.082 C 
ATOM     21  C   UNL A   1      43.942  10.585  43.850  1.00  0.00     0.007 C 
ATOM     22  C   UNL A   1      44.676  11.312  46.203  1.00  0.00    -0.008 C 
ATOM     23  C   UNL A   1      44.328  10.146  45.261  1.00  0.00     0.004 C 
ATOM     24  C   UNL A   1      46.125  11.769  45.990  1.00  0.00     0.008 C 
BRANCH  18  25
ATOM     25  N   UNL A   1      44.636  13.534  44.195  1.00  0.00    -0.345 N 
ATOM     26  H   UNL A   1      45.360  13.362  44.894  1.00  0.00     0.345 HD
ATOM     27  H   UNL A   1      44.516  14.538  44.072  1.00  0.00     0.345 HD
ATOM     28  H   UNL A   1      44.914  13.112  43.309  1.00  0.00     0.345 HD
ENDBRANCH  18  25
ENDBRANCH  15  18
ENDBRANCH  13  14
ENDBRANCH   6   8
ENDBRANCH   5   6
ENDBRANCH   4   5
ENDBRANCH   3   4
ENDBRANCH   2   3
ENDBRANCH   1   2
BRANCH   1  29
ATOM     29  C   UNL A   1      48.384  20.045  38.366  1.00  0.00     0.188 C 
BRANCH  29  30
ATOM     30  O   UNL A   1      48.226  19.994  36.965  1.00  0.00    -0.376 OA
BRANCH  30  31
ATOM     31  C   UNL A   1      47.262  20.805  36.310  1.00  0.00     0.202 C 
BRANCH  31  32
ATOM     32  C   UNL A   1      47.464  22.294  36.026  1.00  0.00     0.261 C 
BRANCH  32  33
ATOM     33  O   UNL A   1      46.316  23.000  35.614  1.00  0.00    -0.460 OA
BRANCH  33  34
ATOM     34  C   UNL A   1      45.841  23.867  36.533  1.00  0.00     0.338 C 
ATOM     35  O   UNL A   1      45.745  23.680  37.733  1.00  0.00    -0.246 OA
BRANCH  34  36
ATOM     36  C   UNL A   1      45.463  25.097  35.838  1.00  0.00     0.060 A 
ATOM     37  C   UNL A   1      44.106  25.421  35.822  1.00  0.00     0.016 A 
ATOM     38  C   UNL A   1      46.392  25.663  34.953  1.00  0.00     0.016 A 
ATOM     39  C   UNL A   1      43.624  26.052  34.703  1.00  0.00     0.010 A 
ATOM     40  C   UNL A   1      45.909  26.281  33.837  1.00  0.00     0.010 A 
ATOM     41  C   UNL A   1      44.527  26.331  33.675  1.00  0.00    -0.014 A 
BRANCH  41  42
ATOM     42  C   UNL A   1      44.010  26.649  32.369  1.00  0.00     0.031 A 
ATOM     43  C   UNL A   1      44.222  25.557  31.405  1.00  0.00     0.074 A 
ATOM     44  C   UNL A   1      43.313  27.784  32.157  1.00  0.00     0.049 A 
ATOM     45  N   UNL A   1      45.053  25.532  30.421  1.00  0.00    -0.248 NA
ATOM     46  C   UNL A   1      43.610  24.252  31.713  1.00  0.00     0.031 C 
ATOM     47  C   UNL A   1      42.872  28.787  33.133  1.00  0.00     0.029 A 
ATOM     48  N   UNL A   1      42.757  28.233  31.005  1.00  0.00    -0.354 N 
ATOM     49  C   UNL A   1      44.861  24.295  29.824  1.00  0.00     0.074 A 
ATOM     50  C   UNL A   1      44.192  23.479  30.798  1.00  0.00     0.031 C 
ATOM     51  C   UNL A   1      41.924  29.575  32.570  1.00  0.00     0.029 A 
ATOM     52  C   UNL A   1      41.790  29.219  31.167  1.00  0.00     0.049 A 
ATOM     53  H   UNL A   1      43.019  27.887  30.121  1.00  0.00     0.167 HD
ATOM     54  C   UNL A   1      44.974  24.149  28.479  1.00  0.00     0.034 A 
ATOM     55  C   UNL A   1      40.896  29.637  30.226  1.00  0.00     0.034 A 
ATOM     56  C   UNL A   1      45.702  25.253  27.894  1.00  0.00     0.049 A 
ATOM     57  C   UNL A   1      41.469  29.243  28.908  1.00  0.00     0.074 A 
ATOM     58  C   UNL A   1      46.971  25.771  28.074  1.00  0.00     0.029 A 
ATOM     59  N   UNL A   1      44.978  26.252  27.283  1.00  0.00    -0.354 N 
ATOM     60  N   UNL A   1      42.582  29.750  28.443  1.00  0.00    -0.248 NA
ATOM     61  C   UNL A   1      41.127  27.929  28.376  1.00  0.00     0.031 C 
ATOM     62  C   UNL A   1      46.800  27.186  28.027  1.00  0.00     0.029 A 
ATOM     63  C   UNL A   1      45.460  27.457  27.740  1.00  0.00     0.049 A 
ATOM     64  H   UNL A   1      44.246  26.126  26.636  1.00  0.00     0.167 HD
ATOM     65  C   UNL A   1      43.285  28.672  27.920  1.00  0.00     0.074 A 
ATOM     66  C   UNL A   1      42.301  27.591  27.831  1.00  0.00     0.031 C 
ATOM     67  C   UNL A   1      44.653  28.657  27.897  1.00  0.00     0.034 A 
BRANCH  54  68
ATOM     68  C   UNL A   1      44.092  23.232  27.666  1.00  0.00     0.023 A 
ATOM     69  C   UNL A   1      44.713  22.481  26.654  1.00  0.00     0.031 A 
ATOM     70  C   UNL A   1      42.677  23.261  27.634  1.00  0.00     0.131 A 
ATOM     71  C   UNL A   1      43.951  21.886  25.636  1.00  0.00     0.055 A 
ATOM     72  C   UNL A   1      41.923  22.605  26.662  1.00  0.00     0.041 A 
ATOM     73  F   UNL A   1      41.940  24.004  28.469  1.00  0.00    -0.206 F 
ATOM     74  C   UNL A   1      42.560  21.938  25.634  1.00  0.00     0.022 A 
BRANCH  71  75
ATOM     75  S   UNL A   1      44.825  21.197  24.210  1.00  0.00     0.124 S 
ATOM     76  O   UNL A   1      46.205  21.192  24.682  1.00  0.00    -0.237 OA
ATOM     77  O   UNL A   1      44.186  19.893  24.070  1.00  0.00    -0.237 OA
ATOM     78  O   UNL A   1      44.535  22.153  23.143  1.00  0.00    -0.744 OA
ENDBRANCH  71  75
ENDBRANCH  54  68
BRANCH  55  79
ATOM     79  C   UNL A   1      39.443  29.904  30.467  1.00  0.00     0.023 A 
ATOM     80  C   UNL A   1      38.801  31.132  30.182  1.00  0.00     0.031 A 
ATOM     81  C   UNL A   1      38.596  28.821  30.808  1.00  0.00     0.131 A 
ATOM     82  C   UNL A   1      37.386  31.236  30.261  1.00  0.00     0.055 A 
ATOM     83  C   UNL A   1      37.207  28.931  30.888  1.00  0.00     0.041 A 
ATOM     84  F   UNL A   1      39.092  27.588  31.001  1.00  0.00    -0.206 F 
ATOM     85  C   UNL A   1      36.594  30.139  30.612  1.00  0.00     0.022 A 
BRANCH  82  86
ATOM     86  S   UNL A   1      36.530  32.800  29.864  1.00  0.00     0.124 S 
ATOM     87  O   UNL A   1      37.552  33.800  30.147  1.00  0.00    -0.237 OA
ATOM     88  O   UNL A   1      36.174  32.613  28.462  1.00  0.00    -0.237 OA
ATOM     89  O   UNL A   1      35.392  32.814  30.785  1.00  0.00    -0.744 OA
ENDBRANCH  82  86
ENDBRANCH  55  79
BRANCH  67  90
ATOM     90  C   UNL A   1      45.391  29.935  28.257  1.00  0.00     0.023 A 
ATOM     91  C   UNL A   1      45.536  31.057  27.404  1.00  0.00     0.031 A 
ATOM     92  C   UNL A   1      45.848  30.063  29.579  1.00  0.00     0.131 A 
ATOM     93  C   UNL A   1      46.131  32.243  27.889  1.00  0.00     0.055 A 
ATOM     94  C   UNL A   1      46.416  31.244  30.060  1.00  0.00     0.041 A 
ATOM     95  F   UNL A   1      45.712  29.047  30.447  1.00  0.00    -0.206 F 
ATOM     96  C   UNL A   1      46.563  32.337  29.215  1.00  0.00     0.022 A 
BRANCH  93  97
ATOM     97  S   UNL A   1      46.360  33.687  26.797  1.00  0.00     0.124 S 
ATOM     98  O   UNL A   1      45.600  34.738  27.462  1.00  0.00    -0.237 OA
ATOM     99  O   UNL A   1      47.810  33.852  26.788  1.00  0.00    -0.237 OA
ATOM    100  O   UNL A   1      45.793  33.243  25.521  1.00  0.00    -0.744 OA
ENDBRANCH  93  97
ENDBRANCH  67  90
ENDBRANCH  41  42
ENDBRANCH  34  36
ENDBRANCH  33  34
ENDBRANCH  32  33
ENDBRANCH  31  32
ENDBRANCH  30  31
ENDBRANCH  29  30
ENDBRANCH   1  29
TORSDOF 23
ENDMDL
