MODEL 1
REMARK VINA RESULT:     -11.0      0.000      0.000
REMARK SMILES CC(C)Cn1c([C@@H](O)[C@@H](O)C(=O)OCCOCCOCCOC(=O)c2ccc(-c3c4nc(c(-c5cc(S(=O)(=O)[O-])ccc5F)c5ccc([nH]5)c(-c5cc(S(=O)(=O)[O-])ccc5F)c5nc(c(-c6cc(S(=O)(=O)[O-])ccc6F)c6ccc3[nH]6)C=C5)C=C4)cc2)nc2cc(Cl)ccc21
REMARK SMILES IDX 17 1 16 2 15 3 14 4 13 5 11 6 12 7 9 8 7 9 6 10 5 11 95 12
REMARK SMILES IDX 88 13 89 14 94 15 90 16 93 17 91 18 92 19 4 20 2 21 1 22
REMARK SMILES IDX 3 23 8 24 10 26 18 28 19 29 20 30 21 31 22 32 23 33 24 34
REMARK SMILES IDX 25 35 26 36 87 37 27 38 86 39 28 40 29 41 30 42 80 43 31 44
REMARK SMILES IDX 85 45 79 46 81 47 32 48 84 49 78 50 77 51 33 53 65 54 45 55
REMARK SMILES IDX 64 56 46 57 49 58 63 59 82 60 47 61 48 62 62 64 83 65 50 66
REMARK SMILES IDX 34 67 35 68 43 69 36 70 42 71 44 72 41 73 37 74 38 75 39 76
REMARK SMILES IDX 40 77 66 78 67 79 75 80 68 81 74 82 76 83 73 84 69 85 70 86
REMARK SMILES IDX 71 87 72 88 51 89 52 90 60 91 53 92 59 93 61 94 58 95 54 96
REMARK SMILES IDX 55 97 56 98 57 99
REMARK H PARENT 8 25 10 27 81 52 49 63
REMARK Flexibility Score: inf
ROOT
ATOM      1  C   UNL A   1      31.708  29.030  22.888  1.00  0.00     0.188 C 
ENDROOT
BRANCH   1   2
ATOM      2  O   UNL A   1      30.838  28.021  22.417  1.00  0.00    -0.376 OA
BRANCH   2   3
ATOM      3  C   UNL A   1      29.540  27.909  22.987  1.00  0.00     0.202 C 
BRANCH   3   4
ATOM      4  C   UNL A   1      29.222  26.757  23.952  1.00  0.00     0.261 C 
BRANCH   4   5
ATOM      5  O   UNL A   1      30.360  25.913  24.285  1.00  0.00    -0.461 OA
BRANCH   5   6
ATOM      6  C   UNL A   1      30.492  25.672  25.615  1.00  0.00     0.338 C 
ATOM      7  O   UNL A   1      30.575  26.600  26.423  1.00  0.00    -0.249 OA
BRANCH   6   8
ATOM      8  C   UNL A   1      30.468  24.199  26.109  1.00  0.00     0.260 C 
BRANCH   8   9
ATOM      9  C   UNL A   1      30.906  22.877  25.445  1.00  0.00     0.220 C 
BRANCH   9  10
ATOM     10  C   UNL A   1      32.441  22.790  25.489  1.00  0.00     0.142 A 
ATOM     11  N   UNL A   1      33.168  21.641  25.279  1.00  0.00    -0.325 N 
ATOM     12  C   UNL A   1      34.507  21.931  25.432  1.00  0.00     0.068 A 
ATOM     13  N   UNL A   1      33.260  23.802  25.721  1.00  0.00    -0.230 NA
ATOM     14  C   UNL A   1      34.544  23.304  25.653  1.00  0.00     0.090 A 
ATOM     15  C   UNL A   1      35.670  21.152  25.372  1.00  0.00     0.030 A 
ATOM     16  C   UNL A   1      35.782  23.958  25.800  1.00  0.00     0.051 A 
ATOM     17  C   UNL A   1      36.893  21.805  25.566  1.00  0.00     0.023 A 
ATOM     18  C   UNL A   1      36.948  23.183  25.773  1.00  0.00     0.043 A 
ATOM     19  Cl  UNL A   1      38.481  23.933  26.038  1.00  0.00    -0.084 Cl
BRANCH  11  20
ATOM     20  C   UNL A   1      32.604  20.346  24.953  1.00  0.00     0.127 C 
BRANCH  20  21
ATOM     21  C   UNL A   1      32.771  19.967  23.475  1.00  0.00     0.003 C 
ATOM     22  C   UNL A   1      32.352  18.526  23.189  1.00  0.00     0.009 C 
ATOM     23  C   UNL A   1      32.094  20.968  22.556  1.00  0.00     0.009 C 
ENDBRANCH  20  21
ENDBRANCH  11  20
ENDBRANCH   9  10
BRANCH   9  24
ATOM     24  O   UNL A   1      30.478  21.691  26.114  1.00  0.00    -0.382 OA
ATOM     25  H   UNL A   1      31.050  21.527  26.879  1.00  0.00     0.211 HD
ENDBRANCH   9  24
ENDBRANCH   8   9
BRANCH   8  26
ATOM     26  O   UNL A   1      31.165  24.339  27.366  1.00  0.00    -0.379 OA
ATOM     27  H   UNL A   1      31.956  23.778  27.361  1.00  0.00     0.211 HD
ENDBRANCH   8  26
ENDBRANCH   6   8
ENDBRANCH   5   6
ENDBRANCH   4   5
ENDBRANCH   3   4
ENDBRANCH   2   3
ENDBRANCH   1   2
BRANCH   1  28
ATOM     28  C   UNL A   1      32.850  28.616  23.806  1.00  0.00     0.188 C 
BRANCH  28  29
ATOM     29  O   UNL A   1      33.180  29.366  24.945  1.00  0.00    -0.376 OA
BRANCH  29  30
ATOM     30  C   UNL A   1      32.114  30.008  25.611  1.00  0.00     0.202 C 
BRANCH  30  31
ATOM     31  C   UNL A   1      32.340  31.116  26.680  1.00  0.00     0.261 C 
BRANCH  31  32
ATOM     32  O   UNL A   1      33.338  30.864  27.698  1.00  0.00    -0.460 OA
BRANCH  32  33
ATOM     33  C   UNL A   1      34.432  31.689  27.732  1.00  0.00     0.338 C 
ATOM     34  O   UNL A   1      34.400  32.908  27.617  1.00  0.00    -0.246 OA
BRANCH  33  35
ATOM     35  C   UNL A   1      35.620  30.928  28.275  1.00  0.00     0.060 A 
ATOM     36  C   UNL A   1      36.753  31.561  28.797  1.00  0.00     0.016 A 
ATOM     37  C   UNL A   1      35.716  29.566  27.956  1.00  0.00     0.016 A 
ATOM     38  C   UNL A   1      37.988  30.874  28.861  1.00  0.00     0.010 A 
ATOM     39  C   UNL A   1      36.949  28.885  28.044  1.00  0.00     0.010 A 
ATOM     40  C   UNL A   1      38.124  29.537  28.429  1.00  0.00    -0.014 A 
BRANCH  40  41
ATOM     41  C   UNL A   1      39.360  28.757  28.759  1.00  0.00     0.031 A 
ATOM     42  C   UNL A   1      39.581  28.731  30.208  1.00  0.00     0.074 A 
ATOM     43  C   UNL A   1      40.296  28.060  28.059  1.00  0.00     0.049 A 
ATOM     44  N   UNL A   1      40.479  29.438  30.804  1.00  0.00    -0.248 NA
ATOM     45  C   UNL A   1      38.640  28.040  31.084  1.00  0.00     0.031 C 
ATOM     46  C   UNL A   1      40.471  27.977  26.639  1.00  0.00     0.029 A 
ATOM     47  N   UNL A   1      41.344  27.259  28.472  1.00  0.00    -0.354 N 
ATOM     48  C   UNL A   1      40.375  29.108  32.137  1.00  0.00     0.074 A 
ATOM     49  C   UNL A   1      39.121  28.402  32.274  1.00  0.00     0.031 C 
ATOM     50  C   UNL A   1      41.273  26.961  26.261  1.00  0.00     0.029 A 
ATOM     51  C   UNL A   1      41.893  26.452  27.464  1.00  0.00     0.049 A 
ATOM     52  H   UNL A   1      41.678  27.254  29.398  1.00  0.00     0.167 HD
ATOM     53  C   UNL A   1      41.448  29.249  32.961  1.00  0.00     0.034 A 
ATOM     54  C   UNL A   1      43.036  25.718  27.380  1.00  0.00     0.034 A 
ATOM     55  C   UNL A   1      42.474  30.079  32.370  1.00  0.00     0.049 A 
ATOM     56  C   UNL A   1      43.981  26.237  28.379  1.00  0.00     0.074 A 
ATOM     57  C   UNL A   1      42.518  31.374  31.892  1.00  0.00     0.029 A 
ATOM     58  N   UNL A   1      43.599  29.467  31.874  1.00  0.00    -0.354 N 
ATOM     59  N   UNL A   1      44.649  27.343  28.224  1.00  0.00    -0.248 NA
ATOM     60  C   UNL A   1      43.802  25.778  29.743  1.00  0.00     0.031 C 
ATOM     61  C   UNL A   1      43.398  31.336  30.774  1.00  0.00     0.029 A 
ATOM     62  C   UNL A   1      43.896  30.039  30.663  1.00  0.00     0.049 A 
ATOM     63  H   UNL A   1      44.106  28.745  32.312  1.00  0.00     0.167 HD
ATOM     64  C   UNL A   1      44.515  27.972  29.448  1.00  0.00     0.074 A 
ATOM     65  C   UNL A   1      44.059  26.928  30.367  1.00  0.00     0.031 C 
ATOM     66  C   UNL A   1      44.507  29.332  29.554  1.00  0.00     0.034 A 
BRANCH  53  67
ATOM     67  C   UNL A   1      41.683  28.350  34.140  1.00  0.00     0.023 A 
ATOM     68  C   UNL A   1      42.381  27.132  34.041  1.00  0.00     0.031 A 
ATOM     69  C   UNL A   1      41.392  28.793  35.441  1.00  0.00     0.131 A 
ATOM     70  C   UNL A   1      42.723  26.386  35.171  1.00  0.00     0.055 A 
ATOM     71  C   UNL A   1      41.804  28.088  36.578  1.00  0.00     0.041 A 
ATOM     72  F   UNL A   1      40.751  29.952  35.650  1.00  0.00    -0.206 F 
ATOM     73  C   UNL A   1      42.469  26.874  36.446  1.00  0.00     0.022 A 
BRANCH  70  74
ATOM     74  S   UNL A   1      43.511  24.764  34.987  1.00  0.00     0.124 S 
ATOM     75  O   UNL A   1      42.380  23.860  35.157  1.00  0.00    -0.237 OA
ATOM     76  O   UNL A   1      44.055  24.856  33.634  1.00  0.00    -0.237 OA
ATOM     77  O   UNL A   1      44.510  24.745  36.052  1.00  0.00    -0.744 OA
ENDBRANCH  70  74
ENDBRANCH  53  67
BRANCH  54  78
ATOM     78  C   UNL A   1      43.099  24.315  26.891  1.00  0.00     0.023 A 
ATOM     79  C   UNL A   1      44.054  23.943  25.932  1.00  0.00     0.031 A 
ATOM     80  C   UNL A   1      42.068  23.393  27.158  1.00  0.00     0.131 A 
ATOM     81  C   UNL A   1      43.905  22.753  25.203  1.00  0.00     0.055 A 
ATOM     82  C   UNL A   1      41.940  22.191  26.448  1.00  0.00     0.041 A 
ATOM     83  F   UNL A   1      41.125  23.668  28.071  1.00  0.00    -0.206 F 
ATOM     84  C   UNL A   1      42.849  21.876  25.446  1.00  0.00     0.022 A 
BRANCH  81  85
ATOM     85  S   UNL A   1      45.076  22.374  23.879  1.00  0.00     0.124 S 
ATOM     86  O   UNL A   1      45.942  23.551  23.855  1.00  0.00    -0.237 OA
ATOM     87  O   UNL A   1      45.692  21.149  24.372  1.00  0.00    -0.237 OA
ATOM     88  O   UNL A   1      44.203  22.242  22.719  1.00  0.00    -0.744 OA
ENDBRANCH  81  85
ENDBRANCH  54  78
BRANCH  66  89
ATOM     89  C   UNL A   1      44.935  30.183  28.375  1.00  0.00     0.023 A 
ATOM     90  C   UNL A   1      46.257  30.664  28.396  1.00  0.00     0.031 A 
ATOM     91  C   UNL A   1      44.067  30.716  27.402  1.00  0.00     0.131 A 
ATOM     92  C   UNL A   1      46.661  31.684  27.527  1.00  0.00     0.055 A 
ATOM     93  C   UNL A   1      44.494  31.692  26.490  1.00  0.00     0.041 A 
ATOM     94  F   UNL A   1      42.771  30.377  27.357  1.00  0.00    -0.206 F 
ATOM     95  C   UNL A   1      45.789  32.196  26.564  1.00  0.00     0.022 A 
BRANCH  92  96
ATOM     96  S   UNL A   1      48.275  32.478  27.748  1.00  0.00     0.124 S 
ATOM     97  O   UNL A   1      48.762  31.856  28.976  1.00  0.00    -0.237 OA
ATOM     98  O   UNL A   1      48.983  32.093  26.528  1.00  0.00    -0.237 OA
ATOM     99  O   UNL A   1      47.960  33.900  27.852  1.00  0.00    -0.744 OA
ENDBRANCH  92  96
ENDBRANCH  66  89
ENDBRANCH  40  41
ENDBRANCH  33  35
ENDBRANCH  32  33
ENDBRANCH  31  32
ENDBRANCH  30  31
ENDBRANCH  29  30
ENDBRANCH  28  29
ENDBRANCH   1  28
TORSDOF 26
ENDMDL
MODEL 2
REMARK VINA RESULT:     -10.9      1.550      2.436
REMARK SMILES CC(C)Cn1c([C@@H](O)[C@@H](O)C(=O)OCCOCCOCCOC(=O)c2ccc(-c3c4nc(c(-c5cc(S(=O)(=O)[O-])ccc5F)c5ccc([nH]5)c(-c5cc(S(=O)(=O)[O-])ccc5F)c5nc(c(-c6cc(S(=O)(=O)[O-])ccc6F)c6ccc3[nH]6)C=C5)C=C4)cc2)nc2cc(Cl)ccc21
REMARK SMILES IDX 17 1 16 2 15 3 14 4 13 5 11 6 12 7 9 8 7 9 6 10 5 11 95 12
REMARK SMILES IDX 88 13 89 14 94 15 90 16 93 17 91 18 92 19 4 20 2 21 1 22
REMARK SMILES IDX 3 23 8 24 10 26 18 28 19 29 20 30 21 31 22 32 23 33 24 34
REMARK SMILES IDX 25 35 26 36 87 37 27 38 86 39 28 40 29 41 30 42 80 43 31 44
REMARK SMILES IDX 85 45 79 46 81 47 32 48 84 49 78 50 77 51 33 53 65 54 45 55
REMARK SMILES IDX 64 56 46 57 49 58 63 59 82 60 47 61 48 62 62 64 83 65 50 66
REMARK SMILES IDX 34 67 35 68 43 69 36 70 42 71 44 72 41 73 37 74 38 75 39 76
REMARK SMILES IDX 40 77 66 78 67 79 75 80 68 81 74 82 76 83 73 84 69 85 70 86
REMARK SMILES IDX 71 87 72 88 51 89 52 90 60 91 53 92 59 93 61 94 58 95 54 96
REMARK SMILES IDX 55 97 56 98 57 99
REMARK H PARENT 8 25 10 27 81 52 49 63
REMARK Flexibility Score: inf
ROOT
ATOM      1  C   UNL A   1      33.328  26.933  24.002  1.00  0.00     0.188 C 
ENDROOT
BRANCH   1   2
ATOM      2  O   UNL A   1      32.566  25.799  24.367  1.00  0.00    -0.376 OA
BRANCH   2   3
ATOM      3  C   UNL A   1      31.148  25.867  24.287  1.00  0.00     0.202 C 
BRANCH   3   4
ATOM      4  C   UNL A   1      30.303  25.783  25.567  1.00  0.00     0.261 C 
BRANCH   4   5
ATOM      5  O   UNL A   1      30.967  25.138  26.691  1.00  0.00    -0.461 OA
BRANCH   5   6
ATOM      6  C   UNL A   1      30.616  23.837  26.859  1.00  0.00     0.338 C 
ATOM      7  O   UNL A   1      29.490  23.529  27.257  1.00  0.00    -0.249 OA
BRANCH   6   8
ATOM      8  C   UNL A   1      31.641  22.735  26.475  1.00  0.00     0.260 C 
BRANCH   8   9
ATOM      9  C   UNL A   1      32.489  22.507  25.205  1.00  0.00     0.220 C 
BRANCH   9  10
ATOM     10  C   UNL A   1      32.902  21.026  25.151  1.00  0.00     0.142 A 
ATOM     11  N   UNL A   1      34.139  20.570  24.757  1.00  0.00    -0.325 N 
ATOM     12  C   UNL A   1      34.136  19.192  24.797  1.00  0.00     0.068 A 
ATOM     13  N   UNL A   1      32.133  20.002  25.483  1.00  0.00    -0.230 NA
ATOM     14  C   UNL A   1      32.886  18.860  25.309  1.00  0.00     0.090 A 
ATOM     15  C   UNL A   1      35.093  18.222  24.472  1.00  0.00     0.030 A 
ATOM     16  C   UNL A   1      32.558  17.511  25.539  1.00  0.00     0.051 A 
ATOM     17  C   UNL A   1      34.738  16.880  24.660  1.00  0.00     0.023 A 
ATOM     18  C   UNL A   1      33.495  16.532  25.187  1.00  0.00     0.043 A 
ATOM     19  Cl  UNL A   1      33.098  14.862  25.371  1.00  0.00    -0.084 Cl
BRANCH  11  20
ATOM     20  C   UNL A   1      35.252  21.414  24.366  1.00  0.00     0.127 C 
BRANCH  20  21
ATOM     21  C   UNL A   1      36.251  21.664  25.503  1.00  0.00     0.003 C 
ATOM     22  C   UNL A   1      37.700  21.674  25.017  1.00  0.00     0.009 C 
ATOM     23  C   UNL A   1      35.893  22.902  26.306  1.00  0.00     0.009 C 
ENDBRANCH  20  21
ENDBRANCH  11  20
ENDBRANCH   9  10
BRANCH   9  24
ATOM     24  O   UNL A   1      31.802  22.715  23.972  1.00  0.00    -0.382 OA
ATOM     25  H   UNL A   1      31.020  23.268  24.127  1.00  0.00     0.211 HD
ENDBRANCH   9  24
ENDBRANCH   8   9
BRANCH   8  26
ATOM     26  O   UNL A   1      32.525  22.798  27.616  1.00  0.00    -0.379 OA
ATOM     27  H   UNL A   1      33.082  23.589  27.550  1.00  0.00     0.211 HD
ENDBRANCH   8  26
ENDBRANCH   6   8
ENDBRANCH   5   6
ENDBRANCH   4   5
ENDBRANCH   3   4
ENDBRANCH   2   3
ENDBRANCH   1   2
BRANCH   1  28
ATOM     28  C   UNL A   1      33.663  27.946  25.088  1.00  0.00     0.188 C 
BRANCH  28  29
ATOM     29  O   UNL A   1      32.898  29.108  25.264  1.00  0.00    -0.376 OA
BRANCH  29  30
ATOM     30  C   UNL A   1      32.451  29.379  26.575  1.00  0.00     0.202 C 
BRANCH  30  31
ATOM     31  C   UNL A   1      32.625  30.772  27.247  1.00  0.00     0.261 C 
BRANCH  31  32
ATOM     32  O   UNL A   1      33.846  31.498  26.967  1.00  0.00    -0.460 OA
BRANCH  32  33
ATOM     33  C   UNL A   1      34.616  31.881  28.035  1.00  0.00     0.338 C 
ATOM     34  O   UNL A   1      34.222  32.547  28.985  1.00  0.00    -0.246 OA
BRANCH  33  35
ATOM     35  C   UNL A   1      35.899  31.082  28.043  1.00  0.00     0.060 A 
ATOM     36  C   UNL A   1      35.961  29.741  27.649  1.00  0.00     0.016 A 
ATOM     37  C   UNL A   1      36.982  31.607  28.762  1.00  0.00     0.016 A 
ATOM     38  C   UNL A   1      37.022  28.917  28.089  1.00  0.00     0.010 A 
ATOM     39  C   UNL A   1      38.046  30.778  29.179  1.00  0.00     0.010 A 
ATOM     40  C   UNL A   1      38.057  29.405  28.915  1.00  0.00    -0.014 A 
BRANCH  40  41
ATOM     41  C   UNL A   1      39.296  28.593  29.139  1.00  0.00     0.031 A 
ATOM     42  C   UNL A   1      39.630  28.548  30.566  1.00  0.00     0.074 A 
ATOM     43  C   UNL A   1      40.156  27.881  28.362  1.00  0.00     0.049 A 
ATOM     44  N   UNL A   1      40.590  29.229  31.094  1.00  0.00    -0.248 NA
ATOM     45  C   UNL A   1      38.745  27.872  31.509  1.00  0.00     0.031 C 
ATOM     46  C   UNL A   1      40.215  27.807  26.931  1.00  0.00     0.029 A 
ATOM     47  N   UNL A   1      41.214  27.051  28.684  1.00  0.00    -0.354 N 
ATOM     48  C   UNL A   1      40.584  28.889  32.429  1.00  0.00     0.074 A 
ATOM     49  C   UNL A   1      39.329  28.211  32.660  1.00  0.00     0.031 C 
ATOM     50  C   UNL A   1      40.960  26.775  26.483  1.00  0.00     0.029 A 
ATOM     51  C   UNL A   1      41.661  26.241  27.629  1.00  0.00     0.049 A 
ATOM     52  H   UNL A   1      41.620  27.030  29.580  1.00  0.00     0.167 HD
ATOM     53  C   UNL A   1      41.722  28.996  33.165  1.00  0.00     0.034 A 
ATOM     54  C   UNL A   1      42.776  25.482  27.449  1.00  0.00     0.034 A 
ATOM     55  C   UNL A   1      42.718  29.807  32.501  1.00  0.00     0.049 A 
ATOM     56  C   UNL A   1      43.810  25.969  28.374  1.00  0.00     0.074 A 
ATOM     57  C   UNL A   1      42.755  31.106  32.030  1.00  0.00     0.029 A 
ATOM     58  N   UNL A   1      43.785  29.174  31.912  1.00  0.00    -0.354 N 
ATOM     59  N   UNL A   1      44.490  27.060  28.174  1.00  0.00    -0.248 NA
ATOM     60  C   UNL A   1      43.728  25.502  29.744  1.00  0.00     0.031 C 
ATOM     61  C   UNL A   1      43.542  31.057  30.845  1.00  0.00     0.029 A 
ATOM     62  C   UNL A   1      43.998  29.750  30.685  1.00  0.00     0.049 A 
ATOM     63  H   UNL A   1      44.307  28.436  32.302  1.00  0.00     0.167 HD
ATOM     64  C   UNL A   1      44.469  27.681  29.410  1.00  0.00     0.074 A 
ATOM     65  C   UNL A   1      44.062  26.639  30.354  1.00  0.00     0.031 C 
ATOM     66  C   UNL A   1      44.502  29.040  29.526  1.00  0.00     0.034 A 
BRANCH  53  67
ATOM     67  C   UNL A   1      42.028  28.082  34.315  1.00  0.00     0.023 A 
ATOM     68  C   UNL A   1      42.733  26.874  34.159  1.00  0.00     0.031 A 
ATOM     69  C   UNL A   1      41.802  28.500  35.637  1.00  0.00     0.131 A 
ATOM     70  C   UNL A   1      43.142  26.113  35.257  1.00  0.00     0.055 A 
ATOM     71  C   UNL A   1      42.281  27.782  36.739  1.00  0.00     0.041 A 
ATOM     72  F   UNL A   1      41.161  29.649  35.899  1.00  0.00    -0.206 F 
ATOM     73  C   UNL A   1      42.950  26.578  36.551  1.00  0.00     0.022 A 
BRANCH  70  74
ATOM     74  S   UNL A   1      43.936  24.503  35.004  1.00  0.00     0.124 S 
ATOM     75  O   UNL A   1      43.018  23.605  35.695  1.00  0.00    -0.237 OA
ATOM     76  O   UNL A   1      43.944  24.407  33.547  1.00  0.00    -0.237 OA
ATOM     77  O   UNL A   1      45.251  24.669  35.619  1.00  0.00    -0.744 OA
ENDBRANCH  70  74
ENDBRANCH  53  67
BRANCH  54  78
ATOM     78  C   UNL A   1      42.766  24.082  26.947  1.00  0.00     0.023 A 
ATOM     79  C   UNL A   1      43.860  23.584  26.221  1.00  0.00     0.031 A 
ATOM     80  C   UNL A   1      41.590  23.307  26.943  1.00  0.00     0.131 A 
ATOM     81  C   UNL A   1      43.729  22.424  25.442  1.00  0.00     0.055 A 
ATOM     82  C   UNL A   1      41.473  22.132  26.187  1.00  0.00     0.041 A 
ATOM     83  F   UNL A   1      40.505  23.707  27.623  1.00  0.00    -0.206 F 
ATOM     84  C   UNL A   1      42.540  21.697  25.411  1.00  0.00     0.022 A 
BRANCH  81  85
ATOM     85  S   UNL A   1      45.113  21.889  24.411  1.00  0.00     0.124 S 
ATOM     86  O   UNL A   1      46.196  21.711  25.377  1.00  0.00    -0.237 OA
ATOM     87  O   UNL A   1      44.588  20.664  23.823  1.00  0.00    -0.237 OA
ATOM     88  O   UNL A   1      45.288  23.021  23.511  1.00  0.00    -0.744 OA
ENDBRANCH  81  85
ENDBRANCH  54  78
BRANCH  66  89
ATOM     89  C   UNL A   1      44.855  29.891  28.322  1.00  0.00     0.023 A 
ATOM     90  C   UNL A   1      46.174  30.379  28.265  1.00  0.00     0.031 A 
ATOM     91  C   UNL A   1      43.929  30.418  27.402  1.00  0.00     0.131 A 
ATOM     92  C   UNL A   1      46.520  31.400  27.373  1.00  0.00     0.055 A 
ATOM     93  C   UNL A   1      44.296  31.396  26.465  1.00  0.00     0.041 A 
ATOM     94  F   UNL A   1      42.635  30.072  27.434  1.00  0.00    -0.206 F 
ATOM     95  C   UNL A   1      45.591  31.906  26.463  1.00  0.00     0.022 A 
BRANCH  92  96
ATOM     96  S   UNL A   1      48.140  32.202  27.497  1.00  0.00     0.124 S 
ATOM     97  O   UNL A   1      48.417  32.561  26.109  1.00  0.00    -0.237 OA
ATOM     98  O   UNL A   1      47.866  33.326  28.391  1.00  0.00    -0.237 OA
ATOM     99  O   UNL A   1      49.007  31.169  28.057  1.00  0.00    -0.744 OA
ENDBRANCH  92  96
ENDBRANCH  66  89
ENDBRANCH  40  41
ENDBRANCH  33  35
ENDBRANCH  32  33
ENDBRANCH  31  32
ENDBRANCH  30  31
ENDBRANCH  29  30
ENDBRANCH  28  29
ENDBRANCH   1  28
TORSDOF 26
ENDMDL
MODEL 3
REMARK VINA RESULT:     -10.5      3.378      7.659
REMARK SMILES CC(C)Cn1c([C@@H](O)[C@@H](O)C(=O)OCCOCCOCCOC(=O)c2ccc(-c3c4nc(c(-c5cc(S(=O)(=O)[O-])ccc5F)c5ccc([nH]5)c(-c5cc(S(=O)(=O)[O-])ccc5F)c5nc(c(-c6cc(S(=O)(=O)[O-])ccc6F)c6ccc3[nH]6)C=C5)C=C4)cc2)nc2cc(Cl)ccc21
REMARK SMILES IDX 17 1 16 2 15 3 14 4 13 5 11 6 12 7 9 8 7 9 6 10 5 11 95 12
REMARK SMILES IDX 88 13 89 14 94 15 90 16 93 17 91 18 92 19 4 20 2 21 1 22
REMARK SMILES IDX 3 23 8 24 10 26 18 28 19 29 20 30 21 31 22 32 23 33 24 34
REMARK SMILES IDX 25 35 26 36 87 37 27 38 86 39 28 40 29 41 30 42 80 43 31 44
REMARK SMILES IDX 85 45 79 46 81 47 32 48 84 49 78 50 77 51 33 53 65 54 45 55
REMARK SMILES IDX 64 56 46 57 49 58 63 59 82 60 47 61 48 62 62 64 83 65 50 66
REMARK SMILES IDX 34 67 35 68 43 69 36 70 42 71 44 72 41 73 37 74 38 75 39 76
REMARK SMILES IDX 40 77 66 78 67 79 75 80 68 81 74 82 76 83 73 84 69 85 70 86
REMARK SMILES IDX 71 87 72 88 51 89 52 90 60 91 53 92 59 93 61 94 58 95 54 96
REMARK SMILES IDX 55 97 56 98 57 99
REMARK H PARENT 8 25 10 27 81 52 49 63
REMARK Flexibility Score: inf
ROOT
ATOM      1  C   UNL A   1      31.961  27.206  22.051  1.00  0.00     0.188 C 
ENDROOT
BRANCH   1   2
ATOM      2  O   UNL A   1      30.756  26.574  22.431  1.00  0.00    -0.376 OA
BRANCH   2   3
ATOM      3  C   UNL A   1      29.976  27.147  23.472  1.00  0.00     0.202 C 
BRANCH   3   4
ATOM      4  C   UNL A   1      29.952  26.493  24.862  1.00  0.00     0.261 C 
BRANCH   4   5
ATOM      5  O   UNL A   1      30.427  25.117  24.894  1.00  0.00    -0.461 OA
BRANCH   5   6
ATOM      6  C   UNL A   1      31.357  24.882  25.855  1.00  0.00     0.338 C 
ATOM      7  O   UNL A   1      31.047  24.870  27.049  1.00  0.00    -0.249 OA
BRANCH   6   8
ATOM      8  C   UNL A   1      32.812  24.559  25.417  1.00  0.00     0.260 C 
BRANCH   8   9
ATOM      9  C   UNL A   1      33.391  23.919  24.138  1.00  0.00     0.220 C 
BRANCH   9  10
ATOM     10  C   UNL A   1      33.510  22.401  24.359  1.00  0.00     0.142 A 
ATOM     11  N   UNL A   1      34.692  21.697  24.353  1.00  0.00    -0.325 N 
ATOM     12  C   UNL A   1      34.413  20.361  24.546  1.00  0.00     0.068 A 
ATOM     13  N   UNL A   1      32.501  21.579  24.595  1.00  0.00    -0.230 NA
ATOM     14  C   UNL A   1      33.037  20.318  24.752  1.00  0.00     0.090 A 
ATOM     15  C   UNL A   1      35.212  19.211  24.591  1.00  0.00     0.030 A 
ATOM     16  C   UNL A   1      32.409  19.092  25.040  1.00  0.00     0.051 A 
ATOM     17  C   UNL A   1      34.569  17.990  24.831  1.00  0.00     0.023 A 
ATOM     18  C   UNL A   1      33.194  17.933  25.055  1.00  0.00     0.043 A 
ATOM     19  Cl  UNL A   1      32.449  16.397  25.316  1.00  0.00    -0.084 Cl
BRANCH  11  20
ATOM     20  C   UNL A   1      36.007  22.279  24.170  1.00  0.00     0.127 C 
BRANCH  20  21
ATOM     21  C   UNL A   1      36.817  22.367  25.470  1.00  0.00     0.003 C 
ATOM     22  C   UNL A   1      38.105  21.547  25.414  1.00  0.00     0.009 C 
ATOM     23  C   UNL A   1      37.056  23.807  25.891  1.00  0.00     0.009 C 
ENDBRANCH  20  21
ENDBRANCH  11  20
ENDBRANCH   9  10
BRANCH   9  24
ATOM     24  O   UNL A   1      32.568  24.031  22.978  1.00  0.00    -0.382 OA
ATOM     25  H   UNL A   1      31.794  24.578  23.182  1.00  0.00     0.211 HD
ENDBRANCH   9  24
ENDBRANCH   8   9
BRANCH   8  26
ATOM     26  O   UNL A   1      33.430  25.851  25.609  1.00  0.00    -0.379 OA
ATOM     27  H   UNL A   1      34.391  25.742  25.681  1.00  0.00     0.211 HD
ENDBRANCH   8  26
ENDBRANCH   6   8
ENDBRANCH   5   6
ENDBRANCH   4   5
ENDBRANCH   3   4
ENDBRANCH   2   3
ENDBRANCH   1   2
BRANCH   1  28
ATOM     28  C   UNL A   1      32.417  28.416  22.857  1.00  0.00     0.188 C 
BRANCH  28  29
ATOM     29  O   UNL A   1      33.274  28.278  23.958  1.00  0.00    -0.376 OA
BRANCH  29  30
ATOM     30  C   UNL A   1      33.163  29.252  24.973  1.00  0.00     0.202 C 
BRANCH  30  31
ATOM     31  C   UNL A   1      31.792  29.823  25.438  1.00  0.00     0.261 C 
BRANCH  31  32
ATOM     32  O   UNL A   1      31.720  30.378  26.773  1.00  0.00    -0.460 OA
BRANCH  32  33
ATOM     33  C   UNL A   1      32.083  31.690  26.935  1.00  0.00     0.338 C 
ATOM     34  O   UNL A   1      31.349  32.653  26.754  1.00  0.00    -0.246 OA
BRANCH  33  35
ATOM     35  C   UNL A   1      33.388  31.761  27.696  1.00  0.00     0.060 A 
ATOM     36  C   UNL A   1      34.118  32.945  27.842  1.00  0.00     0.016 A 
ATOM     37  C   UNL A   1      34.032  30.550  27.988  1.00  0.00     0.016 A 
ATOM     38  C   UNL A   1      35.500  32.898  28.138  1.00  0.00     0.010 A 
ATOM     39  C   UNL A   1      35.408  30.518  28.302  1.00  0.00     0.010 A 
ATOM     40  C   UNL A   1      36.187  31.678  28.315  1.00  0.00    -0.014 A 
BRANCH  40  41
ATOM     41  C   UNL A   1      37.571  31.664  28.889  1.00  0.00     0.031 A 
ATOM     42  C   UNL A   1      38.226  30.379  28.622  1.00  0.00     0.074 A 
ATOM     43  C   UNL A   1      38.363  32.542  29.563  1.00  0.00     0.049 A 
ATOM     44  N   UNL A   1      38.390  29.465  29.517  1.00  0.00    -0.248 NA
ATOM     45  C   UNL A   1      38.547  29.987  27.254  1.00  0.00     0.031 C 
ATOM     46  C   UNL A   1      38.018  33.825  30.102  1.00  0.00     0.029 A 
ATOM     47  N   UNL A   1      39.690  32.475  29.946  1.00  0.00    -0.354 N 
ATOM     48  C   UNL A   1      39.056  28.445  28.874  1.00  0.00     0.074 A 
ATOM     49  C   UNL A   1      38.957  28.734  27.461  1.00  0.00     0.031 C 
ATOM     50  C   UNL A   1      39.093  34.574  30.420  1.00  0.00     0.029 A 
ATOM     51  C   UNL A   1      40.245  33.703  30.339  1.00  0.00     0.049 A 
ATOM     52  H   UNL A   1      40.204  31.636  29.942  1.00  0.00     0.167 HD
ATOM     53  C   UNL A   1      39.827  27.580  29.585  1.00  0.00     0.034 A 
ATOM     54  C   UNL A   1      41.396  34.039  30.983  1.00  0.00     0.034 A 
ATOM     55  C   UNL A   1      39.548  27.650  31.002  1.00  0.00     0.049 A 
ATOM     56  C   UNL A   1      41.872  32.852  31.708  1.00  0.00     0.074 A 
ATOM     57  C   UNL A   1      38.419  27.472  31.778  1.00  0.00     0.029 A 
ATOM     58  N   UNL A   1      40.451  28.295  31.811  1.00  0.00    -0.354 N 
ATOM     59  N   UNL A   1      41.342  32.434  32.820  1.00  0.00    -0.248 NA
ATOM     60  C   UNL A   1      42.606  31.869  30.934  1.00  0.00     0.031 C 
ATOM     61  C   UNL A   1      38.532  28.419  32.834  1.00  0.00     0.029 A 
ATOM     62  C   UNL A   1      39.749  29.083  32.688  1.00  0.00     0.049 A 
ATOM     63  H   UNL A   1      41.431  28.207  31.771  1.00  0.00     0.167 HD
ATOM     64  C   UNL A   1      41.225  31.069  32.626  1.00  0.00     0.074 A 
ATOM     65  C   UNL A   1      42.095  30.769  31.487  1.00  0.00     0.031 C 
ATOM     66  C   UNL A   1      40.226  30.348  33.211  1.00  0.00     0.034 A 
BRANCH  53  67
ATOM     67  C   UNL A   1      41.056  26.936  29.012  1.00  0.00     0.023 A 
ATOM     68  C   UNL A   1      41.081  25.597  28.579  1.00  0.00     0.031 A 
ATOM     69  C   UNL A   1      42.182  27.712  28.690  1.00  0.00     0.131 A 
ATOM     70  C   UNL A   1      42.183  25.061  27.908  1.00  0.00     0.055 A 
ATOM     71  C   UNL A   1      43.253  27.200  27.948  1.00  0.00     0.041 A 
ATOM     72  F   UNL A   1      42.252  29.006  29.035  1.00  0.00    -0.206 F 
ATOM     73  C   UNL A   1      43.260  25.865  27.558  1.00  0.00     0.022 A 
BRANCH  70  74
ATOM     74  S   UNL A   1      42.220  23.300  27.481  1.00  0.00     0.124 S 
ATOM     75  O   UNL A   1      43.566  23.151  26.940  1.00  0.00    -0.237 OA
ATOM     76  O   UNL A   1      41.985  22.678  28.782  1.00  0.00    -0.237 OA
ATOM     77  O   UNL A   1      41.128  23.156  26.522  1.00  0.00    -0.744 OA
ENDBRANCH  70  74
ENDBRANCH  53  67
BRANCH  54  78
ATOM     78  C   UNL A   1      42.322  35.115  30.540  1.00  0.00     0.023 A 
ATOM     79  C   UNL A   1      42.434  35.435  29.178  1.00  0.00     0.031 A 
ATOM     80  C   UNL A   1      43.293  35.657  31.406  1.00  0.00     0.131 A 
ATOM     81  C   UNL A   1      43.533  36.168  28.706  1.00  0.00     0.055 A 
ATOM     82  C   UNL A   1      44.374  36.414  30.934  1.00  0.00     0.041 A 
ATOM     83  F   UNL A   1      43.247  35.409  32.724  1.00  0.00    -0.206 F 
ATOM     84  C   UNL A   1      44.512  36.653  29.572  1.00  0.00     0.022 A 
BRANCH  81  85
ATOM     85  S   UNL A   1      43.718  36.442  26.930  1.00  0.00     0.124 S 
ATOM     86  O   UNL A   1      43.548  37.888  26.798  1.00  0.00    -0.237 OA
ATOM     87  O   UNL A   1      45.065  35.942  26.692  1.00  0.00    -0.237 OA
ATOM     88  O   UNL A   1      42.624  35.653  26.377  1.00  0.00    -0.744 OA
ENDBRANCH  81  85
ENDBRANCH  54  78
BRANCH  66  89
ATOM     89  C   UNL A   1      39.395  30.970  34.316  1.00  0.00     0.023 A 
ATOM     90  C   UNL A   1      38.264  31.702  33.913  1.00  0.00     0.031 A 
ATOM     91  C   UNL A   1      39.787  31.076  35.665  1.00  0.00     0.131 A 
ATOM     92  C   UNL A   1      37.605  32.553  34.807  1.00  0.00     0.055 A 
ATOM     93  C   UNL A   1      39.086  31.879  36.575  1.00  0.00     0.041 A 
ATOM     94  F   UNL A   1      40.897  30.478  36.121  1.00  0.00    -0.206 F 
ATOM     95  C   UNL A   1      38.003  32.640  36.143  1.00  0.00     0.022 A 
BRANCH  92  96
ATOM     96  S   UNL A   1      36.326  33.688  34.207  1.00  0.00     0.124 S 
ATOM     97  O   UNL A   1      37.115  34.819  33.727  1.00  0.00    -0.237 OA
ATOM     98  O   UNL A   1      35.669  32.898  33.167  1.00  0.00    -0.237 OA
ATOM     99  O   UNL A   1      35.507  33.956  35.385  1.00  0.00    -0.744 OA
ENDBRANCH  92  96
ENDBRANCH  66  89
ENDBRANCH  40  41
ENDBRANCH  33  35
ENDBRANCH  32  33
ENDBRANCH  31  32
ENDBRANCH  30  31
ENDBRANCH  29  30
ENDBRANCH  28  29
ENDBRANCH   1  28
TORSDOF 26
ENDMDL
