MODEL 1
REMARK VINA RESULT:     -10.4      0.000      0.000
REMARK SMILES O=C(OCCOCCOCCOC(=O)c1ccc(-n2cc(CSc3nc4ccccc4c(=O)n3-c3ccc(Br)cc3)nn2)cc1)c1ccc(-c2c3nc(c(-c4cc(S(=O)(=O)[O-])ccc4F)c4ccc([nH]4)c(-c4cc(S(=O)(=O)[O-])ccc4F)c4nc(c(-c5cc(S(=O)(=O)[O-])ccc5F)c5ccc2[nH]5)C=C4)C=C3)cc1
REMARK SMILES IDX 8 1 7 2 6 3 5 4 4 5 3 6 2 7 1 8 46 9 47 10 108 11 48 12
REMARK SMILES IDX 107 13 49 14 50 15 51 16 101 17 52 18 106 19 100 20 102 21
REMARK SMILES IDX 53 22 105 23 99 24 98 25 54 27 86 28 66 29 85 30 67 31 70 32
REMARK SMILES IDX 84 33 103 34 68 35 69 36 83 38 104 39 71 40 55 41 56 42
REMARK SMILES IDX 64 43 57 44 63 45 65 46 62 47 58 48 59 49 60 50 61 51 87 52
REMARK SMILES IDX 88 53 96 54 89 55 95 56 97 57 94 58 90 59 91 60 92 61 93 62
REMARK SMILES IDX 72 63 73 64 81 65 74 66 80 67 82 68 79 69 75 70 76 71 77 72
REMARK SMILES IDX 78 73 9 74 10 75 11 76 12 77 13 78 14 79 15 80 16 81 45 82
REMARK SMILES IDX 17 83 44 84 18 85 19 86 20 87 43 88 21 89 42 90 22 91 23 92
REMARK SMILES IDX 24 93 25 94 34 95 26 96 32 97 27 98 31 99 33 100 28 101
REMARK SMILES IDX 30 102 29 103 35 104 36 105 41 106 37 107 40 108 38 109
REMARK SMILES IDX 39 110
REMARK H PARENT 102 26 70 37
REMARK Flexibility Score: inf
ROOT
ATOM      1  C   UNL A   1      32.263  27.935  25.592  1.00  0.00     0.188 C 
ENDROOT
BRANCH   1   2
ATOM      2  C   UNL A   1      32.080  29.217  26.435  1.00  0.00     0.188 C 
BRANCH   2   3
ATOM      3  O   UNL A   1      33.043  30.220  26.149  1.00  0.00    -0.376 OA
BRANCH   3   4
ATOM      4  C   UNL A   1      33.684  30.810  27.264  1.00  0.00     0.202 C 
BRANCH   4   5
ATOM      5  C   UNL A   1      33.315  32.276  27.506  1.00  0.00     0.261 C 
BRANCH   5   6
ATOM      6  O   UNL A   1      34.250  33.035  28.293  1.00  0.00    -0.460 OA
BRANCH   6   7
ATOM      7  C   UNL A   1      34.347  33.291  29.611  1.00  0.00     0.338 C 
ATOM      8  O   UNL A   1      33.606  34.145  30.096  1.00  0.00    -0.246 OA
BRANCH   7   9
ATOM      9  C   UNL A   1      35.415  32.728  30.480  1.00  0.00     0.060 A 
ATOM     10  C   UNL A   1      35.209  32.098  31.706  1.00  0.00     0.016 A 
ATOM     11  C   UNL A   1      36.736  32.927  30.028  1.00  0.00     0.016 A 
ATOM     12  C   UNL A   1      36.294  31.773  32.512  1.00  0.00     0.010 A 
ATOM     13  C   UNL A   1      37.823  32.607  30.832  1.00  0.00     0.010 A 
ATOM     14  C   UNL A   1      37.588  32.099  32.105  1.00  0.00    -0.014 A 
BRANCH  14  15
ATOM     15  C   UNL A   1      38.647  31.985  33.100  1.00  0.00     0.031 A 
ATOM     16  C   UNL A   1      38.553  32.861  34.294  1.00  0.00     0.074 A 
ATOM     17  C   UNL A   1      39.660  31.108  32.956  1.00  0.00     0.049 A 
ATOM     18  N   UNL A   1      39.378  33.778  34.683  1.00  0.00    -0.248 NA
ATOM     19  C   UNL A   1      37.344  32.757  35.120  1.00  0.00     0.031 C 
ATOM     20  C   UNL A   1      39.769  30.020  31.978  1.00  0.00     0.029 A 
ATOM     21  N   UNL A   1      40.768  30.942  33.732  1.00  0.00    -0.354 N 
ATOM     22  C   UNL A   1      38.907  34.233  35.913  1.00  0.00     0.074 A 
ATOM     23  C   UNL A   1      37.587  33.675  36.057  1.00  0.00     0.031 C 
ATOM     24  C   UNL A   1      40.748  29.175  32.364  1.00  0.00     0.029 A 
ATOM     25  C   UNL A   1      41.419  29.734  33.525  1.00  0.00     0.049 A 
ATOM     26  H   UNL A   1      41.078  31.616  34.380  1.00  0.00     0.167 HD
ATOM     27  C   UNL A   1      39.714  34.880  36.798  1.00  0.00     0.034 A 
ATOM     28  C   UNL A   1      42.385  29.180  34.298  1.00  0.00     0.034 A 
ATOM     29  C   UNL A   1      40.875  35.437  36.141  1.00  0.00     0.049 A 
ATOM     30  C   UNL A   1      43.034  30.279  35.052  1.00  0.00     0.074 A 
ATOM     31  C   UNL A   1      41.063  36.346  35.116  1.00  0.00     0.029 A 
ATOM     32  N   UNL A   1      42.095  34.824  36.310  1.00  0.00    -0.354 N 
ATOM     33  N   UNL A   1      43.733  31.226  34.487  1.00  0.00    -0.248 NA
ATOM     34  C   UNL A   1      42.552  30.584  36.391  1.00  0.00     0.031 C 
ATOM     35  C   UNL A   1      42.206  35.873  34.406  1.00  0.00     0.029 A 
ATOM     36  C   UNL A   1      42.672  34.736  35.068  1.00  0.00     0.049 A 
ATOM     37  H   UNL A   1      42.481  34.508  37.159  1.00  0.00     0.167 HD
ATOM     38  C   UNL A   1      43.426  32.375  35.200  1.00  0.00     0.074 A 
ATOM     39  C   UNL A   1      42.790  31.899  36.425  1.00  0.00     0.031 C 
ATOM     40  C   UNL A   1      43.464  33.609  34.614  1.00  0.00     0.034 A 
BRANCH  27  41
ATOM     41  C   UNL A   1      39.633  34.745  38.307  1.00  0.00     0.023 A 
ATOM     42  C   UNL A   1      39.804  35.916  39.075  1.00  0.00     0.031 A 
ATOM     43  C   UNL A   1      39.691  33.532  39.030  1.00  0.00     0.131 A 
ATOM     44  C   UNL A   1      40.137  35.850  40.440  1.00  0.00     0.055 A 
ATOM     45  C   UNL A   1      39.950  33.476  40.404  1.00  0.00     0.041 A 
ATOM     46  F   UNL A   1      39.591  32.334  38.447  1.00  0.00    -0.206 F 
ATOM     47  C   UNL A   1      40.214  34.636  41.111  1.00  0.00     0.022 A 
BRANCH  44  48
ATOM     48  S   UNL A   1      40.676  37.371  41.268  1.00  0.00     0.124 S 
ATOM     49  O   UNL A   1      39.412  37.896  41.772  1.00  0.00    -0.237 OA
ATOM     50  O   UNL A   1      41.603  36.851  42.268  1.00  0.00    -0.237 OA
ATOM     51  O   UNL A   1      41.287  38.145  40.191  1.00  0.00    -0.744 OA
ENDBRANCH  44  48
ENDBRANCH  27  41
BRANCH  28  52
ATOM     52  C   UNL A   1      42.492  27.737  34.637  1.00  0.00     0.023 A 
ATOM     53  C   UNL A   1      43.407  26.870  34.012  1.00  0.00     0.031 A 
ATOM     54  C   UNL A   1      41.799  27.229  35.762  1.00  0.00     0.131 A 
ATOM     55  C   UNL A   1      43.583  25.556  34.502  1.00  0.00     0.055 A 
ATOM     56  C   UNL A   1      41.962  25.925  36.229  1.00  0.00     0.041 A 
ATOM     57  F   UNL A   1      40.994  28.011  36.497  1.00  0.00    -0.206 F 
ATOM     58  C   UNL A   1      42.862  25.082  35.602  1.00  0.00     0.022 A 
BRANCH  55  59
ATOM     59  S   UNL A   1      44.838  24.465  33.762  1.00  0.00     0.124 S 
ATOM     60  O   UNL A   1      45.497  23.910  34.940  1.00  0.00    -0.237 OA
ATOM     61  O   UNL A   1      44.027  23.541  32.978  1.00  0.00    -0.237 OA
ATOM     62  O   UNL A   1      45.662  25.380  32.970  1.00  0.00    -0.744 OA
ENDBRANCH  55  59
ENDBRANCH  28  52
BRANCH  40  63
ATOM     63  C   UNL A   1      44.148  33.758  33.272  1.00  0.00     0.023 A 
ATOM     64  C   UNL A   1      43.515  33.543  32.028  1.00  0.00     0.031 A 
ATOM     65  C   UNL A   1      45.450  34.289  33.260  1.00  0.00     0.131 A 
ATOM     66  C   UNL A   1      44.191  33.855  30.831  1.00  0.00     0.055 A 
ATOM     67  C   UNL A   1      46.111  34.608  32.074  1.00  0.00     0.041 A 
ATOM     68  F   UNL A   1      46.088  34.554  34.412  1.00  0.00    -0.206 F 
ATOM     69  C   UNL A   1      45.483  34.388  30.854  1.00  0.00     0.022 A 
BRANCH  66  70
ATOM     70  S   UNL A   1      43.387  33.584  29.220  1.00  0.00     0.124 S 
ATOM     71  O   UNL A   1      42.810  32.251  29.346  1.00  0.00    -0.237 OA
ATOM     72  O   UNL A   1      42.437  34.692  29.151  1.00  0.00    -0.237 OA
ATOM     73  O   UNL A   1      44.495  33.679  28.268  1.00  0.00    -0.744 OA
ENDBRANCH  66  70
ENDBRANCH  40  63
ENDBRANCH  14  15
ENDBRANCH   7   9
ENDBRANCH   6   7
ENDBRANCH   5   6
ENDBRANCH   4   5
ENDBRANCH   3   4
ENDBRANCH   2   3
ENDBRANCH   1   2
BRANCH   1  74
ATOM     74  O   UNL A   1      31.633  27.773  24.325  1.00  0.00    -0.376 OA
BRANCH  74  75
ATOM     75  C   UNL A   1      30.495  26.942  24.198  1.00  0.00     0.202 C 
BRANCH  75  76
ATOM     76  C   UNL A   1      30.142  26.064  25.402  1.00  0.00     0.261 C 
BRANCH  76  77
ATOM     77  O   UNL A   1      30.294  24.654  25.178  1.00  0.00    -0.460 OA
BRANCH  77  78
ATOM     78  C   UNL A   1      30.995  23.985  26.125  1.00  0.00     0.338 C 
ATOM     79  O   UNL A   1      30.618  23.634  27.227  1.00  0.00    -0.246 OA
BRANCH  78  80
ATOM     80  C   UNL A   1      32.350  23.693  25.622  1.00  0.00     0.060 A 
ATOM     81  C   UNL A   1      32.560  22.555  24.833  1.00  0.00     0.018 A 
ATOM     82  C   UNL A   1      33.426  24.461  26.065  1.00  0.00     0.018 A 
ATOM     83  C   UNL A   1      33.853  22.158  24.500  1.00  0.00     0.029 A 
ATOM     84  C   UNL A   1      34.725  24.020  25.803  1.00  0.00     0.029 A 
ATOM     85  C   UNL A   1      34.932  22.839  25.066  1.00  0.00     0.066 A 
BRANCH  85  86
ATOM     86  N   UNL A   1      36.189  22.197  25.077  1.00  0.00    -0.220 N 
ATOM     87  C   UNL A   1      37.379  22.776  25.442  1.00  0.00     0.141 A 
ATOM     88  N   UNL A   1      36.358  20.861  24.967  1.00  0.00    -0.062 NA
ATOM     89  C   UNL A   1      38.237  21.722  25.667  1.00  0.00     0.093 A 
ATOM     90  N   UNL A   1      37.611  20.566  25.296  1.00  0.00    -0.134 NA
BRANCH  89  91
ATOM     91  C   UNL A   1      39.656  21.773  26.062  1.00  0.00     0.138 C 
BRANCH  91  92
ATOM     92  S   UNL A   1      40.292  22.952  27.252  1.00  0.00    -0.081 SA
BRANCH  92  93
ATOM     93  C   UNL A   1      41.817  23.654  26.772  1.00  0.00     0.176 A 
ATOM     94  N   UNL A   1      42.464  22.873  25.956  1.00  0.00    -0.223 NA
ATOM     95  N   UNL A   1      42.299  24.910  27.131  1.00  0.00    -0.255 N 
ATOM     96  C   UNL A   1      43.719  23.273  25.492  1.00  0.00     0.079 A 
ATOM     97  C   UNL A   1      43.699  24.991  27.198  1.00  0.00     0.266 A 
ATOM     98  C   UNL A   1      44.306  22.648  24.389  1.00  0.00     0.029 A 
ATOM     99  C   UNL A   1      44.433  24.251  26.162  1.00  0.00     0.066 A 
ATOM    100  O   UNL A   1      44.359  25.613  28.028  1.00  0.00    -0.268 OA
ATOM    101  C   UNL A   1      45.610  22.978  23.998  1.00  0.00     0.002 A 
ATOM    102  C   UNL A   1      45.751  24.566  25.811  1.00  0.00     0.016 A 
ATOM    103  C   UNL A   1      46.341  23.919  24.725  1.00  0.00     0.001 A 
BRANCH  95 104
ATOM    104  C   UNL A   1      41.519  26.103  27.425  1.00  0.00     0.051 A 
ATOM    105  C   UNL A   1      40.964  26.308  28.706  1.00  0.00     0.028 A 
ATOM    106  C   UNL A   1      41.321  27.153  26.516  1.00  0.00     0.028 A 
ATOM    107  C   UNL A   1      40.108  27.376  28.999  1.00  0.00     0.018 A 
ATOM    108  C   UNL A   1      40.430  28.208  26.780  1.00  0.00     0.018 A 
ATOM    109  C   UNL A   1      39.798  28.293  28.011  1.00  0.00     0.018 A 
ATOM    110  Br  UNL A   1      38.523  29.642  28.338  1.00  0.00    -0.051 Br
ENDBRANCH  95 104
ENDBRANCH  92  93
ENDBRANCH  91  92
ENDBRANCH  89  91
ENDBRANCH  85  86
ENDBRANCH  78  80
ENDBRANCH  77  78
ENDBRANCH  76  77
ENDBRANCH  75  76
ENDBRANCH  74  75
ENDBRANCH   1  74
TORSDOF 25
ENDMDL
MODEL 2
REMARK VINA RESULT:     -10.4      2.388      3.053
REMARK SMILES O=C(OCCOCCOCCOC(=O)c1ccc(-n2cc(CSc3nc4ccccc4c(=O)n3-c3ccc(Br)cc3)nn2)cc1)c1ccc(-c2c3nc(c(-c4cc(S(=O)(=O)[O-])ccc4F)c4ccc([nH]4)c(-c4cc(S(=O)(=O)[O-])ccc4F)c4nc(c(-c5cc(S(=O)(=O)[O-])ccc5F)c5ccc2[nH]5)C=C4)C=C3)cc1
REMARK SMILES IDX 8 1 7 2 6 3 5 4 4 5 3 6 2 7 1 8 46 9 47 10 108 11 48 12
REMARK SMILES IDX 107 13 49 14 50 15 51 16 101 17 52 18 106 19 100 20 102 21
REMARK SMILES IDX 53 22 105 23 99 24 98 25 54 27 86 28 66 29 85 30 67 31 70 32
REMARK SMILES IDX 84 33 103 34 68 35 69 36 83 38 104 39 71 40 55 41 56 42
REMARK SMILES IDX 64 43 57 44 63 45 65 46 62 47 58 48 59 49 60 50 61 51 87 52
REMARK SMILES IDX 88 53 96 54 89 55 95 56 97 57 94 58 90 59 91 60 92 61 93 62
REMARK SMILES IDX 72 63 73 64 81 65 74 66 80 67 82 68 79 69 75 70 76 71 77 72
REMARK SMILES IDX 78 73 9 74 10 75 11 76 12 77 13 78 14 79 15 80 16 81 45 82
REMARK SMILES IDX 17 83 44 84 18 85 19 86 20 87 43 88 21 89 42 90 22 91 23 92
REMARK SMILES IDX 24 93 25 94 34 95 26 96 32 97 27 98 31 99 33 100 28 101
REMARK SMILES IDX 30 102 29 103 35 104 36 105 41 106 37 107 40 108 38 109
REMARK SMILES IDX 39 110
REMARK H PARENT 102 26 70 37
REMARK Flexibility Score: inf
ROOT
ATOM      1  C   UNL A   1      33.533  26.334  25.131  1.00  0.00     0.188 C 
ENDROOT
BRANCH   1   2
ATOM      2  C   UNL A   1      32.650  27.544  25.508  1.00  0.00     0.188 C 
BRANCH   2   3
ATOM      3  O   UNL A   1      33.389  28.743  25.689  1.00  0.00    -0.376 OA
BRANCH   3   4
ATOM      4  C   UNL A   1      33.503  29.215  27.018  1.00  0.00     0.202 C 
BRANCH   4   5
ATOM      5  C   UNL A   1      33.329  30.728  27.172  1.00  0.00     0.261 C 
BRANCH   5   6
ATOM      6  O   UNL A   1      34.524  31.468  27.479  1.00  0.00    -0.460 OA
BRANCH   6   7
ATOM      7  C   UNL A   1      34.932  32.145  28.569  1.00  0.00     0.338 C 
ATOM      8  O   UNL A   1      34.454  33.260  28.776  1.00  0.00    -0.246 OA
BRANCH   7   9
ATOM      9  C   UNL A   1      36.051  31.700  29.441  1.00  0.00     0.060 A 
ATOM     10  C   UNL A   1      36.035  30.576  30.265  1.00  0.00     0.016 A 
ATOM     11  C   UNL A   1      37.179  32.547  29.464  1.00  0.00     0.016 A 
ATOM     12  C   UNL A   1      37.069  30.360  31.168  1.00  0.00     0.010 A 
ATOM     13  C   UNL A   1      38.213  32.337  30.367  1.00  0.00     0.010 A 
ATOM     14  C   UNL A   1      38.112  31.282  31.267  1.00  0.00    -0.014 A 
BRANCH  14  15
ATOM     15  C   UNL A   1      39.011  31.148  32.407  1.00  0.00     0.031 A 
ATOM     16  C   UNL A   1      38.737  32.002  33.591  1.00  0.00     0.074 A 
ATOM     17  C   UNL A   1      40.037  30.274  32.400  1.00  0.00     0.049 A 
ATOM     18  N   UNL A   1      39.492  32.911  34.116  1.00  0.00    -0.248 NA
ATOM     19  C   UNL A   1      37.418  31.882  34.225  1.00  0.00     0.031 C 
ATOM     20  C   UNL A   1      40.293  29.206  31.428  1.00  0.00     0.029 A 
ATOM     21  N   UNL A   1      41.017  30.093  33.329  1.00  0.00    -0.354 N 
ATOM     22  C   UNL A   1      38.841  33.341  35.270  1.00  0.00     0.074 A 
ATOM     23  C   UNL A   1      37.516  32.781  35.205  1.00  0.00     0.031 C 
ATOM     24  C   UNL A   1      41.206  28.354  31.940  1.00  0.00     0.029 A 
ATOM     25  C   UNL A   1      41.695  28.889  33.199  1.00  0.00     0.049 A 
ATOM     26  H   UNL A   1      41.225  30.755  34.029  1.00  0.00     0.167 HD
ATOM     27  C   UNL A   1      39.505  33.971  36.279  1.00  0.00     0.034 A 
ATOM     28  C   UNL A   1      42.536  28.321  34.097  1.00  0.00     0.034 A 
ATOM     29  C   UNL A   1      40.749  34.541  35.813  1.00  0.00     0.049 A 
ATOM     30  C   UNL A   1      43.062  29.404  34.961  1.00  0.00     0.074 A 
ATOM     31  C   UNL A   1      41.087  35.470  34.846  1.00  0.00     0.029 A 
ATOM     32  N   UNL A   1      41.932  33.924  36.151  1.00  0.00    -0.354 N 
ATOM     33  N   UNL A   1      43.834  30.362  34.525  1.00  0.00    -0.248 NA
ATOM     34  C   UNL A   1      42.384  29.684  36.218  1.00  0.00     0.031 C 
ATOM     35  C   UNL A   1      42.323  35.011  34.306  1.00  0.00     0.029 A 
ATOM     36  C   UNL A   1      42.689  33.860  35.007  1.00  0.00     0.049 A 
ATOM     37  H   UNL A   1      42.188  33.592  37.042  1.00  0.00     0.167 HD
ATOM     38  C   UNL A   1      43.421  31.497  35.205  1.00  0.00     0.074 A 
ATOM     39  C   UNL A   1      42.610  30.997  36.312  1.00  0.00     0.031 C 
ATOM     40  C   UNL A   1      43.542  32.742  34.656  1.00  0.00     0.034 A 
BRANCH  27  41
ATOM     41  C   UNL A   1      39.199  33.807  37.755  1.00  0.00     0.023 A 
ATOM     42  C   UNL A   1      38.408  32.704  38.138  1.00  0.00     0.031 A 
ATOM     43  C   UNL A   1      39.380  34.797  38.749  1.00  0.00     0.131 A 
ATOM     44  C   UNL A   1      37.750  32.675  39.380  1.00  0.00     0.055 A 
ATOM     45  C   UNL A   1      38.782  34.727  40.012  1.00  0.00     0.041 A 
ATOM     46  F   UNL A   1      40.066  35.924  38.534  1.00  0.00    -0.206 F 
ATOM     47  C   UNL A   1      37.930  33.682  40.321  1.00  0.00     0.022 A 
BRANCH  44  48
ATOM     48  S   UNL A   1      36.489  31.402  39.656  1.00  0.00     0.124 S 
ATOM     49  O   UNL A   1      36.926  30.351  38.744  1.00  0.00    -0.237 OA
ATOM     50  O   UNL A   1      36.649  31.129  41.081  1.00  0.00    -0.237 OA
ATOM     51  O   UNL A   1      35.245  32.071  39.284  1.00  0.00    -0.744 OA
ENDBRANCH  44  48
ENDBRANCH  27  41
BRANCH  28  52
ATOM     52  C   UNL A   1      42.594  26.872  34.420  1.00  0.00     0.023 A 
ATOM     53  C   UNL A   1      43.644  26.036  33.998  1.00  0.00     0.031 A 
ATOM     54  C   UNL A   1      41.679  26.323  35.350  1.00  0.00     0.131 A 
ATOM     55  C   UNL A   1      43.734  24.712  34.486  1.00  0.00     0.055 A 
ATOM     56  C   UNL A   1      41.761  25.011  35.815  1.00  0.00     0.041 A 
ATOM     57  F   UNL A   1      40.714  27.074  35.904  1.00  0.00    -0.206 F 
ATOM     58  C   UNL A   1      42.796  24.198  35.387  1.00  0.00     0.022 A 
BRANCH  55  59
ATOM     59  S   UNL A   1      45.145  23.660  34.023  1.00  0.00     0.124 S 
ATOM     60  O   UNL A   1      46.267  24.588  34.118  1.00  0.00    -0.237 OA
ATOM     61  O   UNL A   1      45.091  22.604  35.026  1.00  0.00    -0.237 OA
ATOM     62  O   UNL A   1      44.818  23.229  32.663  1.00  0.00    -0.744 OA
ENDBRANCH  55  59
ENDBRANCH  28  52
BRANCH  40  63
ATOM     63  C   UNL A   1      44.419  32.917  33.434  1.00  0.00     0.023 A 
ATOM     64  C   UNL A   1      44.008  32.635  32.112  1.00  0.00     0.031 A 
ATOM     65  C   UNL A   1      45.667  33.543  33.611  1.00  0.00     0.131 A 
ATOM     66  C   UNL A   1      44.843  32.974  31.029  1.00  0.00     0.055 A 
ATOM     67  C   UNL A   1      46.483  33.888  32.535  1.00  0.00     0.041 A 
ATOM     68  F   UNL A   1      46.094  33.873  34.842  1.00  0.00    -0.206 F 
ATOM     69  C   UNL A   1      46.075  33.601  31.239  1.00  0.00     0.022 A 
BRANCH  66  70
ATOM     70  S   UNL A   1      44.326  32.616  29.320  1.00  0.00     0.124 S 
ATOM     71  O   UNL A   1      43.792  31.262  29.401  1.00  0.00    -0.237 OA
ATOM     72  O   UNL A   1      43.355  33.675  29.055  1.00  0.00    -0.237 OA
ATOM     73  O   UNL A   1      45.570  32.734  28.557  1.00  0.00    -0.744 OA
ENDBRANCH  66  70
ENDBRANCH  40  63
ENDBRANCH  14  15
ENDBRANCH   7   9
ENDBRANCH   6   7
ENDBRANCH   5   6
ENDBRANCH   4   5
ENDBRANCH   3   4
ENDBRANCH   2   3
ENDBRANCH   1   2
BRANCH   1  74
ATOM     74  O   UNL A   1      33.822  26.008  23.775  1.00  0.00    -0.376 OA
BRANCH  74  75
ATOM     75  C   UNL A   1      33.718  24.671  23.327  1.00  0.00     0.202 C 
BRANCH  75  76
ATOM     76  C   UNL A   1      33.239  23.635  24.348  1.00  0.00     0.261 C 
BRANCH  76  77
ATOM     77  O   UNL A   1      33.897  22.362  24.263  1.00  0.00    -0.460 OA
BRANCH  77  78
ATOM     78  C   UNL A   1      34.401  21.887  25.427  1.00  0.00     0.338 C 
ATOM     79  O   UNL A   1      33.790  21.507  26.407  1.00  0.00    -0.246 OA
BRANCH  78  80
ATOM     80  C   UNL A   1      35.873  21.860  25.353  1.00  0.00     0.060 A 
ATOM     81  C   UNL A   1      36.526  20.654  25.068  1.00  0.00     0.018 A 
ATOM     82  C   UNL A   1      36.599  22.993  25.719  1.00  0.00     0.018 A 
ATOM     83  C   UNL A   1      37.911  20.561  25.174  1.00  0.00     0.029 A 
ATOM     84  C   UNL A   1      37.978  22.881  25.906  1.00  0.00     0.029 A 
ATOM     85  C   UNL A   1      38.621  21.650  25.683  1.00  0.00     0.066 A 
BRANCH  85  86
ATOM     86  N   UNL A   1      39.923  21.420  26.180  1.00  0.00    -0.220 N 
ATOM     87  C   UNL A   1      41.014  22.224  25.965  1.00  0.00     0.141 A 
ATOM     88  N   UNL A   1      40.218  20.511  27.136  1.00  0.00    -0.062 NA
ATOM     89  C   UNL A   1      41.934  21.842  26.917  1.00  0.00     0.093 A 
ATOM     90  N   UNL A   1      41.453  20.743  27.569  1.00  0.00    -0.134 NA
BRANCH  89  91
ATOM     91  C   UNL A   1      43.296  22.365  27.126  1.00  0.00     0.138 C 
BRANCH  91  92
ATOM     92  S   UNL A   1      43.827  23.965  26.519  1.00  0.00    -0.081 SA
BRANCH  92  93
ATOM     93  C   UNL A   1      44.514  24.977  27.765  1.00  0.00     0.176 A 
ATOM     94  N   UNL A   1      45.812  24.889  27.786  1.00  0.00    -0.223 NA
ATOM     95  N   UNL A   1      43.817  25.837  28.610  1.00  0.00    -0.255 N 
ATOM     96  C   UNL A   1      46.523  25.617  28.743  1.00  0.00     0.079 A 
ATOM     97  C   UNL A   1      44.415  26.016  29.868  1.00  0.00     0.266 A 
ATOM     98  C   UNL A   1      47.900  25.815  28.614  1.00  0.00     0.029 A 
ATOM     99  C   UNL A   1      45.883  26.098  29.873  1.00  0.00     0.066 A 
ATOM    100  O   UNL A   1      43.837  26.111  30.948  1.00  0.00    -0.268 OA
ATOM    101  C   UNL A   1      48.622  26.450  29.632  1.00  0.00     0.002 A 
ATOM    102  C   UNL A   1      46.594  26.700  30.917  1.00  0.00     0.016 A 
ATOM    103  C   UNL A   1      47.974  26.870  30.795  1.00  0.00     0.001 A 
BRANCH  95 104
ATOM    104  C   UNL A   1      42.580  26.546  28.322  1.00  0.00     0.051 A 
ATOM    105  C   UNL A   1      42.595  27.910  27.962  1.00  0.00     0.028 A 
ATOM    106  C   UNL A   1      41.315  25.940  28.304  1.00  0.00     0.028 A 
ATOM    107  C   UNL A   1      41.426  28.663  27.795  1.00  0.00     0.018 A 
ATOM    108  C   UNL A   1      40.132  26.689  28.182  1.00  0.00     0.018 A 
ATOM    109  C   UNL A   1      40.195  28.057  27.965  1.00  0.00     0.018 A 
ATOM    110  Br  UNL A   1      38.617  29.087  27.906  1.00  0.00    -0.051 Br
ENDBRANCH  95 104
ENDBRANCH  92  93
ENDBRANCH  91  92
ENDBRANCH  89  91
ENDBRANCH  85  86
ENDBRANCH  78  80
ENDBRANCH  77  78
ENDBRANCH  76  77
ENDBRANCH  75  76
ENDBRANCH  74  75
ENDBRANCH   1  74
TORSDOF 25
ENDMDL
MODEL 3
REMARK VINA RESULT:     -10.3      2.475      6.237
REMARK SMILES O=C(OCCOCCOCCOC(=O)c1ccc(-n2cc(CSc3nc4ccccc4c(=O)n3-c3ccc(Br)cc3)nn2)cc1)c1ccc(-c2c3nc(c(-c4cc(S(=O)(=O)[O-])ccc4F)c4ccc([nH]4)c(-c4cc(S(=O)(=O)[O-])ccc4F)c4nc(c(-c5cc(S(=O)(=O)[O-])ccc5F)c5ccc2[nH]5)C=C4)C=C3)cc1
REMARK SMILES IDX 8 1 7 2 6 3 5 4 4 5 3 6 2 7 1 8 46 9 47 10 108 11 48 12
REMARK SMILES IDX 107 13 49 14 50 15 51 16 101 17 52 18 106 19 100 20 102 21
REMARK SMILES IDX 53 22 105 23 99 24 98 25 54 27 86 28 66 29 85 30 67 31 70 32
REMARK SMILES IDX 84 33 103 34 68 35 69 36 83 38 104 39 71 40 55 41 56 42
REMARK SMILES IDX 64 43 57 44 63 45 65 46 62 47 58 48 59 49 60 50 61 51 87 52
REMARK SMILES IDX 88 53 96 54 89 55 95 56 97 57 94 58 90 59 91 60 92 61 93 62
REMARK SMILES IDX 72 63 73 64 81 65 74 66 80 67 82 68 79 69 75 70 76 71 77 72
REMARK SMILES IDX 78 73 9 74 10 75 11 76 12 77 13 78 14 79 15 80 16 81 45 82
REMARK SMILES IDX 17 83 44 84 18 85 19 86 20 87 43 88 21 89 42 90 22 91 23 92
REMARK SMILES IDX 24 93 25 94 34 95 26 96 32 97 27 98 31 99 33 100 28 101
REMARK SMILES IDX 30 102 29 103 35 104 36 105 41 106 37 107 40 108 38 109
REMARK SMILES IDX 39 110
REMARK H PARENT 102 26 70 37
REMARK Flexibility Score: inf
ROOT
ATOM      1  C   UNL A   1      31.712  26.879  25.092  1.00  0.00     0.188 C 
ENDROOT
BRANCH   1   2
ATOM      2  C   UNL A   1      31.380  28.185  25.848  1.00  0.00     0.188 C 
BRANCH   2   3
ATOM      3  O   UNL A   1      32.504  29.034  26.021  1.00  0.00    -0.376 OA
BRANCH   3   4
ATOM      4  C   UNL A   1      32.228  30.410  26.206  1.00  0.00     0.202 C 
BRANCH   4   5
ATOM      5  C   UNL A   1      33.062  31.084  27.297  1.00  0.00     0.261 C 
BRANCH   5   6
ATOM      6  O   UNL A   1      32.905  32.510  27.415  1.00  0.00    -0.460 OA
BRANCH   6   7
ATOM      7  C   UNL A   1      33.343  33.411  28.315  1.00  0.00     0.338 C 
ATOM      8  O   UNL A   1      32.843  34.535  28.305  1.00  0.00    -0.246 OA
BRANCH   7   9
ATOM      9  C   UNL A   1      34.513  33.183  29.203  1.00  0.00     0.060 A 
ATOM     10  C   UNL A   1      34.563  33.474  30.565  1.00  0.00     0.016 A 
ATOM     11  C   UNL A   1      35.674  32.696  28.567  1.00  0.00     0.016 A 
ATOM     12  C   UNL A   1      35.767  33.386  31.253  1.00  0.00     0.010 A 
ATOM     13  C   UNL A   1      36.881  32.609  29.249  1.00  0.00     0.010 A 
ATOM     14  C   UNL A   1      36.933  33.029  30.574  1.00  0.00    -0.014 A 
BRANCH  14  15
ATOM     15  C   UNL A   1      38.196  33.219  31.277  1.00  0.00     0.031 A 
ATOM     16  C   UNL A   1      39.329  33.777  30.497  1.00  0.00     0.074 A 
ATOM     17  C   UNL A   1      38.329  32.921  32.584  1.00  0.00     0.049 A 
ATOM     18  N   UNL A   1      40.471  33.229  30.237  1.00  0.00    -0.248 NA
ATOM     19  C   UNL A   1      39.135  35.084  29.856  1.00  0.00     0.031 C 
ATOM     20  C   UNL A   1      37.264  32.599  33.540  1.00  0.00     0.029 A 
ATOM     21  N   UNL A   1      39.448  32.946  33.361  1.00  0.00    -0.354 N 
ATOM     22  C   UNL A   1      41.227  34.195  29.575  1.00  0.00     0.074 A 
ATOM     23  C   UNL A   1      40.308  35.253  29.246  1.00  0.00     0.031 C 
ATOM     24  C   UNL A   1      37.754  32.691  34.794  1.00  0.00     0.029 A 
ATOM     25  C   UNL A   1      39.184  32.937  34.723  1.00  0.00     0.049 A 
ATOM     26  H   UNL A   1      40.361  32.969  32.990  1.00  0.00     0.167 HD
ATOM     27  C   UNL A   1      42.586  34.129  29.516  1.00  0.00     0.034 A 
ATOM     28  C   UNL A   1      40.054  33.199  35.729  1.00  0.00     0.034 A 
ATOM     29  C   UNL A   1      43.058  32.784  29.759  1.00  0.00     0.049 A 
ATOM     30  C   UNL A   1      41.419  32.938  35.214  1.00  0.00     0.074 A 
ATOM     31  C   UNL A   1      42.850  31.561  29.151  1.00  0.00     0.029 A 
ATOM     32  N   UNL A   1      43.639  32.491  30.972  1.00  0.00    -0.354 N 
ATOM     33  N   UNL A   1      41.845  31.753  34.868  1.00  0.00    -0.248 NA
ATOM     34  C   UNL A   1      42.180  34.050  34.664  1.00  0.00     0.031 C 
ATOM     35  C   UNL A   1      42.841  30.613  30.216  1.00  0.00     0.029 A 
ATOM     36  C   UNL A   1      43.092  31.308  31.401  1.00  0.00     0.049 A 
ATOM     37  H   UNL A   1      44.318  33.028  31.442  1.00  0.00     0.167 HD
ATOM     38  C   UNL A   1      42.636  31.965  33.750  1.00  0.00     0.074 A 
ATOM     39  C   UNL A   1      42.898  33.402  33.742  1.00  0.00     0.031 C 
ATOM     40  C   UNL A   1      42.776  31.009  32.784  1.00  0.00     0.034 A 
BRANCH  27  41
ATOM     41  C   UNL A   1      43.516  35.326  29.556  1.00  0.00     0.023 A 
ATOM     42  C   UNL A   1      43.744  35.933  30.809  1.00  0.00     0.031 A 
ATOM     43  C   UNL A   1      43.948  36.071  28.435  1.00  0.00     0.131 A 
ATOM     44  C   UNL A   1      44.247  37.242  30.904  1.00  0.00     0.055 A 
ATOM     45  C   UNL A   1      44.518  37.345  28.539  1.00  0.00     0.041 A 
ATOM     46  F   UNL A   1      43.769  35.658  27.176  1.00  0.00    -0.206 F 
ATOM     47  C   UNL A   1      44.635  37.955  29.775  1.00  0.00     0.022 A 
BRANCH  44  48
ATOM     48  S   UNL A   1      44.187  38.073  32.515  1.00  0.00     0.124 S 
ATOM     49  O   UNL A   1      43.252  37.226  33.248  1.00  0.00    -0.237 OA
ATOM     50  O   UNL A   1      45.583  38.008  32.935  1.00  0.00    -0.237 OA
ATOM     51  O   UNL A   1      43.693  39.408  32.189  1.00  0.00    -0.744 OA
ENDBRANCH  44  48
ENDBRANCH  27  41
BRANCH  28  52
ATOM     52  C   UNL A   1      39.742  33.982  36.952  1.00  0.00     0.023 A 
ATOM     53  C   UNL A   1      39.689  33.408  38.235  1.00  0.00     0.031 A 
ATOM     54  C   UNL A   1      39.686  35.395  36.884  1.00  0.00     0.131 A 
ATOM     55  C   UNL A   1      39.564  34.235  39.376  1.00  0.00     0.055 A 
ATOM     56  C   UNL A   1      39.544  36.206  38.010  1.00  0.00     0.041 A 
ATOM     57  F   UNL A   1      39.847  36.044  35.720  1.00  0.00    -0.206 F 
ATOM     58  C   UNL A   1      39.488  35.627  39.265  1.00  0.00     0.022 A 
BRANCH  55  59
ATOM     59  S   UNL A   1      39.597  33.505  41.042  1.00  0.00     0.124 S 
ATOM     60  O   UNL A   1      40.630  34.295  41.705  1.00  0.00    -0.237 OA
ATOM     61  O   UNL A   1      38.229  33.712  41.501  1.00  0.00    -0.237 OA
ATOM     62  O   UNL A   1      39.956  32.107  40.796  1.00  0.00    -0.744 OA
ENDBRANCH  55  59
ENDBRANCH  28  52
BRANCH  40  63
ATOM     63  C   UNL A   1      42.324  29.597  33.085  1.00  0.00     0.023 A 
ATOM     64  C   UNL A   1      43.123  28.626  33.730  1.00  0.00     0.031 A 
ATOM     65  C   UNL A   1      40.975  29.278  32.845  1.00  0.00     0.131 A 
ATOM     66  C   UNL A   1      42.562  27.388  34.103  1.00  0.00     0.055 A 
ATOM     67  C   UNL A   1      40.421  28.057  33.227  1.00  0.00     0.041 A 
ATOM     68  F   UNL A   1      40.155  30.176  32.272  1.00  0.00    -0.206 F 
ATOM     69  C   UNL A   1      41.215  27.105  33.855  1.00  0.00     0.022 A 
BRANCH  66  70
ATOM     70  S   UNL A   1      43.579  26.128  34.935  1.00  0.00     0.124 S 
ATOM     71  O   UNL A   1      42.599  25.303  35.631  1.00  0.00    -0.237 OA
ATOM     72  O   UNL A   1      44.275  25.495  33.818  1.00  0.00    -0.237 OA
ATOM     73  O   UNL A   1      44.443  26.917  35.815  1.00  0.00    -0.744 OA
ENDBRANCH  66  70
ENDBRANCH  40  63
ENDBRANCH  14  15
ENDBRANCH   7   9
ENDBRANCH   6   7
ENDBRANCH   5   6
ENDBRANCH   4   5
ENDBRANCH   3   4
ENDBRANCH   2   3
ENDBRANCH   1   2
BRANCH   1  74
ATOM     74  O   UNL A   1      31.075  26.540  23.863  1.00  0.00    -0.376 OA
BRANCH  74  75
ATOM     75  C   UNL A   1      30.618  25.220  23.640  1.00  0.00     0.202 C 
BRANCH  75  76
ATOM     76  C   UNL A   1      31.594  24.255  22.961  1.00  0.00     0.261 C 
BRANCH  76  77
ATOM     77  O   UNL A   1      32.115  23.230  23.819  1.00  0.00    -0.460 OA
BRANCH  77  78
ATOM     78  C   UNL A   1      32.708  22.187  23.189  1.00  0.00     0.338 C 
ATOM     79  O   UNL A   1      32.230  21.451  22.348  1.00  0.00    -0.246 OA
BRANCH  78  80
ATOM     80  C   UNL A   1      34.101  22.056  23.655  1.00  0.00     0.060 A 
ATOM     81  C   UNL A   1      34.386  21.221  24.743  1.00  0.00     0.018 A 
ATOM     82  C   UNL A   1      35.087  22.879  23.110  1.00  0.00     0.018 A 
ATOM     83  C   UNL A   1      35.655  21.222  25.316  1.00  0.00     0.029 A 
ATOM     84  C   UNL A   1      36.334  22.942  23.734  1.00  0.00     0.029 A 
ATOM     85  C   UNL A   1      36.596  22.152  24.868  1.00  0.00     0.066 A 
BRANCH  85  86
ATOM     86  N   UNL A   1      37.697  22.437  25.704  1.00  0.00    -0.220 N 
ATOM     87  C   UNL A   1      38.786  21.625  25.895  1.00  0.00     0.141 A 
ATOM     88  N   UNL A   1      37.946  23.654  26.238  1.00  0.00    -0.062 NA
ATOM     89  C   UNL A   1      39.746  22.440  26.455  1.00  0.00     0.093 A 
ATOM     90  N   UNL A   1      39.183  23.654  26.725  1.00  0.00    -0.134 NA
BRANCH  89  91
ATOM     91  C   UNL A   1      41.108  22.076  26.886  1.00  0.00     0.138 C 
BRANCH  91  92
ATOM     92  S   UNL A   1      42.002  22.976  28.152  1.00  0.00    -0.081 SA
BRANCH  92  93
ATOM     93  C   UNL A   1      43.234  24.029  27.504  1.00  0.00     0.176 A 
ATOM     94  N   UNL A   1      44.035  23.387  26.703  1.00  0.00    -0.223 NA
ATOM     95  N   UNL A   1      43.354  25.398  27.727  1.00  0.00    -0.255 N 
ATOM     96  C   UNL A   1      45.097  24.077  26.115  1.00  0.00     0.079 A 
ATOM     97  C   UNL A   1      44.673  25.876  27.680  1.00  0.00     0.266 A 
ATOM     98  C   UNL A   1      45.780  23.540  25.021  1.00  0.00     0.029 A 
ATOM     99  C   UNL A   1      45.534  25.276  26.651  1.00  0.00     0.066 A 
ATOM    100  O   UNL A   1      45.169  26.735  28.407  1.00  0.00    -0.268 OA
ATOM    101  C   UNL A   1      46.913  24.184  24.508  1.00  0.00     0.002 A 
ATOM    102  C   UNL A   1      46.686  25.914  26.176  1.00  0.00     0.016 A 
ATOM    103  C   UNL A   1      47.381  25.358  25.102  1.00  0.00     0.001 A 
BRANCH  95 104
ATOM    104  C   UNL A   1      42.281  26.346  27.987  1.00  0.00     0.051 A 
ATOM    105  C   UNL A   1      41.557  26.929  26.925  1.00  0.00     0.028 A 
ATOM    106  C   UNL A   1      41.837  26.695  29.271  1.00  0.00     0.028 A 
ATOM    107  C   UNL A   1      40.603  27.935  27.120  1.00  0.00     0.018 A 
ATOM    108  C   UNL A   1      40.912  27.733  29.483  1.00  0.00     0.018 A 
ATOM    109  C   UNL A   1      40.326  28.374  28.402  1.00  0.00     0.018 A 
ATOM    110  Br  UNL A   1      39.167  29.835  28.673  1.00  0.00    -0.051 Br
ENDBRANCH  95 104
ENDBRANCH  92  93
ENDBRANCH  91  92
ENDBRANCH  89  91
ENDBRANCH  85  86
ENDBRANCH  78  80
ENDBRANCH  77  78
ENDBRANCH  76  77
ENDBRANCH  75  76
ENDBRANCH  74  75
ENDBRANCH   1  74
TORSDOF 25
ENDMDL
