MODEL 1
REMARK VINA RESULT:      -8.5      0.000      0.000
REMARK SMILES COc1ccc(-c2ccc(/C=C3\SC(=S)N([C@H](Cc4ccccc4)C(=O)OCCOCCOCCOC(=O)c4ccc(-c5c6nc(c(-c7cc(S(=O)(=O)[O-])ccc7F)c7ccc([nH]7)c(-c7cc(S(=O)(=O)[O-])ccc7F)c7nc(c(-c8cc(S(=O)(=O)[O-])ccc8F)c8ccc5[nH]8)C=C7)C=C6)cc4)C3=O)o2)cc1
REMARK SMILES IDX 31 1 30 2 29 3 28 4 27 5 25 6 26 7 17 8 16 9 11 10 12 11
REMARK SMILES IDX 13 12 102 13 14 14 103 15 15 16 10 17 7 18 8 19 104 20 9 21
REMARK SMILES IDX 6 22 3 23 4 24 106 25 5 26 105 27 2 28 1 29 18 30 19 31
REMARK SMILES IDX 20 32 24 33 21 34 23 35 22 36 32 37 33 38 34 39 35 40 36 41
REMARK SMILES IDX 37 42 38 43 39 44 40 45 101 46 41 47 100 48 42 49 43 50
REMARK SMILES IDX 44 51 94 52 45 53 99 54 93 55 95 56 46 57 98 58 92 59 91 60
REMARK SMILES IDX 47 62 79 63 59 64 78 65 60 66 63 67 77 68 96 69 61 70 62 71
REMARK SMILES IDX 76 73 97 74 64 75 48 76 49 77 57 78 50 79 56 80 58 81 55 82
REMARK SMILES IDX 51 83 52 84 53 85 54 86 80 87 81 88 89 89 82 90 88 91 90 92
REMARK SMILES IDX 87 93 83 94 84 95 85 96 86 97 65 98 66 99 74 100 67 101
REMARK SMILES IDX 73 102 75 103 72 104 68 105 69 106 70 107 71 108
REMARK H PARENT 95 61 63 72
REMARK Flexibility Score: inf
ROOT
ATOM      1  C   UNL A   1      42.544  25.990  27.369  1.00  0.00     0.188 C 
ENDROOT
BRANCH   1   2
ATOM      2  O   UNL A   1      41.712  27.035  27.865  1.00  0.00    -0.376 OA
BRANCH   2   3
ATOM      3  C   UNL A   1      41.863  27.401  29.234  1.00  0.00     0.202 C 
BRANCH   3   4
ATOM      4  C   UNL A   1      41.985  28.900  29.548  1.00  0.00     0.261 C 
BRANCH   4   5
ATOM      5  O   UNL A   1      40.754  29.520  29.963  1.00  0.00    -0.462 OA
BRANCH   5   6
ATOM      6  C   UNL A   1      40.868  30.807  30.374  1.00  0.00     0.329 C 
ATOM      7  O   UNL A   1      41.681  31.613  29.924  1.00  0.00    -0.250 OA
BRANCH   6   8
ATOM      8  C   UNL A   1      39.841  31.221  31.436  1.00  0.00     0.206 C 
BRANCH   8   9
ATOM      9  N   UNL A   1      38.537  30.856  30.868  1.00  0.00    -0.278 N 
ATOM     10  C   UNL A   1      36.059  31.981  28.588  1.00  0.00     0.068 C 
ATOM     11  C   UNL A   1      36.720  31.207  29.446  1.00  0.00     0.084 C 
ATOM     12  S   UNL A   1      36.307  29.744  30.226  1.00  0.00    -0.054 SA
ATOM     13  C   UNL A   1      38.095  31.593  29.789  1.00  0.00     0.267 C 
ATOM     14  C   UNL A   1      37.787  29.749  31.189  1.00  0.00     0.149 C 
ATOM     15  O   UNL A   1      38.753  32.381  29.123  1.00  0.00    -0.268 OA
ATOM     16  S   UNL A   1      38.113  28.570  32.318  1.00  0.00    -0.052 S 
BRANCH  10  17
ATOM     17  C   UNL A   1      34.821  31.658  28.006  1.00  0.00     0.128 A 
ATOM     18  C   UNL A   1      33.375  30.301  27.032  1.00  0.00     0.134 A 
ATOM     19  C   UNL A   1      32.698  31.478  27.248  1.00  0.00     0.051 A 
ATOM     20  O   UNL A   1      34.658  30.427  27.440  1.00  0.00    -0.457 OA
ATOM     21  C   UNL A   1      33.623  32.348  27.880  1.00  0.00     0.051 A 
BRANCH  18  22
ATOM     22  C   UNL A   1      33.054  28.997  26.499  1.00  0.00     0.017 A 
ATOM     23  C   UNL A   1      32.390  26.469  25.485  1.00  0.00     0.118 A 
ATOM     24  C   UNL A   1      31.403  27.442  25.636  1.00  0.00     0.047 A 
ATOM     25  C   UNL A   1      33.709  26.763  25.837  1.00  0.00     0.047 A 
ATOM     26  C   UNL A   1      31.729  28.694  26.153  1.00  0.00     0.016 A 
ATOM     27  C   UNL A   1      34.041  28.026  26.337  1.00  0.00     0.016 A 
BRANCH  23  28
ATOM     28  O   UNL A   1      31.950  25.287  24.959  1.00  0.00    -0.497 OA
ATOM     29  C   UNL A   1      30.712  24.806  25.462  1.00  0.00     0.278 C 
ENDBRANCH  23  28
ENDBRANCH  18  22
ENDBRANCH  10  17
ENDBRANCH   8   9
BRANCH   8  30
ATOM     30  C   UNL A   1      39.883  32.617  32.106  1.00  0.00     0.073 C 
BRANCH  30  31
ATOM     31  C   UNL A   1      38.681  33.071  32.905  1.00  0.00    -0.045 A 
ATOM     32  C   UNL A   1      38.448  32.548  34.183  1.00  0.00     0.004 A 
ATOM     33  C   UNL A   1      37.819  34.067  32.412  1.00  0.00     0.004 A 
ATOM     34  C   UNL A   1      37.412  33.050  34.973  1.00  0.00     0.000 A 
ATOM     35  C   UNL A   1      36.790  34.573  33.209  1.00  0.00     0.000 A 
ATOM     36  C   UNL A   1      36.594  34.071  34.493  1.00  0.00     0.000 A 
ENDBRANCH  30  31
ENDBRANCH   8  30
ENDBRANCH   6   8
ENDBRANCH   5   6
ENDBRANCH   4   5
ENDBRANCH   3   4
ENDBRANCH   2   3
ENDBRANCH   1   2
BRANCH   1  37
ATOM     37  C   UNL A   1      41.851  24.684  26.971  1.00  0.00     0.188 C 
BRANCH  37  38
ATOM     38  O   UNL A   1      42.380  24.065  25.802  1.00  0.00    -0.376 OA
BRANCH  38  39
ATOM     39  C   UNL A   1      42.168  22.657  25.667  1.00  0.00     0.202 C 
BRANCH  39  40
ATOM     40  C   UNL A   1      43.308  21.752  26.176  1.00  0.00     0.261 C 
BRANCH  40  41
ATOM     41  O   UNL A   1      44.297  22.439  26.968  1.00  0.00    -0.460 OA
BRANCH  41  42
ATOM     42  C   UNL A   1      45.486  22.686  26.369  1.00  0.00     0.338 C 
ATOM     43  O   UNL A   1      46.112  21.907  25.670  1.00  0.00    -0.246 OA
BRANCH  42  44
ATOM     44  C   UNL A   1      45.778  24.140  26.466  1.00  0.00     0.060 A 
ATOM     45  C   UNL A   1      45.752  24.891  25.282  1.00  0.00     0.016 A 
ATOM     46  C   UNL A   1      46.022  24.777  27.689  1.00  0.00     0.016 A 
ATOM     47  C   UNL A   1      46.061  26.250  25.306  1.00  0.00     0.010 A 
ATOM     48  C   UNL A   1      46.336  26.141  27.712  1.00  0.00     0.010 A 
ATOM     49  C   UNL A   1      46.419  26.868  26.511  1.00  0.00    -0.014 A 
BRANCH  49  50
ATOM     50  C   UNL A   1      47.163  28.154  26.456  1.00  0.00     0.031 A 
ATOM     51  C   UNL A   1      48.658  28.080  26.262  1.00  0.00     0.074 A 
ATOM     52  C   UNL A   1      46.543  29.348  26.494  1.00  0.00     0.049 A 
ATOM     53  N   UNL A   1      49.532  29.043  26.128  1.00  0.00    -0.248 NA
ATOM     54  C   UNL A   1      49.246  26.729  26.210  1.00  0.00     0.031 C 
ATOM     55  C   UNL A   1      45.104  29.555  26.644  1.00  0.00     0.029 A 
ATOM     56  N   UNL A   1      47.056  30.620  26.404  1.00  0.00    -0.354 N 
ATOM     57  C   UNL A   1      50.765  28.416  25.978  1.00  0.00     0.074 A 
ATOM     58  C   UNL A   1      50.535  26.993  26.078  1.00  0.00     0.031 C 
ATOM     59  C   UNL A   1      44.850  30.878  26.638  1.00  0.00     0.029 A 
ATOM     60  C   UNL A   1      46.109  31.613  26.506  1.00  0.00     0.049 A 
ATOM     61  H   UNL A   1      48.015  30.804  26.276  1.00  0.00     0.167 HD
ATOM     62  C   UNL A   1      51.981  28.973  25.764  1.00  0.00     0.034 A 
ATOM     63  C   UNL A   1      46.247  32.956  26.504  1.00  0.00     0.034 A 
ATOM     64  C   UNL A   1      52.208  30.390  25.663  1.00  0.00     0.049 A 
ATOM     65  C   UNL A   1      47.627  33.553  26.314  1.00  0.00     0.074 A 
ATOM     66  C   UNL A   1      53.398  31.055  25.431  1.00  0.00     0.029 A 
ATOM     67  N   UNL A   1      51.227  31.363  25.795  1.00  0.00    -0.354 N 
ATOM     68  N   UNL A   1      48.779  32.943  26.136  1.00  0.00    -0.248 NA
ATOM     69  C   UNL A   1      47.720  35.019  26.301  1.00  0.00     0.031 C 
ATOM     70  C   UNL A   1      53.151  32.430  25.493  1.00  0.00     0.029 A 
ATOM     71  C   UNL A   1      51.791  32.623  25.679  1.00  0.00     0.049 A 
ATOM     72  H   UNL A   1      50.271  31.184  25.950  1.00  0.00     0.167 HD
ATOM     73  C   UNL A   1      49.718  33.957  25.945  1.00  0.00     0.074 A 
ATOM     74  C   UNL A   1      48.998  35.209  26.008  1.00  0.00     0.031 C 
ATOM     75  C   UNL A   1      51.058  33.864  25.734  1.00  0.00     0.034 A 
BRANCH  62  76
ATOM     76  C   UNL A   1      53.164  28.043  25.678  1.00  0.00     0.023 A 
ATOM     77  C   UNL A   1      53.884  27.645  26.817  1.00  0.00     0.031 A 
ATOM     78  C   UNL A   1      53.581  27.555  24.427  1.00  0.00     0.131 A 
ATOM     79  C   UNL A   1      55.014  26.824  26.676  1.00  0.00     0.055 A 
ATOM     80  C   UNL A   1      54.662  26.682  24.302  1.00  0.00     0.041 A 
ATOM     81  F   UNL A   1      52.948  27.927  23.303  1.00  0.00    -0.206 F 
ATOM     82  C   UNL A   1      55.391  26.318  25.430  1.00  0.00     0.022 A 
BRANCH  79  83
ATOM     83  S   UNL A   1      56.050  26.512  28.132  1.00  0.00     0.124 S 
ATOM     84  O   UNL A   1      55.543  27.507  29.074  1.00  0.00    -0.237 OA
ATOM     85  O   UNL A   1      55.746  25.121  28.446  1.00  0.00    -0.237 OA
ATOM     86  O   UNL A   1      57.406  26.760  27.646  1.00  0.00    -0.744 OA
ENDBRANCH  79  83
ENDBRANCH  62  76
BRANCH  63  87
ATOM     87  C   UNL A   1      45.072  33.856  26.725  1.00  0.00     0.023 A 
ATOM     88  C   UNL A   1      44.699  34.269  28.015  1.00  0.00     0.031 A 
ATOM     89  C   UNL A   1      44.232  34.213  25.656  1.00  0.00     0.131 A 
ATOM     90  C   UNL A   1      43.480  34.940  28.213  1.00  0.00     0.055 A 
ATOM     91  C   UNL A   1      43.056  34.939  25.848  1.00  0.00     0.041 A 
ATOM     92  F   UNL A   1      44.535  33.841  24.401  1.00  0.00    -0.206 F 
ATOM     93  C   UNL A   1      42.662  35.288  27.135  1.00  0.00     0.022 A 
BRANCH  90  94
ATOM     94  S   UNL A   1      42.906  35.222  29.912  1.00  0.00     0.124 S 
ATOM     95  O   UNL A   1      43.673  34.226  30.652  1.00  0.00    -0.237 OA
ATOM     96  O   UNL A   1      43.285  36.614  30.131  1.00  0.00    -0.237 OA
ATOM     97  O   UNL A   1      41.469  34.972  29.833  1.00  0.00    -0.744 OA
ENDBRANCH  90  94
ENDBRANCH  63  87
BRANCH  75  98
ATOM     98  C   UNL A   1      51.810  35.151  25.484  1.00  0.00     0.023 A 
ATOM     99  C   UNL A   1      52.174  36.018  26.529  1.00  0.00     0.031 A 
ATOM    100  C   UNL A   1      52.147  35.527  24.169  1.00  0.00     0.131 A 
ATOM    101  C   UNL A   1      52.781  37.248  26.238  1.00  0.00     0.055 A 
ATOM    102  C   UNL A   1      52.815  36.719  23.892  1.00  0.00     0.041 A 
ATOM    103  F   UNL A   1      51.828  34.739  23.131  1.00  0.00    -0.206 F 
ATOM    104  C   UNL A   1      53.118  37.598  24.928  1.00  0.00     0.022 A 
BRANCH 101 105
ATOM    105  S   UNL A   1      53.011  38.445  27.583  1.00  0.00     0.124 S 
ATOM    106  O   UNL A   1      52.702  37.642  28.761  1.00  0.00    -0.237 OA
ATOM    107  O   UNL A   1      54.410  38.828  27.420  1.00  0.00    -0.237 OA
ATOM    108  O   UNL A   1      52.042  39.496  27.276  1.00  0.00    -0.744 OA
ENDBRANCH 101 105
ENDBRANCH  75  98
ENDBRANCH  49  50
ENDBRANCH  42  44
ENDBRANCH  41  42
ENDBRANCH  40  41
ENDBRANCH  39  40
ENDBRANCH  38  39
ENDBRANCH  37  38
ENDBRANCH   1  37
TORSDOF 26
ENDMDL
MODEL 2
REMARK VINA RESULT:      -8.2      9.314     13.550
REMARK SMILES COc1ccc(-c2ccc(/C=C3\SC(=S)N([C@H](Cc4ccccc4)C(=O)OCCOCCOCCOC(=O)c4ccc(-c5c6nc(c(-c7cc(S(=O)(=O)[O-])ccc7F)c7ccc([nH]7)c(-c7cc(S(=O)(=O)[O-])ccc7F)c7nc(c(-c8cc(S(=O)(=O)[O-])ccc8F)c8ccc5[nH]8)C=C7)C=C6)cc4)C3=O)o2)cc1
REMARK SMILES IDX 31 1 30 2 29 3 28 4 27 5 25 6 26 7 17 8 16 9 11 10 12 11
REMARK SMILES IDX 13 12 102 13 14 14 103 15 15 16 10 17 7 18 8 19 104 20 9 21
REMARK SMILES IDX 6 22 3 23 4 24 106 25 5 26 105 27 2 28 1 29 18 30 19 31
REMARK SMILES IDX 20 32 24 33 21 34 23 35 22 36 32 37 33 38 34 39 35 40 36 41
REMARK SMILES IDX 37 42 38 43 39 44 40 45 101 46 41 47 100 48 42 49 43 50
REMARK SMILES IDX 44 51 94 52 45 53 99 54 93 55 95 56 46 57 98 58 92 59 91 60
REMARK SMILES IDX 47 62 79 63 59 64 78 65 60 66 63 67 77 68 96 69 61 70 62 71
REMARK SMILES IDX 76 73 97 74 64 75 48 76 49 77 57 78 50 79 56 80 58 81 55 82
REMARK SMILES IDX 51 83 52 84 53 85 54 86 80 87 81 88 89 89 82 90 88 91 90 92
REMARK SMILES IDX 87 93 83 94 84 95 85 96 86 97 65 98 66 99 74 100 67 101
REMARK SMILES IDX 73 102 75 103 72 104 68 105 69 106 70 107 71 108
REMARK H PARENT 95 61 63 72
REMARK Flexibility Score: inf
ROOT
ATOM      1  C   UNL A   1      35.494  32.732  28.151  1.00  0.00     0.188 C 
ENDROOT
BRANCH   1   2
ATOM      2  O   UNL A   1      34.577  31.709  27.774  1.00  0.00    -0.376 OA
BRANCH   2   3
ATOM      3  C   UNL A   1      33.203  32.071  27.653  1.00  0.00     0.202 C 
BRANCH   3   4
ATOM      4  C   UNL A   1      32.309  31.150  26.809  1.00  0.00     0.261 C 
BRANCH   4   5
ATOM      5  O   UNL A   1      32.447  29.750  27.111  1.00  0.00    -0.462 OA
BRANCH   5   6
ATOM      6  C   UNL A   1      33.133  29.027  26.192  1.00  0.00     0.329 C 
ATOM      7  O   UNL A   1      34.352  28.867  26.201  1.00  0.00    -0.250 OA
BRANCH   6   8
ATOM      8  C   UNL A   1      32.247  28.353  25.135  1.00  0.00     0.206 C 
BRANCH   8   9
ATOM      9  N   UNL A   1      33.011  27.180  24.690  1.00  0.00    -0.278 N 
ATOM     10  C   UNL A   1      34.127  23.987  25.768  1.00  0.00     0.068 C 
ATOM     11  C   UNL A   1      33.885  25.037  24.985  1.00  0.00     0.084 C 
ATOM     12  S   UNL A   1      34.412  25.441  23.411  1.00  0.00    -0.054 SA
ATOM     13  C   UNL A   1      32.950  26.053  25.483  1.00  0.00     0.267 C 
ATOM     14  C   UNL A   1      33.645  27.030  23.479  1.00  0.00     0.149 C 
ATOM     15  O   UNL A   1      32.171  25.850  26.406  1.00  0.00    -0.268 OA
ATOM     16  S   UNL A   1      33.764  28.124  22.230  1.00  0.00    -0.052 S 
BRANCH  10  17
ATOM     17  C   UNL A   1      34.835  22.839  25.373  1.00  0.00     0.128 A 
ATOM     18  C   UNL A   1      35.043  20.683  24.936  1.00  0.00     0.134 A 
ATOM     19  C   UNL A   1      36.245  21.253  24.590  1.00  0.00     0.051 A 
ATOM     20  O   UNL A   1      34.219  21.623  25.451  1.00  0.00    -0.457 OA
ATOM     21  C   UNL A   1      36.110  22.639  24.864  1.00  0.00     0.051 A 
BRANCH  18  22
ATOM     22  C   UNL A   1      34.461  19.361  24.875  1.00  0.00     0.017 A 
ATOM     23  C   UNL A   1      33.359  16.788  24.723  1.00  0.00     0.118 A 
ATOM     24  C   UNL A   1      34.711  16.988  24.443  1.00  0.00     0.047 A 
ATOM     25  C   UNL A   1      32.561  17.876  25.084  1.00  0.00     0.047 A 
ATOM     26  C   UNL A   1      35.256  18.268  24.505  1.00  0.00     0.016 A 
ATOM     27  C   UNL A   1      33.113  19.158  25.166  1.00  0.00     0.016 A 
BRANCH  23  28
ATOM     28  O   UNL A   1      32.944  15.488  24.640  1.00  0.00    -0.497 OA
ATOM     29  C   UNL A   1      32.233  14.990  25.765  1.00  0.00     0.278 C 
ENDBRANCH  23  28
ENDBRANCH  18  22
ENDBRANCH  10  17
ENDBRANCH   8   9
BRANCH   8  30
ATOM     30  C   UNL A   1      31.588  29.163  23.991  1.00  0.00     0.073 C 
BRANCH  30  31
ATOM     31  C   UNL A   1      30.109  28.980  23.737  1.00  0.00    -0.045 A 
ATOM     32  C   UNL A   1      29.313  30.077  23.386  1.00  0.00     0.004 A 
ATOM     33  C   UNL A   1      29.520  27.703  23.783  1.00  0.00     0.004 A 
ATOM     34  C   UNL A   1      27.975  29.896  23.033  1.00  0.00     0.000 A 
ATOM     35  C   UNL A   1      28.183  27.524  23.419  1.00  0.00     0.000 A 
ATOM     36  C   UNL A   1      27.415  28.620  23.034  1.00  0.00     0.000 A 
ENDBRANCH  30  31
ENDBRANCH   8  30
ENDBRANCH   6   8
ENDBRANCH   5   6
ENDBRANCH   4   5
ENDBRANCH   3   4
ENDBRANCH   2   3
ENDBRANCH   1   2
BRANCH   1  37
ATOM     37  C   UNL A   1      35.515  33.133  29.628  1.00  0.00     0.188 C 
BRANCH  37  38
ATOM     38  O   UNL A   1      34.637  32.378  30.458  1.00  0.00    -0.376 OA
BRANCH  38  39
ATOM     39  C   UNL A   1      34.629  32.704  31.851  1.00  0.00     0.202 C 
BRANCH  39  40
ATOM     40  C   UNL A   1      35.797  32.137  32.683  1.00  0.00     0.261 C 
BRANCH  40  41
ATOM     41  O   UNL A   1      36.695  33.143  33.196  1.00  0.00    -0.460 OA
BRANCH  41  42
ATOM     42  C   UNL A   1      36.590  33.428  34.516  1.00  0.00     0.338 C 
ATOM     43  O   UNL A   1      35.556  33.467  35.161  1.00  0.00    -0.246 OA
BRANCH  42  44
ATOM     44  C   UNL A   1      37.949  33.419  35.117  1.00  0.00     0.060 A 
ATOM     45  C   UNL A   1      38.172  34.235  36.235  1.00  0.00     0.016 A 
ATOM     46  C   UNL A   1      38.976  32.596  34.639  1.00  0.00     0.016 A 
ATOM     47  C   UNL A   1      39.439  34.300  36.816  1.00  0.00     0.010 A 
ATOM     48  C   UNL A   1      40.249  32.665  35.220  1.00  0.00     0.010 A 
ATOM     49  C   UNL A   1      40.499  33.565  36.269  1.00  0.00    -0.014 A 
BRANCH  49  50
ATOM     50  C   UNL A   1      41.890  33.978  36.595  1.00  0.00     0.031 A 
ATOM     51  C   UNL A   1      42.492  35.090  35.770  1.00  0.00     0.074 A 
ATOM     52  C   UNL A   1      42.575  33.454  37.628  1.00  0.00     0.049 A 
ATOM     53  N   UNL A   1      43.658  35.672  35.877  1.00  0.00    -0.248 NA
ATOM     54  C   UNL A   1      41.660  35.616  34.673  1.00  0.00     0.031 C 
ATOM     55  C   UNL A   1      42.094  32.402  38.522  1.00  0.00     0.029 A 
ATOM     56  N   UNL A   1      43.831  33.747  38.104  1.00  0.00    -0.354 N 
ATOM     57  C   UNL A   1      43.697  36.627  34.866  1.00  0.00     0.074 A 
ATOM     58  C   UNL A   1      42.458  36.520  34.130  1.00  0.00     0.031 C 
ATOM     59  C   UNL A   1      43.046  32.135  39.435  1.00  0.00     0.029 A 
ATOM     60  C   UNL A   1      44.213  32.981  39.181  1.00  0.00     0.049 A 
ATOM     61  H   UNL A   1      44.404  34.443  37.710  1.00  0.00     0.167 HD
ATOM     62  C   UNL A   1      44.671  37.524  34.581  1.00  0.00     0.034 A 
ATOM     63  C   UNL A   1      45.373  32.961  39.871  1.00  0.00     0.034 A 
ATOM     64  C   UNL A   1      45.903  37.630  35.316  1.00  0.00     0.049 A 
ATOM     65  C   UNL A   1      46.468  33.940  39.497  1.00  0.00     0.074 A 
ATOM     66  C   UNL A   1      46.948  38.514  35.119  1.00  0.00     0.029 A 
ATOM     67  N   UNL A   1      46.264  36.821  36.385  1.00  0.00    -0.354 N 
ATOM     68  N   UNL A   1      46.473  34.863  38.560  1.00  0.00    -0.248 NA
ATOM     69  C   UNL A   1      47.704  33.890  40.290  1.00  0.00     0.031 C 
ATOM     70  C   UNL A   1      47.968  38.195  36.020  1.00  0.00     0.029 A 
ATOM     71  C   UNL A   1      47.526  37.167  36.837  1.00  0.00     0.049 A 
ATOM     72  H   UNL A   1      45.703  36.106  36.765  1.00  0.00     0.167 HD
ATOM     73  C   UNL A   1      47.693  35.528  38.689  1.00  0.00     0.074 A 
ATOM     74  C   UNL A   1      48.384  34.916  39.802  1.00  0.00     0.031 C 
ATOM     75  C   UNL A   1      48.199  36.554  37.956  1.00  0.00     0.034 A 
BRANCH  62  76
ATOM     76  C   UNL A   1      44.460  38.423  33.390  1.00  0.00     0.023 A 
ATOM     77  C   UNL A   1      43.807  39.664  33.500  1.00  0.00     0.031 A 
ATOM     78  C   UNL A   1      44.914  38.024  32.121  1.00  0.00     0.131 A 
ATOM     79  C   UNL A   1      43.583  40.437  32.351  1.00  0.00     0.055 A 
ATOM     80  C   UNL A   1      44.751  38.832  30.995  1.00  0.00     0.041 A 
ATOM     81  F   UNL A   1      45.517  36.836  31.954  1.00  0.00    -0.206 F 
ATOM     82  C   UNL A   1      44.075  40.042  31.104  1.00  0.00     0.022 A 
BRANCH  79  83
ATOM     83  S   UNL A   1      42.546  41.919  32.487  1.00  0.00     0.124 S 
ATOM     84  O   UNL A   1      41.761  41.620  33.682  1.00  0.00    -0.237 OA
ATOM     85  O   UNL A   1      43.531  42.986  32.620  1.00  0.00    -0.237 OA
ATOM     86  O   UNL A   1      41.788  41.923  31.238  1.00  0.00    -0.744 OA
ENDBRANCH  79  83
ENDBRANCH  62  76
BRANCH  63  87
ATOM     87  C   UNL A   1      45.608  31.966  40.963  1.00  0.00     0.023 A 
ATOM     88  C   UNL A   1      45.977  30.640  40.680  1.00  0.00     0.031 A 
ATOM     89  C   UNL A   1      45.343  32.299  42.303  1.00  0.00     0.131 A 
ATOM     90  C   UNL A   1      45.989  29.680  41.706  1.00  0.00     0.055 A 
ATOM     91  C   UNL A   1      45.424  31.357  43.330  1.00  0.00     0.041 A 
ATOM     92  F   UNL A   1      44.981  33.549  42.634  1.00  0.00    -0.206 F 
ATOM     93  C   UNL A   1      45.727  30.033  43.032  1.00  0.00     0.022 A 
BRANCH  90  94
ATOM     94  S   UNL A   1      46.209  27.933  41.261  1.00  0.00     0.124 S 
ATOM     95  O   UNL A   1      46.401  28.018  39.818  1.00  0.00    -0.237 OA
ATOM     96  O   UNL A   1      47.385  27.569  42.044  1.00  0.00    -0.237 OA
ATOM     97  O   UNL A   1      44.958  27.312  41.690  1.00  0.00    -0.744 OA
ENDBRANCH  90  94
ENDBRANCH  63  87
BRANCH  75  98
ATOM     98  C   UNL A   1      49.533  37.121  38.386  1.00  0.00     0.023 A 
ATOM     99  C   UNL A   1      49.632  38.182  39.304  1.00  0.00     0.031 A 
ATOM    100  C   UNL A   1      50.726  36.604  37.847  1.00  0.00     0.131 A 
ATOM    101  C   UNL A   1      50.885  38.741  39.595  1.00  0.00     0.055 A 
ATOM    102  C   UNL A   1      51.975  37.117  38.195  1.00  0.00     0.041 A 
ATOM    103  F   UNL A   1      50.695  35.590  36.969  1.00  0.00    -0.206 F 
ATOM    104  C   UNL A   1      52.059  38.205  39.059  1.00  0.00     0.022 A 
BRANCH 101 105
ATOM    105  S   UNL A   1      50.952  40.260  40.585  1.00  0.00     0.124 S 
ATOM    106  O   UNL A   1      50.372  39.824  41.851  1.00  0.00    -0.237 OA
ATOM    107  O   UNL A   1      52.381  40.553  40.606  1.00  0.00    -0.237 OA
ATOM    108  O   UNL A   1      50.137  41.204  39.821  1.00  0.00    -0.744 OA
ENDBRANCH 101 105
ENDBRANCH  75  98
ENDBRANCH  49  50
ENDBRANCH  42  44
ENDBRANCH  41  42
ENDBRANCH  40  41
ENDBRANCH  39  40
ENDBRANCH  38  39
ENDBRANCH  37  38
ENDBRANCH   1  37
TORSDOF 26
ENDMDL
MODEL 3
REMARK VINA RESULT:      -8.0      5.850     11.485
REMARK SMILES COc1ccc(-c2ccc(/C=C3\SC(=S)N([C@H](Cc4ccccc4)C(=O)OCCOCCOCCOC(=O)c4ccc(-c5c6nc(c(-c7cc(S(=O)(=O)[O-])ccc7F)c7ccc([nH]7)c(-c7cc(S(=O)(=O)[O-])ccc7F)c7nc(c(-c8cc(S(=O)(=O)[O-])ccc8F)c8ccc5[nH]8)C=C7)C=C6)cc4)C3=O)o2)cc1
REMARK SMILES IDX 31 1 30 2 29 3 28 4 27 5 25 6 26 7 17 8 16 9 11 10 12 11
REMARK SMILES IDX 13 12 102 13 14 14 103 15 15 16 10 17 7 18 8 19 104 20 9 21
REMARK SMILES IDX 6 22 3 23 4 24 106 25 5 26 105 27 2 28 1 29 18 30 19 31
REMARK SMILES IDX 20 32 24 33 21 34 23 35 22 36 32 37 33 38 34 39 35 40 36 41
REMARK SMILES IDX 37 42 38 43 39 44 40 45 101 46 41 47 100 48 42 49 43 50
REMARK SMILES IDX 44 51 94 52 45 53 99 54 93 55 95 56 46 57 98 58 92 59 91 60
REMARK SMILES IDX 47 62 79 63 59 64 78 65 60 66 63 67 77 68 96 69 61 70 62 71
REMARK SMILES IDX 76 73 97 74 64 75 48 76 49 77 57 78 50 79 56 80 58 81 55 82
REMARK SMILES IDX 51 83 52 84 53 85 54 86 80 87 81 88 89 89 82 90 88 91 90 92
REMARK SMILES IDX 87 93 83 94 84 95 85 96 86 97 65 98 66 99 74 100 67 101
REMARK SMILES IDX 73 102 75 103 72 104 68 105 69 106 70 107 71 108
REMARK H PARENT 95 61 63 72
REMARK Flexibility Score: inf
ROOT
ATOM      1  C   UNL A   1      41.916  28.797  26.765  1.00  0.00     0.188 C 
ENDROOT
BRANCH   1   2
ATOM      2  O   UNL A   1      42.664  29.871  26.203  1.00  0.00    -0.376 OA
BRANCH   2   3
ATOM      3  C   UNL A   1      43.738  30.401  26.979  1.00  0.00     0.202 C 
BRANCH   3   4
ATOM      4  C   UNL A   1      45.155  30.250  26.407  1.00  0.00     0.261 C 
BRANCH   4   5
ATOM      5  O   UNL A   1      45.746  31.481  25.955  1.00  0.00    -0.462 OA
BRANCH   5   6
ATOM      6  C   UNL A   1      46.911  31.817  26.561  1.00  0.00     0.329 C 
ATOM      7  O   UNL A   1      47.919  31.112  26.574  1.00  0.00    -0.250 OA
BRANCH   6   8
ATOM      8  C   UNL A   1      46.906  33.210  27.205  1.00  0.00     0.206 C 
BRANCH   8   9
ATOM      9  N   UNL A   1      45.880  33.142  28.253  1.00  0.00    -0.278 N 
ATOM     10  C   UNL A   1      42.698  34.438  29.149  1.00  0.00     0.068 C 
ATOM     11  C   UNL A   1      43.811  33.707  29.173  1.00  0.00     0.084 C 
ATOM     12  S   UNL A   1      44.462  32.644  30.342  1.00  0.00    -0.054 SA
ATOM     13  C   UNL A   1      44.660  33.724  27.975  1.00  0.00     0.267 C 
ATOM     14  C   UNL A   1      45.947  32.412  29.416  1.00  0.00     0.149 C 
ATOM     15  O   UNL A   1      44.267  34.111  26.882  1.00  0.00    -0.268 OA
ATOM     16  S   UNL A   1      47.199  31.466  29.973  1.00  0.00    -0.052 S 
BRANCH  10  17
ATOM     17  C   UNL A   1      41.684  34.385  30.120  1.00  0.00     0.128 A 
ATOM     18  C   UNL A   1      39.594  34.172  30.804  1.00  0.00     0.134 A 
ATOM     19  C   UNL A   1      40.355  34.245  31.946  1.00  0.00     0.051 A 
ATOM     20  O   UNL A   1      40.383  34.307  29.715  1.00  0.00    -0.457 OA
ATOM     21  C   UNL A   1      41.698  34.375  31.508  1.00  0.00     0.051 A 
BRANCH  18  22
ATOM     22  C   UNL A   1      38.194  33.983  30.495  1.00  0.00     0.017 A 
ATOM     23  C   UNL A   1      35.474  33.599  29.938  1.00  0.00     0.118 A 
ATOM     24  C   UNL A   1      35.880  33.957  31.223  1.00  0.00     0.047 A 
ATOM     25  C   UNL A   1      36.429  33.437  28.932  1.00  0.00     0.047 A 
ATOM     26  C   UNL A   1      37.233  34.135  31.504  1.00  0.00     0.016 A 
ATOM     27  C   UNL A   1      37.785  33.636  29.209  1.00  0.00     0.016 A 
BRANCH  23  28
ATOM     28  O   UNL A   1      34.122  33.465  29.783  1.00  0.00    -0.497 OA
ATOM     29  C   UNL A   1      33.675  33.162  28.469  1.00  0.00     0.278 C 
ENDBRANCH  23  28
ENDBRANCH  18  22
ENDBRANCH  10  17
ENDBRANCH   8   9
BRANCH   8  30
ATOM     30  C   UNL A   1      46.866  34.500  26.348  1.00  0.00     0.073 C 
BRANCH  30  31
ATOM     31  C   UNL A   1      48.159  35.012  25.754  1.00  0.00    -0.045 A 
ATOM     32  C   UNL A   1      48.248  36.330  25.289  1.00  0.00     0.004 A 
ATOM     33  C   UNL A   1      49.309  34.203  25.719  1.00  0.00     0.004 A 
ATOM     34  C   UNL A   1      49.470  36.845  24.853  1.00  0.00     0.000 A 
ATOM     35  C   UNL A   1      50.532  34.724  25.290  1.00  0.00     0.000 A 
ATOM     36  C   UNL A   1      50.613  36.048  24.867  1.00  0.00     0.000 A 
ENDBRANCH  30  31
ENDBRANCH   8  30
ENDBRANCH   6   8
ENDBRANCH   5   6
ENDBRANCH   4   5
ENDBRANCH   3   4
ENDBRANCH   2   3
ENDBRANCH   1   2
BRANCH   1  37
ATOM     37  C   UNL A   1      40.394  28.964  26.810  1.00  0.00     0.188 C 
BRANCH  37  38
ATOM     38  O   UNL A   1      39.918  29.751  27.898  1.00  0.00    -0.376 OA
BRANCH  38  39
ATOM     39  C   UNL A   1      38.542  29.591  28.254  1.00  0.00     0.202 C 
BRANCH  39  40
ATOM     40  C   UNL A   1      38.236  28.486  29.284  1.00  0.00     0.261 C 
BRANCH  40  41
ATOM     41  O   UNL A   1      37.301  28.880  30.309  1.00  0.00    -0.460 OA
BRANCH  41  42
ATOM     42  C   UNL A   1      37.735  29.803  31.200  1.00  0.00     0.338 C 
ATOM     43  O   UNL A   1      37.076  30.721  31.659  1.00  0.00    -0.246 OA
BRANCH  42  44
ATOM     44  C   UNL A   1      39.048  29.366  31.741  1.00  0.00     0.060 A 
ATOM     45  C   UNL A   1      40.108  30.282  31.695  1.00  0.00     0.016 A 
ATOM     46  C   UNL A   1      39.238  28.110  32.329  1.00  0.00     0.016 A 
ATOM     47  C   UNL A   1      41.375  29.914  32.148  1.00  0.00     0.010 A 
ATOM     48  C   UNL A   1      40.510  27.739  32.781  1.00  0.00     0.010 A 
ATOM     49  C   UNL A   1      41.597  28.618  32.632  1.00  0.00    -0.014 A 
BRANCH  49  50
ATOM     50  C   UNL A   1      42.993  28.109  32.680  1.00  0.00     0.031 A 
ATOM     51  C   UNL A   1      43.585  27.843  34.044  1.00  0.00     0.074 A 
ATOM     52  C   UNL A   1      43.692  27.813  31.569  1.00  0.00     0.049 A 
ATOM     53  N   UNL A   1      44.753  27.352  34.366  1.00  0.00    -0.248 NA
ATOM     54  C   UNL A   1      42.737  28.178  35.202  1.00  0.00     0.031 C 
ATOM     55  C   UNL A   1      43.223  27.990  30.196  1.00  0.00     0.029 A 
ATOM     56  N   UNL A   1      44.956  27.291  31.425  1.00  0.00    -0.354 N 
ATOM     57  C   UNL A   1      44.779  27.321  35.757  1.00  0.00     0.074 A 
ATOM     58  C   UNL A   1      43.529  27.879  36.219  1.00  0.00     0.031 C 
ATOM     59  C   UNL A   1      44.188  27.587  29.349  1.00  0.00     0.029 A 
ATOM     60  C   UNL A   1      45.353  27.142  30.116  1.00  0.00     0.049 A 
ATOM     61  H   UNL A   1      45.525  27.045  32.190  1.00  0.00     0.167 HD
ATOM     62  C   UNL A   1      45.751  26.858  36.579  1.00  0.00     0.034 A 
ATOM     63  C   UNL A   1      46.523  26.708  29.602  1.00  0.00     0.034 A 
ATOM     64  C   UNL A   1      46.994  26.301  36.116  1.00  0.00     0.049 A 
ATOM     65  C   UNL A   1      47.614  26.244  30.546  1.00  0.00     0.074 A 
ATOM     66  C   UNL A   1      48.038  25.788  36.865  1.00  0.00     0.029 A 
ATOM     67  N   UNL A   1      47.369  26.189  34.784  1.00  0.00    -0.354 N 
ATOM     68  N   UNL A   1      47.607  26.187  31.860  1.00  0.00    -0.248 NA
ATOM     69  C   UNL A   1      48.861  25.765  29.936  1.00  0.00     0.031 C 
ATOM     70  C   UNL A   1      49.070  25.433  35.993  1.00  0.00     0.029 A 
ATOM     71  C   UNL A   1      48.638  25.643  34.693  1.00  0.00     0.049 A 
ATOM     72  H   UNL A   1      46.813  26.458  34.017  1.00  0.00     0.167 HD
ATOM     73  C   UNL A   1      48.830  25.621  32.222  1.00  0.00     0.074 A 
ATOM     74  C   UNL A   1      49.536  25.338  30.992  1.00  0.00     0.031 C 
ATOM     75  C   UNL A   1      49.327  25.356  33.458  1.00  0.00     0.034 A 
BRANCH  62  76
ATOM     76  C   UNL A   1      45.523  26.985  38.063  1.00  0.00     0.023 A 
ATOM     77  C   UNL A   1      45.798  28.175  38.760  1.00  0.00     0.031 A 
ATOM     78  C   UNL A   1      45.030  25.889  38.792  1.00  0.00     0.131 A 
ATOM     79  C   UNL A   1      45.624  28.223  40.152  1.00  0.00     0.055 A 
ATOM     80  C   UNL A   1      44.791  25.967  40.165  1.00  0.00     0.041 A 
ATOM     81  F   UNL A   1      44.779  24.720  38.182  1.00  0.00    -0.206 F 
ATOM     82  C   UNL A   1      45.097  27.136  40.854  1.00  0.00     0.022 A 
BRANCH  79  83
ATOM     83  S   UNL A   1      46.197  29.690  41.050  1.00  0.00     0.124 S 
ATOM     84  O   UNL A   1      45.376  29.635  42.258  1.00  0.00    -0.237 OA
ATOM     85  O   UNL A   1      47.618  29.417  41.232  1.00  0.00    -0.237 OA
ATOM     86  O   UNL A   1      45.885  30.792  40.143  1.00  0.00    -0.744 OA
ENDBRANCH  79  83
ENDBRANCH  62  76
BRANCH  63  87
ATOM     87  C   UNL A   1      46.772  26.718  28.126  1.00  0.00     0.023 A 
ATOM     88  C   UNL A   1      46.291  25.691  27.296  1.00  0.00     0.031 A 
ATOM     89  C   UNL A   1      47.603  27.692  27.547  1.00  0.00     0.131 A 
ATOM     90  C   UNL A   1      46.712  25.616  25.957  1.00  0.00     0.055 A 
ATOM     91  C   UNL A   1      47.963  27.652  26.199  1.00  0.00     0.041 A 
ATOM     92  F   UNL A   1      48.097  28.694  28.292  1.00  0.00    -0.206 F 
ATOM     93  C   UNL A   1      47.535  26.597  25.400  1.00  0.00     0.022 A 
BRANCH  90  94
ATOM     94  S   UNL A   1      46.287  24.137  24.992  1.00  0.00     0.124 S 
ATOM     95  O   UNL A   1      44.891  24.394  24.658  1.00  0.00    -0.237 OA
ATOM     96  O   UNL A   1      47.235  24.215  23.887  1.00  0.00    -0.237 OA
ATOM     97  O   UNL A   1      46.512  23.041  25.931  1.00  0.00    -0.744 OA
ENDBRANCH  90  94
ENDBRANCH  63  87
BRANCH  75  98
ATOM     98  C   UNL A   1      50.668  24.662  33.532  1.00  0.00     0.023 A 
ATOM     99  C   UNL A   1      50.811  23.286  33.277  1.00  0.00     0.031 A 
ATOM    100  C   UNL A   1      51.819  25.389  33.888  1.00  0.00     0.131 A 
ATOM    101  C   UNL A   1      52.057  22.668  33.457  1.00  0.00     0.055 A 
ATOM    102  C   UNL A   1      53.070  24.782  33.995  1.00  0.00     0.041 A 
ATOM    103  F   UNL A   1      51.745  26.706  34.140  1.00  0.00    -0.206 F 
ATOM    104  C   UNL A   1      53.191  23.410  33.799  1.00  0.00     0.022 A 
BRANCH 101 105
ATOM    105  S   UNL A   1      52.153  20.859  33.362  1.00  0.00     0.124 S 
ATOM    106  O   UNL A   1      53.037  20.660  32.218  1.00  0.00    -0.237 OA
ATOM    107  O   UNL A   1      52.708  20.509  34.665  1.00  0.00    -0.237 OA
ATOM    108  O   UNL A   1      50.764  20.452  33.151  1.00  0.00    -0.744 OA
ENDBRANCH 101 105
ENDBRANCH  75  98
ENDBRANCH  49  50
ENDBRANCH  42  44
ENDBRANCH  41  42
ENDBRANCH  40  41
ENDBRANCH  39  40
ENDBRANCH  38  39
ENDBRANCH  37  38
ENDBRANCH   1  37
TORSDOF 26
ENDMDL
