MODEL 1
REMARK VINA RESULT:      -9.6      0.000      0.000
REMARK SMILES COc1ccc(CC(=O)N[C@H](C)C(=O)OCCOCCOCCOC(=O)c2ccc(-c3c4nc(c(-c5cc(S(=O)(=O)[O-])ccc5F)c5ccc([nH]5)c(-c5cc(S(=O)(=O)[O-])ccc5F)c5nc(c(-c6cc(S(=O)(=O)[O-])ccc6F)c6ccc3[nH]6)C=C5)C=C4)cc2)cc1F
REMARK SMILES IDX 19 1 18 2 17 3 16 4 15 5 13 6 14 7 11 8 12 9 10 10 8 11 9 12
REMARK SMILES IDX 7 14 6 15 3 16 4 17 91 18 5 19 90 20 92 21 2 22 1 23 20 24
REMARK SMILES IDX 21 25 22 26 23 27 24 28 25 29 26 30 27 31 28 32 89 33 29 34
REMARK SMILES IDX 88 35 30 36 31 37 32 38 82 39 33 40 87 41 81 42 83 43 34 44
REMARK SMILES IDX 86 45 80 46 79 47 35 49 67 50 47 51 66 52 48 53 51 54 65 55
REMARK SMILES IDX 84 56 49 57 50 58 64 60 85 61 52 62 36 63 37 64 45 65 38 66
REMARK SMILES IDX 44 67 46 68 43 69 39 70 40 71 41 72 42 73 68 74 69 75 77 76
REMARK SMILES IDX 70 77 76 78 78 79 75 80 71 81 72 82 73 83 74 84 53 85 54 86
REMARK SMILES IDX 62 87 55 88 61 89 63 90 60 91 56 92 57 93 58 94 59 95
REMARK H PARENT 10 13 83 48 51 59
REMARK Flexibility Score: inf
ROOT
ATOM      1  C   UNL A   1      35.246  29.430  27.387  1.00  0.00     0.188 C 
ENDROOT
BRANCH   1   2
ATOM      2  O   UNL A   1      34.398  28.983  26.335  1.00  0.00    -0.376 OA
BRANCH   2   3
ATOM      3  C   UNL A   1      33.334  28.090  26.666  1.00  0.00     0.202 C 
BRANCH   3   4
ATOM      4  C   UNL A   1      32.154  27.945  25.685  1.00  0.00     0.261 C 
BRANCH   4   5
ATOM      5  O   UNL A   1      32.065  29.024  24.728  1.00  0.00    -0.462 OA
BRANCH   5   6
ATOM      6  C   UNL A   1      32.121  28.676  23.417  1.00  0.00     0.328 C 
ATOM      7  O   UNL A   1      32.886  29.192  22.608  1.00  0.00    -0.250 OA
BRANCH   6   8
ATOM      8  C   UNL A   1      31.217  27.469  23.068  1.00  0.00     0.189 C 
ATOM      9  C   UNL A   1      29.739  27.766  22.835  1.00  0.00     0.043 C 
BRANCH   8  10
ATOM     10  N   UNL A   1      31.765  26.852  21.853  1.00  0.00    -0.343 N 
ATOM     11  C   UNL A   1      32.883  26.104  21.657  1.00  0.00     0.225 C 
ATOM     12  O   UNL A   1      33.112  25.694  20.517  1.00  0.00    -0.275 OA
ATOM     13  H   UNL A   1      31.230  27.006  21.041  1.00  0.00     0.164 HD
BRANCH  11  14
ATOM     14  C   UNL A   1      33.807  25.776  22.819  1.00  0.00     0.135 C 
BRANCH  14  15
ATOM     15  C   UNL A   1      33.694  24.345  23.287  1.00  0.00    -0.036 A 
ATOM     16  C   UNL A   1      33.514  21.633  23.957  1.00  0.00     0.154 A 
ATOM     17  C   UNL A   1      32.355  22.358  23.692  1.00  0.00     0.050 A 
ATOM     18  C   UNL A   1      34.755  22.264  23.912  1.00  0.00     0.165 A 
ATOM     19  C   UNL A   1      32.442  23.713  23.376  1.00  0.00     0.008 A 
ATOM     20  C   UNL A   1      34.850  23.618  23.605  1.00  0.00     0.047 A 
ATOM     21  F   UNL A   1      35.886  21.571  24.109  1.00  0.00    -0.203 F 
BRANCH  16  22
ATOM     22  O   UNL A   1      33.382  20.288  24.159  1.00  0.00    -0.494 OA
ATOM     23  C   UNL A   1      32.529  20.033  25.274  1.00  0.00     0.278 C 
ENDBRANCH  16  22
ENDBRANCH  14  15
ENDBRANCH  11  14
ENDBRANCH   8  10
ENDBRANCH   6   8
ENDBRANCH   5   6
ENDBRANCH   4   5
ENDBRANCH   3   4
ENDBRANCH   2   3
ENDBRANCH   1   2
BRANCH   1  24
ATOM     24  C   UNL A   1      35.157  30.910  27.786  1.00  0.00     0.188 C 
BRANCH  24  25
ATOM     25  O   UNL A   1      33.847  31.348  28.077  1.00  0.00    -0.376 OA
BRANCH  25  26
ATOM     26  C   UNL A   1      33.148  32.183  27.165  1.00  0.00     0.202 C 
BRANCH  26  27
ATOM     27  C   UNL A   1      32.522  33.531  27.584  1.00  0.00     0.261 C 
BRANCH  27  28
ATOM     28  O   UNL A   1      33.387  34.538  28.123  1.00  0.00    -0.460 OA
BRANCH  28  29
ATOM     29  C   UNL A   1      33.410  34.677  29.471  1.00  0.00     0.338 C 
ATOM     30  O   UNL A   1      32.502  35.098  30.171  1.00  0.00    -0.246 OA
BRANCH  29  31
ATOM     31  C   UNL A   1      34.616  33.968  29.964  1.00  0.00     0.060 A 
ATOM     32  C   UNL A   1      34.465  32.958  30.927  1.00  0.00     0.016 A 
ATOM     33  C   UNL A   1      35.877  34.252  29.436  1.00  0.00     0.016 A 
ATOM     34  C   UNL A   1      35.579  32.246  31.375  1.00  0.00     0.010 A 
ATOM     35  C   UNL A   1      36.996  33.564  29.913  1.00  0.00     0.010 A 
ATOM     36  C   UNL A   1      36.856  32.574  30.900  1.00  0.00    -0.014 A 
BRANCH  36  37
ATOM     37  C   UNL A   1      38.062  32.020  31.566  1.00  0.00     0.031 A 
ATOM     38  C   UNL A   1      38.866  30.988  30.832  1.00  0.00     0.074 A 
ATOM     39  C   UNL A   1      38.411  32.379  32.813  1.00  0.00     0.049 A 
ATOM     40  N   UNL A   1      39.904  30.309  31.240  1.00  0.00    -0.248 NA
ATOM     41  C   UNL A   1      38.403  30.639  29.481  1.00  0.00     0.031 C 
ATOM     42  C   UNL A   1      37.661  33.306  33.650  1.00  0.00     0.029 A 
ATOM     43  N   UNL A   1      39.483  32.010  33.593  1.00  0.00    -0.354 N 
ATOM     44  C   UNL A   1      40.185  29.409  30.222  1.00  0.00     0.074 A 
ATOM     45  C   UNL A   1      39.216  29.641  29.171  1.00  0.00     0.031 C 
ATOM     46  C   UNL A   1      38.321  33.468  34.808  1.00  0.00     0.029 A 
ATOM     47  C   UNL A   1      39.553  32.683  34.791  1.00  0.00     0.049 A 
ATOM     48  H   UNL A   1      40.138  31.329  33.318  1.00  0.00     0.167 HD
ATOM     49  C   UNL A   1      41.142  28.452  30.185  1.00  0.00     0.034 A 
ATOM     50  C   UNL A   1      40.513  32.682  35.743  1.00  0.00     0.034 A 
ATOM     51  C   UNL A   1      42.090  28.220  31.246  1.00  0.00     0.049 A 
ATOM     52  C   UNL A   1      41.636  31.679  35.633  1.00  0.00     0.074 A 
ATOM     53  C   UNL A   1      43.090  27.266  31.310  1.00  0.00     0.029 A 
ATOM     54  N   UNL A   1      42.156  28.945  32.429  1.00  0.00    -0.354 N 
ATOM     55  N   UNL A   1      41.871  30.808  34.679  1.00  0.00    -0.248 NA
ATOM     56  C   UNL A   1      42.583  31.611  36.756  1.00  0.00     0.031 C 
ATOM     57  C   UNL A   1      43.721  27.375  32.553  1.00  0.00     0.029 A 
ATOM     58  C   UNL A   1      43.169  28.448  33.234  1.00  0.00     0.049 A 
ATOM     59  H   UNL A   1      41.571  29.701  32.661  1.00  0.00     0.167 HD
ATOM     60  C   UNL A   1      42.966  30.062  35.106  1.00  0.00     0.074 A 
ATOM     61  C   UNL A   1      43.383  30.624  36.375  1.00  0.00     0.031 C 
ATOM     62  C   UNL A   1      43.552  28.990  34.517  1.00  0.00     0.034 A 
BRANCH  49  63
ATOM     63  C   UNL A   1      41.158  27.542  28.987  1.00  0.00     0.023 A 
ATOM     64  C   UNL A   1      42.114  27.679  27.969  1.00  0.00     0.031 A 
ATOM     65  C   UNL A   1      40.186  26.534  28.856  1.00  0.00     0.131 A 
ATOM     66  C   UNL A   1      42.047  26.855  26.836  1.00  0.00     0.055 A 
ATOM     67  C   UNL A   1      40.169  25.670  27.761  1.00  0.00     0.041 A 
ATOM     68  F   UNL A   1      39.231  26.378  29.787  1.00  0.00    -0.206 F 
ATOM     69  C   UNL A   1      41.098  25.834  26.738  1.00  0.00     0.022 A 
BRANCH  66  70
ATOM     70  S   UNL A   1      43.155  27.204  25.446  1.00  0.00     0.124 S 
ATOM     71  O   UNL A   1      42.339  28.107  24.639  1.00  0.00    -0.237 OA
ATOM     72  O   UNL A   1      44.310  27.805  26.104  1.00  0.00    -0.237 OA
ATOM     73  O   UNL A   1      43.388  25.888  24.856  1.00  0.00    -0.744 OA
ENDBRANCH  66  70
ENDBRANCH  49  63
BRANCH  50  74
ATOM     74  C   UNL A   1      40.477  33.661  36.874  1.00  0.00     0.023 A 
ATOM     75  C   UNL A   1      39.784  33.354  38.059  1.00  0.00     0.031 A 
ATOM     76  C   UNL A   1      41.126  34.904  36.803  1.00  0.00     0.131 A 
ATOM     77  C   UNL A   1      39.753  34.277  39.119  1.00  0.00     0.055 A 
ATOM     78  C   UNL A   1      41.144  35.793  37.881  1.00  0.00     0.041 A 
ATOM     79  F   UNL A   1      41.783  35.265  35.689  1.00  0.00    -0.206 F 
ATOM     80  C   UNL A   1      40.452  35.482  39.048  1.00  0.00     0.022 A 
BRANCH  77  81
ATOM     81  S   UNL A   1      38.755  33.900  40.588  1.00  0.00     0.124 S 
ATOM     82  O   UNL A   1      39.575  32.892  41.251  1.00  0.00    -0.237 OA
ATOM     83  O   UNL A   1      38.678  35.200  41.245  1.00  0.00    -0.237 OA
ATOM     84  O   UNL A   1      37.496  33.412  40.029  1.00  0.00    -0.744 OA
ENDBRANCH  77  81
ENDBRANCH  50  74
BRANCH  62  85
ATOM     85  C   UNL A   1      44.695  28.332  35.248  1.00  0.00     0.023 A 
ATOM     86  C   UNL A   1      44.475  27.280  36.156  1.00  0.00     0.031 A 
ATOM     87  C   UNL A   1      46.021  28.731  35.003  1.00  0.00     0.131 A 
ATOM     88  C   UNL A   1      45.562  26.685  36.812  1.00  0.00     0.055 A 
ATOM     89  C   UNL A   1      47.102  28.100  35.620  1.00  0.00     0.041 A 
ATOM     90  F   UNL A   1      46.286  29.727  34.143  1.00  0.00    -0.206 F 
ATOM     91  C   UNL A   1      46.876  27.076  36.535  1.00  0.00     0.022 A 
BRANCH  88  92
ATOM     92  S   UNL A   1      45.239  25.419  38.070  1.00  0.00     0.124 S 
ATOM     93  O   UNL A   1      46.452  24.610  38.002  1.00  0.00    -0.237 OA
ATOM     94  O   UNL A   1      45.070  26.213  39.282  1.00  0.00    -0.237 OA
ATOM     95  O   UNL A   1      44.027  24.759  37.589  1.00  0.00    -0.744 OA
ENDBRANCH  88  92
ENDBRANCH  62  85
ENDBRANCH  36  37
ENDBRANCH  29  31
ENDBRANCH  28  29
ENDBRANCH  27  28
ENDBRANCH  26  27
ENDBRANCH  25  26
ENDBRANCH  24  25
ENDBRANCH   1  24
TORSDOF 24
ENDMDL
MODEL 2
REMARK VINA RESULT:      -9.5      5.144      8.188
REMARK SMILES COc1ccc(CC(=O)N[C@H](C)C(=O)OCCOCCOCCOC(=O)c2ccc(-c3c4nc(c(-c5cc(S(=O)(=O)[O-])ccc5F)c5ccc([nH]5)c(-c5cc(S(=O)(=O)[O-])ccc5F)c5nc(c(-c6cc(S(=O)(=O)[O-])ccc6F)c6ccc3[nH]6)C=C5)C=C4)cc2)cc1F
REMARK SMILES IDX 19 1 18 2 17 3 16 4 15 5 13 6 14 7 11 8 12 9 10 10 8 11 9 12
REMARK SMILES IDX 7 14 6 15 3 16 4 17 91 18 5 19 90 20 92 21 2 22 1 23 20 24
REMARK SMILES IDX 21 25 22 26 23 27 24 28 25 29 26 30 27 31 28 32 89 33 29 34
REMARK SMILES IDX 88 35 30 36 31 37 32 38 82 39 33 40 87 41 81 42 83 43 34 44
REMARK SMILES IDX 86 45 80 46 79 47 35 49 67 50 47 51 66 52 48 53 51 54 65 55
REMARK SMILES IDX 84 56 49 57 50 58 64 60 85 61 52 62 36 63 37 64 45 65 38 66
REMARK SMILES IDX 44 67 46 68 43 69 39 70 40 71 41 72 42 73 68 74 69 75 77 76
REMARK SMILES IDX 70 77 76 78 78 79 75 80 71 81 72 82 73 83 74 84 53 85 54 86
REMARK SMILES IDX 62 87 55 88 61 89 63 90 60 91 56 92 57 93 58 94 59 95
REMARK H PARENT 10 13 83 48 51 59
REMARK Flexibility Score: inf
ROOT
ATOM      1  C   UNL A   1      36.447  23.617  24.607  1.00  0.00     0.188 C 
ENDROOT
BRANCH   1   2
ATOM      2  O   UNL A   1      35.391  24.565  24.504  1.00  0.00    -0.376 OA
BRANCH   2   3
ATOM      3  C   UNL A   1      34.561  24.771  25.649  1.00  0.00     0.202 C 
BRANCH   3   4
ATOM      4  C   UNL A   1      33.797  26.103  25.781  1.00  0.00     0.261 C 
BRANCH   4   5
ATOM      5  O   UNL A   1      33.976  26.985  24.651  1.00  0.00    -0.462 OA
BRANCH   5   6
ATOM      6  C   UNL A   1      33.243  28.128  24.654  1.00  0.00     0.328 C 
ATOM      7  O   UNL A   1      32.784  28.639  25.671  1.00  0.00    -0.250 OA
BRANCH   6   8
ATOM      8  C   UNL A   1      33.157  28.800  23.262  1.00  0.00     0.189 C 
ATOM      9  C   UNL A   1      33.831  28.067  22.107  1.00  0.00     0.043 C 
BRANCH   8  10
ATOM     10  N   UNL A   1      31.732  28.960  22.944  1.00  0.00    -0.343 N 
ATOM     11  C   UNL A   1      30.826  28.083  22.435  1.00  0.00     0.225 C 
ATOM     12  O   UNL A   1      29.670  28.477  22.269  1.00  0.00    -0.275 OA
ATOM     13  H   UNL A   1      31.371  29.856  23.133  1.00  0.00     0.164 HD
BRANCH  11  14
ATOM     14  C   UNL A   1      31.234  26.658  22.100  1.00  0.00     0.135 C 
BRANCH  14  15
ATOM     15  C   UNL A   1      31.023  25.692  23.240  1.00  0.00    -0.036 A 
ATOM     16  C   UNL A   1      30.801  23.982  25.446  1.00  0.00     0.154 A 
ATOM     17  C   UNL A   1      31.479  23.556  24.307  1.00  0.00     0.050 A 
ATOM     18  C   UNL A   1      30.215  25.245  25.476  1.00  0.00     0.165 A 
ATOM     19  C   UNL A   1      31.575  24.400  23.202  1.00  0.00     0.008 A 
ATOM     20  C   UNL A   1      30.300  26.090  24.374  1.00  0.00     0.047 A 
ATOM     21  F   UNL A   1      29.606  25.695  26.582  1.00  0.00    -0.203 F 
BRANCH  16  22
ATOM     22  O   UNL A   1      30.825  23.159  26.537  1.00  0.00    -0.494 OA
ATOM     23  C   UNL A   1      29.499  22.794  26.915  1.00  0.00     0.278 C 
ENDBRANCH  16  22
ENDBRANCH  14  15
ENDBRANCH  11  14
ENDBRANCH   8  10
ENDBRANCH   6   8
ENDBRANCH   5   6
ENDBRANCH   4   5
ENDBRANCH   3   4
ENDBRANCH   2   3
ENDBRANCH   1   2
BRANCH   1  24
ATOM     24  C   UNL A   1      36.208  22.224  24.005  1.00  0.00     0.188 C 
BRANCH  24  25
ATOM     25  O   UNL A   1      36.063  21.201  24.966  1.00  0.00    -0.376 OA
BRANCH  25  26
ATOM     26  C   UNL A   1      36.795  19.990  24.845  1.00  0.00     0.202 C 
BRANCH  26  27
ATOM     27  C   UNL A   1      38.277  19.870  25.262  1.00  0.00     0.261 C 
BRANCH  27  28
ATOM     28  O   UNL A   1      38.977  21.068  25.619  1.00  0.00    -0.460 OA
BRANCH  28  29
ATOM     29  C   UNL A   1      40.009  20.947  26.489  1.00  0.00     0.338 C 
ATOM     30  O   UNL A   1      40.690  19.949  26.670  1.00  0.00    -0.246 OA
BRANCH  29  31
ATOM     31  C   UNL A   1      40.340  22.310  26.970  1.00  0.00     0.060 A 
ATOM     32  C   UNL A   1      39.616  23.402  26.469  1.00  0.00     0.016 A 
ATOM     33  C   UNL A   1      41.313  22.503  27.954  1.00  0.00     0.016 A 
ATOM     34  C   UNL A   1      39.878  24.691  26.939  1.00  0.00     0.010 A 
ATOM     35  C   UNL A   1      41.600  23.798  28.395  1.00  0.00     0.010 A 
ATOM     36  C   UNL A   1      40.900  24.900  27.875  1.00  0.00    -0.014 A 
BRANCH  36  37
ATOM     37  C   UNL A   1      41.368  26.277  28.169  1.00  0.00     0.031 A 
ATOM     38  C   UNL A   1      42.720  26.690  27.667  1.00  0.00     0.074 A 
ATOM     39  C   UNL A   1      40.639  27.130  28.909  1.00  0.00     0.049 A 
ATOM     40  N   UNL A   1      43.368  27.806  27.867  1.00  0.00    -0.248 NA
ATOM     41  C   UNL A   1      43.458  25.689  26.881  1.00  0.00     0.031 C 
ATOM     42  C   UNL A   1      39.355  26.811  29.518  1.00  0.00     0.029 A 
ATOM     43  N   UNL A   1      40.873  28.436  29.276  1.00  0.00    -0.354 N 
ATOM     44  C   UNL A   1      44.615  27.622  27.285  1.00  0.00     0.074 A 
ATOM     45  C   UNL A   1      44.623  26.293  26.710  1.00  0.00     0.031 C 
ATOM     46  C   UNL A   1      38.893  27.907  30.143  1.00  0.00     0.029 A 
ATOM     47  C   UNL A   1      39.828  29.014  29.959  1.00  0.00     0.049 A 
ATOM     48  H   UNL A   1      41.710  28.911  29.067  1.00  0.00     0.167 HD
ATOM     49  C   UNL A   1      45.667  28.474  27.264  1.00  0.00     0.034 A 
ATOM     50  C   UNL A   1      39.643  30.291  30.361  1.00  0.00     0.034 A 
ATOM     51  C   UNL A   1      45.650  29.789  27.855  1.00  0.00     0.049 A 
ATOM     52  C   UNL A   1      40.793  31.261  30.234  1.00  0.00     0.074 A 
ATOM     53  C   UNL A   1      46.670  30.723  27.899  1.00  0.00     0.029 A 
ATOM     54  N   UNL A   1      44.563  30.357  28.506  1.00  0.00    -0.354 N 
ATOM     55  N   UNL A   1      41.981  31.065  29.711  1.00  0.00    -0.248 NA
ATOM     56  C   UNL A   1      40.604  32.601  30.810  1.00  0.00     0.031 C 
ATOM     57  C   UNL A   1      46.220  31.829  28.626  1.00  0.00     0.029 A 
ATOM     58  C   UNL A   1      44.894  31.621  28.969  1.00  0.00     0.049 A 
ATOM     59  H   UNL A   1      43.685  29.926  28.621  1.00  0.00     0.167 HD
ATOM     60  C   UNL A   1      42.694  32.240  29.932  1.00  0.00     0.074 A 
ATOM     61  C   UNL A   1      41.784  33.162  30.581  1.00  0.00     0.031 C 
ATOM     62  C   UNL A   1      43.991  32.518  29.651  1.00  0.00     0.034 A 
BRANCH  49  63
ATOM     63  C   UNL A   1      46.943  27.974  26.644  1.00  0.00     0.023 A 
ATOM     64  C   UNL A   1      47.161  28.031  25.259  1.00  0.00     0.031 A 
ATOM     65  C   UNL A   1      47.947  27.414  27.454  1.00  0.00     0.131 A 
ATOM     66  C   UNL A   1      48.335  27.487  24.717  1.00  0.00     0.055 A 
ATOM     67  C   UNL A   1      49.144  26.941  26.915  1.00  0.00     0.041 A 
ATOM     68  F   UNL A   1      47.777  27.309  28.781  1.00  0.00    -0.206 F 
ATOM     69  C   UNL A   1      49.340  26.968  25.538  1.00  0.00     0.022 A 
BRANCH  66  70
ATOM     70  S   UNL A   1      48.485  27.377  22.914  1.00  0.00     0.124 S 
ATOM     71  O   UNL A   1      47.377  28.221  22.476  1.00  0.00    -0.237 OA
ATOM     72  O   UNL A   1      49.823  27.907  22.674  1.00  0.00    -0.237 OA
ATOM     73  O   UNL A   1      48.321  25.951  22.644  1.00  0.00    -0.744 OA
ENDBRANCH  66  70
ENDBRANCH  49  63
BRANCH  50  74
ATOM     74  C   UNL A   1      38.325  30.743  30.907  1.00  0.00     0.023 A 
ATOM     75  C   UNL A   1      37.415  31.435  30.087  1.00  0.00     0.031 A 
ATOM     76  C   UNL A   1      37.946  30.497  32.236  1.00  0.00     0.131 A 
ATOM     77  C   UNL A   1      36.178  31.858  30.604  1.00  0.00     0.055 A 
ATOM     78  C   UNL A   1      36.691  30.866  32.730  1.00  0.00     0.041 A 
ATOM     79  F   UNL A   1      38.781  29.863  33.075  1.00  0.00    -0.206 F 
ATOM     80  C   UNL A   1      35.800  31.553  31.912  1.00  0.00     0.022 A 
BRANCH  77  81
ATOM     81  S   UNL A   1      35.075  32.849  29.555  1.00  0.00     0.124 S 
ATOM     82  O   UNL A   1      33.958  33.101  30.458  1.00  0.00    -0.237 OA
ATOM     83  O   UNL A   1      35.914  33.998  29.232  1.00  0.00    -0.237 OA
ATOM     84  O   UNL A   1      34.784  31.959  28.433  1.00  0.00    -0.744 OA
ENDBRANCH  77  81
ENDBRANCH  50  74
BRANCH  62  85
ATOM     85  C   UNL A   1      44.519  33.868  30.066  1.00  0.00     0.023 A 
ATOM     86  C   UNL A   1      45.145  34.058  31.312  1.00  0.00     0.031 A 
ATOM     87  C   UNL A   1      44.435  34.966  29.192  1.00  0.00     0.131 A 
ATOM     88  C   UNL A   1      45.632  35.326  31.662  1.00  0.00     0.055 A 
ATOM     89  C   UNL A   1      44.967  36.212  29.526  1.00  0.00     0.041 A 
ATOM     90  F   UNL A   1      43.851  34.838  27.990  1.00  0.00    -0.206 F 
ATOM     91  C   UNL A   1      45.564  36.399  30.769  1.00  0.00     0.022 A 
BRANCH  88  92
ATOM     92  S   UNL A   1      46.319  35.571  33.323  1.00  0.00     0.124 S 
ATOM     93  O   UNL A   1      46.985  34.295  33.566  1.00  0.00    -0.237 OA
ATOM     94  O   UNL A   1      47.196  36.721  33.137  1.00  0.00    -0.237 OA
ATOM     95  O   UNL A   1      45.140  35.820  34.150  1.00  0.00    -0.744 OA
ENDBRANCH  88  92
ENDBRANCH  62  85
ENDBRANCH  36  37
ENDBRANCH  29  31
ENDBRANCH  28  29
ENDBRANCH  27  28
ENDBRANCH  26  27
ENDBRANCH  25  26
ENDBRANCH  24  25
ENDBRANCH   1  24
TORSDOF 24
ENDMDL
MODEL 3
REMARK VINA RESULT:      -9.3      5.343     10.775
REMARK SMILES COc1ccc(CC(=O)N[C@H](C)C(=O)OCCOCCOCCOC(=O)c2ccc(-c3c4nc(c(-c5cc(S(=O)(=O)[O-])ccc5F)c5ccc([nH]5)c(-c5cc(S(=O)(=O)[O-])ccc5F)c5nc(c(-c6cc(S(=O)(=O)[O-])ccc6F)c6ccc3[nH]6)C=C5)C=C4)cc2)cc1F
REMARK SMILES IDX 19 1 18 2 17 3 16 4 15 5 13 6 14 7 11 8 12 9 10 10 8 11 9 12
REMARK SMILES IDX 7 14 6 15 3 16 4 17 91 18 5 19 90 20 92 21 2 22 1 23 20 24
REMARK SMILES IDX 21 25 22 26 23 27 24 28 25 29 26 30 27 31 28 32 89 33 29 34
REMARK SMILES IDX 88 35 30 36 31 37 32 38 82 39 33 40 87 41 81 42 83 43 34 44
REMARK SMILES IDX 86 45 80 46 79 47 35 49 67 50 47 51 66 52 48 53 51 54 65 55
REMARK SMILES IDX 84 56 49 57 50 58 64 60 85 61 52 62 36 63 37 64 45 65 38 66
REMARK SMILES IDX 44 67 46 68 43 69 39 70 40 71 41 72 42 73 68 74 69 75 77 76
REMARK SMILES IDX 70 77 76 78 78 79 75 80 71 81 72 82 73 83 74 84 53 85 54 86
REMARK SMILES IDX 62 87 55 88 61 89 63 90 60 91 56 92 57 93 58 94 59 95
REMARK H PARENT 10 13 83 48 51 59
REMARK Flexibility Score: inf
ROOT
ATOM      1  C   UNL A   1      35.874  22.948  25.424  1.00  0.00     0.188 C 
ENDROOT
BRANCH   1   2
ATOM      2  O   UNL A   1      34.600  23.578  25.345  1.00  0.00    -0.376 OA
BRANCH   2   3
ATOM      3  C   UNL A   1      34.521  24.969  25.661  1.00  0.00     0.202 C 
BRANCH   3   4
ATOM      4  C   UNL A   1      34.105  25.959  24.554  1.00  0.00     0.261 C 
BRANCH   4   5
ATOM      5  O   UNL A   1      33.781  25.318  23.301  1.00  0.00    -0.462 OA
BRANCH   5   6
ATOM      6  C   UNL A   1      33.304  26.123  22.316  1.00  0.00     0.328 C 
ATOM      7  O   UNL A   1      33.975  26.982  21.754  1.00  0.00    -0.250 OA
BRANCH   6   8
ATOM      8  C   UNL A   1      31.865  25.758  21.877  1.00  0.00     0.189 C 
ATOM      9  C   UNL A   1      31.036  24.942  22.862  1.00  0.00     0.043 C 
BRANCH   8  10
ATOM     10  N   UNL A   1      31.160  27.018  21.608  1.00  0.00    -0.343 N 
ATOM     11  C   UNL A   1      30.384  27.797  22.408  1.00  0.00     0.225 C 
ATOM     12  O   UNL A   1      29.910  28.828  21.928  1.00  0.00    -0.275 OA
ATOM     13  H   UNL A   1      31.269  27.358  20.690  1.00  0.00     0.164 HD
BRANCH  11  14
ATOM     14  C   UNL A   1      30.129  27.405  23.854  1.00  0.00     0.135 C 
BRANCH  14  15
ATOM     15  C   UNL A   1      31.145  27.973  24.816  1.00  0.00    -0.036 A 
ATOM     16  C   UNL A   1      32.890  29.175  26.646  1.00  0.00     0.154 A 
ATOM     17  C   UNL A   1      32.966  29.509  25.297  1.00  0.00     0.050 A 
ATOM     18  C   UNL A   1      31.965  28.228  27.077  1.00  0.00     0.165 A 
ATOM     19  C   UNL A   1      32.110  28.898  24.382  1.00  0.00     0.008 A 
ATOM     20  C   UNL A   1      31.112  27.608  26.169  1.00  0.00     0.047 A 
ATOM     21  F   UNL A   1      31.837  27.934  28.379  1.00  0.00    -0.203 F 
BRANCH  16  22
ATOM     22  O   UNL A   1      33.678  29.878  27.513  1.00  0.00    -0.494 OA
ATOM     23  C   UNL A   1      35.050  29.776  27.133  1.00  0.00     0.278 C 
ENDBRANCH  16  22
ENDBRANCH  14  15
ENDBRANCH  11  14
ENDBRANCH   8  10
ENDBRANCH   6   8
ENDBRANCH   5   6
ENDBRANCH   4   5
ENDBRANCH   3   4
ENDBRANCH   2   3
ENDBRANCH   1   2
BRANCH   1  24
ATOM     24  C   UNL A   1      36.164  21.814  24.430  1.00  0.00     0.188 C 
BRANCH  24  25
ATOM     25  O   UNL A   1      36.232  20.535  25.023  1.00  0.00    -0.376 OA
BRANCH  25  26
ATOM     26  C   UNL A   1      37.249  19.619  24.643  1.00  0.00     0.202 C 
BRANCH  26  27
ATOM     27  C   UNL A   1      38.684  19.687  25.211  1.00  0.00     0.261 C 
BRANCH  27  28
ATOM     28  O   UNL A   1      39.095  20.897  25.860  1.00  0.00    -0.460 OA
BRANCH  28  29
ATOM     29  C   UNL A   1      39.990  20.783  26.871  1.00  0.00     0.338 C 
ATOM     30  O   UNL A   1      40.484  19.747  27.288  1.00  0.00    -0.246 OA
BRANCH  29  31
ATOM     31  C   UNL A   1      40.470  22.150  27.187  1.00  0.00     0.060 A 
ATOM     32  C   UNL A   1      39.887  23.245  26.532  1.00  0.00     0.016 A 
ATOM     33  C   UNL A   1      41.443  22.356  28.169  1.00  0.00     0.016 A 
ATOM     34  C   UNL A   1      40.290  24.545  26.844  1.00  0.00     0.010 A 
ATOM     35  C   UNL A   1      41.872  23.655  28.453  1.00  0.00     0.010 A 
ATOM     36  C   UNL A   1      41.315  24.754  27.777  1.00  0.00    -0.014 A 
BRANCH  36  37
ATOM     37  C   UNL A   1      41.936  26.095  27.911  1.00  0.00     0.031 A 
ATOM     38  C   UNL A   1      41.269  27.099  28.805  1.00  0.00     0.074 A 
ATOM     39  C   UNL A   1      43.035  26.440  27.220  1.00  0.00     0.049 A 
ATOM     40  N   UNL A   1      41.580  28.349  29.016  1.00  0.00    -0.248 NA
ATOM     41  C   UNL A   1      40.060  26.645  29.510  1.00  0.00     0.031 C 
ATOM     42  C   UNL A   1      43.717  25.579  26.263  1.00  0.00     0.029 A 
ATOM     43  N   UNL A   1      43.771  27.602  27.214  1.00  0.00    -0.354 N 
ATOM     44  C   UNL A   1      40.574  28.852  29.829  1.00  0.00     0.074 A 
ATOM     45  C   UNL A   1      39.653  27.765  30.086  1.00  0.00     0.031 C 
ATOM     46  C   UNL A   1      44.798  26.226  25.798  1.00  0.00     0.029 A 
ATOM     47  C   UNL A   1      44.907  27.534  26.439  1.00  0.00     0.049 A 
ATOM     48  H   UNL A   1      43.509  28.407  27.718  1.00  0.00     0.167 HD
ATOM     49  C   UNL A   1      40.417  30.116  30.289  1.00  0.00     0.034 A 
ATOM     50  C   UNL A   1      45.921  28.414  26.291  1.00  0.00     0.034 A 
ATOM     51  C   UNL A   1      41.334  31.193  30.012  1.00  0.00     0.049 A 
ATOM     52  C   UNL A   1      45.780  29.788  26.902  1.00  0.00     0.074 A 
ATOM     53  C   UNL A   1      41.256  32.513  30.422  1.00  0.00     0.029 A 
ATOM     54  N   UNL A   1      42.493  31.079  29.256  1.00  0.00    -0.354 N 
ATOM     55  N   UNL A   1      44.805  30.262  27.643  1.00  0.00    -0.248 NA
ATOM     56  C   UNL A   1      46.837  30.765  26.602  1.00  0.00     0.031 C 
ATOM     57  C   UNL A   1      42.333  33.208  29.865  1.00  0.00     0.029 A 
ATOM     58  C   UNL A   1      43.128  32.309  29.174  1.00  0.00     0.049 A 
ATOM     59  H   UNL A   1      42.816  30.248  28.840  1.00  0.00     0.167 HD
ATOM     60  C   UNL A   1      45.111  31.602  27.862  1.00  0.00     0.074 A 
ATOM     61  C   UNL A   1      46.391  31.846  27.228  1.00  0.00     0.031 C 
ATOM     62  C   UNL A   1      44.385  32.551  28.504  1.00  0.00     0.034 A 
BRANCH  49  63
ATOM     63  C   UNL A   1      39.170  30.410  31.077  1.00  0.00     0.023 A 
ATOM     64  C   UNL A   1      38.103  31.136  30.526  1.00  0.00     0.031 A 
ATOM     65  C   UNL A   1      39.058  29.970  32.409  1.00  0.00     0.131 A 
ATOM     66  C   UNL A   1      36.990  31.449  31.320  1.00  0.00     0.055 A 
ATOM     67  C   UNL A   1      37.916  30.222  33.170  1.00  0.00     0.041 A 
ATOM     68  F   UNL A   1      40.060  29.297  32.993  1.00  0.00    -0.206 F 
ATOM     69  C   UNL A   1      36.877  30.973  32.629  1.00  0.00     0.022 A 
BRANCH  66  70
ATOM     70  S   UNL A   1      35.737  32.572  30.648  1.00  0.00     0.124 S 
ATOM     71  O   UNL A   1      34.585  32.265  31.492  1.00  0.00    -0.237 OA
ATOM     72  O   UNL A   1      36.344  33.883  30.851  1.00  0.00    -0.237 OA
ATOM     73  O   UNL A   1      35.612  32.152  29.255  1.00  0.00    -0.744 OA
ENDBRANCH  66  70
ENDBRANCH  49  63
BRANCH  50  74
ATOM     74  C   UNL A   1      47.167  28.036  25.553  1.00  0.00     0.023 A 
ATOM     75  C   UNL A   1      47.224  28.143  24.151  1.00  0.00     0.031 A 
ATOM     76  C   UNL A   1      48.314  27.572  26.218  1.00  0.00     0.131 A 
ATOM     77  C   UNL A   1      48.396  27.786  23.463  1.00  0.00     0.055 A 
ATOM     78  C   UNL A   1      49.497  27.277  25.535  1.00  0.00     0.041 A 
ATOM     79  F   UNL A   1      48.314  27.426  27.552  1.00  0.00    -0.206 F 
ATOM     80  C   UNL A   1      49.542  27.382  24.148  1.00  0.00     0.022 A 
BRANCH  77  81
ATOM     81  S   UNL A   1      48.399  27.824  21.647  1.00  0.00     0.124 S 
ATOM     82  O   UNL A   1      47.036  28.259  21.360  1.00  0.00    -0.237 OA
ATOM     83  O   UNL A   1      49.455  28.790  21.365  1.00  0.00    -0.237 OA
ATOM     84  O   UNL A   1      48.705  26.444  21.278  1.00  0.00    -0.744 OA
ENDBRANCH  77  81
ENDBRANCH  50  74
BRANCH  62  85
ATOM     85  C   UNL A   1      44.940  33.953  28.532  1.00  0.00     0.023 A 
ATOM     86  C   UNL A   1      45.831  34.367  29.538  1.00  0.00     0.031 A 
ATOM     87  C   UNL A   1      44.608  34.872  27.521  1.00  0.00     0.131 A 
ATOM     88  C   UNL A   1      46.335  35.676  29.530  1.00  0.00     0.055 A 
ATOM     89  C   UNL A   1      45.152  36.156  27.490  1.00  0.00     0.041 A 
ATOM     90  F   UNL A   1      43.764  34.526  26.536  1.00  0.00    -0.206 F 
ATOM     91  C   UNL A   1      46.015  36.567  28.501  1.00  0.00     0.022 A 
BRANCH  88  92
ATOM     92  S   UNL A   1      47.382  36.220  30.907  1.00  0.00     0.124 S 
ATOM     93  O   UNL A   1      47.841  37.525  30.441  1.00  0.00    -0.237 OA
ATOM     94  O   UNL A   1      46.447  36.236  32.028  1.00  0.00    -0.237 OA
ATOM     95  O   UNL A   1      48.416  35.190  30.981  1.00  0.00    -0.744 OA
ENDBRANCH  88  92
ENDBRANCH  62  85
ENDBRANCH  36  37
ENDBRANCH  29  31
ENDBRANCH  28  29
ENDBRANCH  27  28
ENDBRANCH  26  27
ENDBRANCH  25  26
ENDBRANCH  24  25
ENDBRANCH   1  24
TORSDOF 24
ENDMDL
