MODEL 1
REMARK VINA RESULT:     -10.8      0.000      0.000
REMARK SMILES CC(C)CCc1cc2c(cc1Cl)C=C(C(=O)OCCOCCOCCOC(=O)c1ccc(-c3c4nc(c(-c5cc(S(=O)(=O)[O-])ccc5F)c5ccc([nH]5)c(-c5cc(S(=O)(=O)[O-])ccc5F)c5nc(c(-c6cc(S(=O)(=O)[O-])ccc6F)c6ccc3[nH]6)C=C5)C=C4)cc1)[C@H](C(F)(F)F)O2
REMARK SMILES IDX 21 1 20 2 19 3 18 4 17 5 15 6 16 7 14 8 6 9 7 10 11 11 8 12
REMARK SMILES IDX 10 13 12 14 9 15 97 16 13 17 92 18 5 19 4 20 2 21 1 22 3 23
REMARK SMILES IDX 93 24 94 25 95 26 96 27 22 28 23 29 24 30 25 31 26 32 27 33
REMARK SMILES IDX 28 34 29 35 30 36 91 37 31 38 90 39 32 40 33 41 34 42 84 43
REMARK SMILES IDX 35 44 89 45 83 46 85 47 36 48 88 49 82 50 81 51 37 53 69 54
REMARK SMILES IDX 49 55 68 56 50 57 53 58 67 59 86 60 51 61 52 62 66 64 87 65
REMARK SMILES IDX 54 66 38 67 39 68 47 69 40 70 46 71 48 72 45 73 41 74 42 75
REMARK SMILES IDX 43 76 44 77 70 78 71 79 79 80 72 81 78 82 80 83 77 84 73 85
REMARK SMILES IDX 74 86 75 87 76 88 55 89 56 90 64 91 57 92 63 93 65 94 62 95
REMARK SMILES IDX 58 96 59 97 60 98 61 99
REMARK H PARENT 85 52 53 63
REMARK Flexibility Score: inf
ROOT
ATOM      1  C   UNL A   1      33.927  29.776  26.704  1.00  0.00     0.188 C 
ENDROOT
BRANCH   1   2
ATOM      2  O   UNL A   1      32.505  29.747  26.704  1.00  0.00    -0.376 OA
BRANCH   2   3
ATOM      3  C   UNL A   1      31.793  30.337  25.619  1.00  0.00     0.202 C 
BRANCH   3   4
ATOM      4  C   UNL A   1      31.174  29.413  24.564  1.00  0.00     0.261 C 
BRANCH   4   5
ATOM      5  O   UNL A   1      32.128  28.474  24.044  1.00  0.00    -0.460 OA
BRANCH   5   6
ATOM      6  C   UNL A   1      31.619  27.458  23.321  1.00  0.00     0.338 C 
ATOM      7  O   UNL A   1      30.991  27.552  22.279  1.00  0.00    -0.246 OA
BRANCH   6   8
ATOM      8  C   UNL A   1      32.031  26.169  23.903  1.00  0.00     0.087 C 
ATOM      9  C   UNL A   1      34.336  21.743  24.522  1.00  0.00    -0.026 A 
ATOM     10  C   UNL A   1      33.098  22.287  24.876  1.00  0.00     0.052 A 
ATOM     11  C   UNL A   1      35.296  22.627  23.994  1.00  0.00     0.045 A 
ATOM     12  C   UNL A   1      32.758  23.597  24.554  1.00  0.00     0.128 A 
ATOM     13  C   UNL A   1      34.994  23.982  23.774  1.00  0.00     0.032 A 
ATOM     14  Cl  UNL A   1      36.879  22.087  23.558  1.00  0.00    -0.084 Cl
ATOM     15  C   UNL A   1      33.705  24.460  24.020  1.00  0.00     0.019 A 
ATOM     16  O   UNL A   1      31.436  23.896  24.700  1.00  0.00    -0.475 OA
ATOM     17  C   UNL A   1      33.299  25.806  23.649  1.00  0.00     0.027 C 
ATOM     18  C   UNL A   1      31.008  25.274  24.554  1.00  0.00     0.316 C 
BRANCH   9  19
ATOM     19  C   UNL A   1      34.597  20.249  24.601  1.00  0.00     0.037 C 
BRANCH  19  20
ATOM     20  C   UNL A   1      33.397  19.284  24.697  1.00  0.00     0.008 C 
BRANCH  20  21
ATOM     21  C   UNL A   1      33.651  17.784  24.407  1.00  0.00    -0.017 C 
ATOM     22  C   UNL A   1      33.149  17.334  23.039  1.00  0.00     0.007 C 
ATOM     23  C   UNL A   1      35.146  17.487  24.556  1.00  0.00     0.007 C 
ENDBRANCH  20  21
ENDBRANCH  19  20
ENDBRANCH   9  19
BRANCH  18  24
ATOM     24  C   UNL A   1      30.446  25.685  25.926  1.00  0.00     0.430 C 
ATOM     25  F   UNL A   1      30.834  24.851  26.915  1.00  0.00    -0.167 F 
ATOM     26  F   UNL A   1      30.768  26.948  26.269  1.00  0.00    -0.167 F 
ATOM     27  F   UNL A   1      29.084  25.647  25.900  1.00  0.00    -0.167 F 
ENDBRANCH  18  24
ENDBRANCH   6   8
ENDBRANCH   5   6
ENDBRANCH   4   5
ENDBRANCH   3   4
ENDBRANCH   2   3
ENDBRANCH   1   2
BRANCH   1  28
ATOM     28  C   UNL A   1      34.660  30.589  27.788  1.00  0.00     0.188 C 
BRANCH  28  29
ATOM     29  O   UNL A   1      34.337  31.953  27.853  1.00  0.00    -0.376 OA
BRANCH  29  30
ATOM     30  C   UNL A   1      34.239  32.627  29.094  1.00  0.00     0.202 C 
BRANCH  30  31
ATOM     31  C   UNL A   1      34.786  32.128  30.444  1.00  0.00     0.261 C 
BRANCH  31  32
ATOM     32  O   UNL A   1      35.058  33.090  31.461  1.00  0.00    -0.460 OA
BRANCH  32  33
ATOM     33  C   UNL A   1      35.918  32.708  32.436  1.00  0.00     0.338 C 
ATOM     34  O   UNL A   1      35.745  32.779  33.640  1.00  0.00    -0.246 OA
BRANCH  33  35
ATOM     35  C   UNL A   1      37.022  31.983  31.773  1.00  0.00     0.060 A 
ATOM     36  C   UNL A   1      37.455  32.372  30.503  1.00  0.00     0.016 A 
ATOM     37  C   UNL A   1      37.585  30.870  32.410  1.00  0.00     0.016 A 
ATOM     38  C   UNL A   1      38.469  31.652  29.875  1.00  0.00     0.010 A 
ATOM     39  C   UNL A   1      38.592  30.143  31.773  1.00  0.00     0.010 A 
ATOM     40  C   UNL A   1      39.053  30.541  30.509  1.00  0.00    -0.014 A 
BRANCH  40  41
ATOM     41  C   UNL A   1      40.270  29.927  29.926  1.00  0.00     0.031 A 
ATOM     42  C   UNL A   1      40.268  28.550  29.340  1.00  0.00     0.074 A 
ATOM     43  C   UNL A   1      41.399  30.660  29.936  1.00  0.00     0.049 A 
ATOM     44  N   UNL A   1      41.224  27.940  28.689  1.00  0.00    -0.248 NA
ATOM     45  C   UNL A   1      39.045  27.751  29.506  1.00  0.00     0.031 C 
ATOM     46  C   UNL A   1      41.511  31.997  30.520  1.00  0.00     0.029 A 
ATOM     47  N   UNL A   1      42.652  30.401  29.443  1.00  0.00    -0.354 N 
ATOM     48  C   UNL A   1      40.717  26.695  28.341  1.00  0.00     0.074 A 
ATOM     49  C   UNL A   1      39.383  26.617  28.901  1.00  0.00     0.031 C 
ATOM     50  C   UNL A   1      42.758  32.451  30.335  1.00  0.00     0.029 A 
ATOM     51  C   UNL A   1      43.541  31.432  29.638  1.00  0.00     0.049 A 
ATOM     52  H   UNL A   1      42.892  29.560  28.994  1.00  0.00     0.167 HD
ATOM     53  C   UNL A   1      41.310  25.725  27.602  1.00  0.00     0.034 A 
ATOM     54  C   UNL A   1      44.837  31.553  29.288  1.00  0.00     0.034 A 
ATOM     55  C   UNL A   1      42.649  25.826  27.069  1.00  0.00     0.049 A 
ATOM     56  C   UNL A   1      45.479  30.450  28.489  1.00  0.00     0.074 A 
ATOM     57  C   UNL A   1      43.314  24.921  26.260  1.00  0.00     0.029 A 
ATOM     58  N   UNL A   1      43.530  26.875  27.297  1.00  0.00    -0.354 N 
ATOM     59  N   UNL A   1      44.945  29.332  28.053  1.00  0.00    -0.248 NA
ATOM     60  C   UNL A   1      46.888  30.627  28.113  1.00  0.00     0.031 C 
ATOM     61  C   UNL A   1      44.615  25.382  26.061  1.00  0.00     0.029 A 
ATOM     62  C   UNL A   1      44.742  26.619  26.675  1.00  0.00     0.049 A 
ATOM     63  H   UNL A   1      43.323  27.681  27.821  1.00  0.00     0.167 HD
ATOM     64  C   UNL A   1      45.944  28.686  27.331  1.00  0.00     0.074 A 
ATOM     65  C   UNL A   1      47.105  29.550  27.368  1.00  0.00     0.031 C 
ATOM     66  C   UNL A   1      45.898  27.485  26.700  1.00  0.00     0.034 A 
BRANCH  53  67
ATOM     67  C   UNL A   1      40.531  24.474  27.275  1.00  0.00     0.023 A 
ATOM     68  C   UNL A   1      41.175  23.222  27.248  1.00  0.00     0.031 A 
ATOM     69  C   UNL A   1      39.201  24.547  26.821  1.00  0.00     0.131 A 
ATOM     70  C   UNL A   1      40.505  22.105  26.734  1.00  0.00     0.055 A 
ATOM     71  C   UNL A   1      38.525  23.421  26.347  1.00  0.00     0.041 A 
ATOM     72  F   UNL A   1      38.545  25.719  26.818  1.00  0.00    -0.206 F 
ATOM     73  C   UNL A   1      39.182  22.196  26.288  1.00  0.00     0.022 A 
BRANCH  70  74
ATOM     74  S   UNL A   1      41.345  20.507  26.546  1.00  0.00     0.124 S 
ATOM     75  O   UNL A   1      42.517  20.877  25.755  1.00  0.00    -0.237 OA
ATOM     76  O   UNL A   1      41.619  20.141  27.932  1.00  0.00    -0.237 OA
ATOM     77  O   UNL A   1      40.366  19.675  25.854  1.00  0.00    -0.744 OA
ENDBRANCH  70  74
ENDBRANCH  53  67
BRANCH  54  78
ATOM     78  C   UNL A   1      45.560  32.812  29.631  1.00  0.00     0.023 A 
ATOM     79  C   UNL A   1      45.397  33.972  28.850  1.00  0.00     0.031 A 
ATOM     80  C   UNL A   1      46.513  32.836  30.662  1.00  0.00     0.131 A 
ATOM     81  C   UNL A   1      46.226  35.080  29.068  1.00  0.00     0.055 A 
ATOM     82  C   UNL A   1      47.285  33.969  30.923  1.00  0.00     0.041 A 
ATOM     83  F   UNL A   1      46.717  31.749  31.420  1.00  0.00    -0.206 F 
ATOM     84  C   UNL A   1      47.156  35.092  30.111  1.00  0.00     0.022 A 
BRANCH  81  85
ATOM     85  S   UNL A   1      46.223  36.483  27.917  1.00  0.00     0.124 S 
ATOM     86  O   UNL A   1      46.676  37.577  28.769  1.00  0.00    -0.237 OA
ATOM     87  O   UNL A   1      47.175  36.037  26.902  1.00  0.00    -0.237 OA
ATOM     88  O   UNL A   1      44.836  36.561  27.472  1.00  0.00    -0.744 OA
ENDBRANCH  81  85
ENDBRANCH  54  78
BRANCH  66  89
ATOM     89  C   UNL A   1      47.135  26.996  25.981  1.00  0.00     0.023 A 
ATOM     90  C   UNL A   1      48.197  26.429  26.712  1.00  0.00     0.031 A 
ATOM     91  C   UNL A   1      47.328  27.236  24.609  1.00  0.00     0.131 A 
ATOM     92  C   UNL A   1      49.419  26.167  26.080  1.00  0.00     0.055 A 
ATOM     93  C   UNL A   1      48.531  26.924  23.972  1.00  0.00     0.041 A 
ATOM     94  F   UNL A   1      46.352  27.784  23.869  1.00  0.00    -0.206 F 
ATOM     95  C   UNL A   1      49.588  26.403  24.711  1.00  0.00     0.022 A 
BRANCH  92  96
ATOM     96  S   UNL A   1      50.863  25.603  27.024  1.00  0.00     0.124 S 
ATOM     97  O   UNL A   1      50.241  25.053  28.226  1.00  0.00    -0.237 OA
ATOM     98  O   UNL A   1      51.454  24.619  26.123  1.00  0.00    -0.237 OA
ATOM     99  O   UNL A   1      51.646  26.817  27.231  1.00  0.00    -0.744 OA
ENDBRANCH  92  96
ENDBRANCH  66  89
ENDBRANCH  40  41
ENDBRANCH  33  35
ENDBRANCH  32  33
ENDBRANCH  31  32
ENDBRANCH  30  31
ENDBRANCH  29  30
ENDBRANCH  28  29
ENDBRANCH   1  28
TORSDOF 24
ENDMDL
MODEL 2
REMARK VINA RESULT:     -10.7      5.715      6.804
REMARK SMILES CC(C)CCc1cc2c(cc1Cl)C=C(C(=O)OCCOCCOCCOC(=O)c1ccc(-c3c4nc(c(-c5cc(S(=O)(=O)[O-])ccc5F)c5ccc([nH]5)c(-c5cc(S(=O)(=O)[O-])ccc5F)c5nc(c(-c6cc(S(=O)(=O)[O-])ccc6F)c6ccc3[nH]6)C=C5)C=C4)cc1)[C@H](C(F)(F)F)O2
REMARK SMILES IDX 21 1 20 2 19 3 18 4 17 5 15 6 16 7 14 8 6 9 7 10 11 11 8 12
REMARK SMILES IDX 10 13 12 14 9 15 97 16 13 17 92 18 5 19 4 20 2 21 1 22 3 23
REMARK SMILES IDX 93 24 94 25 95 26 96 27 22 28 23 29 24 30 25 31 26 32 27 33
REMARK SMILES IDX 28 34 29 35 30 36 91 37 31 38 90 39 32 40 33 41 34 42 84 43
REMARK SMILES IDX 35 44 89 45 83 46 85 47 36 48 88 49 82 50 81 51 37 53 69 54
REMARK SMILES IDX 49 55 68 56 50 57 53 58 67 59 86 60 51 61 52 62 66 64 87 65
REMARK SMILES IDX 54 66 38 67 39 68 47 69 40 70 46 71 48 72 45 73 41 74 42 75
REMARK SMILES IDX 43 76 44 77 70 78 71 79 79 80 72 81 78 82 80 83 77 84 73 85
REMARK SMILES IDX 74 86 75 87 76 88 55 89 56 90 64 91 57 92 63 93 65 94 62 95
REMARK SMILES IDX 58 96 59 97 60 98 61 99
REMARK H PARENT 85 52 53 63
REMARK Flexibility Score: inf
ROOT
ATOM      1  C   UNL A   1      34.340  29.061  27.386  1.00  0.00     0.188 C 
ENDROOT
BRANCH   1   2
ATOM      2  O   UNL A   1      33.106  29.663  27.013  1.00  0.00    -0.376 OA
BRANCH   2   3
ATOM      3  C   UNL A   1      32.615  29.487  25.687  1.00  0.00     0.202 C 
BRANCH   3   4
ATOM      4  C   UNL A   1      33.448  28.653  24.706  1.00  0.00     0.261 C 
BRANCH   4   5
ATOM      5  O   UNL A   1      32.713  28.333  23.514  1.00  0.00    -0.460 OA
BRANCH   5   6
ATOM      6  C   UNL A   1      33.292  27.438  22.690  1.00  0.00     0.338 C 
ATOM      7  O   UNL A   1      33.972  27.688  21.709  1.00  0.00    -0.246 OA
BRANCH   6   8
ATOM      8  C   UNL A   1      33.091  26.073  23.207  1.00  0.00     0.087 C 
ATOM      9  C   UNL A   1      33.991  21.319  24.575  1.00  0.00    -0.026 A 
ATOM     10  C   UNL A   1      32.894  22.029  24.081  1.00  0.00     0.052 A 
ATOM     11  C   UNL A   1      35.119  22.070  24.959  1.00  0.00     0.045 A 
ATOM     12  C   UNL A   1      32.971  23.390  23.804  1.00  0.00     0.128 A 
ATOM     13  C   UNL A   1      35.157  23.464  24.789  1.00  0.00     0.032 A 
ATOM     14  Cl  UNL A   1      36.523  21.314  25.627  1.00  0.00    -0.084 Cl
ATOM     15  C   UNL A   1      34.091  24.123  24.172  1.00  0.00     0.019 A 
ATOM     16  O   UNL A   1      31.935  23.882  23.067  1.00  0.00    -0.475 OA
ATOM     17  C   UNL A   1      34.156  25.532  23.821  1.00  0.00     0.027 C 
ATOM     18  C   UNL A   1      31.833  25.315  22.868  1.00  0.00     0.316 C 
BRANCH   9  19
ATOM     19  C   UNL A   1      34.009  19.801  24.596  1.00  0.00     0.037 C 
BRANCH  19  20
ATOM     20  C   UNL A   1      32.719  19.042  24.970  1.00  0.00     0.008 C 
BRANCH  20  21
ATOM     21  C   UNL A   1      32.608  17.555  24.555  1.00  0.00    -0.017 C 
ATOM     22  C   UNL A   1      33.157  17.266  23.162  1.00  0.00     0.007 C 
ATOM     23  C   UNL A   1      33.312  16.685  25.602  1.00  0.00     0.007 C 
ENDBRANCH  20  21
ENDBRANCH  19  20
ENDBRANCH   9  19
BRANCH  18  24
ATOM     24  C   UNL A   1      30.520  25.739  23.549  1.00  0.00     0.430 C 
ATOM     25  F   UNL A   1      29.523  24.848  23.352  1.00  0.00    -0.167 F 
ATOM     26  F   UNL A   1      30.659  25.951  24.873  1.00  0.00    -0.167 F 
ATOM     27  F   UNL A   1      30.089  26.923  23.030  1.00  0.00    -0.167 F 
ENDBRANCH  18  24
ENDBRANCH   6   8
ENDBRANCH   5   6
ENDBRANCH   4   5
ENDBRANCH   3   4
ENDBRANCH   2   3
ENDBRANCH   1   2
BRANCH   1  28
ATOM     28  C   UNL A   1      35.656  29.806  27.098  1.00  0.00     0.188 C 
BRANCH  28  29
ATOM     29  O   UNL A   1      36.456  30.090  28.216  1.00  0.00    -0.376 OA
BRANCH  29  30
ATOM     30  C   UNL A   1      36.092  29.652  29.512  1.00  0.00     0.202 C 
BRANCH  30  31
ATOM     31  C   UNL A   1      36.233  30.459  30.816  1.00  0.00     0.261 C 
BRANCH  31  32
ATOM     32  O   UNL A   1      36.573  29.757  32.010  1.00  0.00    -0.460 OA
BRANCH  32  33
ATOM     33  C   UNL A   1      37.389  30.405  32.877  1.00  0.00     0.338 C 
ATOM     34  O   UNL A   1      37.066  31.219  33.725  1.00  0.00    -0.246 OA
BRANCH  33  35
ATOM     35  C   UNL A   1      38.722  29.780  32.757  1.00  0.00     0.060 A 
ATOM     36  C   UNL A   1      39.868  30.576  32.686  1.00  0.00     0.016 A 
ATOM     37  C   UNL A   1      38.814  28.386  32.658  1.00  0.00     0.016 A 
ATOM     38  C   UNL A   1      41.114  29.971  32.531  1.00  0.00     0.010 A 
ATOM     39  C   UNL A   1      40.063  27.783  32.492  1.00  0.00     0.010 A 
ATOM     40  C   UNL A   1      41.222  28.572  32.445  1.00  0.00    -0.014 A 
BRANCH  40  41
ATOM     41  C   UNL A   1      42.562  27.940  32.503  1.00  0.00     0.031 A 
ATOM     42  C   UNL A   1      43.336  27.594  31.269  1.00  0.00     0.074 A 
ATOM     43  C   UNL A   1      43.075  27.687  33.721  1.00  0.00     0.049 A 
ATOM     44  N   UNL A   1      44.563  27.154  31.175  1.00  0.00    -0.248 NA
ATOM     45  C   UNL A   1      42.650  27.753  29.980  1.00  0.00     0.031 C 
ATOM     46  C   UNL A   1      42.381  27.951  34.982  1.00  0.00     0.029 A 
ATOM     47  N   UNL A   1      44.283  27.164  34.105  1.00  0.00    -0.354 N 
ATOM     48  C   UNL A   1      44.814  27.007  29.817  1.00  0.00     0.074 A 
ATOM     49  C   UNL A   1      43.588  27.355  29.127  1.00  0.00     0.031 C 
ATOM     50  C   UNL A   1      43.181  27.610  36.001  1.00  0.00     0.029 A 
ATOM     51  C   UNL A   1      44.436  27.082  35.469  1.00  0.00     0.049 A 
ATOM     52  H   UNL A   1      44.973  26.875  33.466  1.00  0.00     0.167 HD
ATOM     53  C   UNL A   1      45.970  26.638  29.213  1.00  0.00     0.034 A 
ATOM     54  C   UNL A   1      45.472  26.643  36.213  1.00  0.00     0.034 A 
ATOM     55  C   UNL A   1      47.173  26.282  29.929  1.00  0.00     0.049 A 
ATOM     56  C   UNL A   1      46.737  26.216  35.516  1.00  0.00     0.074 A 
ATOM     57  C   UNL A   1      48.411  25.952  29.404  1.00  0.00     0.029 A 
ATOM     58  N   UNL A   1      47.293  26.194  31.309  1.00  0.00    -0.354 N 
ATOM     59  N   UNL A   1      47.004  26.207  34.230  1.00  0.00    -0.248 NA
ATOM     60  C   UNL A   1      47.847  25.760  36.362  1.00  0.00     0.031 C 
ATOM     61  C   UNL A   1      49.253  25.592  30.456  1.00  0.00     0.029 A 
ATOM     62  C   UNL A   1      48.571  25.778  31.649  1.00  0.00     0.049 A 
ATOM     63  H   UNL A   1      46.576  26.397  31.952  1.00  0.00     0.167 HD
ATOM     64  C   UNL A   1      48.321  25.770  34.115  1.00  0.00     0.074 A 
ATOM     65  C   UNL A   1      48.801  25.550  35.463  1.00  0.00     0.031 C 
ATOM     66  C   UNL A   1      49.057  25.569  32.994  1.00  0.00     0.034 A 
BRANCH  53  67
ATOM     67  C   UNL A   1      46.038  26.628  27.705  1.00  0.00     0.023 A 
ATOM     68  C   UNL A   1      45.866  25.424  26.994  1.00  0.00     0.031 A 
ATOM     69  C   UNL A   1      46.445  27.769  26.990  1.00  0.00     0.131 A 
ATOM     70  C   UNL A   1      46.145  25.378  25.622  1.00  0.00     0.055 A 
ATOM     71  C   UNL A   1      46.682  27.727  25.614  1.00  0.00     0.041 A 
ATOM     72  F   UNL A   1      46.631  28.939  27.621  1.00  0.00    -0.206 F 
ATOM     73  C   UNL A   1      46.547  26.524  24.928  1.00  0.00     0.022 A 
BRANCH  70  74
ATOM     74  S   UNL A   1      46.077  23.818  24.699  1.00  0.00     0.124 S 
ATOM     75  O   UNL A   1      47.082  24.041  23.662  1.00  0.00    -0.237 OA
ATOM     76  O   UNL A   1      46.443  22.842  25.721  1.00  0.00    -0.237 OA
ATOM     77  O   UNL A   1      44.699  23.750  24.224  1.00  0.00    -0.744 OA
ENDBRANCH  70  74
ENDBRANCH  53  67
BRANCH  54  78
ATOM     78  C   UNL A   1      45.355  26.680  37.699  1.00  0.00     0.023 A 
ATOM     79  C   UNL A   1      45.686  27.843  38.419  1.00  0.00     0.031 A 
ATOM     80  C   UNL A   1      45.034  25.521  38.424  1.00  0.00     0.131 A 
ATOM     81  C   UNL A   1      45.759  27.799  39.818  1.00  0.00     0.055 A 
ATOM     82  C   UNL A   1      45.035  25.503  39.820  1.00  0.00     0.041 A 
ATOM     83  F   UNL A   1      44.731  24.383  37.782  1.00  0.00    -0.206 F 
ATOM     84  C   UNL A   1      45.417  26.642  40.523  1.00  0.00     0.022 A 
BRANCH  81  85
ATOM     85  S   UNL A   1      46.434  29.197  40.757  1.00  0.00     0.124 S 
ATOM     86  O   UNL A   1      47.843  28.836  40.870  1.00  0.00    -0.237 OA
ATOM     87  O   UNL A   1      46.139  30.321  39.872  1.00  0.00    -0.237 OA
ATOM     88  O   UNL A   1      45.674  29.175  42.002  1.00  0.00    -0.744 OA
ENDBRANCH  81  85
ENDBRANCH  54  78
BRANCH  66  89
ATOM     89  C   UNL A   1      50.480  25.080  33.138  1.00  0.00     0.023 A 
ATOM     90  C   UNL A   1      50.760  23.700  33.078  1.00  0.00     0.031 A 
ATOM     91  C   UNL A   1      51.523  25.953  33.492  1.00  0.00     0.131 A 
ATOM     92  C   UNL A   1      52.036  23.231  33.416  1.00  0.00     0.055 A 
ATOM     93  C   UNL A   1      52.807  25.484  33.776  1.00  0.00     0.041 A 
ATOM     94  F   UNL A   1      51.307  27.275  33.574  1.00  0.00    -0.206 F 
ATOM     95  C   UNL A   1      53.064  24.117  33.755  1.00  0.00     0.022 A 
BRANCH  92  96
ATOM     96  S   UNL A   1      52.385  21.453  33.520  1.00  0.00     0.124 S 
ATOM     97  O   UNL A   1      51.689  20.939  32.343  1.00  0.00    -0.237 OA
ATOM     98  O   UNL A   1      53.842  21.421  33.446  1.00  0.00    -0.237 OA
ATOM     99  O   UNL A   1      51.811  21.055  34.802  1.00  0.00    -0.744 OA
ENDBRANCH  92  96
ENDBRANCH  66  89
ENDBRANCH  40  41
ENDBRANCH  33  35
ENDBRANCH  32  33
ENDBRANCH  31  32
ENDBRANCH  30  31
ENDBRANCH  29  30
ENDBRANCH  28  29
ENDBRANCH   1  28
TORSDOF 24
ENDMDL
MODEL 3
REMARK VINA RESULT:     -10.5      4.208      5.661
REMARK SMILES CC(C)CCc1cc2c(cc1Cl)C=C(C(=O)OCCOCCOCCOC(=O)c1ccc(-c3c4nc(c(-c5cc(S(=O)(=O)[O-])ccc5F)c5ccc([nH]5)c(-c5cc(S(=O)(=O)[O-])ccc5F)c5nc(c(-c6cc(S(=O)(=O)[O-])ccc6F)c6ccc3[nH]6)C=C5)C=C4)cc1)[C@H](C(F)(F)F)O2
REMARK SMILES IDX 21 1 20 2 19 3 18 4 17 5 15 6 16 7 14 8 6 9 7 10 11 11 8 12
REMARK SMILES IDX 10 13 12 14 9 15 97 16 13 17 92 18 5 19 4 20 2 21 1 22 3 23
REMARK SMILES IDX 93 24 94 25 95 26 96 27 22 28 23 29 24 30 25 31 26 32 27 33
REMARK SMILES IDX 28 34 29 35 30 36 91 37 31 38 90 39 32 40 33 41 34 42 84 43
REMARK SMILES IDX 35 44 89 45 83 46 85 47 36 48 88 49 82 50 81 51 37 53 69 54
REMARK SMILES IDX 49 55 68 56 50 57 53 58 67 59 86 60 51 61 52 62 66 64 87 65
REMARK SMILES IDX 54 66 38 67 39 68 47 69 40 70 46 71 48 72 45 73 41 74 42 75
REMARK SMILES IDX 43 76 44 77 70 78 71 79 79 80 72 81 78 82 80 83 77 84 73 85
REMARK SMILES IDX 74 86 75 87 76 88 55 89 56 90 64 91 57 92 63 93 65 94 62 95
REMARK SMILES IDX 58 96 59 97 60 98 61 99
REMARK H PARENT 85 52 53 63
REMARK Flexibility Score: inf
ROOT
ATOM      1  C   UNL A   1      34.463  33.484  28.937  1.00  0.00     0.188 C 
ENDROOT
BRANCH   1   2
ATOM      2  O   UNL A   1      34.022  32.131  28.895  1.00  0.00    -0.376 OA
BRANCH   2   3
ATOM      3  C   UNL A   1      33.985  31.447  27.645  1.00  0.00     0.202 C 
BRANCH   3   4
ATOM      4  C   UNL A   1      32.618  31.105  27.041  1.00  0.00     0.261 C 
BRANCH   4   5
ATOM      5  O   UNL A   1      32.686  29.971  26.163  1.00  0.00    -0.460 OA
BRANCH   5   6
ATOM      6  C   UNL A   1      32.166  28.824  26.643  1.00  0.00     0.338 C 
ATOM      7  O   UNL A   1      31.387  28.715  27.575  1.00  0.00    -0.246 OA
BRANCH   6   8
ATOM      8  C   UNL A   1      32.578  27.691  25.797  1.00  0.00     0.087 C 
ATOM      9  C   UNL A   1      34.565  23.304  24.350  1.00  0.00    -0.026 A 
ATOM     10  C   UNL A   1      34.364  24.556  23.762  1.00  0.00     0.052 A 
ATOM     11  C   UNL A   1      33.954  23.078  25.599  1.00  0.00     0.045 A 
ATOM     12  C   UNL A   1      33.751  25.596  24.453  1.00  0.00     0.128 A 
ATOM     13  C   UNL A   1      33.233  24.093  26.250  1.00  0.00     0.032 A 
ATOM     14  Cl  UNL A   1      34.089  21.556  26.409  1.00  0.00    -0.084 Cl
ATOM     15  C   UNL A   1      33.164  25.371  25.691  1.00  0.00     0.019 A 
ATOM     16  O   UNL A   1      33.883  26.822  23.873  1.00  0.00    -0.475 OA
ATOM     17  C   UNL A   1      32.577  26.493  26.405  1.00  0.00     0.027 C 
ATOM     18  C   UNL A   1      33.140  27.942  24.421  1.00  0.00     0.316 C 
BRANCH   9  19
ATOM     19  C   UNL A   1      35.486  22.273  23.724  1.00  0.00     0.037 C 
BRANCH  19  20
ATOM     20  C   UNL A   1      37.003  22.366  23.986  1.00  0.00     0.008 C 
BRANCH  20  21
ATOM     21  C   UNL A   1      37.485  22.367  25.457  1.00  0.00    -0.017 C 
ATOM     22  C   UNL A   1      38.727  21.514  25.694  1.00  0.00     0.007 C 
ATOM     23  C   UNL A   1      37.730  23.811  25.907  1.00  0.00     0.007 C 
ENDBRANCH  20  21
ENDBRANCH  19  20
ENDBRANCH   9  19
BRANCH  18  24
ATOM     24  C   UNL A   1      32.175  28.388  23.309  1.00  0.00     0.430 C 
ATOM     25  F   UNL A   1      32.798  29.082  22.331  1.00  0.00    -0.167 F 
ATOM     26  F   UNL A   1      31.502  27.361  22.753  1.00  0.00    -0.167 F 
ATOM     27  F   UNL A   1      31.223  29.215  23.824  1.00  0.00    -0.167 F 
ENDBRANCH  18  24
ENDBRANCH   6   8
ENDBRANCH   5   6
ENDBRANCH   4   5
ENDBRANCH   3   4
ENDBRANCH   2   3
ENDBRANCH   1   2
BRANCH   1  28
ATOM     28  C   UNL A   1      33.447  34.611  28.675  1.00  0.00     0.188 C 
BRANCH  28  29
ATOM     29  O   UNL A   1      32.692  35.025  29.784  1.00  0.00    -0.376 OA
BRANCH  29  30
ATOM     30  C   UNL A   1      33.132  36.077  30.622  1.00  0.00     0.202 C 
BRANCH  30  31
ATOM     31  C   UNL A   1      33.532  35.951  32.104  1.00  0.00     0.261 C 
BRANCH  31  32
ATOM     32  O   UNL A   1      34.702  35.202  32.425  1.00  0.00    -0.460 OA
BRANCH  32  33
ATOM     33  C   UNL A   1      34.520  33.886  32.696  1.00  0.00     0.338 C 
ATOM     34  O   UNL A   1      33.459  33.303  32.836  1.00  0.00    -0.246 OA
BRANCH  33  35
ATOM     35  C   UNL A   1      35.841  33.237  32.571  1.00  0.00     0.060 A 
ATOM     36  C   UNL A   1      36.811  33.776  31.722  1.00  0.00     0.016 A 
ATOM     37  C   UNL A   1      36.085  32.047  33.269  1.00  0.00     0.016 A 
ATOM     38  C   UNL A   1      38.038  33.128  31.585  1.00  0.00     0.010 A 
ATOM     39  C   UNL A   1      37.310  31.394  33.121  1.00  0.00     0.010 A 
ATOM     40  C   UNL A   1      38.301  31.941  32.291  1.00  0.00    -0.014 A 
BRANCH  40  41
ATOM     41  C   UNL A   1      39.677  31.391  32.304  1.00  0.00     0.031 A 
ATOM     42  C   UNL A   1      40.153  30.406  31.283  1.00  0.00     0.074 A 
ATOM     43  C   UNL A   1      40.505  31.816  33.277  1.00  0.00     0.049 A 
ATOM     44  N   UNL A   1      41.361  29.939  31.103  1.00  0.00    -0.248 NA
ATOM     45  C   UNL A   1      39.153  29.869  30.350  1.00  0.00     0.031 C 
ATOM     46  C   UNL A   1      40.122  32.745  34.341  1.00  0.00     0.029 A 
ATOM     47  N   UNL A   1      41.823  31.538  33.531  1.00  0.00    -0.354 N 
ATOM     48  C   UNL A   1      41.280  29.073  30.020  1.00  0.00     0.074 A 
ATOM     49  C   UNL A   1      39.889  29.040  29.617  1.00  0.00     0.031 C 
ATOM     50  C   UNL A   1      41.185  32.978  35.121  1.00  0.00     0.029 A 
ATOM     51  C   UNL A   1      42.320  32.200  34.629  1.00  0.00     0.049 A 
ATOM     52  H   UNL A   1      42.361  30.925  32.981  1.00  0.00     0.167 HD
ATOM     53  C   UNL A   1      42.284  28.394  29.413  1.00  0.00     0.034 A 
ATOM     54  C   UNL A   1      43.553  32.194  35.175  1.00  0.00     0.034 A 
ATOM     55  C   UNL A   1      43.661  28.437  29.847  1.00  0.00     0.049 A 
ATOM     56  C   UNL A   1      44.645  31.411  34.493  1.00  0.00     0.074 A 
ATOM     57  C   UNL A   1      44.758  27.829  29.260  1.00  0.00     0.029 A 
ATOM     58  N   UNL A   1      44.131  29.102  30.971  1.00  0.00    -0.354 N 
ATOM     59  N   UNL A   1      44.582  30.700  33.391  1.00  0.00    -0.248 NA
ATOM     60  C   UNL A   1      45.977  31.443  35.110  1.00  0.00     0.031 C 
ATOM     61  C   UNL A   1      45.873  28.064  30.066  1.00  0.00     0.029 A 
ATOM     62  C   UNL A   1      45.493  28.888  31.113  1.00  0.00     0.049 A 
ATOM     63  H   UNL A   1      43.579  29.647  31.576  1.00  0.00     0.167 HD
ATOM     64  C   UNL A   1      45.870  30.222  33.169  1.00  0.00     0.074 A 
ATOM     65  C   UNL A   1      46.695  30.746  34.238  1.00  0.00     0.031 C 
ATOM     66  C   UNL A   1      46.321  29.420  32.172  1.00  0.00     0.034 A 
BRANCH  53  67
ATOM     67  C   UNL A   1      41.973  27.569  28.187  1.00  0.00     0.023 A 
ATOM     68  C   UNL A   1      41.920  26.164  28.271  1.00  0.00     0.031 A 
ATOM     69  C   UNL A   1      41.906  28.161  26.913  1.00  0.00     0.131 A 
ATOM     70  C   UNL A   1      41.850  25.398  27.100  1.00  0.00     0.055 A 
ATOM     71  C   UNL A   1      41.795  27.394  25.752  1.00  0.00     0.041 A 
ATOM     72  F   UNL A   1      41.960  29.496  26.778  1.00  0.00    -0.206 F 
ATOM     73  C   UNL A   1      41.782  26.005  25.842  1.00  0.00     0.022 A 
BRANCH  70  74
ATOM     74  S   UNL A   1      41.926  23.586  27.155  1.00  0.00     0.124 S 
ATOM     75  O   UNL A   1      41.997  23.247  25.735  1.00  0.00    -0.237 OA
ATOM     76  O   UNL A   1      43.153  23.355  27.912  1.00  0.00    -0.237 OA
ATOM     77  O   UNL A   1      40.688  23.203  27.824  1.00  0.00    -0.744 OA
ENDBRANCH  70  74
ENDBRANCH  53  67
BRANCH  54  78
ATOM     78  C   UNL A   1      43.809  33.031  36.382  1.00  0.00     0.023 A 
ATOM     79  C   UNL A   1      43.522  32.545  37.671  1.00  0.00     0.031 A 
ATOM     80  C   UNL A   1      44.224  34.367  36.255  1.00  0.00     0.131 A 
ATOM     81  C   UNL A   1      43.583  33.410  38.771  1.00  0.00     0.055 A 
ATOM     82  C   UNL A   1      44.355  35.205  37.364  1.00  0.00     0.041 A 
ATOM     83  F   UNL A   1      44.489  34.881  35.045  1.00  0.00    -0.206 F 
ATOM     84  C   UNL A   1      44.016  34.731  38.628  1.00  0.00     0.022 A 
BRANCH  81  85
ATOM     85  S   UNL A   1      42.969  32.889  40.397  1.00  0.00     0.124 S 
ATOM     86  O   UNL A   1      42.356  34.115  40.898  1.00  0.00    -0.237 OA
ATOM     87  O   UNL A   1      42.042  31.819  40.037  1.00  0.00    -0.237 OA
ATOM     88  O   UNL A   1      44.173  32.454  41.097  1.00  0.00    -0.744 OA
ENDBRANCH  81  85
ENDBRANCH  54  78
BRANCH  66  89
ATOM     89  C   UNL A   1      47.782  29.034  32.156  1.00  0.00     0.023 A 
ATOM     90  C   UNL A   1      48.222  27.909  32.884  1.00  0.00     0.031 A 
ATOM     91  C   UNL A   1      48.753  29.859  31.562  1.00  0.00     0.131 A 
ATOM     92  C   UNL A   1      49.593  27.671  33.040  1.00  0.00     0.055 A 
ATOM     93  C   UNL A   1      50.117  29.586  31.677  1.00  0.00     0.041 A 
ATOM     94  F   UNL A   1      48.388  30.947  30.867  1.00  0.00    -0.206 F 
ATOM     95  C   UNL A   1      50.543  28.498  32.432  1.00  0.00     0.022 A 
BRANCH  92  96
ATOM     96  S   UNL A   1      50.197  26.339  34.114  1.00  0.00     0.124 S 
ATOM     97  O   UNL A   1      51.300  26.993  34.816  1.00  0.00    -0.237 OA
ATOM     98  O   UNL A   1      49.024  26.047  34.932  1.00  0.00    -0.237 OA
ATOM     99  O   UNL A   1      50.593  25.286  33.184  1.00  0.00    -0.744 OA
ENDBRANCH  92  96
ENDBRANCH  66  89
ENDBRANCH  40  41
ENDBRANCH  33  35
ENDBRANCH  32  33
ENDBRANCH  31  32
ENDBRANCH  30  31
ENDBRANCH  29  30
ENDBRANCH  28  29
ENDBRANCH   1  28
TORSDOF 24
ENDMDL
