MODEL 1
REMARK VINA RESULT:     -10.2      0.000      0.000
REMARK SMILES O=C(OCCOCCOCCOC(=O)[C@@H]1CCn2c(C(=O)c3ccccc3)ccc21)c1ccc(-c2c3nc(c(-c4cc(S(=O)(=O)[O-])ccc4F)c4ccc([nH]4)c(-c4cc(S(=O)(=O)[O-])ccc4F)c4nc(c(-c5cc(S(=O)(=O)[O-])ccc5F)c5ccc2[nH]5)C=C4)C=C3)cc1
REMARK SMILES IDX 7 1 6 2 5 3 4 4 3 5 2 6 1 7 31 8 32 9 93 10 33 11 92 12
REMARK SMILES IDX 34 13 35 14 36 15 86 16 37 17 91 18 85 19 87 20 38 21 90 22
REMARK SMILES IDX 84 23 83 24 39 26 71 27 51 28 70 29 52 30 55 31 69 32 88 33
REMARK SMILES IDX 53 34 54 35 68 37 89 38 56 39 40 40 41 41 49 42 42 43 48 44
REMARK SMILES IDX 50 45 47 46 43 47 44 48 45 49 46 50 72 51 73 52 81 53 74 54
REMARK SMILES IDX 80 55 82 56 79 57 75 58 76 59 77 60 78 61 57 62 58 63 66 64
REMARK SMILES IDX 59 65 65 66 67 67 64 68 60 69 61 70 62 71 63 72 8 73 9 74
REMARK SMILES IDX 10 75 11 76 12 77 13 78 14 79 15 80 16 81 30 82 17 83 18 84
REMARK SMILES IDX 29 85 19 86 28 87 20 88 21 89 22 90 23 91 27 92 24 93 26 94
REMARK SMILES IDX 25 95
REMARK H PARENT 87 25 55 36
REMARK Flexibility Score: inf
ROOT
ATOM      1  C   UNL A   1      40.402  22.058  27.164  1.00  0.00     0.188 C 
ENDROOT
BRANCH   1   2
ATOM      2  O   UNL A   1      40.518  20.735  26.623  1.00  0.00    -0.376 OA
BRANCH   2   3
ATOM      3  C   UNL A   1      41.384  19.884  27.381  1.00  0.00     0.202 C 
BRANCH   3   4
ATOM      4  C   UNL A   1      42.209  18.891  26.549  1.00  0.00     0.261 C 
BRANCH   4   5
ATOM      5  O   UNL A   1      42.536  19.405  25.247  1.00  0.00    -0.460 OA
BRANCH   5   6
ATOM      6  C   UNL A   1      43.614  20.153  24.895  1.00  0.00     0.338 C 
ATOM      7  O   UNL A   1      44.447  19.660  24.133  1.00  0.00    -0.246 OA
BRANCH   6   8
ATOM      8  C   UNL A   1      43.821  21.563  25.345  1.00  0.00     0.060 A 
ATOM      9  C   UNL A   1      43.771  22.680  24.511  1.00  0.00     0.016 A 
ATOM     10  C   UNL A   1      44.019  21.780  26.720  1.00  0.00     0.016 A 
ATOM     11  C   UNL A   1      44.053  23.955  24.993  1.00  0.00     0.010 A 
ATOM     12  C   UNL A   1      44.219  23.072  27.226  1.00  0.00     0.010 A 
ATOM     13  C   UNL A   1      44.275  24.167  26.354  1.00  0.00    -0.014 A 
BRANCH  13  14
ATOM     14  C   UNL A   1      44.621  25.530  26.819  1.00  0.00     0.031 A 
ATOM     15  C   UNL A   1      43.548  26.422  27.367  1.00  0.00     0.074 A 
ATOM     16  C   UNL A   1      45.905  25.930  26.860  1.00  0.00     0.049 A 
ATOM     17  N   UNL A   1      43.640  27.652  27.799  1.00  0.00    -0.248 NA
ATOM     18  C   UNL A   1      42.202  25.842  27.471  1.00  0.00     0.031 C 
ATOM     19  C   UNL A   1      47.056  25.118  26.463  1.00  0.00     0.029 A 
ATOM     20  N   UNL A   1      46.460  27.120  27.260  1.00  0.00    -0.354 N 
ATOM     21  C   UNL A   1      42.374  27.985  28.257  1.00  0.00     0.074 A 
ATOM     22  C   UNL A   1      41.518  26.847  27.994  1.00  0.00     0.031 C 
ATOM     23  C   UNL A   1      48.171  25.847  26.616  1.00  0.00     0.029 A 
ATOM     24  C   UNL A   1      47.818  27.181  27.060  1.00  0.00     0.049 A 
ATOM     25  H   UNL A   1      45.937  27.858  27.650  1.00  0.00     0.167 HD
ATOM     26  C   UNL A   1      41.969  29.126  28.866  1.00  0.00     0.034 A 
ATOM     27  C   UNL A   1      48.685  28.204  27.158  1.00  0.00     0.034 A 
ATOM     28  C   UNL A   1      42.820  30.268  29.089  1.00  0.00     0.049 A 
ATOM     29  C   UNL A   1      48.169  29.533  27.610  1.00  0.00     0.074 A 
ATOM     30  C   UNL A   1      42.501  31.490  29.656  1.00  0.00     0.029 A 
ATOM     31  N   UNL A   1      44.163  30.337  28.737  1.00  0.00    -0.354 N 
ATOM     32  N   UNL A   1      46.953  29.861  27.975  1.00  0.00    -0.248 NA
ATOM     33  C   UNL A   1      49.141  30.629  27.662  1.00  0.00     0.031 C 
ATOM     34  C   UNL A   1      43.632  32.315  29.591  1.00  0.00     0.029 A 
ATOM     35  C   UNL A   1      44.675  31.590  29.040  1.00  0.00     0.049 A 
ATOM     36  H   UNL A   1      44.676  29.601  28.331  1.00  0.00     0.167 HD
ATOM     37  C   UNL A   1      47.022  31.199  28.335  1.00  0.00     0.074 A 
ATOM     38  C   UNL A   1      48.397  31.615  28.135  1.00  0.00     0.031 C 
ATOM     39  C   UNL A   1      46.038  32.003  28.808  1.00  0.00     0.034 A 
BRANCH  26  40
ATOM     40  C   UNL A   1      40.518  29.190  29.262  1.00  0.00     0.023 A 
ATOM     41  C   UNL A   1      40.116  29.070  30.605  1.00  0.00     0.031 A 
ATOM     42  C   UNL A   1      39.522  29.281  28.276  1.00  0.00     0.131 A 
ATOM     43  C   UNL A   1      38.752  28.968  30.917  1.00  0.00     0.055 A 
ATOM     44  C   UNL A   1      38.165  29.250  28.600  1.00  0.00     0.041 A 
ATOM     45  F   UNL A   1      39.853  29.367  26.978  1.00  0.00    -0.206 F 
ATOM     46  C   UNL A   1      37.774  29.078  29.925  1.00  0.00     0.022 A 
BRANCH  43  47
ATOM     47  S   UNL A   1      38.277  28.547  32.616  1.00  0.00     0.124 S 
ATOM     48  O   UNL A   1      38.169  27.091  32.541  1.00  0.00    -0.237 OA
ATOM     49  O   UNL A   1      39.394  29.064  33.397  1.00  0.00    -0.237 OA
ATOM     50  O   UNL A   1      37.009  29.249  32.801  1.00  0.00    -0.744 OA
ENDBRANCH  43  47
ENDBRANCH  26  40
BRANCH  27  51
ATOM     51  C   UNL A   1      50.086  28.075  26.672  1.00  0.00     0.023 A 
ATOM     52  C   UNL A   1      50.460  28.435  25.368  1.00  0.00     0.031 A 
ATOM     53  C   UNL A   1      51.043  27.458  27.497  1.00  0.00     0.131 A 
ATOM     54  C   UNL A   1      51.747  28.117  24.905  1.00  0.00     0.055 A 
ATOM     55  C   UNL A   1      52.326  27.169  27.041  1.00  0.00     0.041 A 
ATOM     56  F   UNL A   1      50.730  27.109  28.756  1.00  0.00    -0.206 F 
ATOM     57  C   UNL A   1      52.680  27.487  25.734  1.00  0.00     0.022 A 
BRANCH  54  58
ATOM     58  S   UNL A   1      52.166  28.464  23.175  1.00  0.00     0.124 S 
ATOM     59  O   UNL A   1      53.579  28.815  23.277  1.00  0.00    -0.237 OA
ATOM     60  O   UNL A   1      51.874  27.192  22.521  1.00  0.00    -0.237 OA
ATOM     61  O   UNL A   1      51.279  29.567  22.811  1.00  0.00    -0.744 OA
ENDBRANCH  54  58
ENDBRANCH  27  51
BRANCH  39  62
ATOM     62  C   UNL A   1      46.461  33.392  29.194  1.00  0.00     0.023 A 
ATOM     63  C   UNL A   1      46.453  34.448  28.266  1.00  0.00     0.031 A 
ATOM     64  C   UNL A   1      46.979  33.633  30.478  1.00  0.00     0.131 A 
ATOM     65  C   UNL A   1      47.028  35.678  28.613  1.00  0.00     0.055 A 
ATOM     66  C   UNL A   1      47.490  34.878  30.837  1.00  0.00     0.041 A 
ATOM     67  F   UNL A   1      47.019  32.651  31.393  1.00  0.00    -0.206 F 
ATOM     68  C   UNL A   1      47.533  35.905  29.897  1.00  0.00     0.022 A 
BRANCH  65  69
ATOM     69  S   UNL A   1      47.212  36.944  27.327  1.00  0.00     0.124 S 
ATOM     70  O   UNL A   1      47.044  38.176  28.091  1.00  0.00    -0.237 OA
ATOM     71  O   UNL A   1      48.556  36.685  26.821  1.00  0.00    -0.237 OA
ATOM     72  O   UNL A   1      46.130  36.640  26.391  1.00  0.00    -0.744 OA
ENDBRANCH  65  69
ENDBRANCH  39  62
ENDBRANCH  13  14
ENDBRANCH   6   8
ENDBRANCH   5   6
ENDBRANCH   4   5
ENDBRANCH   3   4
ENDBRANCH   2   3
ENDBRANCH   1   2
BRANCH   1  73
ATOM     73  C   UNL A   1      39.239  22.819  26.524  1.00  0.00     0.188 C 
BRANCH  73  74
ATOM     74  O   UNL A   1      38.417  22.074  25.619  1.00  0.00    -0.376 OA
BRANCH  74  75
ATOM     75  C   UNL A   1      37.048  22.456  25.511  1.00  0.00     0.202 C 
BRANCH  75  76
ATOM     76  C   UNL A   1      36.025  21.337  25.278  1.00  0.00     0.261 C 
BRANCH  76  77
ATOM     77  O   UNL A   1      34.687  21.810  25.108  1.00  0.00    -0.463 OA
BRANCH  77  78
ATOM     78  C   UNL A   1      33.787  20.869  24.685  1.00  0.00     0.315 C 
ATOM     79  O   UNL A   1      33.822  19.682  24.980  1.00  0.00    -0.251 OA
BRANCH  78  80
ATOM     80  C   UNL A   1      32.717  21.523  23.821  1.00  0.00     0.148 C 
ATOM     81  C   UNL A   1      33.313  22.583  22.859  1.00  0.00     0.043 C 
ATOM     82  C   UNL A   1      31.824  22.326  24.681  1.00  0.00     0.033 A 
ATOM     83  C   UNL A   1      32.546  23.894  23.103  1.00  0.00     0.124 C 
ATOM     84  N   UNL A   1      31.757  23.634  24.289  1.00  0.00    -0.341 N 
ATOM     85  C   UNL A   1      31.082  22.162  25.814  1.00  0.00     0.025 A 
ATOM     86  C   UNL A   1      31.079  24.383  25.199  1.00  0.00     0.090 A 
ATOM     87  C   UNL A   1      30.654  23.465  26.164  1.00  0.00     0.032 A 
BRANCH  86  88
ATOM     88  C   UNL A   1      30.866  25.815  25.311  1.00  0.00     0.209 C 
ATOM     89  O   UNL A   1      29.819  26.343  24.944  1.00  0.00    -0.287 OA
BRANCH  88  90
ATOM     90  C   UNL A   1      31.830  26.735  25.945  1.00  0.00     0.024 A 
ATOM     91  C   UNL A   1      31.331  27.576  26.950  1.00  0.00     0.012 A 
ATOM     92  C   UNL A   1      33.156  26.859  25.528  1.00  0.00     0.012 A 
ATOM     93  C   UNL A   1      32.167  28.495  27.578  1.00  0.00     0.001 A 
ATOM     94  C   UNL A   1      33.999  27.768  26.175  1.00  0.00     0.001 A 
ATOM     95  C   UNL A   1      33.505  28.579  27.200  1.00  0.00     0.000 A 
ENDBRANCH  88  90
ENDBRANCH  86  88
ENDBRANCH  78  80
ENDBRANCH  77  78
ENDBRANCH  76  77
ENDBRANCH  75  76
ENDBRANCH  74  75
ENDBRANCH  73  74
ENDBRANCH   1  73
TORSDOF 22
ENDMDL
MODEL 2
REMARK VINA RESULT:      -9.9      2.011      7.631
REMARK SMILES O=C(OCCOCCOCCOC(=O)[C@@H]1CCn2c(C(=O)c3ccccc3)ccc21)c1ccc(-c2c3nc(c(-c4cc(S(=O)(=O)[O-])ccc4F)c4ccc([nH]4)c(-c4cc(S(=O)(=O)[O-])ccc4F)c4nc(c(-c5cc(S(=O)(=O)[O-])ccc5F)c5ccc2[nH]5)C=C4)C=C3)cc1
REMARK SMILES IDX 7 1 6 2 5 3 4 4 3 5 2 6 1 7 31 8 32 9 93 10 33 11 92 12
REMARK SMILES IDX 34 13 35 14 36 15 86 16 37 17 91 18 85 19 87 20 38 21 90 22
REMARK SMILES IDX 84 23 83 24 39 26 71 27 51 28 70 29 52 30 55 31 69 32 88 33
REMARK SMILES IDX 53 34 54 35 68 37 89 38 56 39 40 40 41 41 49 42 42 43 48 44
REMARK SMILES IDX 50 45 47 46 43 47 44 48 45 49 46 50 72 51 73 52 81 53 74 54
REMARK SMILES IDX 80 55 82 56 79 57 75 58 76 59 77 60 78 61 57 62 58 63 66 64
REMARK SMILES IDX 59 65 65 66 67 67 64 68 60 69 61 70 62 71 63 72 8 73 9 74
REMARK SMILES IDX 10 75 11 76 12 77 13 78 14 79 15 80 16 81 30 82 17 83 18 84
REMARK SMILES IDX 29 85 19 86 28 87 20 88 21 89 22 90 23 91 27 92 24 93 26 94
REMARK SMILES IDX 25 95
REMARK H PARENT 87 25 55 36
REMARK Flexibility Score: inf
ROOT
ATOM      1  C   UNL A   1      38.999  23.111  26.816  1.00  0.00     0.188 C 
ENDROOT
BRANCH   1   2
ATOM      2  O   UNL A   1      39.970  22.215  26.259  1.00  0.00    -0.376 OA
BRANCH   2   3
ATOM      3  C   UNL A   1      39.399  21.012  25.733  1.00  0.00     0.202 C 
BRANCH   3   4
ATOM      4  C   UNL A   1      39.987  19.712  26.301  1.00  0.00     0.261 C 
BRANCH   4   5
ATOM      5  O   UNL A   1      41.146  19.270  25.574  1.00  0.00    -0.460 OA
BRANCH   5   6
ATOM      6  C   UNL A   1      42.445  19.601  25.800  1.00  0.00     0.338 C 
ATOM      7  O   UNL A   1      43.305  18.733  25.648  1.00  0.00    -0.246 OA
BRANCH   6   8
ATOM      8  C   UNL A   1      42.891  20.976  26.177  1.00  0.00     0.060 A 
ATOM      9  C   UNL A   1      43.065  21.424  27.486  1.00  0.00     0.016 A 
ATOM     10  C   UNL A   1      43.217  21.859  25.133  1.00  0.00     0.016 A 
ATOM     11  C   UNL A   1      43.409  22.746  27.758  1.00  0.00     0.010 A 
ATOM     12  C   UNL A   1      43.647  23.166  25.400  1.00  0.00     0.010 A 
ATOM     13  C   UNL A   1      43.708  23.630  26.720  1.00  0.00    -0.014 A 
BRANCH  13  14
ATOM     14  C   UNL A   1      44.019  25.040  27.048  1.00  0.00     0.031 A 
ATOM     15  C   UNL A   1      45.426  25.540  26.914  1.00  0.00     0.074 A 
ATOM     16  C   UNL A   1      43.033  25.903  27.355  1.00  0.00     0.049 A 
ATOM     17  N   UNL A   1      45.908  26.726  27.176  1.00  0.00    -0.248 NA
ATOM     18  C   UNL A   1      46.413  24.588  26.386  1.00  0.00     0.031 C 
ATOM     19  C   UNL A   1      41.609  25.572  27.409  1.00  0.00     0.029 A 
ATOM     20  N   UNL A   1      43.077  27.237  27.675  1.00  0.00    -0.354 N 
ATOM     21  C   UNL A   1      47.246  26.676  26.814  1.00  0.00     0.074 A 
ATOM     22  C   UNL A   1      47.513  25.323  26.372  1.00  0.00     0.031 C 
ATOM     23  C   UNL A   1      40.925  26.668  27.767  1.00  0.00     0.029 A 
ATOM     24  C   UNL A   1      41.852  27.752  28.023  1.00  0.00     0.049 A 
ATOM     25  H   UNL A   1      43.903  27.771  27.657  1.00  0.00     0.167 HD
ATOM     26  C   UNL A   1      48.162  27.675  26.826  1.00  0.00     0.034 A 
ATOM     27  C   UNL A   1      41.507  28.940  28.551  1.00  0.00     0.034 A 
ATOM     28  C   UNL A   1      47.897  29.009  27.305  1.00  0.00     0.049 A 
ATOM     29  C   UNL A   1      42.580  29.956  28.780  1.00  0.00     0.074 A 
ATOM     30  C   UNL A   1      48.762  30.084  27.402  1.00  0.00     0.029 A 
ATOM     31  N   UNL A   1      46.668  29.448  27.787  1.00  0.00    -0.354 N 
ATOM     32  N   UNL A   1      43.858  29.877  28.501  1.00  0.00    -0.248 NA
ATOM     33  C   UNL A   1      42.163  31.220  29.395  1.00  0.00     0.031 C 
ATOM     34  C   UNL A   1      48.076  31.151  27.998  1.00  0.00     0.029 A 
ATOM     35  C   UNL A   1      46.765  30.764  28.217  1.00  0.00     0.049 A 
ATOM     36  H   UNL A   1      45.849  28.903  27.818  1.00  0.00     0.167 HD
ATOM     37  C   UNL A   1      44.396  31.099  28.877  1.00  0.00     0.074 A 
ATOM     38  C   UNL A   1      43.303  31.891  29.407  1.00  0.00     0.031 C 
ATOM     39  C   UNL A   1      45.677  31.532  28.772  1.00  0.00     0.034 A 
BRANCH  26  40
ATOM     40  C   UNL A   1      49.548  27.313  26.363  1.00  0.00     0.023 A 
ATOM     41  C   UNL A   1      50.571  27.005  27.278  1.00  0.00     0.031 A 
ATOM     42  C   UNL A   1      49.872  27.368  24.997  1.00  0.00     0.131 A 
ATOM     43  C   UNL A   1      51.887  26.836  26.820  1.00  0.00     0.055 A 
ATOM     44  C   UNL A   1      51.169  27.130  24.543  1.00  0.00     0.041 A 
ATOM     45  F   UNL A   1      48.939  27.689  24.088  1.00  0.00    -0.206 F 
ATOM     46  C   UNL A   1      52.188  26.876  25.457  1.00  0.00     0.022 A 
BRANCH  43  47
ATOM     47  S   UNL A   1      53.223  26.705  28.041  1.00  0.00     0.124 S 
ATOM     48  O   UNL A   1      52.490  26.304  29.240  1.00  0.00    -0.237 OA
ATOM     49  O   UNL A   1      54.090  25.689  27.455  1.00  0.00    -0.237 OA
ATOM     50  O   UNL A   1      53.783  28.053  28.082  1.00  0.00    -0.744 OA
ENDBRANCH  43  47
ENDBRANCH  26  40
BRANCH  27  51
ATOM     51  C   UNL A   1      40.127  29.186  29.053  1.00  0.00     0.023 A 
ATOM     52  C   UNL A   1      39.802  29.097  30.416  1.00  0.00     0.031 A 
ATOM     53  C   UNL A   1      39.088  29.392  28.129  1.00  0.00     0.131 A 
ATOM     54  C   UNL A   1      38.456  29.154  30.811  1.00  0.00     0.055 A 
ATOM     55  C   UNL A   1      37.757  29.474  28.529  1.00  0.00     0.041 A 
ATOM     56  F   UNL A   1      39.357  29.495  26.817  1.00  0.00    -0.206 F 
ATOM     57  C   UNL A   1      37.433  29.341  29.876  1.00  0.00     0.022 A 
BRANCH  54  58
ATOM     58  S   UNL A   1      38.044  28.898  32.559  1.00  0.00     0.124 S 
ATOM     59  O   UNL A   1      38.090  27.443  32.663  1.00  0.00    -0.237 OA
ATOM     60  O   UNL A   1      39.117  29.616  33.241  1.00  0.00    -0.237 OA
ATOM     61  O   UNL A   1      36.715  29.487  32.698  1.00  0.00    -0.744 OA
ENDBRANCH  54  58
ENDBRANCH  27  51
BRANCH  39  62
ATOM     62  C   UNL A   1      45.920  32.955  29.189  1.00  0.00     0.023 A 
ATOM     63  C   UNL A   1      46.264  33.285  30.512  1.00  0.00     0.031 A 
ATOM     64  C   UNL A   1      45.698  33.999  28.275  1.00  0.00     0.131 A 
ATOM     65  C   UNL A   1      46.300  34.631  30.902  1.00  0.00     0.055 A 
ATOM     66  C   UNL A   1      45.798  35.335  28.655  1.00  0.00     0.041 A 
ATOM     67  F   UNL A   1      45.354  33.732  27.005  1.00  0.00    -0.206 F 
ATOM     68  C   UNL A   1      46.084  35.658  29.979  1.00  0.00     0.022 A 
BRANCH  65  69
ATOM     69  S   UNL A   1      46.518  35.018  32.660  1.00  0.00     0.124 S 
ATOM     70  O   UNL A   1      47.708  34.242  32.994  1.00  0.00    -0.237 OA
ATOM     71  O   UNL A   1      46.685  36.468  32.644  1.00  0.00    -0.237 OA
ATOM     72  O   UNL A   1      45.276  34.546  33.271  1.00  0.00    -0.744 OA
ENDBRANCH  65  69
ENDBRANCH  39  62
ENDBRANCH  13  14
ENDBRANCH   6   8
ENDBRANCH   5   6
ENDBRANCH   4   5
ENDBRANCH   3   4
ENDBRANCH   2   3
ENDBRANCH   1   2
BRANCH   1  73
ATOM     73  C   UNL A   1      37.963  23.525  25.770  1.00  0.00     0.188 C 
BRANCH  73  74
ATOM     74  O   UNL A   1      36.618  23.097  26.009  1.00  0.00    -0.376 OA
BRANCH  74  75
ATOM     75  C   UNL A   1      36.014  22.253  25.030  1.00  0.00     0.202 C 
BRANCH  75  76
ATOM     76  C   UNL A   1      35.229  21.039  25.542  1.00  0.00     0.261 C 
BRANCH  76  77
ATOM     77  O   UNL A   1      33.864  21.330  25.856  1.00  0.00    -0.463 OA
BRANCH  77  78
ATOM     78  C   UNL A   1      32.958  20.397  25.428  1.00  0.00     0.315 C 
ATOM     79  O   UNL A   1      32.949  19.221  25.764  1.00  0.00    -0.251 OA
BRANCH  78  80
ATOM     80  C   UNL A   1      31.942  21.048  24.498  1.00  0.00     0.148 C 
ATOM     81  C   UNL A   1      32.604  21.608  23.213  1.00  0.00     0.043 C 
ATOM     82  C   UNL A   1      31.402  22.262  25.144  1.00  0.00     0.033 A 
ATOM     83  C   UNL A   1      32.203  23.090  23.109  1.00  0.00     0.124 C 
ATOM     84  N   UNL A   1      31.573  23.382  24.379  1.00  0.00    -0.341 N 
ATOM     85  C   UNL A   1      30.831  22.616  26.331  1.00  0.00     0.025 A 
ATOM     86  C   UNL A   1      31.235  24.503  25.071  1.00  0.00     0.090 A 
ATOM     87  C   UNL A   1      30.770  24.030  26.302  1.00  0.00     0.032 A 
BRANCH  86  88
ATOM     88  C   UNL A   1      31.373  25.914  24.759  1.00  0.00     0.209 C 
ATOM     89  O   UNL A   1      30.899  26.398  23.734  1.00  0.00    -0.287 OA
BRANCH  88  90
ATOM     90  C   UNL A   1      32.003  26.892  25.668  1.00  0.00     0.024 A 
ATOM     91  C   UNL A   1      33.354  27.187  25.438  1.00  0.00     0.012 A 
ATOM     92  C   UNL A   1      31.347  27.442  26.770  1.00  0.00     0.012 A 
ATOM     93  C   UNL A   1      34.031  28.076  26.268  1.00  0.00     0.001 A 
ATOM     94  C   UNL A   1      32.024  28.350  27.591  1.00  0.00     0.001 A 
ATOM     95  C   UNL A   1      33.361  28.669  27.335  1.00  0.00     0.000 A 
ENDBRANCH  88  90
ENDBRANCH  86  88
ENDBRANCH  78  80
ENDBRANCH  77  78
ENDBRANCH  76  77
ENDBRANCH  75  76
ENDBRANCH  74  75
ENDBRANCH  73  74
ENDBRANCH   1  73
TORSDOF 22
ENDMDL
MODEL 3
REMARK VINA RESULT:      -9.7      1.701      7.744
REMARK SMILES O=C(OCCOCCOCCOC(=O)[C@@H]1CCn2c(C(=O)c3ccccc3)ccc21)c1ccc(-c2c3nc(c(-c4cc(S(=O)(=O)[O-])ccc4F)c4ccc([nH]4)c(-c4cc(S(=O)(=O)[O-])ccc4F)c4nc(c(-c5cc(S(=O)(=O)[O-])ccc5F)c5ccc2[nH]5)C=C4)C=C3)cc1
REMARK SMILES IDX 7 1 6 2 5 3 4 4 3 5 2 6 1 7 31 8 32 9 93 10 33 11 92 12
REMARK SMILES IDX 34 13 35 14 36 15 86 16 37 17 91 18 85 19 87 20 38 21 90 22
REMARK SMILES IDX 84 23 83 24 39 26 71 27 51 28 70 29 52 30 55 31 69 32 88 33
REMARK SMILES IDX 53 34 54 35 68 37 89 38 56 39 40 40 41 41 49 42 42 43 48 44
REMARK SMILES IDX 50 45 47 46 43 47 44 48 45 49 46 50 72 51 73 52 81 53 74 54
REMARK SMILES IDX 80 55 82 56 79 57 75 58 76 59 77 60 78 61 57 62 58 63 66 64
REMARK SMILES IDX 59 65 65 66 67 67 64 68 60 69 61 70 62 71 63 72 8 73 9 74
REMARK SMILES IDX 10 75 11 76 12 77 13 78 14 79 15 80 16 81 30 82 17 83 18 84
REMARK SMILES IDX 29 85 19 86 28 87 20 88 21 89 22 90 23 91 27 92 24 93 26 94
REMARK SMILES IDX 25 95
REMARK H PARENT 87 25 55 36
REMARK Flexibility Score: inf
ROOT
ATOM      1  C   UNL A   1      40.797  21.495  26.667  1.00  0.00     0.188 C 
ENDROOT
BRANCH   1   2
ATOM      2  O   UNL A   1      41.206  20.426  25.803  1.00  0.00    -0.376 OA
BRANCH   2   3
ATOM      3  C   UNL A   1      42.197  19.571  26.384  1.00  0.00     0.202 C 
BRANCH   3   4
ATOM      4  C   UNL A   1      43.083  18.826  25.375  1.00  0.00     0.261 C 
BRANCH   4   5
ATOM      5  O   UNL A   1      43.809  19.721  24.516  1.00  0.00    -0.460 OA
BRANCH   5   6
ATOM      6  C   UNL A   1      44.912  20.454  24.821  1.00  0.00     0.338 C 
ATOM      7  O   UNL A   1      46.020  19.940  24.663  1.00  0.00    -0.246 OA
BRANCH   6   8
ATOM      8  C   UNL A   1      44.855  21.871  25.293  1.00  0.00     0.060 A 
ATOM      9  C   UNL A   1      44.576  22.970  24.480  1.00  0.00     0.016 A 
ATOM     10  C   UNL A   1      45.035  22.102  26.668  1.00  0.00     0.016 A 
ATOM     11  C   UNL A   1      44.619  24.268  24.980  1.00  0.00     0.010 A 
ATOM     12  C   UNL A   1      44.994  23.401  27.194  1.00  0.00     0.010 A 
ATOM     13  C   UNL A   1      44.823  24.498  26.341  1.00  0.00    -0.014 A 
BRANCH  13  14
ATOM     14  C   UNL A   1      44.912  25.896  26.826  1.00  0.00     0.031 A 
ATOM     15  C   UNL A   1      46.241  26.589  26.853  1.00  0.00     0.074 A 
ATOM     16  C   UNL A   1      43.796  26.583  27.132  1.00  0.00     0.049 A 
ATOM     17  N   UNL A   1      46.534  27.794  27.264  1.00  0.00    -0.248 NA
ATOM     18  C   UNL A   1      47.384  25.836  26.318  1.00  0.00     0.031 C 
ATOM     19  C   UNL A   1      42.432  26.062  27.040  1.00  0.00     0.029 A 
ATOM     20  N   UNL A   1      43.632  27.870  27.580  1.00  0.00    -0.354 N 
ATOM     21  C   UNL A   1      47.886  27.960  27.008  1.00  0.00     0.074 A 
ATOM     22  C   UNL A   1      48.369  26.708  26.462  1.00  0.00     0.031 C 
ATOM     23  C   UNL A   1      41.579  27.014  27.445  1.00  0.00     0.029 A 
ATOM     24  C   UNL A   1      42.327  28.179  27.876  1.00  0.00     0.049 A 
ATOM     25  H   UNL A   1      44.375  28.508  27.679  1.00  0.00     0.167 HD
ATOM     26  C   UNL A   1      48.651  29.065  27.188  1.00  0.00     0.034 A 
ATOM     27  C   UNL A   1      41.784  29.249  28.484  1.00  0.00     0.034 A 
ATOM     28  C   UNL A   1      48.170  30.294  27.768  1.00  0.00     0.049 A 
ATOM     29  C   UNL A   1      42.687  30.369  28.894  1.00  0.00     0.074 A 
ATOM     30  C   UNL A   1      48.868  31.458  28.036  1.00  0.00     0.029 A 
ATOM     31  N   UNL A   1      46.863  30.514  28.190  1.00  0.00    -0.354 N 
ATOM     32  N   UNL A   1      43.979  30.489  28.712  1.00  0.00    -0.248 NA
ATOM     33  C   UNL A   1      42.057  31.495  29.591  1.00  0.00     0.031 C 
ATOM     34  C   UNL A   1      48.002  32.357  28.673  1.00  0.00     0.029 A 
ATOM     35  C   UNL A   1      46.746  31.778  28.748  1.00  0.00     0.049 A 
ATOM     36  H   UNL A   1      46.128  29.865  28.103  1.00  0.00     0.167 HD
ATOM     37  C   UNL A   1      44.315  31.725  29.244  1.00  0.00     0.074 A 
ATOM     38  C   UNL A   1      43.089  32.306  29.758  1.00  0.00     0.031 C 
ATOM     39  C   UNL A   1      45.527  32.333  29.284  1.00  0.00     0.034 A 
BRANCH  26  40
ATOM     40  C   UNL A   1      50.101  28.940  26.805  1.00  0.00     0.023 A 
ATOM     41  C   UNL A   1      50.550  29.261  25.511  1.00  0.00     0.031 A 
ATOM     42  C   UNL A   1      51.028  28.408  27.717  1.00  0.00     0.131 A 
ATOM     43  C   UNL A   1      51.874  28.975  25.143  1.00  0.00     0.055 A 
ATOM     44  C   UNL A   1      52.361  28.192  27.365  1.00  0.00     0.041 A 
ATOM     45  F   UNL A   1      50.643  28.057  28.954  1.00  0.00    -0.206 F 
ATOM     46  C   UNL A   1      52.786  28.463  26.067  1.00  0.00     0.022 A 
BRANCH  43  47
ATOM     47  S   UNL A   1      52.349  29.149  23.400  1.00  0.00     0.124 S 
ATOM     48  O   UNL A   1      51.705  27.982  22.800  1.00  0.00    -0.237 OA
ATOM     49  O   UNL A   1      51.782  30.444  23.043  1.00  0.00    -0.237 OA
ATOM     50  O   UNL A   1      53.809  29.096  23.436  1.00  0.00    -0.744 OA
ENDBRANCH  43  47
ENDBRANCH  26  40
BRANCH  27  51
ATOM     51  C   UNL A   1      40.353  29.256  28.895  1.00  0.00     0.023 A 
ATOM     52  C   UNL A   1      39.963  29.162  30.240  1.00  0.00     0.031 A 
ATOM     53  C   UNL A   1      39.356  29.231  27.905  1.00  0.00     0.131 A 
ATOM     54  C   UNL A   1      38.606  28.984  30.555  1.00  0.00     0.055 A 
ATOM     55  C   UNL A   1      38.009  29.082  28.225  1.00  0.00     0.041 A 
ATOM     56  F   UNL A   1      39.686  29.332  26.607  1.00  0.00    -0.206 F 
ATOM     57  C   UNL A   1      37.629  28.944  29.556  1.00  0.00     0.022 A 
BRANCH  54  58
ATOM     58  S   UNL A   1      38.136  28.725  32.288  1.00  0.00     0.124 S 
ATOM     59  O   UNL A   1      38.234  27.273  32.407  1.00  0.00    -0.237 OA
ATOM     60  O   UNL A   1      39.151  29.489  33.005  1.00  0.00    -0.237 OA
ATOM     61  O   UNL A   1      36.779  29.262  32.370  1.00  0.00    -0.744 OA
ENDBRANCH  54  58
ENDBRANCH  27  51
BRANCH  39  62
ATOM     62  C   UNL A   1      45.540  33.724  29.853  1.00  0.00     0.023 A 
ATOM     63  C   UNL A   1      45.726  33.955  31.227  1.00  0.00     0.031 A 
ATOM     64  C   UNL A   1      45.255  34.821  29.022  1.00  0.00     0.131 A 
ATOM     65  C   UNL A   1      45.547  35.246  31.742  1.00  0.00     0.055 A 
ATOM     66  C   UNL A   1      45.143  36.113  29.531  1.00  0.00     0.041 A 
ATOM     67  F   UNL A   1      45.057  34.647  27.705  1.00  0.00    -0.206 F 
ATOM     68  C   UNL A   1      45.271  36.329  30.901  1.00  0.00     0.022 A 
BRANCH  65  69
ATOM     69  S   UNL A   1      45.565  35.473  33.541  1.00  0.00     0.124 S 
ATOM     70  O   UNL A   1      44.733  34.362  33.992  1.00  0.00    -0.237 OA
ATOM     71  O   UNL A   1      46.986  35.375  33.856  1.00  0.00    -0.237 OA
ATOM     72  O   UNL A   1      44.982  36.801  33.724  1.00  0.00    -0.744 OA
ENDBRANCH  65  69
ENDBRANCH  39  62
ENDBRANCH  13  14
ENDBRANCH   6   8
ENDBRANCH   5   6
ENDBRANCH   4   5
ENDBRANCH   3   4
ENDBRANCH   2   3
ENDBRANCH   1   2
BRANCH   1  73
ATOM     73  C   UNL A   1      39.503  22.143  26.172  1.00  0.00     0.188 C 
BRANCH  73  74
ATOM     74  O   UNL A   1      38.503  21.254  25.666  1.00  0.00    -0.376 OA
BRANCH  74  75
ATOM     75  C   UNL A   1      37.344  21.837  25.075  1.00  0.00     0.202 C 
BRANCH  75  76
ATOM     76  C   UNL A   1      36.004  21.131  25.315  1.00  0.00     0.261 C 
BRANCH  76  77
ATOM     77  O   UNL A   1      34.923  21.679  24.557  1.00  0.00    -0.463 OA
BRANCH  77  78
ATOM     78  C   UNL A   1      33.725  21.031  24.701  1.00  0.00     0.315 C 
ATOM     79  O   UNL A   1      33.521  20.092  25.457  1.00  0.00    -0.251 OA
BRANCH  78  80
ATOM     80  C   UNL A   1      32.675  21.675  23.805  1.00  0.00     0.148 C 
ATOM     81  C   UNL A   1      33.300  22.681  22.804  1.00  0.00     0.043 C 
ATOM     82  C   UNL A   1      31.797  22.534  24.626  1.00  0.00     0.033 A 
ATOM     83  C   UNL A   1      32.564  24.018  22.990  1.00  0.00     0.124 C 
ATOM     84  N   UNL A   1      31.764  23.826  24.181  1.00  0.00    -0.341 N 
ATOM     85  C   UNL A   1      31.047  22.434  25.761  1.00  0.00     0.025 A 
ATOM     86  C   UNL A   1      31.099  24.627  25.057  1.00  0.00     0.090 A 
ATOM     87  C   UNL A   1      30.648  23.760  26.056  1.00  0.00     0.032 A 
BRANCH  86  88
ATOM     88  C   UNL A   1      30.920  26.067  25.109  1.00  0.00     0.209 C 
ATOM     89  O   UNL A   1      29.952  26.617  24.588  1.00  0.00    -0.287 OA
BRANCH  88  90
ATOM     90  C   UNL A   1      31.816  26.973  25.854  1.00  0.00     0.024 A 
ATOM     91  C   UNL A   1      33.161  26.995  25.458  1.00  0.00     0.012 A 
ATOM     92  C   UNL A   1      31.405  27.713  26.963  1.00  0.00     0.012 A 
ATOM     93  C   UNL A   1      34.079  27.799  26.127  1.00  0.00     0.001 A 
ATOM     94  C   UNL A   1      32.325  28.535  27.622  1.00  0.00     0.001 A 
ATOM     95  C   UNL A   1      33.656  28.580  27.199  1.00  0.00     0.000 A 
ENDBRANCH  88  90
ENDBRANCH  86  88
ENDBRANCH  78  80
ENDBRANCH  77  78
ENDBRANCH  76  77
ENDBRANCH  75  76
ENDBRANCH  74  75
ENDBRANCH  73  74
ENDBRANCH   1  73
TORSDOF 22
ENDMDL
