MODEL 1
REMARK VINA RESULT:     -10.3      0.000      0.000
REMARK SMILES O=C(OCCOCCOCCOC(=O)[C@H]1C=C[C@H](NS(=O)(=O)c2ccc(F)c(F)c2F)C1)c1ccc(-c2c3nc(c(-c4cc(S(=O)(=O)[O-])ccc4F)c4ccc([nH]4)c(-c4cc(S(=O)(=O)[O-])ccc4F)c4nc(c(-c5cc(S(=O)(=O)[O-])ccc5F)c5ccc2[nH]5)C=C4)C=C3)cc1
REMARK SMILES IDX 7 1 6 2 5 3 4 4 3 5 2 6 1 7 33 8 34 9 95 10 35 11 94 12
REMARK SMILES IDX 36 13 37 14 38 15 88 16 39 17 93 18 87 19 89 20 40 21 92 22
REMARK SMILES IDX 86 23 85 24 41 26 73 27 53 28 72 29 54 30 57 31 71 32 90 33
REMARK SMILES IDX 55 34 56 35 70 37 91 38 58 39 42 40 43 41 51 42 44 43 50 44
REMARK SMILES IDX 52 45 49 46 45 47 46 48 47 49 48 50 74 51 75 52 83 53 76 54
REMARK SMILES IDX 82 55 84 56 81 57 77 58 78 59 79 60 80 61 59 62 60 63 68 64
REMARK SMILES IDX 61 65 67 66 69 67 66 68 62 69 63 70 64 71 65 72 8 73 9 74
REMARK SMILES IDX 10 75 11 76 12 77 13 78 14 79 15 80 16 81 32 82 17 83 18 84
REMARK SMILES IDX 19 85 20 87 21 88 22 89 23 90 24 91 30 92 25 93 28 94 31 95
REMARK SMILES IDX 26 96 29 97 27 98
REMARK H PARENT 89 25 57 36 19 86
REMARK Flexibility Score: inf
ROOT
ATOM      1  C   UNL A   1      41.787  21.799  26.508  1.00  0.00     0.188 C 
ENDROOT
BRANCH   1   2
ATOM      2  O   UNL A   1      41.770  20.599  25.719  1.00  0.00    -0.376 OA
BRANCH   2   3
ATOM      3  C   UNL A   1      42.100  19.423  26.456  1.00  0.00     0.202 C 
BRANCH   3   4
ATOM      4  C   UNL A   1      43.034  18.431  25.751  1.00  0.00     0.261 C 
BRANCH   4   5
ATOM      5  O   UNL A   1      43.598  18.934  24.533  1.00  0.00    -0.460 OA
BRANCH   5   6
ATOM      6  C   UNL A   1      44.727  19.647  24.323  1.00  0.00     0.338 C 
ATOM      7  O   UNL A   1      45.696  19.035  23.870  1.00  0.00    -0.246 OA
BRANCH   6   8
ATOM      8  C   UNL A   1      44.922  21.105  24.647  1.00  0.00     0.060 A 
ATOM      9  C   UNL A   1      44.545  22.195  23.857  1.00  0.00     0.016 A 
ATOM     10  C   UNL A   1      45.453  21.390  25.924  1.00  0.00     0.016 A 
ATOM     11  C   UNL A   1      44.681  23.512  24.324  1.00  0.00     0.010 A 
ATOM     12  C   UNL A   1      45.588  22.703  26.397  1.00  0.00     0.010 A 
ATOM     13  C   UNL A   1      45.197  23.775  25.597  1.00  0.00    -0.014 A 
BRANCH  13  14
ATOM     14  C   UNL A   1      45.404  25.183  26.019  1.00  0.00     0.031 A 
ATOM     15  C   UNL A   1      46.711  25.824  25.729  1.00  0.00     0.074 A 
ATOM     16  C   UNL A   1      44.444  25.875  26.657  1.00  0.00     0.049 A 
ATOM     17  N   UNL A   1      47.124  27.010  26.070  1.00  0.00    -0.248 NA
ATOM     18  C   UNL A   1      47.710  24.988  25.052  1.00  0.00     0.031 C 
ATOM     19  C   UNL A   1      43.231  25.266  27.156  1.00  0.00     0.029 A 
ATOM     20  N   UNL A   1      44.305  27.198  27.000  1.00  0.00    -0.354 N 
ATOM     21  C   UNL A   1      48.468  27.036  25.742  1.00  0.00     0.074 A 
ATOM     22  C   UNL A   1      48.780  25.761  25.126  1.00  0.00     0.031 C 
ATOM     23  C   UNL A   1      42.406  26.220  27.608  1.00  0.00     0.029 A 
ATOM     24  C   UNL A   1      43.065  27.506  27.528  1.00  0.00     0.049 A 
ATOM     25  H   UNL A   1      45.021  27.863  26.882  1.00  0.00     0.167 HD
ATOM     26  C   UNL A   1      49.358  28.021  26.004  1.00  0.00     0.034 A 
ATOM     27  C   UNL A   1      42.532  28.674  27.949  1.00  0.00     0.034 A 
ATOM     28  C   UNL A   1      48.997  29.255  26.657  1.00  0.00     0.049 A 
ATOM     29  C   UNL A   1      43.501  29.818  28.053  1.00  0.00     0.074 A 
ATOM     30  C   UNL A   1      49.801  30.328  26.987  1.00  0.00     0.029 A 
ATOM     31  N   UNL A   1      47.711  29.573  27.090  1.00  0.00    -0.354 N 
ATOM     32  N   UNL A   1      44.775  29.832  27.733  1.00  0.00    -0.248 NA
ATOM     33  C   UNL A   1      43.010  31.059  28.659  1.00  0.00     0.031 C 
ATOM     34  C   UNL A   1      49.012  31.279  27.647  1.00  0.00     0.029 A 
ATOM     35  C   UNL A   1      47.701  30.825  27.685  1.00  0.00     0.049 A 
ATOM     36  H   UNL A   1      46.923  28.992  26.988  1.00  0.00     0.167 HD
ATOM     37  C   UNL A   1      45.260  31.047  28.182  1.00  0.00     0.074 A 
ATOM     38  C   UNL A   1      44.119  31.782  28.700  1.00  0.00     0.031 C 
ATOM     39  C   UNL A   1      46.539  31.497  28.220  1.00  0.00     0.034 A 
BRANCH  26  40
ATOM     40  C   UNL A   1      50.794  27.701  25.686  1.00  0.00     0.023 A 
ATOM     41  C   UNL A   1      51.325  27.918  24.403  1.00  0.00     0.031 A 
ATOM     42  C   UNL A   1      51.581  27.007  26.622  1.00  0.00     0.131 A 
ATOM     43  C   UNL A   1      52.550  27.331  24.052  1.00  0.00     0.055 A 
ATOM     44  C   UNL A   1      52.844  26.512  26.293  1.00  0.00     0.041 A 
ATOM     45  F   UNL A   1      51.108  26.740  27.850  1.00  0.00    -0.206 F 
ATOM     46  C   UNL A   1      53.325  26.652  24.994  1.00  0.00     0.022 A 
BRANCH  43  47
ATOM     47  S   UNL A   1      53.017  27.296  22.299  1.00  0.00     0.124 S 
ATOM     48  O   UNL A   1      53.311  28.706  22.050  1.00  0.00    -0.237 OA
ATOM     49  O   UNL A   1      54.164  26.397  22.291  1.00  0.00    -0.237 OA
ATOM     50  O   UNL A   1      51.819  26.785  21.636  1.00  0.00    -0.744 OA
ENDBRANCH  43  47
ENDBRANCH  26  40
BRANCH  27  51
ATOM     51  C   UNL A   1      41.112  28.803  28.430  1.00  0.00     0.023 A 
ATOM     52  C   UNL A   1      40.785  28.718  29.799  1.00  0.00     0.031 A 
ATOM     53  C   UNL A   1      40.041  28.962  27.529  1.00  0.00     0.131 A 
ATOM     54  C   UNL A   1      39.439  28.775  30.214  1.00  0.00     0.055 A 
ATOM     55  C   UNL A   1      38.716  29.104  27.953  1.00  0.00     0.041 A 
ATOM     56  F   UNL A   1      40.262  28.988  26.205  1.00  0.00    -0.206 F 
ATOM     57  C   UNL A   1      38.407  29.000  29.302  1.00  0.00     0.022 A 
BRANCH  54  58
ATOM     58  S   UNL A   1      39.028  28.417  31.950  1.00  0.00     0.124 S 
ATOM     59  O   UNL A   1      38.003  29.417  32.227  1.00  0.00    -0.237 OA
ATOM     60  O   UNL A   1      38.572  27.033  31.880  1.00  0.00    -0.237 OA
ATOM     61  O   UNL A   1      40.296  28.618  32.650  1.00  0.00    -0.744 OA
ENDBRANCH  54  58
ENDBRANCH  27  51
BRANCH  39  62
ATOM     62  C   UNL A   1      46.728  32.836  28.869  1.00  0.00     0.023 A 
ATOM     63  C   UNL A   1      46.654  34.022  28.116  1.00  0.00     0.031 A 
ATOM     64  C   UNL A   1      47.029  32.921  30.236  1.00  0.00     0.131 A 
ATOM     65  C   UNL A   1      46.931  35.249  28.732  1.00  0.00     0.055 A 
ATOM     66  C   UNL A   1      47.256  34.150  30.853  1.00  0.00     0.041 A 
ATOM     67  F   UNL A   1      47.121  31.811  30.984  1.00  0.00    -0.206 F 
ATOM     68  C   UNL A   1      47.216  35.321  30.099  1.00  0.00     0.022 A 
BRANCH  65  69
ATOM     69  S   UNL A   1      46.980  36.746  27.713  1.00  0.00     0.124 S 
ATOM     70  O   UNL A   1      46.871  36.198  26.365  1.00  0.00    -0.237 OA
ATOM     71  O   UNL A   1      45.824  37.495  28.193  1.00  0.00    -0.237 OA
ATOM     72  O   UNL A   1      48.276  37.338  28.039  1.00  0.00    -0.744 OA
ENDBRANCH  65  69
ENDBRANCH  39  62
ENDBRANCH  13  14
ENDBRANCH   6   8
ENDBRANCH   5   6
ENDBRANCH   4   5
ENDBRANCH   3   4
ENDBRANCH   2   3
ENDBRANCH   1   2
BRANCH   1  73
ATOM     73  C   UNL A   1      40.477  21.948  27.291  1.00  0.00     0.188 C 
BRANCH  73  74
ATOM     74  O   UNL A   1      39.285  21.858  26.501  1.00  0.00    -0.376 OA
BRANCH  74  75
ATOM     75  C   UNL A   1      38.608  23.081  26.228  1.00  0.00     0.202 C 
BRANCH  75  76
ATOM     76  C   UNL A   1      37.367  22.988  25.333  1.00  0.00     0.261 C 
BRANCH  76  77
ATOM     77  O   UNL A   1      36.251  22.375  25.974  1.00  0.00    -0.463 OA
BRANCH  77  78
ATOM     78  C   UNL A   1      35.587  21.411  25.261  1.00  0.00     0.312 C 
ATOM     79  O   UNL A   1      36.009  20.297  24.993  1.00  0.00    -0.252 OA
BRANCH  78  80
ATOM     80  C   UNL A   1      34.244  21.977  24.839  1.00  0.00     0.123 C 
ATOM     81  C   UNL A   1      33.253  20.916  24.504  1.00  0.00    -0.015 C 
ATOM     82  C   UNL A   1      33.514  22.841  25.874  1.00  0.00     0.043 C 
ATOM     83  C   UNL A   1      32.049  21.196  25.013  1.00  0.00    -0.011 C 
ATOM     84  C   UNL A   1      32.019  22.502  25.749  1.00  0.00     0.093 C 
BRANCH  84  85
ATOM     85  N   UNL A   1      31.143  23.368  24.971  1.00  0.00    -0.204 NA
ATOM     86  H   UNL A   1      30.464  23.716  25.648  1.00  0.00     0.142 HD
BRANCH  85  87
ATOM     87  S   UNL A   1      31.527  24.698  24.056  1.00  0.00     0.244 S 
ATOM     88  O   UNL A   1      32.567  24.322  23.151  1.00  0.00    -0.207 OA
ATOM     89  O   UNL A   1      30.268  25.257  23.575  1.00  0.00    -0.207 OA
BRANCH  87  90
ATOM     90  C   UNL A   1      32.199  25.824  25.226  1.00  0.00     0.121 A 
ATOM     91  C   UNL A   1      33.488  26.329  25.035  1.00  0.00     0.028 A 
ATOM     92  C   UNL A   1      31.364  26.353  26.207  1.00  0.00     0.181 A 
ATOM     93  C   UNL A   1      33.897  27.426  25.789  1.00  0.00     0.044 A 
ATOM     94  C   UNL A   1      31.787  27.447  26.961  1.00  0.00     0.195 A 
ATOM     95  F   UNL A   1      30.133  25.861  26.402  1.00  0.00    -0.202 F 
ATOM     96  C   UNL A   1      33.049  27.986  26.744  1.00  0.00     0.161 A 
ATOM     97  F   UNL A   1      30.959  28.009  27.851  1.00  0.00    -0.200 F 
ATOM     98  F   UNL A   1      33.453  29.064  27.430  1.00  0.00    -0.204 F 
ENDBRANCH  87  90
ENDBRANCH  85  87
ENDBRANCH  84  85
ENDBRANCH  78  80
ENDBRANCH  77  78
ENDBRANCH  76  77
ENDBRANCH  75  76
ENDBRANCH  74  75
ENDBRANCH  73  74
ENDBRANCH   1  73
TORSDOF 23
ENDMDL
MODEL 2
REMARK VINA RESULT:     -10.0      2.017      2.490
REMARK SMILES O=C(OCCOCCOCCOC(=O)[C@H]1C=C[C@H](NS(=O)(=O)c2ccc(F)c(F)c2F)C1)c1ccc(-c2c3nc(c(-c4cc(S(=O)(=O)[O-])ccc4F)c4ccc([nH]4)c(-c4cc(S(=O)(=O)[O-])ccc4F)c4nc(c(-c5cc(S(=O)(=O)[O-])ccc5F)c5ccc2[nH]5)C=C4)C=C3)cc1
REMARK SMILES IDX 7 1 6 2 5 3 4 4 3 5 2 6 1 7 33 8 34 9 95 10 35 11 94 12
REMARK SMILES IDX 36 13 37 14 38 15 88 16 39 17 93 18 87 19 89 20 40 21 92 22
REMARK SMILES IDX 86 23 85 24 41 26 73 27 53 28 72 29 54 30 57 31 71 32 90 33
REMARK SMILES IDX 55 34 56 35 70 37 91 38 58 39 42 40 43 41 51 42 44 43 50 44
REMARK SMILES IDX 52 45 49 46 45 47 46 48 47 49 48 50 74 51 75 52 83 53 76 54
REMARK SMILES IDX 82 55 84 56 81 57 77 58 78 59 79 60 80 61 59 62 60 63 68 64
REMARK SMILES IDX 61 65 67 66 69 67 66 68 62 69 63 70 64 71 65 72 8 73 9 74
REMARK SMILES IDX 10 75 11 76 12 77 13 78 14 79 15 80 16 81 32 82 17 83 18 84
REMARK SMILES IDX 19 85 20 87 21 88 22 89 23 90 24 91 30 92 25 93 28 94 31 95
REMARK SMILES IDX 26 96 29 97 27 98
REMARK H PARENT 89 25 57 36 19 86
REMARK Flexibility Score: inf
ROOT
ATOM      1  C   UNL A   1      41.476  21.758  26.664  1.00  0.00     0.188 C 
ENDROOT
BRANCH   1   2
ATOM      2  O   UNL A   1      41.461  20.489  25.990  1.00  0.00    -0.376 OA
BRANCH   2   3
ATOM      3  C   UNL A   1      42.033  19.428  26.755  1.00  0.00     0.202 C 
BRANCH   3   4
ATOM      4  C   UNL A   1      42.979  18.490  25.993  1.00  0.00     0.261 C 
BRANCH   4   5
ATOM      5  O   UNL A   1      43.413  19.008  24.729  1.00  0.00    -0.460 OA
BRANCH   5   6
ATOM      6  C   UNL A   1      44.492  19.762  24.419  1.00  0.00     0.338 C 
ATOM      7  O   UNL A   1      45.422  19.192  23.847  1.00  0.00    -0.246 OA
BRANCH   6   8
ATOM      8  C   UNL A   1      44.678  21.217  24.759  1.00  0.00     0.060 A 
ATOM      9  C   UNL A   1      44.289  22.314  23.986  1.00  0.00     0.016 A 
ATOM     10  C   UNL A   1      45.213  21.490  26.038  1.00  0.00     0.016 A 
ATOM     11  C   UNL A   1      44.419  23.626  24.468  1.00  0.00     0.010 A 
ATOM     12  C   UNL A   1      45.342  22.798  26.527  1.00  0.00     0.010 A 
ATOM     13  C   UNL A   1      44.939  23.877  25.742  1.00  0.00    -0.014 A 
BRANCH  13  14
ATOM     14  C   UNL A   1      45.138  25.280  26.180  1.00  0.00     0.031 A 
ATOM     15  C   UNL A   1      46.456  25.918  25.936  1.00  0.00     0.074 A 
ATOM     16  C   UNL A   1      44.161  25.972  26.794  1.00  0.00     0.049 A 
ATOM     17  N   UNL A   1      46.863  27.100  26.298  1.00  0.00    -0.248 NA
ATOM     18  C   UNL A   1      47.472  25.083  25.283  1.00  0.00     0.031 C 
ATOM     19  C   UNL A   1      42.931  25.364  27.251  1.00  0.00     0.029 A 
ATOM     20  N   UNL A   1      44.016  27.292  27.143  1.00  0.00    -0.354 N 
ATOM     21  C   UNL A   1      48.216  27.124  26.012  1.00  0.00     0.074 A 
ATOM     22  C   UNL A   1      48.542  25.852  25.396  1.00  0.00     0.031 C 
ATOM     23  C   UNL A   1      42.096  26.317  27.684  1.00  0.00     0.029 A 
ATOM     24  C   UNL A   1      42.763  27.601  27.635  1.00  0.00     0.049 A 
ATOM     25  H   UNL A   1      44.739  27.955  27.051  1.00  0.00     0.167 HD
ATOM     26  C   UNL A   1      49.101  28.103  26.308  1.00  0.00     0.034 A 
ATOM     27  C   UNL A   1      42.221  28.768  28.048  1.00  0.00     0.034 A 
ATOM     28  C   UNL A   1      48.725  29.334  26.959  1.00  0.00     0.049 A 
ATOM     29  C   UNL A   1      43.190  29.908  28.190  1.00  0.00     0.074 A 
ATOM     30  C   UNL A   1      49.523  30.401  27.321  1.00  0.00     0.029 A 
ATOM     31  N   UNL A   1      47.427  29.653  27.355  1.00  0.00    -0.354 N 
ATOM     32  N   UNL A   1      44.474  29.919  27.909  1.00  0.00    -0.248 NA
ATOM     33  C   UNL A   1      42.686  31.146  28.791  1.00  0.00     0.031 C 
ATOM     34  C   UNL A   1      48.717  31.350  27.964  1.00  0.00     0.029 A 
ATOM     35  C   UNL A   1      47.404  30.900  27.959  1.00  0.00     0.049 A 
ATOM     36  H   UNL A   1      46.640  29.076  27.225  1.00  0.00     0.167 HD
ATOM     37  C   UNL A   1      44.949  31.129  28.382  1.00  0.00     0.074 A 
ATOM     38  C   UNL A   1      43.796  31.864  28.871  1.00  0.00     0.031 C 
ATOM     39  C   UNL A   1      46.228  31.573  28.463  1.00  0.00     0.034 A 
BRANCH  26  40
ATOM     40  C   UNL A   1      50.545  27.780  26.032  1.00  0.00     0.023 A 
ATOM     41  C   UNL A   1      51.098  27.937  24.749  1.00  0.00     0.031 A 
ATOM     42  C   UNL A   1      51.320  27.139  27.014  1.00  0.00     0.131 A 
ATOM     43  C   UNL A   1      52.333  27.344  24.450  1.00  0.00     0.055 A 
ATOM     44  C   UNL A   1      52.592  26.639  26.733  1.00  0.00     0.041 A 
ATOM     45  F   UNL A   1      50.827  26.930  28.246  1.00  0.00    -0.206 F 
ATOM     46  C   UNL A   1      53.096  26.719  25.438  1.00  0.00     0.022 A 
BRANCH  43  47
ATOM     47  S   UNL A   1      52.832  27.227  22.709  1.00  0.00     0.124 S 
ATOM     48  O   UNL A   1      51.560  26.904  22.065  1.00  0.00    -0.237 OA
ATOM     49  O   UNL A   1      53.362  28.557  22.437  1.00  0.00    -0.237 OA
ATOM     50  O   UNL A   1      53.819  26.150  22.708  1.00  0.00    -0.744 OA
ENDBRANCH  43  47
ENDBRANCH  26  40
BRANCH  27  51
ATOM     51  C   UNL A   1      40.787  28.900  28.486  1.00  0.00     0.023 A 
ATOM     52  C   UNL A   1      40.414  28.771  29.839  1.00  0.00     0.031 A 
ATOM     53  C   UNL A   1      39.749  29.104  27.557  1.00  0.00     0.131 A 
ATOM     54  C   UNL A   1      39.056  28.831  30.212  1.00  0.00     0.055 A 
ATOM     55  C   UNL A   1      38.413  29.249  27.941  1.00  0.00     0.041 A 
ATOM     56  F   UNL A   1      40.015  29.173  26.243  1.00  0.00    -0.206 F 
ATOM     57  C   UNL A   1      38.057  29.102  29.275  1.00  0.00     0.022 A 
BRANCH  54  58
ATOM     58  S   UNL A   1      38.583  28.418  31.920  1.00  0.00     0.124 S 
ATOM     59  O   UNL A   1      38.720  26.965  31.925  1.00  0.00    -0.237 OA
ATOM     60  O   UNL A   1      39.569  29.157  32.700  1.00  0.00    -0.237 OA
ATOM     61  O   UNL A   1      37.211  28.913  32.024  1.00  0.00    -0.744 OA
ENDBRANCH  54  58
ENDBRANCH  27  51
BRANCH  39  62
ATOM     62  C   UNL A   1      46.402  32.907  29.127  1.00  0.00     0.023 A 
ATOM     63  C   UNL A   1      46.605  33.004  30.516  1.00  0.00     0.031 A 
ATOM     64  C   UNL A   1      46.317  34.086  28.373  1.00  0.00     0.131 A 
ATOM     65  C   UNL A   1      46.666  34.267  31.117  1.00  0.00     0.055 A 
ATOM     66  C   UNL A   1      46.427  35.339  28.972  1.00  0.00     0.041 A 
ATOM     67  F   UNL A   1      46.111  34.035  27.048  1.00  0.00    -0.206 F 
ATOM     68  C   UNL A   1      46.594  35.435  30.352  1.00  0.00     0.022 A 
BRANCH  65  69
ATOM     69  S   UNL A   1      46.775  34.369  32.924  1.00  0.00     0.124 S 
ATOM     70  O   UNL A   1      48.082  33.773  33.181  1.00  0.00    -0.237 OA
ATOM     71  O   UNL A   1      46.667  35.803  33.168  1.00  0.00    -0.237 OA
ATOM     72  O   UNL A   1      45.632  33.578  33.379  1.00  0.00    -0.744 OA
ENDBRANCH  65  69
ENDBRANCH  39  62
ENDBRANCH  13  14
ENDBRANCH   6   8
ENDBRANCH   5   6
ENDBRANCH   4   5
ENDBRANCH   3   4
ENDBRANCH   2   3
ENDBRANCH   1   2
BRANCH   1  73
ATOM     73  C   UNL A   1      40.112  22.449  26.542  1.00  0.00     0.188 C 
BRANCH  73  74
ATOM     74  O   UNL A   1      38.993  21.562  26.420  1.00  0.00    -0.376 OA
BRANCH  74  75
ATOM     75  C   UNL A   1      37.890  22.032  25.651  1.00  0.00     0.202 C 
BRANCH  75  76
ATOM     76  C   UNL A   1      36.962  20.961  25.065  1.00  0.00     0.261 C 
BRANCH  76  77
ATOM     77  O   UNL A   1      35.916  21.498  24.259  1.00  0.00    -0.463 OA
BRANCH  77  78
ATOM     78  C   UNL A   1      34.641  21.376  24.748  1.00  0.00     0.312 C 
ATOM     79  O   UNL A   1      34.115  20.343  25.132  1.00  0.00    -0.252 OA
BRANCH  78  80
ATOM     80  C   UNL A   1      33.988  22.744  24.708  1.00  0.00     0.123 C 
ATOM     81  C   UNL A   1      34.217  23.528  25.955  1.00  0.00    -0.015 C 
ATOM     82  C   UNL A   1      34.455  23.690  23.595  1.00  0.00     0.043 C 
ATOM     83  C   UNL A   1      34.515  24.802  25.682  1.00  0.00    -0.011 C 
ATOM     84  C   UNL A   1      34.507  25.098  24.212  1.00  0.00     0.093 C 
BRANCH  84  85
ATOM     85  N   UNL A   1      33.398  26.020  24.005  1.00  0.00    -0.204 NA
ATOM     86  H   UNL A   1      33.235  26.430  24.925  1.00  0.00     0.142 HD
BRANCH  85  87
ATOM     87  S   UNL A   1      33.280  27.300  22.957  1.00  0.00     0.244 S 
ATOM     88  O   UNL A   1      34.127  28.344  23.443  1.00  0.00    -0.207 OA
ATOM     89  O   UNL A   1      33.437  26.760  21.610  1.00  0.00    -0.207 OA
BRANCH  87  90
ATOM     90  C   UNL A   1      31.611  27.824  23.131  1.00  0.00     0.121 A 
ATOM     91  C   UNL A   1      31.216  29.054  22.599  1.00  0.00     0.028 A 
ATOM     92  C   UNL A   1      30.669  26.917  23.609  1.00  0.00     0.181 A 
ATOM     93  C   UNL A   1      29.856  29.327  22.481  1.00  0.00     0.044 A 
ATOM     94  C   UNL A   1      29.309  27.205  23.492  1.00  0.00     0.195 A 
ATOM     95  F   UNL A   1      31.045  25.743  24.133  1.00  0.00    -0.202 F 
ATOM     96  C   UNL A   1      28.906  28.405  22.921  1.00  0.00     0.161 A 
ATOM     97  F   UNL A   1      28.397  26.303  23.878  1.00  0.00    -0.200 F 
ATOM     98  F   UNL A   1      27.603  28.677  22.761  1.00  0.00    -0.204 F 
ENDBRANCH  87  90
ENDBRANCH  85  87
ENDBRANCH  84  85
ENDBRANCH  78  80
ENDBRANCH  77  78
ENDBRANCH  76  77
ENDBRANCH  75  76
ENDBRANCH  74  75
ENDBRANCH  73  74
ENDBRANCH   1  73
TORSDOF 23
ENDMDL
MODEL 3
REMARK VINA RESULT:      -9.8      1.929      7.575
REMARK SMILES O=C(OCCOCCOCCOC(=O)[C@H]1C=C[C@H](NS(=O)(=O)c2ccc(F)c(F)c2F)C1)c1ccc(-c2c3nc(c(-c4cc(S(=O)(=O)[O-])ccc4F)c4ccc([nH]4)c(-c4cc(S(=O)(=O)[O-])ccc4F)c4nc(c(-c5cc(S(=O)(=O)[O-])ccc5F)c5ccc2[nH]5)C=C4)C=C3)cc1
REMARK SMILES IDX 7 1 6 2 5 3 4 4 3 5 2 6 1 7 33 8 34 9 95 10 35 11 94 12
REMARK SMILES IDX 36 13 37 14 38 15 88 16 39 17 93 18 87 19 89 20 40 21 92 22
REMARK SMILES IDX 86 23 85 24 41 26 73 27 53 28 72 29 54 30 57 31 71 32 90 33
REMARK SMILES IDX 55 34 56 35 70 37 91 38 58 39 42 40 43 41 51 42 44 43 50 44
REMARK SMILES IDX 52 45 49 46 45 47 46 48 47 49 48 50 74 51 75 52 83 53 76 54
REMARK SMILES IDX 82 55 84 56 81 57 77 58 78 59 79 60 80 61 59 62 60 63 68 64
REMARK SMILES IDX 61 65 67 66 69 67 66 68 62 69 63 70 64 71 65 72 8 73 9 74
REMARK SMILES IDX 10 75 11 76 12 77 13 78 14 79 15 80 16 81 32 82 17 83 18 84
REMARK SMILES IDX 19 85 20 87 21 88 22 89 23 90 24 91 30 92 25 93 28 94 31 95
REMARK SMILES IDX 26 96 29 97 27 98
REMARK H PARENT 89 25 57 36 19 86
REMARK Flexibility Score: inf
ROOT
ATOM      1  C   UNL A   1      41.031  21.350  27.432  1.00  0.00     0.188 C 
ENDROOT
BRANCH   1   2
ATOM      2  O   UNL A   1      42.281  20.693  27.172  1.00  0.00    -0.376 OA
BRANCH   2   3
ATOM      3  C   UNL A   1      42.170  19.274  27.056  1.00  0.00     0.202 C 
BRANCH   3   4
ATOM      4  C   UNL A   1      42.705  18.666  25.753  1.00  0.00     0.261 C 
BRANCH   4   5
ATOM      5  O   UNL A   1      44.036  19.083  25.425  1.00  0.00    -0.460 OA
BRANCH   5   6
ATOM      6  C   UNL A   1      44.466  20.017  24.546  1.00  0.00     0.338 C 
ATOM      7  O   UNL A   1      44.630  19.651  23.381  1.00  0.00    -0.246 OA
BRANCH   6   8
ATOM      8  C   UNL A   1      44.814  21.444  24.877  1.00  0.00     0.060 A 
ATOM      9  C   UNL A   1      44.539  22.574  24.102  1.00  0.00     0.016 A 
ATOM     10  C   UNL A   1      45.391  21.662  26.147  1.00  0.00     0.016 A 
ATOM     11  C   UNL A   1      44.816  23.866  24.575  1.00  0.00     0.010 A 
ATOM     12  C   UNL A   1      45.668  22.950  26.628  1.00  0.00     0.010 A 
ATOM     13  C   UNL A   1      45.376  24.064  25.842  1.00  0.00    -0.014 A 
BRANCH  13  14
ATOM     14  C   UNL A   1      45.733  25.439  26.270  1.00  0.00     0.031 A 
ATOM     15  C   UNL A   1      44.696  26.263  26.940  1.00  0.00     0.074 A 
ATOM     16  C   UNL A   1      46.960  25.947  26.057  1.00  0.00     0.049 A 
ATOM     17  N   UNL A   1      44.773  27.503  27.328  1.00  0.00    -0.248 NA
ATOM     18  C   UNL A   1      43.378  25.638  27.110  1.00  0.00     0.031 C 
ATOM     19  C   UNL A   1      47.953  25.293  25.235  1.00  0.00     0.029 A 
ATOM     20  N   UNL A   1      47.595  27.087  26.484  1.00  0.00    -0.354 N 
ATOM     21  C   UNL A   1      43.485  27.850  27.697  1.00  0.00     0.074 A 
ATOM     22  C   UNL A   1      42.663  26.667  27.534  1.00  0.00     0.031 C 
ATOM     23  C   UNL A   1      49.115  25.953  25.329  1.00  0.00     0.029 A 
ATOM     24  C   UNL A   1      48.932  27.140  26.137  1.00  0.00     0.049 A 
ATOM     25  H   UNL A   1      47.141  27.800  26.989  1.00  0.00     0.167 HD
ATOM     26  C   UNL A   1      43.039  29.072  28.069  1.00  0.00     0.034 A 
ATOM     27  C   UNL A   1      49.892  28.056  26.390  1.00  0.00     0.034 A 
ATOM     28  C   UNL A   1      43.899  30.225  28.176  1.00  0.00     0.049 A 
ATOM     29  C   UNL A   1      49.403  29.346  26.987  1.00  0.00     0.074 A 
ATOM     30  C   UNL A   1      43.573  31.519  28.534  1.00  0.00     0.029 A 
ATOM     31  N   UNL A   1      45.268  30.218  27.910  1.00  0.00    -0.354 N 
ATOM     32  N   UNL A   1      48.177  29.662  27.339  1.00  0.00    -0.248 NA
ATOM     33  C   UNL A   1      50.378  30.431  27.128  1.00  0.00     0.031 C 
ATOM     34  C   UNL A   1      44.734  32.300  28.454  1.00  0.00     0.029 A 
ATOM     35  C   UNL A   1      45.798  31.485  28.095  1.00  0.00     0.049 A 
ATOM     36  H   UNL A   1      45.783  29.427  27.630  1.00  0.00     0.167 HD
ATOM     37  C   UNL A   1      48.215  31.008  27.656  1.00  0.00     0.074 A 
ATOM     38  C   UNL A   1      49.604  31.418  27.555  1.00  0.00     0.031 C 
ATOM     39  C   UNL A   1      47.189  31.848  27.945  1.00  0.00     0.034 A 
BRANCH  26  40
ATOM     40  C   UNL A   1      41.550  29.195  28.246  1.00  0.00     0.023 A 
ATOM     41  C   UNL A   1      40.953  29.098  29.515  1.00  0.00     0.031 A 
ATOM     42  C   UNL A   1      40.710  29.225  27.119  1.00  0.00     0.131 A 
ATOM     43  C   UNL A   1      39.568  28.903  29.617  1.00  0.00     0.055 A 
ATOM     44  C   UNL A   1      39.323  29.132  27.237  1.00  0.00     0.041 A 
ATOM     45  F   UNL A   1      41.228  29.280  25.881  1.00  0.00    -0.206 F 
ATOM     46  C   UNL A   1      38.745  28.945  28.490  1.00  0.00     0.022 A 
BRANCH  43  47
ATOM     47  S   UNL A   1      38.886  28.394  31.219  1.00  0.00     0.124 S 
ATOM     48  O   UNL A   1      40.013  28.656  32.111  1.00  0.00    -0.237 OA
ATOM     49  O   UNL A   1      37.736  29.277  31.372  1.00  0.00    -0.237 OA
ATOM     50  O   UNL A   1      38.565  26.982  31.021  1.00  0.00    -0.744 OA
ENDBRANCH  43  47
ENDBRANCH  26  40
BRANCH  27  51
ATOM     51  C   UNL A   1      51.327  27.880  25.974  1.00  0.00     0.023 A 
ATOM     52  C   UNL A   1      52.307  27.425  26.880  1.00  0.00     0.031 A 
ATOM     53  C   UNL A   1      51.764  28.211  24.677  1.00  0.00     0.131 A 
ATOM     54  C   UNL A   1      53.657  27.333  26.481  1.00  0.00     0.055 A 
ATOM     55  C   UNL A   1      53.088  28.037  24.262  1.00  0.00     0.041 A 
ATOM     56  F   UNL A   1      50.905  28.711  23.776  1.00  0.00    -0.206 F 
ATOM     57  C   UNL A   1      54.046  27.606  25.169  1.00  0.00     0.022 A 
BRANCH  54  58
ATOM     58  S   UNL A   1      54.931  26.983  27.731  1.00  0.00     0.124 S 
ATOM     59  O   UNL A   1      55.903  26.214  26.961  1.00  0.00    -0.237 OA
ATOM     60  O   UNL A   1      55.347  28.323  28.133  1.00  0.00    -0.237 OA
ATOM     61  O   UNL A   1      54.210  26.225  28.753  1.00  0.00    -0.744 OA
ENDBRANCH  54  58
ENDBRANCH  27  51
BRANCH  39  62
ATOM     62  C   UNL A   1      47.575  33.283  28.146  1.00  0.00     0.023 A 
ATOM     63  C   UNL A   1      47.682  34.164  27.054  1.00  0.00     0.031 A 
ATOM     64  C   UNL A   1      47.883  33.758  29.429  1.00  0.00     0.131 A 
ATOM     65  C   UNL A   1      48.138  35.471  27.265  1.00  0.00     0.055 A 
ATOM     66  C   UNL A   1      48.289  35.074  29.638  1.00  0.00     0.041 A 
ATOM     67  F   UNL A   1      47.805  32.944  30.494  1.00  0.00    -0.206 F 
ATOM     68  C   UNL A   1      48.428  35.936  28.552  1.00  0.00     0.022 A 
BRANCH  65  69
ATOM     69  S   UNL A   1      48.413  36.541  25.828  1.00  0.00     0.124 S 
ATOM     70  O   UNL A   1      48.913  35.594  24.837  1.00  0.00    -0.237 OA
ATOM     71  O   UNL A   1      47.083  37.085  25.578  1.00  0.00    -0.237 OA
ATOM     72  O   UNL A   1      49.395  37.512  26.309  1.00  0.00    -0.744 OA
ENDBRANCH  65  69
ENDBRANCH  39  62
ENDBRANCH  13  14
ENDBRANCH   6   8
ENDBRANCH   5   6
ENDBRANCH   4   5
ENDBRANCH   3   4
ENDBRANCH   2   3
ENDBRANCH   1   2
BRANCH   1  73
ATOM     73  C   UNL A   1      40.012  21.025  26.334  1.00  0.00     0.188 C 
BRANCH  73  74
ATOM     74  O   UNL A   1      39.020  22.035  26.109  1.00  0.00    -0.376 OA
BRANCH  74  75
ATOM     75  C   UNL A   1      37.946  21.690  25.239  1.00  0.00     0.202 C 
BRANCH  75  76
ATOM     76  C   UNL A   1      36.556  22.196  25.640  1.00  0.00     0.261 C 
BRANCH  76  77
ATOM     77  O   UNL A   1      36.198  23.425  25.013  1.00  0.00    -0.463 OA
BRANCH  77  78
ATOM     78  C   UNL A   1      35.606  23.335  23.780  1.00  0.00     0.312 C 
ATOM     79  O   UNL A   1      36.164  23.036  22.736  1.00  0.00    -0.252 OA
BRANCH  78  80
ATOM     80  C   UNL A   1      34.141  23.695  23.932  1.00  0.00     0.123 C 
ATOM     81  C   UNL A   1      33.325  23.299  22.750  1.00  0.00    -0.015 C 
ATOM     82  C   UNL A   1      33.401  23.056  25.113  1.00  0.00     0.043 C 
ATOM     83  C   UNL A   1      32.163  22.750  23.121  1.00  0.00    -0.011 C 
ATOM     84  C   UNL A   1      31.989  22.712  24.609  1.00  0.00     0.093 C 
BRANCH  84  85
ATOM     85  N   UNL A   1      30.879  23.611  24.896  1.00  0.00    -0.204 NA
ATOM     86  H   UNL A   1      30.093  22.991  25.087  1.00  0.00     0.142 HD
BRANCH  85  87
ATOM     87  S   UNL A   1      30.760  24.793  26.053  1.00  0.00     0.244 S 
ATOM     88  O   UNL A   1      29.406  25.248  26.078  1.00  0.00    -0.207 OA
ATOM     89  O   UNL A   1      31.409  24.276  27.254  1.00  0.00    -0.207 OA
BRANCH  87  90
ATOM     90  C   UNL A   1      31.762  26.092  25.423  1.00  0.00     0.121 A 
ATOM     91  C   UNL A   1      32.807  26.597  26.202  1.00  0.00     0.028 A 
ATOM     92  C   UNL A   1      31.632  26.452  24.084  1.00  0.00     0.181 A 
ATOM     93  C   UNL A   1      33.765  27.405  25.596  1.00  0.00     0.044 A 
ATOM     94  C   UNL A   1      32.593  27.268  23.490  1.00  0.00     0.195 A 
ATOM     95  F   UNL A   1      30.623  25.981  23.339  1.00  0.00    -0.202 F 
ATOM     96  C   UNL A   1      33.662  27.736  24.245  1.00  0.00     0.161 A 
ATOM     97  F   UNL A   1      32.517  27.554  22.183  1.00  0.00    -0.200 F 
ATOM     98  F   UNL A   1      34.617  28.485  23.677  1.00  0.00    -0.204 F 
ENDBRANCH  87  90
ENDBRANCH  85  87
ENDBRANCH  84  85
ENDBRANCH  78  80
ENDBRANCH  77  78
ENDBRANCH  76  77
ENDBRANCH  75  76
ENDBRANCH  74  75
ENDBRANCH  73  74
ENDBRANCH   1  73
TORSDOF 23
ENDMDL
