MODEL 1
REMARK VINA RESULT:      -9.6      0.000      0.000
REMARK SMILES C[C@H]1[C@@H]([NH2+]C[C@H]2CC[C@@H](C(=O)OCCOCCOCCOC(=O)c3ccc(-c4c5nc(c(-c6cc(S(=O)(=O)[O-])ccc6F)c6ccc([nH]6)c(-c6cc(S(=O)(=O)[O-])ccc6F)c6nc(c(-c7cc(S(=O)(=O)[O-])ccc7F)c7ccc4[nH]7)C=C6)C=C5)cc3)CC2)CCC[C@@H]1C
REMARK SMILES IDX 16 1 15 2 14 3 13 4 12 5 10 6 11 7 9 8 6 9 7 10 88 11 8 12
REMARK SMILES IDX 87 13 5 14 4 15 3 18 1 19 2 20 92 21 89 22 91 23 93 24 90 25
REMARK SMILES IDX 17 26 18 27 19 28 20 29 21 30 22 31 23 32 24 33 25 34 86 35
REMARK SMILES IDX 26 36 85 37 27 38 28 39 29 40 79 41 30 42 84 43 78 44 80 45
REMARK SMILES IDX 31 46 83 47 77 48 76 49 32 51 64 52 44 53 63 54 45 55 48 56
REMARK SMILES IDX 62 57 81 58 46 59 47 60 61 62 82 63 49 64 33 65 34 66 42 67
REMARK SMILES IDX 35 68 41 69 43 70 40 71 36 72 37 73 38 74 39 75 65 76 66 77
REMARK SMILES IDX 74 78 67 79 73 80 75 81 72 82 68 83 69 84 70 85 71 86 50 87
REMARK SMILES IDX 51 88 59 89 52 90 58 91 60 92 57 93 53 94 54 95 55 96 56 97
REMARK H PARENT 4 16 4 17 80 50 48 61
REMARK Flexibility Score: inf
ROOT
ATOM      1  C   UNL A   1      40.536  22.468  26.746  1.00  0.00     0.188 C 
ENDROOT
BRANCH   1   2
ATOM      2  O   UNL A   1      39.635  23.484  27.159  1.00  0.00    -0.376 OA
BRANCH   2   3
ATOM      3  C   UNL A   1      38.573  23.802  26.266  1.00  0.00     0.202 C 
BRANCH   3   4
ATOM      4  C   UNL A   1      37.698  22.646  25.756  1.00  0.00     0.261 C 
BRANCH   4   5
ATOM      5  O   UNL A   1      36.356  22.611  26.281  1.00  0.00    -0.463 OA
BRANCH   5   6
ATOM      6  C   UNL A   1      35.360  22.639  25.351  1.00  0.00     0.309 C 
ATOM      7  O   UNL A   1      35.547  22.806  24.149  1.00  0.00    -0.252 OA
BRANCH   6   8
ATOM      8  C   UNL A   1      33.952  22.430  25.919  1.00  0.00     0.099 C 
ATOM      9  C   UNL A   1      31.021  22.976  25.518  1.00  0.00     0.044 C 
ATOM     10  C   UNL A   1      31.636  21.622  25.126  1.00  0.00     0.010 C 
ATOM     11  C   UNL A   1      31.772  23.493  26.752  1.00  0.00     0.010 C 
ATOM     12  C   UNL A   1      33.134  21.721  24.828  1.00  0.00     0.016 C 
ATOM     13  C   UNL A   1      33.269  23.675  26.505  1.00  0.00     0.016 C 
BRANCH   9  14
ATOM     14  C   UNL A   1      31.048  23.933  24.304  1.00  0.00     0.264 C 
BRANCH  14  15
ATOM     15  N   UNL A   1      31.058  25.340  24.656  1.00  0.00    -0.343 N 
ATOM     16  H   UNL A   1      30.123  25.709  24.484  1.00  0.00     0.346 HD
ATOM     17  H   UNL A   1      31.355  25.371  25.631  1.00  0.00     0.346 HD
BRANCH  15  18
ATOM     18  C   UNL A   1      32.014  26.192  23.932  1.00  0.00     0.185 C 
ATOM     19  C   UNL A   1      33.505  27.271  25.779  1.00  0.00     0.014 C 
ATOM     20  C   UNL A   1      32.536  27.502  24.613  1.00  0.00     0.047 C 
ATOM     21  C   UNL A   1      31.365  28.461  24.945  1.00  0.00    -0.006 C 
ATOM     22  C   UNL A   1      31.305  26.608  22.623  1.00  0.00     0.065 C 
ATOM     23  C   UNL A   1      30.604  28.823  23.657  1.00  0.00     0.004 C 
ATOM     24  C   UNL A   1      31.805  29.731  25.675  1.00  0.00     0.008 C 
ATOM     25  C   UNL A   1      30.154  27.589  22.873  1.00  0.00     0.006 C 
ENDBRANCH  15  18
ENDBRANCH  14  15
ENDBRANCH   9  14
ENDBRANCH   6   8
ENDBRANCH   5   6
ENDBRANCH   4   5
ENDBRANCH   3   4
ENDBRANCH   2   3
ENDBRANCH   1   2
BRANCH   1  26
ATOM     26  C   UNL A   1      40.947  21.419  27.782  1.00  0.00     0.188 C 
BRANCH  26  27
ATOM     27  O   UNL A   1      40.792  20.049  27.439  1.00  0.00    -0.376 OA
BRANCH  27  28
ATOM     28  C   UNL A   1      42.001  19.282  27.524  1.00  0.00     0.202 C 
BRANCH  28  29
ATOM     29  C   UNL A   1      42.564  18.781  26.174  1.00  0.00     0.261 C 
BRANCH  29  30
ATOM     30  O   UNL A   1      42.669  19.769  25.120  1.00  0.00    -0.460 OA
BRANCH  30  31
ATOM     31  C   UNL A   1      43.903  20.241  24.816  1.00  0.00     0.338 C 
ATOM     32  O   UNL A   1      44.668  19.764  23.995  1.00  0.00    -0.246 OA
BRANCH  31  33
ATOM     33  C   UNL A   1      44.067  21.594  25.429  1.00  0.00     0.060 A 
ATOM     34  C   UNL A   1      43.745  22.720  24.655  1.00  0.00     0.016 A 
ATOM     35  C   UNL A   1      44.453  21.768  26.762  1.00  0.00     0.016 A 
ATOM     36  C   UNL A   1      43.844  24.011  25.192  1.00  0.00     0.010 A 
ATOM     37  C   UNL A   1      44.569  23.061  27.294  1.00  0.00     0.010 A 
ATOM     38  C   UNL A   1      44.293  24.195  26.506  1.00  0.00    -0.014 A 
BRANCH  38  39
ATOM     39  C   UNL A   1      44.674  25.550  27.003  1.00  0.00     0.031 A 
ATOM     40  C   UNL A   1      43.592  26.420  27.590  1.00  0.00     0.074 A 
ATOM     41  C   UNL A   1      45.934  26.021  26.937  1.00  0.00     0.049 A 
ATOM     42  N   UNL A   1      43.636  27.672  27.965  1.00  0.00    -0.248 NA
ATOM     43  C   UNL A   1      42.279  25.782  27.771  1.00  0.00     0.031 C 
ATOM     44  C   UNL A   1      47.096  25.274  26.462  1.00  0.00     0.029 A 
ATOM     45  N   UNL A   1      46.443  27.259  27.262  1.00  0.00    -0.354 N 
ATOM     46  C   UNL A   1      42.356  27.978  28.416  1.00  0.00     0.074 A 
ATOM     47  C   UNL A   1      41.554  26.786  28.239  1.00  0.00     0.031 C 
ATOM     48  C   UNL A   1      48.177  26.075  26.506  1.00  0.00     0.029 A 
ATOM     49  C   UNL A   1      47.780  27.407  26.964  1.00  0.00     0.049 A 
ATOM     50  H   UNL A   1      45.901  27.972  27.671  1.00  0.00     0.167 HD
ATOM     51  C   UNL A   1      41.890  29.142  28.932  1.00  0.00     0.034 A 
ATOM     52  C   UNL A   1      48.577  28.497  27.011  1.00  0.00     0.034 A 
ATOM     53  C   UNL A   1      42.687  30.332  29.095  1.00  0.00     0.049 A 
ATOM     54  C   UNL A   1      48.003  29.823  27.467  1.00  0.00     0.074 A 
ATOM     55  C   UNL A   1      42.309  31.555  29.625  1.00  0.00     0.029 A 
ATOM     56  N   UNL A   1      44.015  30.461  28.714  1.00  0.00    -0.354 N 
ATOM     57  N   UNL A   1      46.791  30.102  27.887  1.00  0.00    -0.248 NA
ATOM     58  C   UNL A   1      48.906  30.985  27.444  1.00  0.00     0.031 C 
ATOM     59  C   UNL A   1      43.380  32.444  29.488  1.00  0.00     0.029 A 
ATOM     60  C   UNL A   1      44.456  31.755  28.953  1.00  0.00     0.049 A 
ATOM     61  H   UNL A   1      44.565  29.740  28.330  1.00  0.00     0.167 HD
ATOM     62  C   UNL A   1      46.797  31.460  28.203  1.00  0.00     0.074 A 
ATOM     63  C   UNL A   1      48.135  31.944  27.938  1.00  0.00     0.031 C 
ATOM     64  C   UNL A   1      45.789  32.237  28.674  1.00  0.00     0.034 A 
BRANCH  51  65
ATOM     65  C   UNL A   1      40.427  29.197  29.300  1.00  0.00     0.023 A 
ATOM     66  C   UNL A   1      39.993  29.109  30.634  1.00  0.00     0.031 A 
ATOM     67  C   UNL A   1      39.450  29.310  28.295  1.00  0.00     0.131 A 
ATOM     68  C   UNL A   1      38.620  29.065  30.921  1.00  0.00     0.055 A 
ATOM     69  C   UNL A   1      38.087  29.349  28.593  1.00  0.00     0.041 A 
ATOM     70  F   UNL A   1      39.804  29.374  27.001  1.00  0.00    -0.206 F 
ATOM     71  C   UNL A   1      37.664  29.210  29.912  1.00  0.00     0.022 A 
BRANCH  68  72
ATOM     72  S   UNL A   1      38.101  28.667  32.612  1.00  0.00     0.124 S 
ATOM     73  O   UNL A   1      36.741  29.201  32.638  1.00  0.00    -0.237 OA
ATOM     74  O   UNL A   1      38.218  27.214  32.643  1.00  0.00    -0.237 OA
ATOM     75  O   UNL A   1      39.061  29.390  33.444  1.00  0.00    -0.744 OA
ENDBRANCH  68  72
ENDBRANCH  51  65
BRANCH  52  76
ATOM     76  C   UNL A   1      49.997  28.425  26.547  1.00  0.00     0.023 A 
ATOM     77  C   UNL A   1      50.331  28.547  25.189  1.00  0.00     0.031 A 
ATOM     78  C   UNL A   1      51.036  28.143  27.455  1.00  0.00     0.131 A 
ATOM     79  C   UNL A   1      51.656  28.343  24.770  1.00  0.00     0.055 A 
ATOM     80  C   UNL A   1      52.362  28.000  27.042  1.00  0.00     0.041 A 
ATOM     81  F   UNL A   1      50.773  27.998  28.763  1.00  0.00    -0.206 F 
ATOM     82  C   UNL A   1      52.676  28.087  25.689  1.00  0.00     0.022 A 
BRANCH  79  83
ATOM     83  S   UNL A   1      52.017  28.321  22.992  1.00  0.00     0.124 S 
ATOM     84  O   UNL A   1      51.881  26.902  22.680  1.00  0.00    -0.237 OA
ATOM     85  O   UNL A   1      50.978  29.197  22.460  1.00  0.00    -0.237 OA
ATOM     86  O   UNL A   1      53.377  28.850  22.912  1.00  0.00    -0.744 OA
ENDBRANCH  79  83
ENDBRANCH  52  76
BRANCH  64  87
ATOM     87  C   UNL A   1      46.099  33.686  28.975  1.00  0.00     0.023 A 
ATOM     88  C   UNL A   1      45.947  34.695  28.008  1.00  0.00     0.031 A 
ATOM     89  C   UNL A   1      46.540  34.063  30.257  1.00  0.00     0.131 A 
ATOM     90  C   UNL A   1      46.269  36.025  28.326  1.00  0.00     0.055 A 
ATOM     91  C   UNL A   1      46.805  35.394  30.584  1.00  0.00     0.041 A 
ATOM     92  F   UNL A   1      46.707  33.141  31.220  1.00  0.00    -0.206 F 
ATOM     93  C   UNL A   1      46.680  36.382  29.614  1.00  0.00     0.022 A 
BRANCH  90  94
ATOM     94  S   UNL A   1      46.210  37.279  27.016  1.00  0.00     0.124 S 
ATOM     95  O   UNL A   1      44.794  37.632  26.997  1.00  0.00    -0.237 OA
ATOM     96  O   UNL A   1      47.116  38.304  27.523  1.00  0.00    -0.237 OA
ATOM     97  O   UNL A   1      46.687  36.563  25.834  1.00  0.00    -0.744 OA
ENDBRANCH  90  94
ENDBRANCH  64  87
ENDBRANCH  38  39
ENDBRANCH  31  33
ENDBRANCH  30  31
ENDBRANCH  29  30
ENDBRANCH  28  29
ENDBRANCH  27  28
ENDBRANCH  26  27
ENDBRANCH   1  26
TORSDOF 23
ENDMDL
MODEL 2
REMARK VINA RESULT:      -9.0      2.579      7.882
REMARK SMILES C[C@H]1[C@@H]([NH2+]C[C@H]2CC[C@@H](C(=O)OCCOCCOCCOC(=O)c3ccc(-c4c5nc(c(-c6cc(S(=O)(=O)[O-])ccc6F)c6ccc([nH]6)c(-c6cc(S(=O)(=O)[O-])ccc6F)c6nc(c(-c7cc(S(=O)(=O)[O-])ccc7F)c7ccc4[nH]7)C=C6)C=C5)cc3)CC2)CCC[C@@H]1C
REMARK SMILES IDX 16 1 15 2 14 3 13 4 12 5 10 6 11 7 9 8 6 9 7 10 88 11 8 12
REMARK SMILES IDX 87 13 5 14 4 15 3 18 1 19 2 20 92 21 89 22 91 23 93 24 90 25
REMARK SMILES IDX 17 26 18 27 19 28 20 29 21 30 22 31 23 32 24 33 25 34 86 35
REMARK SMILES IDX 26 36 85 37 27 38 28 39 29 40 79 41 30 42 84 43 78 44 80 45
REMARK SMILES IDX 31 46 83 47 77 48 76 49 32 51 64 52 44 53 63 54 45 55 48 56
REMARK SMILES IDX 62 57 81 58 46 59 47 60 61 62 82 63 49 64 33 65 34 66 42 67
REMARK SMILES IDX 35 68 41 69 43 70 40 71 36 72 37 73 38 74 39 75 65 76 66 77
REMARK SMILES IDX 74 78 67 79 73 80 75 81 72 82 68 83 69 84 70 85 71 86 50 87
REMARK SMILES IDX 51 88 59 89 52 90 58 91 60 92 57 93 53 94 54 95 55 96 56 97
REMARK H PARENT 4 16 4 17 80 50 48 61
REMARK Flexibility Score: inf
ROOT
ATOM      1  C   UNL A   1      40.435  22.750  26.842  1.00  0.00     0.188 C 
ENDROOT
BRANCH   1   2
ATOM      2  O   UNL A   1      39.404  23.515  27.445  1.00  0.00    -0.376 OA
BRANCH   2   3
ATOM      3  C   UNL A   1      38.482  24.155  26.569  1.00  0.00     0.202 C 
BRANCH   3   4
ATOM      4  C   UNL A   1      37.613  23.261  25.670  1.00  0.00     0.261 C 
BRANCH   4   5
ATOM      5  O   UNL A   1      36.190  23.384  25.870  1.00  0.00    -0.463 OA
BRANCH   5   6
ATOM      6  C   UNL A   1      35.427  22.437  25.255  1.00  0.00     0.309 C 
ATOM      7  O   UNL A   1      35.781  21.807  24.262  1.00  0.00    -0.252 OA
BRANCH   6   8
ATOM      8  C   UNL A   1      34.063  22.195  25.910  1.00  0.00     0.099 C 
ATOM      9  C   UNL A   1      31.186  23.065  26.021  1.00  0.00     0.044 C 
ATOM     10  C   UNL A   1      31.609  21.826  25.214  1.00  0.00     0.010 C 
ATOM     11  C   UNL A   1      32.101  23.159  27.250  1.00  0.00     0.010 C 
ATOM     12  C   UNL A   1      33.074  21.882  24.776  1.00  0.00     0.016 C 
ATOM     13  C   UNL A   1      33.579  23.280  26.883  1.00  0.00     0.016 C 
BRANCH   9  14
ATOM     14  C   UNL A   1      31.205  24.314  25.110  1.00  0.00     0.264 C 
BRANCH  14  15
ATOM     15  N   UNL A   1      31.965  25.427  25.645  1.00  0.00    -0.343 N 
ATOM     16  H   UNL A   1      32.247  25.182  26.594  1.00  0.00     0.346 HD
ATOM     17  H   UNL A   1      32.737  25.564  24.993  1.00  0.00     0.346 HD
BRANCH  15  18
ATOM     18  C   UNL A   1      31.275  26.725  25.706  1.00  0.00     0.185 C 
ATOM     19  C   UNL A   1      30.458  27.181  23.271  1.00  0.00     0.014 C 
ATOM     20  C   UNL A   1      31.306  27.665  24.454  1.00  0.00     0.047 C 
ATOM     21  C   UNL A   1      32.762  28.039  24.076  1.00  0.00    -0.006 C 
ATOM     22  C   UNL A   1      31.926  27.498  26.874  1.00  0.00     0.065 C 
ATOM     23  C   UNL A   1      33.446  28.743  25.261  1.00  0.00     0.004 C 
ATOM     24  C   UNL A   1      32.862  28.902  22.817  1.00  0.00     0.008 C 
ATOM     25  C   UNL A   1      33.361  27.934  26.555  1.00  0.00     0.006 C 
ENDBRANCH  15  18
ENDBRANCH  14  15
ENDBRANCH   9  14
ENDBRANCH   6   8
ENDBRANCH   5   6
ENDBRANCH   4   5
ENDBRANCH   3   4
ENDBRANCH   2   3
ENDBRANCH   1   2
BRANCH   1  26
ATOM     26  C   UNL A   1      40.847  21.446  27.529  1.00  0.00     0.188 C 
BRANCH  26  27
ATOM     27  O   UNL A   1      40.802  20.248  26.766  1.00  0.00    -0.376 OA
BRANCH  27  28
ATOM     28  C   UNL A   1      41.901  19.358  27.003  1.00  0.00     0.202 C 
BRANCH  28  29
ATOM     29  C   UNL A   1      42.919  19.241  25.844  1.00  0.00     0.261 C 
BRANCH  29  30
ATOM     30  O   UNL A   1      43.068  20.410  25.004  1.00  0.00    -0.460 OA
BRANCH  30  31
ATOM     31  C   UNL A   1      44.253  21.067  25.036  1.00  0.00     0.338 C 
ATOM     32  O   UNL A   1      45.271  20.733  24.452  1.00  0.00    -0.246 OA
BRANCH  31  33
ATOM     33  C   UNL A   1      44.046  22.408  25.660  1.00  0.00     0.060 A 
ATOM     34  C   UNL A   1      43.638  23.471  24.836  1.00  0.00     0.016 A 
ATOM     35  C   UNL A   1      44.168  22.618  27.037  1.00  0.00     0.016 A 
ATOM     36  C   UNL A   1      43.393  24.741  25.375  1.00  0.00     0.010 A 
ATOM     37  C   UNL A   1      43.938  23.895  27.573  1.00  0.00     0.010 A 
ATOM     38  C   UNL A   1      43.576  24.974  26.744  1.00  0.00    -0.014 A 
BRANCH  38  39
ATOM     39  C   UNL A   1      43.597  26.364  27.289  1.00  0.00     0.031 A 
ATOM     40  C   UNL A   1      44.935  27.040  27.456  1.00  0.00     0.074 A 
ATOM     41  C   UNL A   1      42.477  27.024  27.641  1.00  0.00     0.049 A 
ATOM     42  N   UNL A   1      45.231  28.179  28.024  1.00  0.00    -0.248 NA
ATOM     43  C   UNL A   1      46.093  26.320  26.907  1.00  0.00     0.031 C 
ATOM     44  C   UNL A   1      41.113  26.530  27.473  1.00  0.00     0.029 A 
ATOM     45  N   UNL A   1      42.317  28.258  28.231  1.00  0.00    -0.354 N 
ATOM     46  C   UNL A   1      46.612  28.310  27.912  1.00  0.00     0.074 A 
ATOM     47  C   UNL A   1      47.092  27.118  27.247  1.00  0.00     0.031 C 
ATOM     48  C   UNL A   1      40.256  27.443  27.968  1.00  0.00     0.029 A 
ATOM     49  C   UNL A   1      41.007  28.563  28.535  1.00  0.00     0.049 A 
ATOM     50  H   UNL A   1      43.068  28.866  28.417  1.00  0.00     0.167 HD
ATOM     51  C   UNL A   1      47.407  29.329  28.323  1.00  0.00     0.034 A 
ATOM     52  C   UNL A   1      40.483  29.598  29.227  1.00  0.00     0.034 A 
ATOM     53  C   UNL A   1      46.927  30.510  28.997  1.00  0.00     0.049 A 
ATOM     54  C   UNL A   1      41.403  30.661  29.792  1.00  0.00     0.074 A 
ATOM     55  C   UNL A   1      47.652  31.605  29.436  1.00  0.00     0.029 A 
ATOM     56  N   UNL A   1      45.606  30.746  29.350  1.00  0.00    -0.354 N 
ATOM     57  N   UNL A   1      42.706  30.773  29.685  1.00  0.00    -0.248 NA
ATOM     58  C   UNL A   1      40.778  31.734  30.584  1.00  0.00     0.031 C 
ATOM     59  C   UNL A   1      46.786  32.459  30.125  1.00  0.00     0.029 A 
ATOM     60  C   UNL A   1      45.503  31.943  30.042  1.00  0.00     0.049 A 
ATOM     61  H   UNL A   1      44.850  30.150  29.139  1.00  0.00     0.167 HD
ATOM     62  C   UNL A   1      43.049  31.939  30.369  1.00  0.00     0.074 A 
ATOM     63  C   UNL A   1      41.816  32.503  30.875  1.00  0.00     0.031 C 
ATOM     64  C   UNL A   1      44.272  32.496  30.558  1.00  0.00     0.034 A 
BRANCH  51  65
ATOM     65  C   UNL A   1      48.893  29.175  28.106  1.00  0.00     0.023 A 
ATOM     66  C   UNL A   1      49.495  29.455  26.867  1.00  0.00     0.031 A 
ATOM     67  C   UNL A   1      49.715  28.714  29.149  1.00  0.00     0.131 A 
ATOM     68  C   UNL A   1      50.862  29.204  26.682  1.00  0.00     0.055 A 
ATOM     69  C   UNL A   1      51.090  28.544  28.984  1.00  0.00     0.041 A 
ATOM     70  F   UNL A   1      49.192  28.408  30.348  1.00  0.00    -0.206 F 
ATOM     71  C   UNL A   1      51.669  28.774  27.739  1.00  0.00     0.022 A 
BRANCH  68  72
ATOM     72  S   UNL A   1      51.542  29.303  25.004  1.00  0.00     0.124 S 
ATOM     73  O   UNL A   1      52.835  28.643  25.169  1.00  0.00    -0.237 OA
ATOM     74  O   UNL A   1      50.551  28.579  24.219  1.00  0.00    -0.237 OA
ATOM     75  O   UNL A   1      51.614  30.741  24.748  1.00  0.00    -0.744 OA
ENDBRANCH  68  72
ENDBRANCH  51  65
BRANCH  52  76
ATOM     76  C   UNL A   1      39.015  29.666  29.503  1.00  0.00     0.023 A 
ATOM     77  C   UNL A   1      38.180  30.561  28.815  1.00  0.00     0.031 A 
ATOM     78  C   UNL A   1      38.441  28.891  30.529  1.00  0.00     0.131 A 
ATOM     79  C   UNL A   1      36.833  30.693  29.189  1.00  0.00     0.055 A 
ATOM     80  C   UNL A   1      37.087  28.983  30.858  1.00  0.00     0.041 A 
ATOM     81  F   UNL A   1      39.194  28.032  31.234  1.00  0.00    -0.206 F 
ATOM     82  C   UNL A   1      36.277  29.900  30.194  1.00  0.00     0.022 A 
BRANCH  79  83
ATOM     83  S   UNL A   1      35.834  31.992  28.407  1.00  0.00     0.124 S 
ATOM     84  O   UNL A   1      35.275  31.285  27.260  1.00  0.00    -0.237 OA
ATOM     85  O   UNL A   1      34.894  32.334  29.470  1.00  0.00    -0.237 OA
ATOM     86  O   UNL A   1      36.812  33.029  28.086  1.00  0.00    -0.744 OA
ENDBRANCH  79  83
ENDBRANCH  52  76
BRANCH  64  87
ATOM     87  C   UNL A   1      44.340  33.806  31.310  1.00  0.00     0.023 A 
ATOM     88  C   UNL A   1      44.543  33.855  32.700  1.00  0.00     0.031 A 
ATOM     89  C   UNL A   1      44.214  35.025  30.619  1.00  0.00     0.131 A 
ATOM     90  C   UNL A   1      44.577  35.094  33.361  1.00  0.00     0.055 A 
ATOM     91  C   UNL A   1      44.305  36.256  31.273  1.00  0.00     0.041 A 
ATOM     92  F   UNL A   1      44.016  35.041  29.291  1.00  0.00    -0.206 F 
ATOM     93  C   UNL A   1      44.477  36.295  32.652  1.00  0.00     0.022 A 
BRANCH  90  94
ATOM     94  S   UNL A   1      44.685  35.120  35.172  1.00  0.00     0.124 S 
ATOM     95  O   UNL A   1      44.647  33.698  35.498  1.00  0.00    -0.237 OA
ATOM     96  O   UNL A   1      45.959  35.793  35.400  1.00  0.00    -0.237 OA
ATOM     97  O   UNL A   1      43.503  35.881  35.575  1.00  0.00    -0.744 OA
ENDBRANCH  90  94
ENDBRANCH  64  87
ENDBRANCH  38  39
ENDBRANCH  31  33
ENDBRANCH  30  31
ENDBRANCH  29  30
ENDBRANCH  28  29
ENDBRANCH  27  28
ENDBRANCH  26  27
ENDBRANCH   1  26
TORSDOF 23
ENDMDL
MODEL 3
REMARK VINA RESULT:      -8.9      2.744      7.647
REMARK SMILES C[C@H]1[C@@H]([NH2+]C[C@H]2CC[C@@H](C(=O)OCCOCCOCCOC(=O)c3ccc(-c4c5nc(c(-c6cc(S(=O)(=O)[O-])ccc6F)c6ccc([nH]6)c(-c6cc(S(=O)(=O)[O-])ccc6F)c6nc(c(-c7cc(S(=O)(=O)[O-])ccc7F)c7ccc4[nH]7)C=C6)C=C5)cc3)CC2)CCC[C@@H]1C
REMARK SMILES IDX 16 1 15 2 14 3 13 4 12 5 10 6 11 7 9 8 6 9 7 10 88 11 8 12
REMARK SMILES IDX 87 13 5 14 4 15 3 18 1 19 2 20 92 21 89 22 91 23 93 24 90 25
REMARK SMILES IDX 17 26 18 27 19 28 20 29 21 30 22 31 23 32 24 33 25 34 86 35
REMARK SMILES IDX 26 36 85 37 27 38 28 39 29 40 79 41 30 42 84 43 78 44 80 45
REMARK SMILES IDX 31 46 83 47 77 48 76 49 32 51 64 52 44 53 63 54 45 55 48 56
REMARK SMILES IDX 62 57 81 58 46 59 47 60 61 62 82 63 49 64 33 65 34 66 42 67
REMARK SMILES IDX 35 68 41 69 43 70 40 71 36 72 37 73 38 74 39 75 65 76 66 77
REMARK SMILES IDX 74 78 67 79 73 80 75 81 72 82 68 83 69 84 70 85 71 86 50 87
REMARK SMILES IDX 51 88 59 89 52 90 58 91 60 92 57 93 53 94 54 95 55 96 56 97
REMARK H PARENT 4 16 4 17 80 50 48 61
REMARK Flexibility Score: inf
ROOT
ATOM      1  C   UNL A   1      40.684  23.438  27.113  1.00  0.00     0.188 C 
ENDROOT
BRANCH   1   2
ATOM      2  O   UNL A   1      39.391  23.960  27.378  1.00  0.00    -0.376 OA
BRANCH   2   3
ATOM      3  C   UNL A   1      38.471  23.978  26.292  1.00  0.00     0.202 C 
BRANCH   3   4
ATOM      4  C   UNL A   1      37.897  22.632  25.819  1.00  0.00     0.261 C 
BRANCH   4   5
ATOM      5  O   UNL A   1      36.470  22.611  25.610  1.00  0.00    -0.463 OA
BRANCH   5   6
ATOM      6  C   UNL A   1      35.918  21.374  25.462  1.00  0.00     0.309 C 
ATOM      7  O   UNL A   1      36.514  20.406  24.999  1.00  0.00    -0.252 OA
BRANCH   6   8
ATOM      8  C   UNL A   1      34.464  21.265  25.935  1.00  0.00     0.099 C 
ATOM      9  C   UNL A   1      31.608  21.985  25.326  1.00  0.00     0.044 C 
ATOM     10  C   UNL A   1      32.160  20.588  24.998  1.00  0.00     0.010 C 
ATOM     11  C   UNL A   1      32.306  22.479  26.600  1.00  0.00     0.010 C 
ATOM     12  C   UNL A   1      33.678  20.587  24.802  1.00  0.00     0.016 C 
ATOM     13  C   UNL A   1      33.824  22.561  26.453  1.00  0.00     0.016 C 
BRANCH   9  14
ATOM     14  C   UNL A   1      31.777  22.914  24.102  1.00  0.00     0.264 C 
BRANCH  14  15
ATOM     15  N   UNL A   1      30.605  23.710  23.793  1.00  0.00    -0.343 N 
ATOM     16  H   UNL A   1      30.117  23.256  23.022  1.00  0.00     0.346 HD
ATOM     17  H   UNL A   1      30.076  23.758  24.662  1.00  0.00     0.346 HD
BRANCH  15  18
ATOM     18  C   UNL A   1      30.844  25.109  23.406  1.00  0.00     0.185 C 
ATOM     19  C   UNL A   1      33.407  25.265  22.948  1.00  0.00     0.014 C 
ATOM     20  C   UNL A   1      32.214  25.777  23.766  1.00  0.00     0.047 C 
ATOM     21  C   UNL A   1      32.450  25.771  25.298  1.00  0.00    -0.006 C 
ATOM     22  C   UNL A   1      29.738  25.936  24.099  1.00  0.00     0.065 C 
ATOM     23  C   UNL A   1      31.312  26.528  26.005  1.00  0.00     0.004 C 
ATOM     24  C   UNL A   1      33.806  26.349  25.708  1.00  0.00     0.008 C 
ATOM     25  C   UNL A   1      29.928  26.005  25.618  1.00  0.00     0.006 C 
ENDBRANCH  15  18
ENDBRANCH  14  15
ENDBRANCH   9  14
ENDBRANCH   6   8
ENDBRANCH   5   6
ENDBRANCH   4   5
ENDBRANCH   3   4
ENDBRANCH   2   3
ENDBRANCH   1   2
BRANCH   1  26
ATOM     26  C   UNL A   1      40.857  21.918  27.145  1.00  0.00     0.188 C 
BRANCH  26  27
ATOM     27  O   UNL A   1      41.249  21.268  25.944  1.00  0.00    -0.376 OA
BRANCH  27  28
ATOM     28  C   UNL A   1      41.935  20.024  26.146  1.00  0.00     0.202 C 
BRANCH  28  29
ATOM     29  C   UNL A   1      43.380  19.969  25.596  1.00  0.00     0.261 C 
BRANCH  29  30
ATOM     30  O   UNL A   1      43.865  21.172  24.951  1.00  0.00    -0.460 OA
BRANCH  30  31
ATOM     31  C   UNL A   1      44.995  21.740  25.439  1.00  0.00     0.338 C 
ATOM     32  O   UNL A   1      46.133  21.342  25.249  1.00  0.00    -0.246 OA
BRANCH  31  33
ATOM     33  C   UNL A   1      44.658  23.082  26.001  1.00  0.00     0.060 A 
ATOM     34  C   UNL A   1      44.386  24.130  25.106  1.00  0.00     0.016 A 
ATOM     35  C   UNL A   1      44.530  23.305  27.375  1.00  0.00     0.016 A 
ATOM     36  C   UNL A   1      44.028  25.400  25.580  1.00  0.00     0.010 A 
ATOM     37  C   UNL A   1      44.188  24.581  27.848  1.00  0.00     0.010 A 
ATOM     38  C   UNL A   1      43.961  25.647  26.957  1.00  0.00    -0.014 A 
BRANCH  38  39
ATOM     39  C   UNL A   1      43.863  27.041  27.481  1.00  0.00     0.031 A 
ATOM     40  C   UNL A   1      45.136  27.834  27.631  1.00  0.00     0.074 A 
ATOM     41  C   UNL A   1      42.690  27.605  27.829  1.00  0.00     0.049 A 
ATOM     42  N   UNL A   1      45.333  29.004  28.180  1.00  0.00    -0.248 NA
ATOM     43  C   UNL A   1      46.351  27.210  27.086  1.00  0.00     0.031 C 
ATOM     44  C   UNL A   1      41.374  26.992  27.677  1.00  0.00     0.029 A 
ATOM     45  N   UNL A   1      42.424  28.829  28.402  1.00  0.00    -0.354 N 
ATOM     46  C   UNL A   1      46.697  29.254  28.059  1.00  0.00     0.074 A 
ATOM     47  C   UNL A   1      47.278  28.098  27.409  1.00  0.00     0.031 C 
ATOM     48  C   UNL A   1      40.442  27.833  28.163  1.00  0.00     0.029 A 
ATOM     49  C   UNL A   1      41.095  29.023  28.710  1.00  0.00     0.049 A 
ATOM     50  H   UNL A   1      43.120  29.504  28.576  1.00  0.00     0.167 HD
ATOM     51  C   UNL A   1      47.401  30.345  28.451  1.00  0.00     0.034 A 
ATOM     52  C   UNL A   1      40.484  30.018  29.389  1.00  0.00     0.034 A 
ATOM     53  C   UNL A   1      46.822  31.488  29.111  1.00  0.00     0.049 A 
ATOM     54  C   UNL A   1      41.309  31.166  29.934  1.00  0.00     0.074 A 
ATOM     55  C   UNL A   1      47.451  32.649  29.530  1.00  0.00     0.029 A 
ATOM     56  N   UNL A   1      45.487  31.612  29.467  1.00  0.00    -0.354 N 
ATOM     57  N   UNL A   1      42.598  31.390  29.818  1.00  0.00    -0.248 NA
ATOM     58  C   UNL A   1      40.596  32.191  30.713  1.00  0.00     0.031 C 
ATOM     59  C   UNL A   1      46.515  33.434  30.211  1.00  0.00     0.029 A 
ATOM     60  C   UNL A   1      45.282  32.807  30.143  1.00  0.00     0.049 A 
ATOM     61  H   UNL A   1      44.786  30.949  29.270  1.00  0.00     0.167 HD
ATOM     62  C   UNL A   1      42.839  32.592  30.483  1.00  0.00     0.074 A 
ATOM     63  C   UNL A   1      41.564  33.053  30.988  1.00  0.00     0.031 C 
ATOM     64  C   UNL A   1      44.010  33.257  30.657  1.00  0.00     0.034 A 
BRANCH  51  65
ATOM     65  C   UNL A   1      48.894  30.318  28.228  1.00  0.00     0.023 A 
ATOM     66  C   UNL A   1      49.748  29.525  29.014  1.00  0.00     0.031 A 
ATOM     67  C   UNL A   1      49.474  31.123  27.231  1.00  0.00     0.131 A 
ATOM     68  C   UNL A   1      51.137  29.607  28.837  1.00  0.00     0.055 A 
ATOM     69  C   UNL A   1      50.850  31.138  27.005  1.00  0.00     0.041 A 
ATOM     70  F   UNL A   1      48.710  31.919  26.466  1.00  0.00    -0.206 F 
ATOM     71  C   UNL A   1      51.693  30.388  27.822  1.00  0.00     0.022 A 
BRANCH  68  72
ATOM     72  S   UNL A   1      52.214  28.794  30.049  1.00  0.00     0.124 S 
ATOM     73  O   UNL A   1      51.705  29.334  31.307  1.00  0.00    -0.237 OA
ATOM     74  O   UNL A   1      51.949  27.381  29.807  1.00  0.00    -0.237 OA
ATOM     75  O   UNL A   1      53.552  29.252  29.680  1.00  0.00    -0.744 OA
ENDBRANCH  68  72
ENDBRANCH  51  65
BRANCH  52  76
ATOM     76  C   UNL A   1      39.017  29.960  29.673  1.00  0.00     0.023 A 
ATOM     77  C   UNL A   1      38.100  30.740  28.949  1.00  0.00     0.031 A 
ATOM     78  C   UNL A   1      38.521  29.185  30.738  1.00  0.00     0.131 A 
ATOM     79  C   UNL A   1      36.747  30.763  29.326  1.00  0.00     0.055 A 
ATOM     80  C   UNL A   1      37.166  29.165  31.072  1.00  0.00     0.041 A 
ATOM     81  F   UNL A   1      39.354  28.434  31.477  1.00  0.00    -0.206 F 
ATOM     82  C   UNL A   1      36.271  29.969  30.372  1.00  0.00     0.022 A 
BRANCH  79  83
ATOM     83  S   UNL A   1      35.628  31.923  28.492  1.00  0.00     0.124 S 
ATOM     84  O   UNL A   1      35.143  31.117  27.377  1.00  0.00    -0.237 OA
ATOM     85  O   UNL A   1      34.658  32.217  29.541  1.00  0.00    -0.237 OA
ATOM     86  O   UNL A   1      36.502  33.036  28.125  1.00  0.00    -0.744 OA
ENDBRANCH  79  83
ENDBRANCH  52  76
BRANCH  64  87
ATOM     87  C   UNL A   1      43.966  34.579  31.390  1.00  0.00     0.023 A 
ATOM     88  C   UNL A   1      43.921  35.806  30.706  1.00  0.00     0.031 A 
ATOM     89  C   UNL A   1      43.952  34.607  32.796  1.00  0.00     0.131 A 
ATOM     90  C   UNL A   1      43.903  37.011  31.428  1.00  0.00     0.055 A 
ATOM     91  C   UNL A   1      43.877  35.806  33.509  1.00  0.00     0.041 A 
ATOM     92  F   UNL A   1      43.995  33.466  33.503  1.00  0.00    -0.206 F 
ATOM     93  C   UNL A   1      43.863  37.017  32.826  1.00  0.00     0.022 A 
BRANCH  90  94
ATOM     94  S   UNL A   1      44.003  38.579  30.521  1.00  0.00     0.124 S 
ATOM     95  O   UNL A   1      43.166  38.309  29.356  1.00  0.00    -0.237 OA
ATOM     96  O   UNL A   1      43.465  39.534  31.484  1.00  0.00    -0.237 OA
ATOM     97  O   UNL A   1      45.430  38.723  30.239  1.00  0.00    -0.744 OA
ENDBRANCH  90  94
ENDBRANCH  64  87
ENDBRANCH  38  39
ENDBRANCH  31  33
ENDBRANCH  30  31
ENDBRANCH  29  30
ENDBRANCH  28  29
ENDBRANCH  27  28
ENDBRANCH  26  27
ENDBRANCH   1  26
TORSDOF 23
ENDMDL
