MODEL 1
REMARK VINA RESULT:     -10.4      0.000      0.000
REMARK SMILES COC(=O)c1ccc2c(c1)=N[C@H](c1cn(CCC(=O)OCCOCCOCCOC(=O)c3ccc(-c4c5nc(c(-c6cc(S(=O)(=O)[O-])ccc6F)c6ccc([nH]6)c(-c6cc(S(=O)(=O)[O-])ccc6F)c6nc(c(-c7cc(S(=O)(=O)[O-])ccc7F)c7ccc4[nH]7)C=C6)C=C5)cc3)c3ccccc13)N=2
REMARK SMILES IDX 24 1 23 2 22 3 21 4 20 5 18 6 19 7 17 8 16 9 15 10 13 11
REMARK SMILES IDX 14 12 100 13 95 14 99 15 96 16 98 17 97 18 12 19 5 20 6 21
REMARK SMILES IDX 10 22 7 23 9 24 8 25 11 26 101 27 3 28 4 29 2 30 1 31 25 32
REMARK SMILES IDX 26 33 27 34 28 35 29 36 30 37 31 38 32 39 33 40 94 41 34 42
REMARK SMILES IDX 93 43 35 44 36 45 37 46 87 47 38 48 92 49 86 50 88 51 39 52
REMARK SMILES IDX 91 53 85 54 84 55 40 57 72 58 52 59 71 60 53 61 56 62 70 63
REMARK SMILES IDX 89 64 54 65 55 66 69 68 90 69 57 70 41 71 42 72 50 73 43 74
REMARK SMILES IDX 49 75 51 76 48 77 44 78 45 79 46 80 47 81 73 82 74 83 82 84
REMARK SMILES IDX 75 85 81 86 83 87 80 88 76 89 77 90 78 91 79 92 58 93 59 94
REMARK SMILES IDX 67 95 60 96 66 97 68 98 65 99 61 100 62 101 63 102 64 103
REMARK H PARENT 88 56 56 67
REMARK Flexibility Score: inf
ROOT
ATOM      1  C   UNL A   1      34.641  32.438  29.150  1.00  0.00     0.188 C 
ENDROOT
BRANCH   1   2
ATOM      2  O   UNL A   1      34.813  31.133  28.647  1.00  0.00    -0.376 OA
BRANCH   2   3
ATOM      3  C   UNL A   1      34.602  30.937  27.250  1.00  0.00     0.202 C 
BRANCH   3   4
ATOM      4  C   UNL A   1      34.018  29.604  26.753  1.00  0.00     0.261 C 
BRANCH   4   5
ATOM      5  O   UNL A   1      32.622  29.464  27.116  1.00  0.00    -0.463 OA
BRANCH   5   6
ATOM      6  C   UNL A   1      31.741  29.486  26.087  1.00  0.00     0.307 C 
ATOM      7  O   UNL A   1      31.400  30.541  25.551  1.00  0.00    -0.252 OA
BRANCH   6   8
ATOM      8  C   UNL A   1      31.436  28.137  25.420  1.00  0.00     0.144 C 
BRANCH   8   9
ATOM      9  C   UNL A   1      32.172  27.283  24.404  1.00  0.00     0.134 C 
BRANCH   9  10
ATOM     10  N   UNL A   1      32.488  25.994  24.935  1.00  0.00    -0.346 N 
ATOM     11  C   UNL A   1      33.912  24.575  25.746  1.00  0.00     0.024 A 
ATOM     12  C   UNL A   1      33.272  25.772  26.032  1.00  0.00     0.094 A 
ATOM     13  C   UNL A   1      33.791  24.414  24.332  1.00  0.00     0.007 A 
ATOM     14  C   UNL A   1      32.508  24.882  24.137  1.00  0.00     0.048 A 
ATOM     15  C   UNL A   1      34.381  23.660  23.310  1.00  0.00     0.011 A 
ATOM     16  C   UNL A   1      31.628  24.357  23.202  1.00  0.00     0.027 A 
ATOM     17  C   UNL A   1      33.562  23.231  22.259  1.00  0.00     0.001 A 
ATOM     18  C   UNL A   1      32.187  23.484  22.272  1.00  0.00     0.002 A 
BRANCH  11  19
ATOM     19  C   UNL A   1      34.209  23.490  26.738  1.00  0.00     0.255 C 
ATOM     20  C   UNL A   1      34.346  19.375  24.861  1.00  0.00     0.062 A 
ATOM     21  C   UNL A   1      35.769  19.697  24.861  1.00  0.00     0.018 A 
ATOM     22  C   UNL A   1      33.409  20.248  25.271  1.00  0.00     0.046 A 
ATOM     23  C   UNL A   1      36.262  20.863  25.303  1.00  0.00     0.031 A 
ATOM     24  C   UNL A   1      33.874  21.516  25.851  1.00  0.00     0.087 A 
ATOM     25  C   UNL A   1      35.316  21.830  25.865  1.00  0.00     0.086 A 
ATOM     26  N   UNL A   1      33.195  22.407  26.481  1.00  0.00    -0.252 NA
ATOM     27  N   UNL A   1      35.573  22.931  26.483  1.00  0.00    -0.252 NA
BRANCH  20  28
ATOM     28  C   UNL A   1      33.854  18.026  24.430  1.00  0.00     0.337 C 
ATOM     29  O   UNL A   1      34.332  17.358  23.546  1.00  0.00    -0.246 OA
BRANCH  28  30
ATOM     30  O   UNL A   1      32.740  17.713  25.159  1.00  0.00    -0.465 OA
ATOM     31  C   UNL A   1      32.548  16.314  25.368  1.00  0.00     0.282 C 
ENDBRANCH  28  30
ENDBRANCH  20  28
ENDBRANCH  11  19
ENDBRANCH   9  10
ENDBRANCH   8   9
ENDBRANCH   6   8
ENDBRANCH   5   6
ENDBRANCH   4   5
ENDBRANCH   3   4
ENDBRANCH   2   3
ENDBRANCH   1   2
BRANCH   1  32
ATOM     32  C   UNL A   1      34.551  33.567  28.134  1.00  0.00     0.188 C 
BRANCH  32  33
ATOM     33  O   UNL A   1      34.379  34.913  28.485  1.00  0.00    -0.376 OA
BRANCH  33  34
ATOM     34  C   UNL A   1      33.080  35.380  28.769  1.00  0.00     0.202 C 
BRANCH  34  35
ATOM     35  C   UNL A   1      32.760  36.047  30.126  1.00  0.00     0.261 C 
BRANCH  35  36
ATOM     36  O   UNL A   1      32.441  35.148  31.206  1.00  0.00    -0.460 OA
BRANCH  36  37
ATOM     37  C   UNL A   1      32.888  35.499  32.454  1.00  0.00     0.338 C 
ATOM     38  O   UNL A   1      32.220  36.017  33.333  1.00  0.00    -0.246 OA
BRANCH  37  39
ATOM     39  C   UNL A   1      34.206  34.813  32.691  1.00  0.00     0.060 A 
ATOM     40  C   UNL A   1      35.388  35.542  32.882  1.00  0.00     0.016 A 
ATOM     41  C   UNL A   1      34.293  33.464  32.300  1.00  0.00     0.016 A 
ATOM     42  C   UNL A   1      36.630  34.958  32.570  1.00  0.00     0.010 A 
ATOM     43  C   UNL A   1      35.537  32.892  31.979  1.00  0.00     0.010 A 
ATOM     44  C   UNL A   1      36.717  33.645  32.067  1.00  0.00    -0.014 A 
BRANCH  44  45
ATOM     45  C   UNL A   1      38.041  32.976  31.995  1.00  0.00     0.031 A 
ATOM     46  C   UNL A   1      38.768  33.058  33.276  1.00  0.00     0.074 A 
ATOM     47  C   UNL A   1      38.649  32.265  31.016  1.00  0.00     0.049 A 
ATOM     48  N   UNL A   1      39.854  33.734  33.457  1.00  0.00    -0.248 NA
ATOM     49  C   UNL A   1      38.156  32.531  34.496  1.00  0.00     0.031 C 
ATOM     50  C   UNL A   1      38.265  32.110  29.641  1.00  0.00     0.029 A 
ATOM     51  N   UNL A   1      39.756  31.453  31.058  1.00  0.00    -0.354 N 
ATOM     52  C   UNL A   1      40.195  33.535  34.783  1.00  0.00     0.074 A 
ATOM     53  C   UNL A   1      39.030  32.957  35.408  1.00  0.00     0.031 C 
ATOM     54  C   UNL A   1      38.796  31.002  29.083  1.00  0.00     0.029 A 
ATOM     55  C   UNL A   1      39.823  30.542  29.997  1.00  0.00     0.049 A 
ATOM     56  H   UNL A   1      40.438  31.506  31.766  1.00  0.00     0.167 HD
ATOM     57  C   UNL A   1      41.485  33.653  35.197  1.00  0.00     0.034 A 
ATOM     58  C   UNL A   1      40.804  29.696  29.582  1.00  0.00     0.034 A 
ATOM     59  C   UNL A   1      42.295  34.339  34.223  1.00  0.00     0.049 A 
ATOM     60  C   UNL A   1      42.069  30.186  30.158  1.00  0.00     0.074 A 
ATOM     61  C   UNL A   1      42.305  35.609  33.686  1.00  0.00     0.029 A 
ATOM     62  N   UNL A   1      43.093  33.579  33.404  1.00  0.00    -0.354 N 
ATOM     63  N   UNL A   1      42.667  31.264  29.728  1.00  0.00    -0.248 NA
ATOM     64  C   UNL A   1      42.368  29.793  31.524  1.00  0.00     0.031 C 
ATOM     65  C   UNL A   1      42.731  35.442  32.338  1.00  0.00     0.029 A 
ATOM     66  C   UNL A   1      43.013  34.090  32.136  1.00  0.00     0.049 A 
ATOM     67  H   UNL A   1      43.631  32.802  33.681  1.00  0.00     0.167 HD
ATOM     68  C   UNL A   1      43.018  31.937  30.887  1.00  0.00     0.074 A 
ATOM     69  C   UNL A   1      42.865  30.951  31.959  1.00  0.00     0.031 C 
ATOM     70  C   UNL A   1      43.120  33.298  30.924  1.00  0.00     0.034 A 
BRANCH  57  71
ATOM     71  C   UNL A   1      42.069  32.837  36.319  1.00  0.00     0.023 A 
ATOM     72  C   UNL A   1      42.568  31.535  36.139  1.00  0.00     0.031 A 
ATOM     73  C   UNL A   1      42.347  33.439  37.562  1.00  0.00     0.131 A 
ATOM     74  C   UNL A   1      43.283  30.875  37.144  1.00  0.00     0.055 A 
ATOM     75  C   UNL A   1      43.123  32.808  38.540  1.00  0.00     0.041 A 
ATOM     76  F   UNL A   1      41.924  34.682  37.840  1.00  0.00    -0.206 F 
ATOM     77  C   UNL A   1      43.595  31.518  38.335  1.00  0.00     0.022 A 
BRANCH  74  78
ATOM     78  S   UNL A   1      43.823  29.162  36.902  1.00  0.00     0.124 S 
ATOM     79  O   UNL A   1      44.520  28.888  38.155  1.00  0.00    -0.237 OA
ATOM     80  O   UNL A   1      42.548  28.473  36.722  1.00  0.00    -0.237 OA
ATOM     81  O   UNL A   1      44.661  29.231  35.707  1.00  0.00    -0.744 OA
ENDBRANCH  74  78
ENDBRANCH  57  71
BRANCH  58  82
ATOM     82  C   UNL A   1      40.533  28.254  29.321  1.00  0.00     0.023 A 
ATOM     83  C   UNL A   1      41.255  27.576  28.320  1.00  0.00     0.031 A 
ATOM     84  C   UNL A   1      39.429  27.584  29.877  1.00  0.00     0.131 A 
ATOM     85  C   UNL A   1      40.835  26.324  27.853  1.00  0.00     0.055 A 
ATOM     86  C   UNL A   1      39.030  26.314  29.433  1.00  0.00     0.041 A 
ATOM     87  F   UNL A   1      38.686  28.169  30.830  1.00  0.00    -0.206 F 
ATOM     88  C   UNL A   1      39.724  25.684  28.402  1.00  0.00     0.022 A 
BRANCH  85  89
ATOM     89  S   UNL A   1      41.692  25.552  26.452  1.00  0.00     0.124 S 
ATOM     90  O   UNL A   1      41.224  24.170  26.520  1.00  0.00    -0.237 OA
ATOM     91  O   UNL A   1      41.184  26.333  25.331  1.00  0.00    -0.237 OA
ATOM     92  O   UNL A   1      43.105  25.741  26.771  1.00  0.00    -0.744 OA
ENDBRANCH  85  89
ENDBRANCH  58  82
BRANCH  70  93
ATOM     93  C   UNL A   1      43.100  34.093  29.636  1.00  0.00     0.023 A 
ATOM     94  C   UNL A   1      44.348  34.504  29.136  1.00  0.00     0.031 A 
ATOM     95  C   UNL A   1      41.950  34.702  29.099  1.00  0.00     0.131 A 
ATOM     96  C   UNL A   1      44.432  35.554  28.215  1.00  0.00     0.055 A 
ATOM     97  C   UNL A   1      42.034  35.701  28.120  1.00  0.00     0.041 A 
ATOM     98  F   UNL A   1      40.729  34.427  29.578  1.00  0.00    -0.206 F 
ATOM     99  C   UNL A   1      43.281  36.152  27.695  1.00  0.00     0.022 A 
BRANCH  96 100
ATOM    100  S   UNL A   1      46.041  36.295  27.832  1.00  0.00     0.124 S 
ATOM    101  O   UNL A   1      45.665  37.612  27.329  1.00  0.00    -0.237 OA
ATOM    102  O   UNL A   1      46.702  36.287  29.136  1.00  0.00    -0.237 OA
ATOM    103  O   UNL A   1      46.620  35.391  26.842  1.00  0.00    -0.744 OA
ENDBRANCH  96 100
ENDBRANCH  70  93
ENDBRANCH  44  45
ENDBRANCH  37  39
ENDBRANCH  36  37
ENDBRANCH  35  36
ENDBRANCH  34  35
ENDBRANCH  33  34
ENDBRANCH  32  33
ENDBRANCH   1  32
TORSDOF 25
ENDMDL
MODEL 2
REMARK VINA RESULT:      -9.6      6.648     13.352
REMARK SMILES COC(=O)c1ccc2c(c1)=N[C@H](c1cn(CCC(=O)OCCOCCOCCOC(=O)c3ccc(-c4c5nc(c(-c6cc(S(=O)(=O)[O-])ccc6F)c6ccc([nH]6)c(-c6cc(S(=O)(=O)[O-])ccc6F)c6nc(c(-c7cc(S(=O)(=O)[O-])ccc7F)c7ccc4[nH]7)C=C6)C=C5)cc3)c3ccccc13)N=2
REMARK SMILES IDX 24 1 23 2 22 3 21 4 20 5 18 6 19 7 17 8 16 9 15 10 13 11
REMARK SMILES IDX 14 12 100 13 95 14 99 15 96 16 98 17 97 18 12 19 5 20 6 21
REMARK SMILES IDX 10 22 7 23 9 24 8 25 11 26 101 27 3 28 4 29 2 30 1 31 25 32
REMARK SMILES IDX 26 33 27 34 28 35 29 36 30 37 31 38 32 39 33 40 94 41 34 42
REMARK SMILES IDX 93 43 35 44 36 45 37 46 87 47 38 48 92 49 86 50 88 51 39 52
REMARK SMILES IDX 91 53 85 54 84 55 40 57 72 58 52 59 71 60 53 61 56 62 70 63
REMARK SMILES IDX 89 64 54 65 55 66 69 68 90 69 57 70 41 71 42 72 50 73 43 74
REMARK SMILES IDX 49 75 51 76 48 77 44 78 45 79 46 80 47 81 73 82 74 83 82 84
REMARK SMILES IDX 75 85 81 86 83 87 80 88 76 89 77 90 78 91 79 92 58 93 59 94
REMARK SMILES IDX 67 95 60 96 66 97 68 98 65 99 61 100 62 101 63 102 64 103
REMARK H PARENT 88 56 56 67
REMARK Flexibility Score: inf
ROOT
ATOM      1  C   UNL A   1      46.586  24.304  25.180  1.00  0.00     0.188 C 
ENDROOT
BRANCH   1   2
ATOM      2  O   UNL A   1      46.490  25.584  24.598  1.00  0.00    -0.376 OA
BRANCH   2   3
ATOM      3  C   UNL A   1      47.661  26.399  24.614  1.00  0.00     0.202 C 
BRANCH   3   4
ATOM      4  C   UNL A   1      48.848  25.998  25.506  1.00  0.00     0.261 C 
BRANCH   4   5
ATOM      5  O   UNL A   1      48.515  26.092  26.913  1.00  0.00    -0.463 OA
BRANCH   5   6
ATOM      6  C   UNL A   1      49.403  25.528  27.766  1.00  0.00     0.307 C 
ATOM      7  O   UNL A   1      49.673  24.327  27.717  1.00  0.00    -0.252 OA
BRANCH   6   8
ATOM      8  C   UNL A   1      50.280  26.493  28.576  1.00  0.00     0.144 C 
BRANCH   8   9
ATOM      9  C   UNL A   1      51.781  26.676  28.713  1.00  0.00     0.134 C 
BRANCH   9  10
ATOM     10  N   UNL A   1      52.373  27.084  27.477  1.00  0.00    -0.346 N 
ATOM     11  C   UNL A   1      52.266  27.386  25.333  1.00  0.00     0.024 A 
ATOM     12  C   UNL A   1      51.756  27.857  26.534  1.00  0.00     0.094 A 
ATOM     13  C   UNL A   1      52.801  26.096  25.634  1.00  0.00     0.007 A 
ATOM     14  C   UNL A   1      53.350  26.337  26.877  1.00  0.00     0.048 A 
ATOM     15  C   UNL A   1      53.203  24.943  24.948  1.00  0.00     0.011 A 
ATOM     16  C   UNL A   1      54.526  25.757  27.327  1.00  0.00     0.027 A 
ATOM     17  C   UNL A   1      54.298  24.232  25.451  1.00  0.00     0.001 A 
ATOM     18  C   UNL A   1      55.012  24.702  26.558  1.00  0.00     0.002 A 
BRANCH  11  19
ATOM     19  C   UNL A   1      52.614  28.232  24.144  1.00  0.00     0.255 C 
ATOM     20  C   UNL A   1      50.965  26.586  20.265  1.00  0.00     0.062 A 
ATOM     21  C   UNL A   1      49.923  27.554  20.588  1.00  0.00     0.018 A 
ATOM     22  C   UNL A   1      52.003  26.343  21.084  1.00  0.00     0.046 A 
ATOM     23  C   UNL A   1      49.933  28.306  21.699  1.00  0.00     0.031 A 
ATOM     24  C   UNL A   1      52.132  27.187  22.281  1.00  0.00     0.087 A 
ATOM     25  C   UNL A   1      51.084  28.178  22.595  1.00  0.00     0.086 A 
ATOM     26  N   UNL A   1      53.123  27.280  23.095  1.00  0.00    -0.252 NA
ATOM     27  N   UNL A   1      51.381  28.899  23.620  1.00  0.00    -0.252 NA
BRANCH  20  28
ATOM     28  C   UNL A   1      50.948  25.828  18.971  1.00  0.00     0.337 C 
ATOM     29  O   UNL A   1      50.945  24.626  18.866  1.00  0.00    -0.246 OA
BRANCH  28  30
ATOM     30  O   UNL A   1      51.002  26.724  17.940  1.00  0.00    -0.465 OA
ATOM     31  C   UNL A   1      52.325  27.071  17.531  1.00  0.00     0.282 C 
ENDBRANCH  28  30
ENDBRANCH  20  28
ENDBRANCH  11  19
ENDBRANCH   9  10
ENDBRANCH   8   9
ENDBRANCH   6   8
ENDBRANCH   5   6
ENDBRANCH   4   5
ENDBRANCH   3   4
ENDBRANCH   2   3
ENDBRANCH   1   2
BRANCH   1  32
ATOM     32  C   UNL A   1      45.494  23.302  24.835  1.00  0.00     0.188 C 
BRANCH  32  33
ATOM     33  O   UNL A   1      44.321  23.145  25.587  1.00  0.00    -0.376 OA
BRANCH  33  34
ATOM     34  C   UNL A   1      43.277  22.357  25.061  1.00  0.00     0.202 C 
BRANCH  34  35
ATOM     35  C   UNL A   1      42.554  21.315  25.943  1.00  0.00     0.261 C 
BRANCH  35  36
ATOM     36  O   UNL A   1      41.855  21.839  27.090  1.00  0.00    -0.460 OA
BRANCH  36  37
ATOM     37  C   UNL A   1      40.652  22.453  26.853  1.00  0.00     0.338 C 
ATOM     38  O   UNL A   1      39.581  21.891  26.704  1.00  0.00    -0.246 OA
BRANCH  37  39
ATOM     39  C   UNL A   1      40.799  23.916  27.175  1.00  0.00     0.060 A 
ATOM     40  C   UNL A   1      41.902  24.401  27.891  1.00  0.00     0.016 A 
ATOM     41  C   UNL A   1      39.628  24.693  27.116  1.00  0.00     0.016 A 
ATOM     42  C   UNL A   1      41.787  25.593  28.632  1.00  0.00     0.010 A 
ATOM     43  C   UNL A   1      39.518  25.876  27.869  1.00  0.00     0.010 A 
ATOM     44  C   UNL A   1      40.580  26.317  28.672  1.00  0.00    -0.014 A 
BRANCH  44  45
ATOM     45  C   UNL A   1      40.569  27.688  29.243  1.00  0.00     0.031 A 
ATOM     46  C   UNL A   1      41.537  28.573  28.568  1.00  0.00     0.074 A 
ATOM     47  C   UNL A   1      39.803  28.270  30.196  1.00  0.00     0.049 A 
ATOM     48  N   UNL A   1      42.596  29.057  29.126  1.00  0.00    -0.248 NA
ATOM     49  C   UNL A   1      41.450  28.777  27.122  1.00  0.00     0.031 C 
ATOM     50  C   UNL A   1      38.875  27.660  31.107  1.00  0.00     0.029 A 
ATOM     51  N   UNL A   1      39.645  29.593  30.531  1.00  0.00    -0.354 N 
ATOM     52  C   UNL A   1      43.207  29.826  28.151  1.00  0.00     0.074 A 
ATOM     53  C   UNL A   1      42.572  29.464  26.907  1.00  0.00     0.031 C 
ATOM     54  C   UNL A   1      37.966  28.539  31.577  1.00  0.00     0.029 A 
ATOM     55  C   UNL A   1      38.461  29.857  31.230  1.00  0.00     0.049 A 
ATOM     56  H   UNL A   1      40.301  30.290  30.300  1.00  0.00     0.167 HD
ATOM     57  C   UNL A   1      44.025  30.859  28.488  1.00  0.00     0.034 A 
ATOM     58  C   UNL A   1      38.010  30.968  31.871  1.00  0.00     0.034 A 
ATOM     59  C   UNL A   1      44.434  30.785  29.867  1.00  0.00     0.049 A 
ATOM     60  C   UNL A   1      39.184  31.814  32.149  1.00  0.00     0.074 A 
ATOM     61  C   UNL A   1      45.175  29.897  30.618  1.00  0.00     0.029 A 
ATOM     62  N   UNL A   1      43.783  31.588  30.772  1.00  0.00    -0.354 N 
ATOM     63  N   UNL A   1      40.068  31.514  33.062  1.00  0.00    -0.248 NA
ATOM     64  C   UNL A   1      39.645  32.675  31.074  1.00  0.00     0.031 C 
ATOM     65  C   UNL A   1      44.584  29.915  31.912  1.00  0.00     0.029 A 
ATOM     66  C   UNL A   1      43.550  30.854  31.904  1.00  0.00     0.049 A 
ATOM     67  H   UNL A   1      43.529  32.529  30.631  1.00  0.00     0.167 HD
ATOM     68  C   UNL A   1      41.284  31.734  32.436  1.00  0.00     0.074 A 
ATOM     69  C   UNL A   1      40.958  32.510  31.237  1.00  0.00     0.031 C 
ATOM     70  C   UNL A   1      42.404  31.033  32.777  1.00  0.00     0.034 A 
BRANCH  57  71
ATOM     71  C   UNL A   1      44.159  32.109  27.660  1.00  0.00     0.023 A 
ATOM     72  C   UNL A   1      43.528  33.320  27.995  1.00  0.00     0.031 A 
ATOM     73  C   UNL A   1      45.114  32.176  26.628  1.00  0.00     0.131 A 
ATOM     74  C   UNL A   1      43.823  34.513  27.328  1.00  0.00     0.055 A 
ATOM     75  C   UNL A   1      45.463  33.381  26.009  1.00  0.00     0.041 A 
ATOM     76  F   UNL A   1      45.783  31.082  26.230  1.00  0.00    -0.206 F 
ATOM     77  C   UNL A   1      44.815  34.560  26.357  1.00  0.00     0.022 A 
BRANCH  74  78
ATOM     78  S   UNL A   1      42.914  36.029  27.729  1.00  0.00     0.124 S 
ATOM     79  O   UNL A   1      43.839  36.702  28.636  1.00  0.00    -0.237 OA
ATOM     80  O   UNL A   1      42.763  36.639  26.410  1.00  0.00    -0.237 OA
ATOM     81  O   UNL A   1      41.675  35.540  28.327  1.00  0.00    -0.744 OA
ENDBRANCH  74  78
ENDBRANCH  57  71
BRANCH  58  82
ATOM     82  C   UNL A   1      36.650  31.521  31.612  1.00  0.00     0.023 A 
ATOM     83  C   UNL A   1      36.162  31.588  30.293  1.00  0.00     0.031 A 
ATOM     84  C   UNL A   1      35.909  32.188  32.602  1.00  0.00     0.131 A 
ATOM     85  C   UNL A   1      35.031  32.354  29.982  1.00  0.00     0.055 A 
ATOM     86  C   UNL A   1      34.756  32.928  32.296  1.00  0.00     0.041 A 
ATOM     87  F   UNL A   1      36.316  32.177  33.882  1.00  0.00    -0.206 F 
ATOM     88  C   UNL A   1      34.321  33.028  30.976  1.00  0.00     0.022 A 
BRANCH  85  89
ATOM     89  S   UNL A   1      34.525  32.551  28.251  1.00  0.00     0.124 S 
ATOM     90  O   UNL A   1      33.534  33.622  28.334  1.00  0.00    -0.237 OA
ATOM     91  O   UNL A   1      35.787  32.911  27.616  1.00  0.00    -0.237 OA
ATOM     92  O   UNL A   1      33.987  31.239  27.902  1.00  0.00    -0.744 OA
ENDBRANCH  85  89
ENDBRANCH  58  82
BRANCH  70  93
ATOM     93  C   UNL A   1      42.408  30.173  34.023  1.00  0.00     0.023 A 
ATOM     94  C   UNL A   1      43.113  30.680  35.130  1.00  0.00     0.031 A 
ATOM     95  C   UNL A   1      42.046  28.814  34.048  1.00  0.00     0.131 A 
ATOM     96  C   UNL A   1      43.522  29.827  36.161  1.00  0.00     0.055 A 
ATOM     97  C   UNL A   1      42.391  27.978  35.119  1.00  0.00     0.041 A 
ATOM     98  F   UNL A   1      41.446  28.234  32.999  1.00  0.00    -0.206 F 
ATOM     99  C   UNL A   1      43.158  28.477  36.168  1.00  0.00     0.022 A 
BRANCH  96 100
ATOM    100  S   UNL A   1      44.704  30.412  37.403  1.00  0.00     0.124 S 
ATOM    101  O   UNL A   1      45.148  31.681  36.835  1.00  0.00    -0.237 OA
ATOM    102  O   UNL A   1      43.869  30.518  38.598  1.00  0.00    -0.237 OA
ATOM    103  O   UNL A   1      45.718  29.362  37.449  1.00  0.00    -0.744 OA
ENDBRANCH  96 100
ENDBRANCH  70  93
ENDBRANCH  44  45
ENDBRANCH  37  39
ENDBRANCH  36  37
ENDBRANCH  35  36
ENDBRANCH  34  35
ENDBRANCH  33  34
ENDBRANCH  32  33
ENDBRANCH   1  32
TORSDOF 25
ENDMDL
MODEL 3
REMARK VINA RESULT:      -9.5      4.317     10.013
REMARK SMILES COC(=O)c1ccc2c(c1)=N[C@H](c1cn(CCC(=O)OCCOCCOCCOC(=O)c3ccc(-c4c5nc(c(-c6cc(S(=O)(=O)[O-])ccc6F)c6ccc([nH]6)c(-c6cc(S(=O)(=O)[O-])ccc6F)c6nc(c(-c7cc(S(=O)(=O)[O-])ccc7F)c7ccc4[nH]7)C=C6)C=C5)cc3)c3ccccc13)N=2
REMARK SMILES IDX 24 1 23 2 22 3 21 4 20 5 18 6 19 7 17 8 16 9 15 10 13 11
REMARK SMILES IDX 14 12 100 13 95 14 99 15 96 16 98 17 97 18 12 19 5 20 6 21
REMARK SMILES IDX 10 22 7 23 9 24 8 25 11 26 101 27 3 28 4 29 2 30 1 31 25 32
REMARK SMILES IDX 26 33 27 34 28 35 29 36 30 37 31 38 32 39 33 40 94 41 34 42
REMARK SMILES IDX 93 43 35 44 36 45 37 46 87 47 38 48 92 49 86 50 88 51 39 52
REMARK SMILES IDX 91 53 85 54 84 55 40 57 72 58 52 59 71 60 53 61 56 62 70 63
REMARK SMILES IDX 89 64 54 65 55 66 69 68 90 69 57 70 41 71 42 72 50 73 43 74
REMARK SMILES IDX 49 75 51 76 48 77 44 78 45 79 46 80 47 81 73 82 74 83 82 84
REMARK SMILES IDX 75 85 81 86 83 87 80 88 76 89 77 90 78 91 79 92 58 93 59 94
REMARK SMILES IDX 67 95 60 96 66 97 68 98 65 99 61 100 62 101 63 102 64 103
REMARK H PARENT 88 56 56 67
REMARK Flexibility Score: inf
ROOT
ATOM      1  C   UNL A   1      42.078  21.519  27.555  1.00  0.00     0.188 C 
ENDROOT
BRANCH   1   2
ATOM      2  O   UNL A   1      41.030  20.650  27.189  1.00  0.00    -0.376 OA
BRANCH   2   3
ATOM      3  C   UNL A   1      40.110  21.115  26.203  1.00  0.00     0.202 C 
BRANCH   3   4
ATOM      4  C   UNL A   1      38.959  20.200  25.753  1.00  0.00     0.261 C 
BRANCH   4   5
ATOM      5  O   UNL A   1      37.880  20.956  25.147  1.00  0.00    -0.463 OA
BRANCH   5   6
ATOM      6  C   UNL A   1      36.689  20.317  25.062  1.00  0.00     0.307 C 
ATOM      7  O   UNL A   1      36.620  19.095  24.916  1.00  0.00    -0.252 OA
BRANCH   6   8
ATOM      8  C   UNL A   1      35.449  21.126  25.469  1.00  0.00     0.144 C 
BRANCH   8   9
ATOM      9  C   UNL A   1      35.233  22.318  26.384  1.00  0.00     0.134 C 
BRANCH   9  10
ATOM     10  N   UNL A   1      34.058  23.048  26.022  1.00  0.00    -0.346 N 
ATOM     11  C   UNL A   1      31.905  23.194  25.816  1.00  0.00     0.024 A 
ATOM     12  C   UNL A   1      32.913  23.101  26.765  1.00  0.00     0.094 A 
ATOM     13  C   UNL A   1      32.499  22.749  24.595  1.00  0.00     0.007 A 
ATOM     14  C   UNL A   1      33.757  23.305  24.713  1.00  0.00     0.048 A 
ATOM     15  C   UNL A   1      32.089  22.306  23.332  1.00  0.00     0.011 A 
ATOM     16  C   UNL A   1      34.481  23.807  23.642  1.00  0.00     0.027 A 
ATOM     17  C   UNL A   1      32.873  22.661  22.229  1.00  0.00     0.001 A 
ATOM     18  C   UNL A   1      33.986  23.494  22.379  1.00  0.00     0.002 A 
BRANCH  11  19
ATOM     19  C   UNL A   1      30.664  24.026  25.944  1.00  0.00     0.255 C 
ATOM     20  C   UNL A   1      31.439  28.448  25.379  1.00  0.00     0.062 A 
ATOM     21  C   UNL A   1      31.006  28.096  24.030  1.00  0.00     0.018 A 
ATOM     22  C   UNL A   1      31.584  27.532  26.352  1.00  0.00     0.046 A 
ATOM     23  C   UNL A   1      30.680  26.849  23.662  1.00  0.00     0.031 A 
ATOM     24  C   UNL A   1      31.166  26.155  26.052  1.00  0.00     0.087 A 
ATOM     25  C   UNL A   1      30.711  25.807  24.692  1.00  0.00     0.086 A 
ATOM     26  N   UNL A   1      31.023  25.166  26.860  1.00  0.00    -0.252 NA
ATOM     27  N   UNL A   1      30.294  24.591  24.609  1.00  0.00    -0.252 NA
BRANCH  20  28
ATOM     28  C   UNL A   1      31.715  29.872  25.759  1.00  0.00     0.337 C 
ATOM     29  O   UNL A   1      31.137  30.837  25.321  1.00  0.00    -0.246 OA
BRANCH  28  30
ATOM     30  O   UNL A   1      32.769  29.894  26.630  1.00  0.00    -0.465 OA
ATOM     31  C   UNL A   1      33.000  31.164  27.241  1.00  0.00     0.282 C 
ENDBRANCH  28  30
ENDBRANCH  20  28
ENDBRANCH  11  19
ENDBRANCH   9  10
ENDBRANCH   8   9
ENDBRANCH   6   8
ENDBRANCH   5   6
ENDBRANCH   4   5
ENDBRANCH   3   4
ENDBRANCH   2   3
ENDBRANCH   1   2
BRANCH   1  32
ATOM     32  C   UNL A   1      42.802  22.245  26.431  1.00  0.00     0.188 C 
BRANCH  32  33
ATOM     33  O   UNL A   1      43.112  21.651  25.199  1.00  0.00    -0.376 OA
BRANCH  33  34
ATOM     34  C   UNL A   1      44.375  21.047  25.035  1.00  0.00     0.202 C 
BRANCH  34  35
ATOM     35  C   UNL A   1      45.417  21.646  24.063  1.00  0.00     0.261 C 
BRANCH  35  36
ATOM     36  O   UNL A   1      45.428  23.083  23.963  1.00  0.00    -0.460 OA
BRANCH  36  37
ATOM     37  C   UNL A   1      46.612  23.713  24.248  1.00  0.00     0.338 C 
ATOM     38  O   UNL A   1      47.512  23.935  23.457  1.00  0.00    -0.246 OA
BRANCH  37  39
ATOM     39  C   UNL A   1      46.467  24.407  25.576  1.00  0.00     0.060 A 
ATOM     40  C   UNL A   1      46.289  23.685  26.764  1.00  0.00     0.016 A 
ATOM     41  C   UNL A   1      46.097  25.764  25.540  1.00  0.00     0.016 A 
ATOM     42  C   UNL A   1      45.641  24.287  27.859  1.00  0.00     0.010 A 
ATOM     43  C   UNL A   1      45.438  26.354  26.634  1.00  0.00     0.010 A 
ATOM     44  C   UNL A   1      45.161  25.610  27.791  1.00  0.00    -0.014 A 
BRANCH  44  45
ATOM     45  C   UNL A   1      44.721  26.293  29.034  1.00  0.00     0.031 A 
ATOM     46  C   UNL A   1      43.417  26.962  28.860  1.00  0.00     0.074 A 
ATOM     47  C   UNL A   1      45.252  26.350  30.278  1.00  0.00     0.049 A 
ATOM     48  N   UNL A   1      43.245  28.242  28.876  1.00  0.00    -0.248 NA
ATOM     49  C   UNL A   1      42.252  26.186  28.435  1.00  0.00     0.031 C 
ATOM     50  C   UNL A   1      46.545  25.916  30.728  1.00  0.00     0.029 A 
ATOM     51  N   UNL A   1      44.707  26.777  31.464  1.00  0.00    -0.354 N 
ATOM     52  C   UNL A   1      41.889  28.433  28.685  1.00  0.00     0.074 A 
ATOM     53  C   UNL A   1      41.370  27.165  28.233  1.00  0.00     0.031 C 
ATOM     54  C   UNL A   1      46.573  25.688  32.058  1.00  0.00     0.029 A 
ATOM     55  C   UNL A   1      45.362  26.276  32.595  1.00  0.00     0.049 A 
ATOM     56  H   UNL A   1      43.928  27.379  31.514  1.00  0.00     0.167 HD
ATOM     57  C   UNL A   1      41.273  29.560  29.133  1.00  0.00     0.034 A 
ATOM     58  C   UNL A   1      45.250  26.570  33.918  1.00  0.00     0.034 A 
ATOM     59  C   UNL A   1      42.223  30.595  29.450  1.00  0.00     0.049 A 
ATOM     60  C   UNL A   1      44.616  27.897  34.013  1.00  0.00     0.074 A 
ATOM     61  C   UNL A   1      43.139  31.331  28.728  1.00  0.00     0.029 A 
ATOM     62  N   UNL A   1      42.551  30.782  30.771  1.00  0.00    -0.354 N 
ATOM     63  N   UNL A   1      45.243  29.001  33.710  1.00  0.00    -0.248 NA
ATOM     64  C   UNL A   1      43.167  27.943  33.926  1.00  0.00     0.031 C 
ATOM     65  C   UNL A   1      44.229  31.548  29.616  1.00  0.00     0.029 A 
ATOM     66  C   UNL A   1      43.902  30.985  30.851  1.00  0.00     0.049 A 
ATOM     67  H   UNL A   1      41.922  30.772  31.528  1.00  0.00     0.167 HD
ATOM     68  C   UNL A   1      44.329  29.705  32.942  1.00  0.00     0.074 A 
ATOM     69  C   UNL A   1      43.047  29.032  33.165  1.00  0.00     0.031 C 
ATOM     70  C   UNL A   1      44.728  30.582  31.975  1.00  0.00     0.034 A 
BRANCH  57  71
ATOM     71  C   UNL A   1      39.846  29.585  29.610  1.00  0.00     0.023 A 
ATOM     72  C   UNL A   1      39.494  29.641  30.971  1.00  0.00     0.031 A 
ATOM     73  C   UNL A   1      38.795  29.783  28.693  1.00  0.00     0.131 A 
ATOM     74  C   UNL A   1      38.176  29.863  31.383  1.00  0.00     0.055 A 
ATOM     75  C   UNL A   1      37.491  30.077  29.103  1.00  0.00     0.041 A 
ATOM     76  F   UNL A   1      39.017  29.758  27.369  1.00  0.00    -0.206 F 
ATOM     77  C   UNL A   1      37.174  30.118  30.455  1.00  0.00     0.022 A 
BRANCH  74  78
ATOM     78  S   UNL A   1      37.755  29.831  33.145  1.00  0.00     0.124 S 
ATOM     79  O   UNL A   1      36.959  31.046  33.285  1.00  0.00    -0.237 OA
ATOM     80  O   UNL A   1      37.017  28.574  33.248  1.00  0.00    -0.237 OA
ATOM     81  O   UNL A   1      39.055  29.838  33.810  1.00  0.00    -0.744 OA
ENDBRANCH  74  78
ENDBRANCH  57  71
BRANCH  58  82
ATOM     82  C   UNL A   1      45.066  25.504  34.942  1.00  0.00     0.023 A 
ATOM     83  C   UNL A   1      45.899  25.472  36.077  1.00  0.00     0.031 A 
ATOM     84  C   UNL A   1      44.239  24.388  34.725  1.00  0.00     0.131 A 
ATOM     85  C   UNL A   1      45.951  24.340  36.900  1.00  0.00     0.055 A 
ATOM     86  C   UNL A   1      44.266  23.268  35.570  1.00  0.00     0.041 A 
ATOM     87  F   UNL A   1      43.424  24.341  33.660  1.00  0.00    -0.206 F 
ATOM     88  C   UNL A   1      45.139  23.232  36.655  1.00  0.00     0.022 A 
BRANCH  85  89
ATOM     89  S   UNL A   1      47.153  24.268  38.258  1.00  0.00     0.124 S 
ATOM     90  O   UNL A   1      46.450  24.960  39.336  1.00  0.00    -0.237 OA
ATOM     91  O   UNL A   1      47.310  22.828  38.433  1.00  0.00    -0.237 OA
ATOM     92  O   UNL A   1      48.314  24.975  37.724  1.00  0.00    -0.744 OA
ENDBRANCH  85  89
ENDBRANCH  58  82
BRANCH  70  93
ATOM     93  C   UNL A   1      46.180  30.999  31.885  1.00  0.00     0.023 A 
ATOM     94  C   UNL A   1      47.069  30.055  31.338  1.00  0.00     0.031 A 
ATOM     95  C   UNL A   1      46.735  32.090  32.579  1.00  0.00     0.131 A 
ATOM     96  C   UNL A   1      48.444  30.158  31.573  1.00  0.00     0.055 A 
ATOM     97  C   UNL A   1      48.120  32.231  32.747  1.00  0.00     0.041 A 
ATOM     98  F   UNL A   1      45.957  32.988  33.199  1.00  0.00    -0.206 F 
ATOM     99  C   UNL A   1      48.979  31.246  32.268  1.00  0.00     0.022 A 
BRANCH  96 100
ATOM    100  S   UNL A   1      49.538  28.774  31.156  1.00  0.00     0.124 S 
ATOM    101  O   UNL A   1      49.313  27.854  32.266  1.00  0.00    -0.237 OA
ATOM    102  O   UNL A   1      49.007  28.340  29.865  1.00  0.00    -0.237 OA
ATOM    103  O   UNL A   1      50.867  29.377  31.105  1.00  0.00    -0.744 OA
ENDBRANCH  96 100
ENDBRANCH  70  93
ENDBRANCH  44  45
ENDBRANCH  37  39
ENDBRANCH  36  37
ENDBRANCH  35  36
ENDBRANCH  34  35
ENDBRANCH  33  34
ENDBRANCH  32  33
ENDBRANCH   1  32
TORSDOF 25
ENDMDL
