MODEL 1
REMARK VINA RESULT:     -11.1      0.000      0.000
REMARK SMILES O=C(OCCOCCOCCOC(=O)[C@H]1CS[C@]2(c3ccccc3)CCC(=O)N12)c1ccc(-c2c3nc(c(-c4cc(S(=O)(=O)[O-])ccc4F)c4ccc([nH]4)c(-c4cc(S(=O)(=O)[O-])ccc4F)c4nc(c(-c5cc(S(=O)(=O)[O-])ccc5F)c5ccc2[nH]5)C=C4)C=C3)cc1
REMARK SMILES IDX 7 1 6 2 5 3 4 4 3 5 2 6 1 7 30 8 31 9 92 10 32 11 91 12
REMARK SMILES IDX 33 13 34 14 35 15 85 16 36 17 90 18 84 19 86 20 37 21 89 22
REMARK SMILES IDX 83 23 82 24 38 26 70 27 50 28 69 29 51 30 54 31 68 32 87 33
REMARK SMILES IDX 52 34 53 35 67 37 88 38 55 39 39 40 40 41 48 42 41 43 47 44
REMARK SMILES IDX 49 45 46 46 42 47 43 48 44 49 45 50 71 51 72 52 80 53 73 54
REMARK SMILES IDX 79 55 81 56 78 57 74 58 75 59 76 60 77 61 56 62 57 63 65 64
REMARK SMILES IDX 58 65 64 66 66 67 63 68 59 69 60 70 61 71 62 72 8 73 9 74
REMARK SMILES IDX 10 75 11 76 12 77 13 78 14 79 15 80 16 81 29 82 17 83 18 84
REMARK SMILES IDX 27 85 25 86 26 87 28 88 19 89 20 90 24 91 21 92 23 93 22 94
REMARK H PARENT 86 25 54 36
REMARK Flexibility Score: inf
ROOT
ATOM      1  C   UNL A   1      33.656  20.608  25.988  1.00  0.00     0.188 C 
ENDROOT
BRANCH   1   2
ATOM      2  O   UNL A   1      34.979  21.121  25.920  1.00  0.00    -0.376 OA
BRANCH   2   3
ATOM      3  C   UNL A   1      35.894  20.524  25.002  1.00  0.00     0.202 C 
BRANCH   3   4
ATOM      4  C   UNL A   1      37.307  21.109  24.849  1.00  0.00     0.261 C 
BRANCH   4   5
ATOM      5  O   UNL A   1      37.801  21.825  25.986  1.00  0.00    -0.460 OA
BRANCH   5   6
ATOM      6  C   UNL A   1      39.089  21.957  26.369  1.00  0.00     0.338 C 
ATOM      7  O   UNL A   1      39.830  20.977  26.324  1.00  0.00    -0.246 OA
BRANCH   6   8
ATOM      8  C   UNL A   1      39.647  23.235  26.876  1.00  0.00     0.060 A 
ATOM      9  C   UNL A   1      40.633  23.342  27.855  1.00  0.00     0.016 A 
ATOM     10  C   UNL A   1      39.304  24.380  26.161  1.00  0.00     0.016 A 
ATOM     11  C   UNL A   1      41.165  24.573  28.218  1.00  0.00     0.010 A 
ATOM     12  C   UNL A   1      39.984  25.576  26.385  1.00  0.00     0.010 A 
ATOM     13  C   UNL A   1      40.852  25.707  27.479  1.00  0.00    -0.014 A 
BRANCH  13  14
ATOM     14  C   UNL A   1      41.248  27.053  27.963  1.00  0.00     0.031 A 
ATOM     15  C   UNL A   1      42.638  27.521  27.620  1.00  0.00     0.074 A 
ATOM     16  C   UNL A   1      40.391  27.848  28.634  1.00  0.00     0.049 A 
ATOM     17  N   UNL A   1      43.323  28.528  28.086  1.00  0.00    -0.248 NA
ATOM     18  C   UNL A   1      43.396  26.675  26.680  1.00  0.00     0.031 C 
ATOM     19  C   UNL A   1      39.010  27.515  28.990  1.00  0.00     0.029 A 
ATOM     20  N   UNL A   1      40.548  29.126  29.104  1.00  0.00    -0.354 N 
ATOM     21  C   UNL A   1      44.611  28.357  27.584  1.00  0.00     0.074 A 
ATOM     22  C   UNL A   1      44.629  27.098  26.881  1.00  0.00     0.031 C 
ATOM     23  C   UNL A   1      38.421  28.591  29.540  1.00  0.00     0.029 A 
ATOM     24  C   UNL A   1      39.405  29.661  29.656  1.00  0.00     0.049 A 
ATOM     25  H   UNL A   1      41.399  29.618  29.052  1.00  0.00     0.167 HD
ATOM     26  C   UNL A   1      45.666  29.201  27.656  1.00  0.00     0.034 A 
ATOM     27  C   UNL A   1      39.197  30.879  30.196  1.00  0.00     0.034 A 
ATOM     28  C   UNL A   1      45.558  30.502  28.258  1.00  0.00     0.049 A 
ATOM     29  C   UNL A   1      40.378  31.822  30.251  1.00  0.00     0.074 A 
ATOM     30  C   UNL A   1      46.520  31.483  28.393  1.00  0.00     0.029 A 
ATOM     31  N   UNL A   1      44.381  31.014  28.799  1.00  0.00    -0.354 N 
ATOM     32  N   UNL A   1      41.609  31.636  29.824  1.00  0.00    -0.248 NA
ATOM     33  C   UNL A   1      40.145  33.134  30.861  1.00  0.00     0.031 C 
ATOM     34  C   UNL A   1      45.938  32.567  29.060  1.00  0.00     0.029 A 
ATOM     35  C   UNL A   1      44.593  32.295  29.272  1.00  0.00     0.049 A 
ATOM     36  H   UNL A   1      43.524  30.533  28.839  1.00  0.00     0.167 HD
ATOM     37  C   UNL A   1      42.286  32.825  30.079  1.00  0.00     0.074 A 
ATOM     38  C   UNL A   1      41.318  33.723  30.683  1.00  0.00     0.031 C 
ATOM     39  C   UNL A   1      43.583  33.156  29.845  1.00  0.00     0.034 A 
BRANCH  26  40
ATOM     40  C   UNL A   1      46.984  28.702  27.107  1.00  0.00     0.023 A 
ATOM     41  C   UNL A   1      47.237  28.628  25.723  1.00  0.00     0.031 A 
ATOM     42  C   UNL A   1      47.940  28.144  27.973  1.00  0.00     0.131 A 
ATOM     43  C   UNL A   1      48.324  27.878  25.247  1.00  0.00     0.055 A 
ATOM     44  C   UNL A   1      49.085  27.503  27.494  1.00  0.00     0.041 A 
ATOM     45  F   UNL A   1      47.752  28.163  29.302  1.00  0.00    -0.206 F 
ATOM     46  C   UNL A   1      49.267  27.338  26.123  1.00  0.00     0.022 A 
BRANCH  43  47
ATOM     47  S   UNL A   1      48.351  27.416  23.490  1.00  0.00     0.124 S 
ATOM     48  O   UNL A   1      47.219  28.181  22.969  1.00  0.00    -0.237 OA
ATOM     49  O   UNL A   1      49.670  27.864  23.062  1.00  0.00    -0.237 OA
ATOM     50  O   UNL A   1      48.157  25.968  23.512  1.00  0.00    -0.744 OA
ENDBRANCH  43  47
ENDBRANCH  26  40
BRANCH  27  51
ATOM     51  C   UNL A   1      37.857  31.282  30.723  1.00  0.00     0.023 A 
ATOM     52  C   UNL A   1      36.915  31.919  29.895  1.00  0.00     0.031 A 
ATOM     53  C   UNL A   1      37.511  31.089  32.073  1.00  0.00     0.131 A 
ATOM     54  C   UNL A   1      35.703  32.386  30.432  1.00  0.00     0.055 A 
ATOM     55  C   UNL A   1      36.278  31.501  32.588  1.00  0.00     0.041 A 
ATOM     56  F   UNL A   1      38.371  30.501  32.918  1.00  0.00    -0.206 F 
ATOM     57  C   UNL A   1      35.373  32.168  31.770  1.00  0.00     0.022 A 
BRANCH  54  58
ATOM     58  S   UNL A   1      34.605  33.379  29.379  1.00  0.00     0.124 S 
ATOM     59  O   UNL A   1      35.546  34.303  28.755  1.00  0.00    -0.237 OA
ATOM     60  O   UNL A   1      34.024  32.367  28.503  1.00  0.00    -0.237 OA
ATOM     61  O   UNL A   1      33.676  33.985  30.330  1.00  0.00    -0.744 OA
ENDBRANCH  54  58
ENDBRANCH  27  51
BRANCH  39  62
ATOM     62  C   UNL A   1      43.992  34.568  30.169  1.00  0.00     0.023 A 
ATOM     63  C   UNL A   1      44.503  34.920  31.429  1.00  0.00     0.031 A 
ATOM     64  C   UNL A   1      43.875  35.571  29.191  1.00  0.00     0.131 A 
ATOM     65  C   UNL A   1      44.822  36.258  31.697  1.00  0.00     0.055 A 
ATOM     66  C   UNL A   1      44.263  36.886  29.441  1.00  0.00     0.041 A 
ATOM     67  F   UNL A   1      43.393  35.283  27.971  1.00  0.00    -0.206 F 
ATOM     68  C   UNL A   1      44.726  37.238  30.705  1.00  0.00     0.022 A 
BRANCH  65  69
ATOM     69  S   UNL A   1      45.262  36.718  33.393  1.00  0.00     0.124 S 
ATOM     70  O   UNL A   1      45.847  35.481  33.902  1.00  0.00    -0.237 OA
ATOM     71  O   UNL A   1      46.190  37.825  33.185  1.00  0.00    -0.237 OA
ATOM     72  O   UNL A   1      43.980  37.089  33.990  1.00  0.00    -0.744 OA
ENDBRANCH  65  69
ENDBRANCH  39  62
ENDBRANCH  13  14
ENDBRANCH   6   8
ENDBRANCH   5   6
ENDBRANCH   4   5
ENDBRANCH   3   4
ENDBRANCH   2   3
ENDBRANCH   1   2
BRANCH   1  73
ATOM     73  C   UNL A   1      32.572  21.670  25.797  1.00  0.00     0.188 C 
BRANCH  73  74
ATOM     74  O   UNL A   1      31.750  21.586  24.642  1.00  0.00    -0.376 OA
BRANCH  74  75
ATOM     75  C   UNL A   1      32.420  21.532  23.387  1.00  0.00     0.202 C 
BRANCH  75  76
ATOM     76  C   UNL A   1      33.170  22.786  22.868  1.00  0.00     0.261 C 
BRANCH  76  77
ATOM     77  O   UNL A   1      32.379  23.972  22.564  1.00  0.00    -0.462 OA
BRANCH  77  78
ATOM     78  C   UNL A   1      33.092  25.129  22.537  1.00  0.00     0.329 C 
ATOM     79  O   UNL A   1      33.928  25.369  21.662  1.00  0.00    -0.250 OA
BRANCH  78  80
ATOM     80  C   UNL A   1      32.640  26.286  23.470  1.00  0.00     0.206 C 
ATOM     81  C   UNL A   1      33.673  27.411  23.428  1.00  0.00     0.109 C 
ATOM     82  N   UNL A   1      31.302  26.842  23.862  1.00  0.00    -0.309 N 
ATOM     83  S   UNL A   1      32.769  28.964  23.332  1.00  0.00    -0.126 SA
ATOM     84  C   UNL A   1      31.248  28.295  24.149  1.00  0.00     0.116 C 
ATOM     85  C   UNL A   1      30.862  26.165  25.031  1.00  0.00     0.224 C 
ATOM     86  C   UNL A   1      31.403  28.376  25.692  1.00  0.00     0.055 C 
ATOM     87  C   UNL A   1      31.425  26.952  26.194  1.00  0.00     0.104 C 
ATOM     88  O   UNL A   1      30.501  25.005  25.091  1.00  0.00    -0.275 OA
BRANCH  84  89
ATOM     89  C   UNL A   1      30.012  29.105  23.653  1.00  0.00    -0.012 A 
ATOM     90  C   UNL A   1      29.918  30.486  23.874  1.00  0.00     0.007 A 
ATOM     91  C   UNL A   1      28.834  28.505  23.126  1.00  0.00     0.007 A 
ATOM     92  C   UNL A   1      28.713  31.181  23.652  1.00  0.00     0.000 A 
ATOM     93  C   UNL A   1      27.664  29.221  22.826  1.00  0.00     0.000 A 
ATOM     94  C   UNL A   1      27.600  30.568  23.097  1.00  0.00     0.000 A 
ENDBRANCH  84  89
ENDBRANCH  78  80
ENDBRANCH  77  78
ENDBRANCH  76  77
ENDBRANCH  75  76
ENDBRANCH  74  75
ENDBRANCH  73  74
ENDBRANCH   1  73
TORSDOF 21
ENDMDL
MODEL 2
REMARK VINA RESULT:     -10.4      5.548     10.871
REMARK SMILES O=C(OCCOCCOCCOC(=O)[C@H]1CS[C@]2(c3ccccc3)CCC(=O)N12)c1ccc(-c2c3nc(c(-c4cc(S(=O)(=O)[O-])ccc4F)c4ccc([nH]4)c(-c4cc(S(=O)(=O)[O-])ccc4F)c4nc(c(-c5cc(S(=O)(=O)[O-])ccc5F)c5ccc2[nH]5)C=C4)C=C3)cc1
REMARK SMILES IDX 7 1 6 2 5 3 4 4 3 5 2 6 1 7 30 8 31 9 92 10 32 11 91 12
REMARK SMILES IDX 33 13 34 14 35 15 85 16 36 17 90 18 84 19 86 20 37 21 89 22
REMARK SMILES IDX 83 23 82 24 38 26 70 27 50 28 69 29 51 30 54 31 68 32 87 33
REMARK SMILES IDX 52 34 53 35 67 37 88 38 55 39 39 40 40 41 48 42 41 43 47 44
REMARK SMILES IDX 49 45 46 46 42 47 43 48 44 49 45 50 71 51 72 52 80 53 73 54
REMARK SMILES IDX 79 55 81 56 78 57 74 58 75 59 76 60 77 61 56 62 57 63 65 64
REMARK SMILES IDX 58 65 64 66 66 67 63 68 59 69 60 70 61 71 62 72 8 73 9 74
REMARK SMILES IDX 10 75 11 76 12 77 13 78 14 79 15 80 16 81 29 82 17 83 18 84
REMARK SMILES IDX 27 85 25 86 26 87 28 88 19 89 20 90 24 91 21 92 23 93 22 94
REMARK H PARENT 86 25 54 36
REMARK Flexibility Score: inf
ROOT
ATOM      1  C   UNL A   1      34.895  31.853  28.336  1.00  0.00     0.188 C 
ENDROOT
BRANCH   1   2
ATOM      2  O   UNL A   1      34.587  33.108  27.744  1.00  0.00    -0.376 OA
BRANCH   2   3
ATOM      3  C   UNL A   1      33.358  33.743  28.096  1.00  0.00     0.202 C 
BRANCH   3   4
ATOM      4  C   UNL A   1      33.383  35.113  28.792  1.00  0.00     0.261 C 
BRANCH   4   5
ATOM      5  O   UNL A   1      32.577  35.218  29.971  1.00  0.00    -0.460 OA
BRANCH   5   6
ATOM      6  C   UNL A   1      33.006  35.256  31.251  1.00  0.00     0.338 C 
ATOM      7  O   UNL A   1      32.323  35.838  32.092  1.00  0.00    -0.246 OA
BRANCH   6   8
ATOM      8  C   UNL A   1      34.288  34.650  31.684  1.00  0.00     0.060 A 
ATOM      9  C   UNL A   1      35.402  35.366  32.119  1.00  0.00     0.016 A 
ATOM     10  C   UNL A   1      34.283  33.269  31.868  1.00  0.00     0.016 A 
ATOM     11  C   UNL A   1      36.541  34.723  32.588  1.00  0.00     0.010 A 
ATOM     12  C   UNL A   1      35.341  32.645  32.528  1.00  0.00     0.010 A 
ATOM     13  C   UNL A   1      36.520  33.352  32.808  1.00  0.00    -0.014 A 
BRANCH  13  14
ATOM     14  C   UNL A   1      37.773  32.621  33.119  1.00  0.00     0.031 A 
ATOM     15  C   UNL A   1      38.335  32.789  34.507  1.00  0.00     0.074 A 
ATOM     16  C   UNL A   1      38.360  31.801  32.225  1.00  0.00     0.049 A 
ATOM     17  N   UNL A   1      39.505  32.464  34.983  1.00  0.00    -0.248 NA
ATOM     18  C   UNL A   1      37.484  33.510  35.470  1.00  0.00     0.031 C 
ATOM     19  C   UNL A   1      37.885  31.534  30.865  1.00  0.00     0.029 A 
ATOM     20  N   UNL A   1      39.471  31.006  32.343  1.00  0.00    -0.354 N 
ATOM     21  C   UNL A   1      39.558  33.044  36.248  1.00  0.00     0.074 A 
ATOM     22  C   UNL A   1      38.357  33.826  36.407  1.00  0.00     0.031 C 
ATOM     23  C   UNL A   1      38.645  30.574  30.310  1.00  0.00     0.029 A 
ATOM     24  C   UNL A   1      39.712  30.219  31.239  1.00  0.00     0.049 A 
ATOM     25  H   UNL A   1      40.043  30.998  33.144  1.00  0.00     0.167 HD
ATOM     26  C   UNL A   1      40.497  32.891  37.210  1.00  0.00     0.034 A 
ATOM     27  C   UNL A   1      40.695  29.323  31.018  1.00  0.00     0.034 A 
ATOM     28  C   UNL A   1      41.611  31.997  37.049  1.00  0.00     0.049 A 
ATOM     29  C   UNL A   1      41.727  29.144  32.110  1.00  0.00     0.074 A 
ATOM     30  C   UNL A   1      42.634  31.711  37.930  1.00  0.00     0.029 A 
ATOM     31  N   UNL A   1      41.819  31.208  35.920  1.00  0.00    -0.354 N 
ATOM     32  N   UNL A   1      41.803  29.735  33.284  1.00  0.00    -0.248 NA
ATOM     33  C   UNL A   1      42.803  28.184  31.848  1.00  0.00     0.031 C 
ATOM     34  C   UNL A   1      43.487  30.788  37.314  1.00  0.00     0.029 A 
ATOM     35  C   UNL A   1      42.955  30.438  36.080  1.00  0.00     0.049 A 
ATOM     36  H   UNL A   1      41.240  31.201  35.124  1.00  0.00     0.167 HD
ATOM     37  C   UNL A   1      42.916  29.186  33.915  1.00  0.00     0.074 A 
ATOM     38  C   UNL A   1      43.465  28.208  32.995  1.00  0.00     0.031 C 
ATOM     39  C   UNL A   1      43.445  29.458  35.137  1.00  0.00     0.034 A 
BRANCH  26  40
ATOM     40  C   UNL A   1      40.347  33.735  38.457  1.00  0.00     0.023 A 
ATOM     41  C   UNL A   1      39.557  33.321  39.548  1.00  0.00     0.031 A 
ATOM     42  C   UNL A   1      40.872  35.037  38.491  1.00  0.00     0.131 A 
ATOM     43  C   UNL A   1      39.187  34.247  40.536  1.00  0.00     0.055 A 
ATOM     44  C   UNL A   1      40.598  35.917  39.542  1.00  0.00     0.041 A 
ATOM     45  F   UNL A   1      41.617  35.502  37.476  1.00  0.00    -0.206 F 
ATOM     46  C   UNL A   1      39.725  35.534  40.557  1.00  0.00     0.022 A 
BRANCH  43  47
ATOM     47  S   UNL A   1      37.813  33.820  41.647  1.00  0.00     0.124 S 
ATOM     48  O   UNL A   1      37.414  35.138  42.139  1.00  0.00    -0.237 OA
ATOM     49  O   UNL A   1      36.870  33.165  40.750  1.00  0.00    -0.237 OA
ATOM     50  O   UNL A   1      38.435  32.953  42.645  1.00  0.00    -0.744 OA
ENDBRANCH  43  47
ENDBRANCH  26  40
BRANCH  27  51
ATOM     51  C   UNL A   1      40.767  28.539  29.747  1.00  0.00     0.023 A 
ATOM     52  C   UNL A   1      41.712  28.856  28.754  1.00  0.00     0.031 A 
ATOM     53  C   UNL A   1      39.863  27.497  29.474  1.00  0.00     0.131 A 
ATOM     54  C   UNL A   1      41.699  28.179  27.522  1.00  0.00     0.055 A 
ATOM     55  C   UNL A   1      39.893  26.785  28.271  1.00  0.00     0.041 A 
ATOM     56  F   UNL A   1      38.927  27.156  30.373  1.00  0.00    -0.206 F 
ATOM     57  C   UNL A   1      40.805  27.136  27.280  1.00  0.00     0.022 A 
BRANCH  54  58
ATOM     58  S   UNL A   1      42.801  28.753  26.197  1.00  0.00     0.124 S 
ATOM     59  O   UNL A   1      43.816  27.706  26.180  1.00  0.00    -0.237 OA
ATOM     60  O   UNL A   1      41.902  28.793  25.048  1.00  0.00    -0.237 OA
ATOM     61  O   UNL A   1      43.258  30.056  26.673  1.00  0.00    -0.744 OA
ENDBRANCH  54  58
ENDBRANCH  27  51
BRANCH  39  62
ATOM     62  C   UNL A   1      44.623  28.625  35.567  1.00  0.00     0.023 A 
ATOM     63  C   UNL A   1      44.458  27.378  36.191  1.00  0.00     0.031 A 
ATOM     64  C   UNL A   1      45.929  29.091  35.337  1.00  0.00     0.131 A 
ATOM     65  C   UNL A   1      45.585  26.664  36.618  1.00  0.00     0.055 A 
ATOM     66  C   UNL A   1      47.048  28.342  35.699  1.00  0.00     0.041 A 
ATOM     67  F   UNL A   1      46.137  30.277  34.743  1.00  0.00    -0.206 F 
ATOM     68  C   UNL A   1      46.878  27.127  36.356  1.00  0.00     0.022 A 
BRANCH  65  69
ATOM     69  S   UNL A   1      45.336  25.173  37.616  1.00  0.00     0.124 S 
ATOM     70  O   UNL A   1      46.145  25.459  38.797  1.00  0.00    -0.237 OA
ATOM     71  O   UNL A   1      43.891  25.171  37.817  1.00  0.00    -0.237 OA
ATOM     72  O   UNL A   1      45.844  24.100  36.762  1.00  0.00    -0.744 OA
ENDBRANCH  65  69
ENDBRANCH  39  62
ENDBRANCH  13  14
ENDBRANCH   6   8
ENDBRANCH   5   6
ENDBRANCH   4   5
ENDBRANCH   3   4
ENDBRANCH   2   3
ENDBRANCH   1   2
BRANCH   1  73
ATOM     73  C   UNL A   1      34.387  30.653  27.535  1.00  0.00     0.188 C 
BRANCH  73  74
ATOM     74  O   UNL A   1      33.045  30.679  27.069  1.00  0.00    -0.376 OA
BRANCH  74  75
ATOM     75  C   UNL A   1      32.302  29.474  27.206  1.00  0.00     0.202 C 
BRANCH  75  76
ATOM     76  C   UNL A   1      32.408  28.381  26.110  1.00  0.00     0.261 C 
BRANCH  76  77
ATOM     77  O   UNL A   1      31.447  27.286  26.149  1.00  0.00    -0.462 OA
BRANCH  77  78
ATOM     78  C   UNL A   1      31.114  26.791  24.928  1.00  0.00     0.329 C 
ATOM     79  O   UNL A   1      30.800  27.519  23.983  1.00  0.00    -0.250 OA
BRANCH  78  80
ATOM     80  C   UNL A   1      31.407  25.291  24.645  1.00  0.00     0.206 C 
ATOM     81  C   UNL A   1      31.183  24.997  23.163  1.00  0.00     0.109 C 
ATOM     82  N   UNL A   1      32.371  24.295  25.219  1.00  0.00    -0.309 N 
ATOM     83  S   UNL A   1      32.544  23.955  22.612  1.00  0.00    -0.126 SA
ATOM     84  C   UNL A   1      32.873  23.251  24.294  1.00  0.00     0.116 C 
ATOM     85  C   UNL A   1      31.736  23.629  26.300  1.00  0.00     0.224 C 
ATOM     86  C   UNL A   1      31.931  22.043  24.550  1.00  0.00     0.055 C 
ATOM     87  C   UNL A   1      31.023  22.444  25.687  1.00  0.00     0.104 C 
ATOM     88  O   UNL A   1      31.459  24.121  27.378  1.00  0.00    -0.275 OA
BRANCH  84  89
ATOM     89  C   UNL A   1      34.373  22.839  24.382  1.00  0.00    -0.012 A 
ATOM     90  C   UNL A   1      35.344  23.476  23.596  1.00  0.00     0.007 A 
ATOM     91  C   UNL A   1      34.839  21.698  25.093  1.00  0.00     0.007 A 
ATOM     92  C   UNL A   1      36.649  22.958  23.485  1.00  0.00     0.000 A 
ATOM     93  C   UNL A   1      36.164  21.238  25.044  1.00  0.00     0.000 A 
ATOM     94  C   UNL A   1      37.076  21.868  24.228  1.00  0.00     0.000 A 
ENDBRANCH  84  89
ENDBRANCH  78  80
ENDBRANCH  77  78
ENDBRANCH  76  77
ENDBRANCH  75  76
ENDBRANCH  74  75
ENDBRANCH  73  74
ENDBRANCH   1  73
TORSDOF 21
ENDMDL
MODEL 3
REMARK VINA RESULT:     -10.3      5.451      9.022
REMARK SMILES O=C(OCCOCCOCCOC(=O)[C@H]1CS[C@]2(c3ccccc3)CCC(=O)N12)c1ccc(-c2c3nc(c(-c4cc(S(=O)(=O)[O-])ccc4F)c4ccc([nH]4)c(-c4cc(S(=O)(=O)[O-])ccc4F)c4nc(c(-c5cc(S(=O)(=O)[O-])ccc5F)c5ccc2[nH]5)C=C4)C=C3)cc1
REMARK SMILES IDX 7 1 6 2 5 3 4 4 3 5 2 6 1 7 30 8 31 9 92 10 32 11 91 12
REMARK SMILES IDX 33 13 34 14 35 15 85 16 36 17 90 18 84 19 86 20 37 21 89 22
REMARK SMILES IDX 83 23 82 24 38 26 70 27 50 28 69 29 51 30 54 31 68 32 87 33
REMARK SMILES IDX 52 34 53 35 67 37 88 38 55 39 39 40 40 41 48 42 41 43 47 44
REMARK SMILES IDX 49 45 46 46 42 47 43 48 44 49 45 50 71 51 72 52 80 53 73 54
REMARK SMILES IDX 79 55 81 56 78 57 74 58 75 59 76 60 77 61 56 62 57 63 65 64
REMARK SMILES IDX 58 65 64 66 66 67 63 68 59 69 60 70 61 71 62 72 8 73 9 74
REMARK SMILES IDX 10 75 11 76 12 77 13 78 14 79 15 80 16 81 29 82 17 83 18 84
REMARK SMILES IDX 27 85 25 86 26 87 28 88 19 89 20 90 24 91 21 92 23 93 22 94
REMARK H PARENT 86 25 54 36
REMARK Flexibility Score: inf
ROOT
ATOM      1  C   UNL A   1      34.683  30.041  27.680  1.00  0.00     0.188 C 
ENDROOT
BRANCH   1   2
ATOM      2  O   UNL A   1      34.086  31.198  27.110  1.00  0.00    -0.376 OA
BRANCH   2   3
ATOM      3  C   UNL A   1      33.432  32.124  27.979  1.00  0.00     0.202 C 
BRANCH   3   4
ATOM      4  C   UNL A   1      33.437  33.621  27.634  1.00  0.00     0.261 C 
BRANCH   4   5
ATOM      5  O   UNL A   1      32.770  34.470  28.574  1.00  0.00    -0.460 OA
BRANCH   5   6
ATOM      6  C   UNL A   1      33.250  34.916  29.755  1.00  0.00     0.338 C 
ATOM      7  O   UNL A   1      32.792  35.951  30.234  1.00  0.00    -0.246 OA
BRANCH   6   8
ATOM      8  C   UNL A   1      34.338  34.225  30.489  1.00  0.00     0.060 A 
ATOM      9  C   UNL A   1      34.175  33.074  31.259  1.00  0.00     0.016 A 
ATOM     10  C   UNL A   1      35.635  34.643  30.201  1.00  0.00     0.016 A 
ATOM     11  C   UNL A   1      35.259  32.436  31.850  1.00  0.00     0.010 A 
ATOM     12  C   UNL A   1      36.727  33.886  30.624  1.00  0.00     0.010 A 
ATOM     13  C   UNL A   1      36.552  32.830  31.531  1.00  0.00    -0.014 A 
BRANCH  13  14
ATOM     14  C   UNL A   1      37.709  32.300  32.293  1.00  0.00     0.031 A 
ATOM     15  C   UNL A   1      38.632  31.357  31.565  1.00  0.00     0.074 A 
ATOM     16  C   UNL A   1      37.961  32.680  33.561  1.00  0.00     0.049 A 
ATOM     17  N   UNL A   1      39.571  30.578  32.027  1.00  0.00    -0.248 NA
ATOM     18  C   UNL A   1      38.396  31.205  30.118  1.00  0.00     0.031 C 
ATOM     19  C   UNL A   1      37.158  33.615  34.352  1.00  0.00     0.029 A 
ATOM     20  N   UNL A   1      38.997  32.352  34.398  1.00  0.00    -0.354 N 
ATOM     21  C   UNL A   1      39.942  29.777  30.951  1.00  0.00     0.074 A 
ATOM     22  C   UNL A   1      39.052  30.089  29.861  1.00  0.00     0.031 C 
ATOM     23  C   UNL A   1      37.778  33.853  35.521  1.00  0.00     0.029 A 
ATOM     24  C   UNL A   1      38.975  33.024  35.600  1.00  0.00     0.049 A 
ATOM     25  H   UNL A   1      39.692  31.697  34.161  1.00  0.00     0.167 HD
ATOM     26  C   UNL A   1      40.971  28.901  30.864  1.00  0.00     0.034 A 
ATOM     27  C   UNL A   1      39.831  32.958  36.639  1.00  0.00     0.034 A 
ATOM     28  C   UNL A   1      41.908  28.721  31.939  1.00  0.00     0.049 A 
ATOM     29  C   UNL A   1      40.989  31.991  36.522  1.00  0.00     0.074 A 
ATOM     30  C   UNL A   1      43.012  27.895  32.003  1.00  0.00     0.029 A 
ATOM     31  N   UNL A   1      41.860  29.426  33.139  1.00  0.00    -0.354 N 
ATOM     32  N   UNL A   1      41.306  31.195  35.523  1.00  0.00    -0.248 NA
ATOM     33  C   UNL A   1      41.899  31.912  37.668  1.00  0.00     0.031 C 
ATOM     34  C   UNL A   1      43.601  28.063  33.262  1.00  0.00     0.029 A 
ATOM     35  C   UNL A   1      42.912  29.051  33.953  1.00  0.00     0.049 A 
ATOM     36  H   UNL A   1      41.176  30.093  33.374  1.00  0.00     0.167 HD
ATOM     37  C   UNL A   1      42.478  30.549  35.908  1.00  0.00     0.074 A 
ATOM     38  C   UNL A   1      42.814  31.064  37.222  1.00  0.00     0.031 C 
ATOM     39  C   UNL A   1      43.214  29.616  35.249  1.00  0.00     0.034 A 
BRANCH  26  40
ATOM     40  C   UNL A   1      41.072  28.084  29.595  1.00  0.00     0.023 A 
ATOM     41  C   UNL A   1      42.047  28.347  28.612  1.00  0.00     0.031 A 
ATOM     42  C   UNL A   1      40.082  27.134  29.290  1.00  0.00     0.131 A 
ATOM     43  C   UNL A   1      41.918  27.792  27.330  1.00  0.00     0.055 A 
ATOM     44  C   UNL A   1      40.031  26.493  28.049  1.00  0.00     0.041 A 
ATOM     45  F   UNL A   1      39.112  26.849  30.173  1.00  0.00    -0.206 F 
ATOM     46  C   UNL A   1      40.934  26.844  27.049  1.00  0.00     0.022 A 
BRANCH  43  47
ATOM     47  S   UNL A   1      42.900  28.507  25.978  1.00  0.00     0.124 S 
ATOM     48  O   UNL A   1      44.162  27.782  26.117  1.00  0.00    -0.237 OA
ATOM     49  O   UNL A   1      42.106  28.182  24.800  1.00  0.00    -0.237 OA
ATOM     50  O   UNL A   1      42.967  29.927  26.316  1.00  0.00    -0.744 OA
ENDBRANCH  43  47
ENDBRANCH  26  40
BRANCH  27  51
ATOM     51  C   UNL A   1      39.645  33.800  37.861  1.00  0.00     0.023 A 
ATOM     52  C   UNL A   1      38.885  33.337  38.950  1.00  0.00     0.031 A 
ATOM     53  C   UNL A   1      40.173  35.100  37.944  1.00  0.00     0.131 A 
ATOM     54  C   UNL A   1      38.631  34.180  40.046  1.00  0.00     0.055 A 
ATOM     55  C   UNL A   1      39.969  35.914  39.062  1.00  0.00     0.041 A 
ATOM     56  F   UNL A   1      40.894  35.608  36.932  1.00  0.00    -0.206 F 
ATOM     57  C   UNL A   1      39.181  35.461  40.115  1.00  0.00     0.022 A 
BRANCH  54  58
ATOM     58  S   UNL A   1      37.483  33.617  41.335  1.00  0.00     0.124 S 
ATOM     59  O   UNL A   1      36.455  32.948  40.547  1.00  0.00    -0.237 OA
ATOM     60  O   UNL A   1      38.333  32.752  42.146  1.00  0.00    -0.237 OA
ATOM     61  O   UNL A   1      37.062  34.857  41.983  1.00  0.00    -0.744 OA
ENDBRANCH  54  58
ENDBRANCH  27  51
BRANCH  39  62
ATOM     62  C   UNL A   1      44.489  29.166  35.910  1.00  0.00     0.023 A 
ATOM     63  C   UNL A   1      44.519  28.073  36.793  1.00  0.00     0.031 A 
ATOM     64  C   UNL A   1      45.692  29.841  35.641  1.00  0.00     0.131 A 
ATOM     65  C   UNL A   1      45.721  27.725  37.422  1.00  0.00     0.055 A 
ATOM     66  C   UNL A   1      46.899  29.444  36.215  1.00  0.00     0.041 A 
ATOM     67  F   UNL A   1      45.714  30.891  34.804  1.00  0.00    -0.206 F 
ATOM     68  C   UNL A   1      46.914  28.390  37.122  1.00  0.00     0.022 A 
BRANCH  65  69
ATOM     69  S   UNL A   1      45.683  26.462  38.720  1.00  0.00     0.124 S 
ATOM     70  O   UNL A   1      47.077  26.427  39.151  1.00  0.00    -0.237 OA
ATOM     71  O   UNL A   1      44.734  27.027  39.675  1.00  0.00    -0.237 OA
ATOM     72  O   UNL A   1      45.219  25.265  38.020  1.00  0.00    -0.744 OA
ENDBRANCH  65  69
ENDBRANCH  39  62
ENDBRANCH  13  14
ENDBRANCH   6   8
ENDBRANCH   5   6
ENDBRANCH   4   5
ENDBRANCH   3   4
ENDBRANCH   2   3
ENDBRANCH   1   2
BRANCH   1  73
ATOM     73  C   UNL A   1      34.134  28.727  27.122  1.00  0.00     0.188 C 
BRANCH  73  74
ATOM     74  O   UNL A   1      32.842  28.740  26.532  1.00  0.00    -0.376 OA
BRANCH  74  75
ATOM     75  C   UNL A   1      32.313  27.479  26.136  1.00  0.00     0.202 C 
BRANCH  75  76
ATOM     76  C   UNL A   1      33.050  26.646  25.055  1.00  0.00     0.261 C 
BRANCH  76  77
ATOM     77  O   UNL A   1      32.273  25.663  24.310  1.00  0.00    -0.462 OA
BRANCH  77  78
ATOM     78  C   UNL A   1      32.018  24.517  24.994  1.00  0.00     0.329 C 
ATOM     79  O   UNL A   1      30.875  24.182  25.320  1.00  0.00    -0.250 OA
BRANCH  78  80
ATOM     80  C   UNL A   1      33.162  23.473  25.121  1.00  0.00     0.206 C 
ATOM     81  C   UNL A   1      33.430  23.183  26.596  1.00  0.00     0.109 C 
ATOM     82  N   UNL A   1      33.597  22.303  24.288  1.00  0.00    -0.309 N 
ATOM     83  S   UNL A   1      33.638  21.404  26.764  1.00  0.00    -0.126 SA
ATOM     84  C   UNL A   1      34.201  21.161  25.016  1.00  0.00     0.116 C 
ATOM     85  C   UNL A   1      34.558  22.757  23.346  1.00  0.00     0.224 C 
ATOM     86  C   UNL A   1      35.728  21.422  24.916  1.00  0.00     0.055 C 
ATOM     87  C   UNL A   1      35.896  22.640  24.040  1.00  0.00     0.104 C 
ATOM     88  O   UNL A   1      34.335  23.474  22.388  1.00  0.00    -0.275 OA
BRANCH  84  89
ATOM     89  C   UNL A   1      33.834  19.715  24.565  1.00  0.00    -0.012 A 
ATOM     90  C   UNL A   1      34.770  18.674  24.649  1.00  0.00     0.007 A 
ATOM     91  C   UNL A   1      32.633  19.382  23.879  1.00  0.00     0.007 A 
ATOM     92  C   UNL A   1      34.537  17.432  24.025  1.00  0.00     0.000 A 
ATOM     93  C   UNL A   1      32.373  18.114  23.335  1.00  0.00     0.000 A 
ATOM     94  C   UNL A   1      33.336  17.132  23.403  1.00  0.00     0.000 A 
ENDBRANCH  84  89
ENDBRANCH  78  80
ENDBRANCH  77  78
ENDBRANCH  76  77
ENDBRANCH  75  76
ENDBRANCH  74  75
ENDBRANCH  73  74
ENDBRANCH   1  73
TORSDOF 21
ENDMDL
