MODEL 1
REMARK VINA RESULT:     -10.3      0.000      0.000
REMARK SMILES Cc1ccc(C[N@H+]2CCC[C@@H](C(=O)OCCOCCOCCOC(=O)c3ccc(-c4c5nc(c(-c6cc(S(=O)(=O)[O-])ccc6F)c6ccc([nH]6)c(-c6cc(S(=O)(=O)[O-])ccc6F)c6nc(c(-c7cc(S(=O)(=O)[O-])ccc7F)c7ccc4[nH]7)C=C6)C=C5)cc3)C2)o1
REMARK SMILES IDX 19 1 18 2 17 3 16 4 15 5 14 6 12 7 13 8 11 9 7 10 8 11 89 12
REMARK SMILES IDX 9 14 10 15 6 16 5 17 1 18 2 19 3 20 90 21 4 22 20 23 21 24
REMARK SMILES IDX 22 25 23 26 24 27 25 28 26 29 27 30 88 31 28 32 87 33 29 34
REMARK SMILES IDX 30 35 31 36 81 37 32 38 86 39 80 40 82 41 33 42 85 43 79 44
REMARK SMILES IDX 78 45 34 47 66 48 46 49 65 50 47 51 50 52 64 53 83 54 48 55
REMARK SMILES IDX 49 56 63 58 84 59 51 60 35 61 36 62 44 63 37 64 43 65 45 66
REMARK SMILES IDX 42 67 38 68 39 69 40 70 41 71 67 72 68 73 76 74 69 75 75 76
REMARK SMILES IDX 77 77 74 78 70 79 71 80 72 81 73 82 52 83 53 84 61 85 54 86
REMARK SMILES IDX 60 87 62 88 59 89 55 90 56 91 57 92 58 93
REMARK H PARENT 7 13 82 46 50 57
REMARK Flexibility Score: inf
ROOT
ATOM      1  C   UNL A   1      35.485  22.393  25.942  1.00  0.00     0.188 C 
ENDROOT
BRANCH   1   2
ATOM      2  C   UNL A   1      34.280  21.574  26.453  1.00  0.00     0.188 C 
BRANCH   2   3
ATOM      3  O   UNL A   1      32.972  21.921  26.011  1.00  0.00    -0.376 OA
BRANCH   3   4
ATOM      4  C   UNL A   1      32.467  21.300  24.840  1.00  0.00     0.202 C 
BRANCH   4   5
ATOM      5  C   UNL A   1      32.591  22.030  23.489  1.00  0.00     0.261 C 
BRANCH   5   6
ATOM      6  O   UNL A   1      32.430  23.470  23.508  1.00  0.00    -0.463 OA
BRANCH   6   7
ATOM      7  C   UNL A   1      33.511  24.178  23.087  1.00  0.00     0.314 C 
ATOM      8  O   UNL A   1      34.546  23.638  22.701  1.00  0.00    -0.252 OA
BRANCH   7   9
ATOM      9  C   UNL A   1      33.376  25.707  23.200  1.00  0.00     0.154 C 
ATOM     10  N   UNL A   1      31.493  27.386  23.141  1.00  0.00    -0.328 N 
ATOM     11  C   UNL A   1      31.872  27.952  24.437  1.00  0.00     0.262 C 
ATOM     12  C   UNL A   1      31.872  25.971  23.043  1.00  0.00     0.278 C 
ATOM     13  H   UNL A   1      32.011  27.908  22.433  1.00  0.00     0.348 HD
ATOM     14  C   UNL A   1      33.382  27.832  24.629  1.00  0.00     0.062 C 
ATOM     15  C   UNL A   1      33.859  26.383  24.490  1.00  0.00     0.027 C 
BRANCH  10  16
ATOM     16  C   UNL A   1      30.049  27.560  22.852  1.00  0.00     0.338 C 
BRANCH  16  17
ATOM     17  C   UNL A   1      29.585  28.956  22.580  1.00  0.00     0.158 A 
ATOM     18  C   UNL A   1      27.378  31.484  23.798  1.00  0.00     0.087 C 
ATOM     19  C   UNL A   1      28.364  30.736  22.995  1.00  0.00     0.101 A 
ATOM     20  C   UNL A   1      29.155  31.053  21.913  1.00  0.00     0.046 A 
ATOM     21  O   UNL A   1      28.590  29.451  23.372  1.00  0.00    -0.460 OA
ATOM     22  C   UNL A   1      29.942  29.905  21.645  1.00  0.00     0.052 A 
ENDBRANCH  16  17
ENDBRANCH  10  16
ENDBRANCH   7   9
ENDBRANCH   6   7
ENDBRANCH   5   6
ENDBRANCH   4   5
ENDBRANCH   3   4
ENDBRANCH   2   3
ENDBRANCH   1   2
BRANCH   1  23
ATOM     23  O   UNL A   1      36.189  21.756  24.898  1.00  0.00    -0.376 OA
BRANCH  23  24
ATOM     24  C   UNL A   1      36.350  20.358  24.993  1.00  0.00     0.202 C 
BRANCH  24  25
ATOM     25  C   UNL A   1      37.802  19.874  25.123  1.00  0.00     0.261 C 
BRANCH  25  26
ATOM     26  O   UNL A   1      38.816  20.894  25.213  1.00  0.00    -0.460 OA
BRANCH  26  27
ATOM     27  C   UNL A   1      39.716  20.782  26.217  1.00  0.00     0.338 C 
ATOM     28  O   UNL A   1      40.302  19.759  26.545  1.00  0.00    -0.246 OA
BRANCH  27  29
ATOM     29  C   UNL A   1      40.057  22.141  26.706  1.00  0.00     0.060 A 
ATOM     30  C   UNL A   1      39.368  23.249  26.188  1.00  0.00     0.016 A 
ATOM     31  C   UNL A   1      41.055  22.329  27.664  1.00  0.00     0.016 A 
ATOM     32  C   UNL A   1      39.691  24.546  26.608  1.00  0.00     0.010 A 
ATOM     33  C   UNL A   1      41.394  23.629  28.064  1.00  0.00     0.010 A 
ATOM     34  C   UNL A   1      40.736  24.750  27.518  1.00  0.00    -0.014 A 
BRANCH  34  35
ATOM     35  C   UNL A   1      41.277  26.117  27.758  1.00  0.00     0.031 A 
ATOM     36  C   UNL A   1      42.658  26.440  27.253  1.00  0.00     0.074 A 
ATOM     37  C   UNL A   1      40.576  27.063  28.411  1.00  0.00     0.049 A 
ATOM     38  N   UNL A   1      43.386  27.511  27.436  1.00  0.00    -0.248 NA
ATOM     39  C   UNL A   1      43.306  25.402  26.438  1.00  0.00     0.031 C 
ATOM     40  C   UNL A   1      39.210  26.910  28.904  1.00  0.00     0.029 A 
ATOM     41  N   UNL A   1      40.928  28.340  28.786  1.00  0.00    -0.354 N 
ATOM     42  C   UNL A   1      44.585  27.273  26.772  1.00  0.00     0.074 A 
ATOM     43  C   UNL A   1      44.494  25.939  26.213  1.00  0.00     0.031 C 
ATOM     44  C   UNL A   1      38.849  28.043  29.531  1.00  0.00     0.029 A 
ATOM     45  C   UNL A   1      39.964  28.986  29.524  1.00  0.00     0.049 A 
ATOM     46  H   UNL A   1      41.790  28.751  28.549  1.00  0.00     0.167 HD
ATOM     47  C   UNL A   1      45.661  28.088  26.636  1.00  0.00     0.034 A 
ATOM     48  C   UNL A   1      39.985  30.183  30.150  1.00  0.00     0.034 A 
ATOM     49  C   UNL A   1      45.749  29.410  27.210  1.00  0.00     0.049 A 
ATOM     50  C   UNL A   1      41.231  31.035  30.077  1.00  0.00     0.074 A 
ATOM     51  C   UNL A   1      46.790  30.318  27.122  1.00  0.00     0.029 A 
ATOM     52  N   UNL A   1      44.770  30.009  27.993  1.00  0.00    -0.354 N 
ATOM     53  N   UNL A   1      42.361  30.797  29.449  1.00  0.00    -0.248 NA
ATOM     54  C   UNL A   1      41.206  32.317  30.797  1.00  0.00     0.031 C 
ATOM     55  C   UNL A   1      46.479  31.424  27.919  1.00  0.00     0.029 A 
ATOM     56  C   UNL A   1      45.201  31.254  28.427  1.00  0.00     0.049 A 
ATOM     57  H   UNL A   1      43.897  29.608  28.208  1.00  0.00     0.167 HD
ATOM     58  C   UNL A   1      43.163  31.916  29.672  1.00  0.00     0.074 A 
ATOM     59  C   UNL A   1      42.384  32.832  30.478  1.00  0.00     0.031 C 
ATOM     60  C   UNL A   1      44.428  32.164  29.241  1.00  0.00     0.034 A 
BRANCH  47  61
ATOM     61  C   UNL A   1      46.852  27.539  25.888  1.00  0.00     0.023 A 
ATOM     62  C   UNL A   1      47.163  27.950  24.581  1.00  0.00     0.031 A 
ATOM     63  C   UNL A   1      47.667  26.555  26.478  1.00  0.00     0.131 A 
ATOM     64  C   UNL A   1      48.202  27.322  23.878  1.00  0.00     0.055 A 
ATOM     65  C   UNL A   1      48.756  26.000  25.806  1.00  0.00     0.041 A 
ATOM     66  F   UNL A   1      47.405  26.103  27.715  1.00  0.00    -0.206 F 
ATOM     67  C   UNL A   1      49.019  26.370  24.491  1.00  0.00     0.022 A 
BRANCH  64  68
ATOM     68  S   UNL A   1      48.362  27.644  22.100  1.00  0.00     0.124 S 
ATOM     69  O   UNL A   1      47.064  28.242  21.791  1.00  0.00    -0.237 OA
ATOM     70  O   UNL A   1      49.508  28.545  22.044  1.00  0.00    -0.237 OA
ATOM     71  O   UNL A   1      48.580  26.318  21.529  1.00  0.00    -0.744 OA
ENDBRANCH  64  68
ENDBRANCH  47  61
BRANCH  48  72
ATOM     72  C   UNL A   1      38.807  30.643  30.948  1.00  0.00     0.023 A 
ATOM     73  C   UNL A   1      37.834  31.487  30.389  1.00  0.00     0.031 A 
ATOM     74  C   UNL A   1      38.670  30.296  32.305  1.00  0.00     0.131 A 
ATOM     75  C   UNL A   1      36.796  31.991  31.190  1.00  0.00     0.055 A 
ATOM     76  C   UNL A   1      37.603  30.750  33.082  1.00  0.00     0.041 A 
ATOM     77  F   UNL A   1      39.576  29.502  32.897  1.00  0.00    -0.206 F 
ATOM     78  C   UNL A   1      36.664  31.613  32.527  1.00  0.00     0.022 A 
BRANCH  75  79
ATOM     79  S   UNL A   1      35.671  33.225  30.481  1.00  0.00     0.124 S 
ATOM     80  O   UNL A   1      35.384  34.065  31.638  1.00  0.00    -0.237 OA
ATOM     81  O   UNL A   1      36.502  33.826  29.443  1.00  0.00    -0.237 OA
ATOM     82  O   UNL A   1      34.550  32.424  29.995  1.00  0.00    -0.744 OA
ENDBRANCH  75  79
ENDBRANCH  48  72
BRANCH  60  83
ATOM     83  C   UNL A   1      45.031  33.506  29.588  1.00  0.00     0.023 A 
ATOM     84  C   UNL A   1      44.861  34.636  28.769  1.00  0.00     0.031 A 
ATOM     85  C   UNL A   1      45.796  33.654  30.761  1.00  0.00     0.131 A 
ATOM     86  C   UNL A   1      45.494  35.845  29.103  1.00  0.00     0.055 A 
ATOM     87  C   UNL A   1      46.364  34.876  31.123  1.00  0.00     0.041 A 
ATOM     88  F   UNL A   1      46.000  32.610  31.580  1.00  0.00    -0.206 F 
ATOM     89  C   UNL A   1      46.226  35.977  30.285  1.00  0.00     0.022 A 
BRANCH  86  90
ATOM     90  S   UNL A   1      45.433  37.219  27.918  1.00  0.00     0.124 S 
ATOM     91  O   UNL A   1      46.178  36.675  26.786  1.00  0.00    -0.237 OA
ATOM     92  O   UNL A   1      43.999  37.393  27.714  1.00  0.00    -0.237 OA
ATOM     93  O   UNL A   1      46.096  38.313  28.627  1.00  0.00    -0.744 OA
ENDBRANCH  86  90
ENDBRANCH  60  83
ENDBRANCH  34  35
ENDBRANCH  27  29
ENDBRANCH  26  27
ENDBRANCH  25  26
ENDBRANCH  24  25
ENDBRANCH  23  24
ENDBRANCH   1  23
TORSDOF 22
ENDMDL
MODEL 2
REMARK VINA RESULT:     -10.3      1.394      2.344
REMARK SMILES Cc1ccc(C[N@H+]2CCC[C@@H](C(=O)OCCOCCOCCOC(=O)c3ccc(-c4c5nc(c(-c6cc(S(=O)(=O)[O-])ccc6F)c6ccc([nH]6)c(-c6cc(S(=O)(=O)[O-])ccc6F)c6nc(c(-c7cc(S(=O)(=O)[O-])ccc7F)c7ccc4[nH]7)C=C6)C=C5)cc3)C2)o1
REMARK SMILES IDX 19 1 18 2 17 3 16 4 15 5 14 6 12 7 13 8 11 9 7 10 8 11 89 12
REMARK SMILES IDX 9 14 10 15 6 16 5 17 1 18 2 19 3 20 90 21 4 22 20 23 21 24
REMARK SMILES IDX 22 25 23 26 24 27 25 28 26 29 27 30 88 31 28 32 87 33 29 34
REMARK SMILES IDX 30 35 31 36 81 37 32 38 86 39 80 40 82 41 33 42 85 43 79 44
REMARK SMILES IDX 78 45 34 47 66 48 46 49 65 50 47 51 50 52 64 53 83 54 48 55
REMARK SMILES IDX 49 56 63 58 84 59 51 60 35 61 36 62 44 63 37 64 43 65 45 66
REMARK SMILES IDX 42 67 38 68 39 69 40 70 41 71 67 72 68 73 76 74 69 75 75 76
REMARK SMILES IDX 77 77 74 78 70 79 71 80 72 81 73 82 52 83 53 84 61 85 54 86
REMARK SMILES IDX 60 87 62 88 59 89 55 90 56 91 57 92 58 93
REMARK H PARENT 7 13 82 46 50 57
REMARK Flexibility Score: inf
ROOT
ATOM      1  C   UNL A   1      34.702  20.291  25.016  1.00  0.00     0.188 C 
ENDROOT
BRANCH   1   2
ATOM      2  C   UNL A   1      33.468  20.555  25.905  1.00  0.00     0.188 C 
BRANCH   2   3
ATOM      3  O   UNL A   1      32.665  21.702  25.649  1.00  0.00    -0.376 OA
BRANCH   3   4
ATOM      4  C   UNL A   1      32.924  22.463  24.480  1.00  0.00     0.202 C 
BRANCH   4   5
ATOM      5  C   UNL A   1      31.929  23.560  24.061  1.00  0.00     0.261 C 
BRANCH   5   6
ATOM      6  O   UNL A   1      30.745  23.717  24.883  1.00  0.00    -0.463 OA
BRANCH   6   7
ATOM      7  C   UNL A   1      30.797  24.734  25.783  1.00  0.00     0.314 C 
ATOM      8  O   UNL A   1      31.254  24.594  26.915  1.00  0.00    -0.252 OA
BRANCH   7   9
ATOM      9  C   UNL A   1      30.170  26.058  25.311  1.00  0.00     0.154 C 
ATOM     10  N   UNL A   1      31.015  28.307  24.536  1.00  0.00    -0.328 N 
ATOM     11  C   UNL A   1      30.261  28.230  23.283  1.00  0.00     0.262 C 
ATOM     12  C   UNL A   1      31.372  26.972  25.030  1.00  0.00     0.278 C 
ATOM     13  H   UNL A   1      30.397  28.748  25.219  1.00  0.00     0.348 HD
ATOM     14  C   UNL A   1      28.981  27.425  23.501  1.00  0.00     0.062 C 
ATOM     15  C   UNL A   1      29.275  26.032  24.065  1.00  0.00     0.027 C 
BRANCH  10  16
ATOM     16  C   UNL A   1      32.222  29.158  24.414  1.00  0.00     0.338 C 
BRANCH  16  17
ATOM     17  C   UNL A   1      32.827  29.650  25.690  1.00  0.00     0.158 A 
ATOM     18  C   UNL A   1      35.799  29.468  27.659  1.00  0.00     0.087 C 
ATOM     19  C   UNL A   1      34.442  29.784  27.176  1.00  0.00     0.101 A 
ATOM     20  C   UNL A   1      33.431  30.602  27.629  1.00  0.00     0.046 A 
ATOM     21  O   UNL A   1      34.061  29.172  26.025  1.00  0.00    -0.460 OA
ATOM     22  C   UNL A   1      32.389  30.515  26.672  1.00  0.00     0.052 A 
ENDBRANCH  16  17
ENDBRANCH  10  16
ENDBRANCH   7   9
ENDBRANCH   6   7
ENDBRANCH   5   6
ENDBRANCH   4   5
ENDBRANCH   3   4
ENDBRANCH   2   3
ENDBRANCH   1   2
BRANCH   1  23
ATOM     23  O   UNL A   1      35.885  20.873  25.518  1.00  0.00    -0.376 OA
BRANCH  23  24
ATOM     24  C   UNL A   1      36.990  20.934  24.643  1.00  0.00     0.202 C 
BRANCH  24  25
ATOM     25  C   UNL A   1      38.148  19.984  24.985  1.00  0.00     0.261 C 
BRANCH  25  26
ATOM     26  O   UNL A   1      38.784  20.178  26.264  1.00  0.00    -0.460 OA
BRANCH  26  27
ATOM     27  C   UNL A   1      40.122  20.381  26.263  1.00  0.00     0.338 C 
ATOM     28  O   UNL A   1      40.963  19.629  25.787  1.00  0.00    -0.246 OA
BRANCH  27  29
ATOM     29  C   UNL A   1      40.394  21.767  26.719  1.00  0.00     0.060 A 
ATOM     30  C   UNL A   1      39.596  22.816  26.238  1.00  0.00     0.016 A 
ATOM     31  C   UNL A   1      41.434  22.036  27.610  1.00  0.00     0.016 A 
ATOM     32  C   UNL A   1      39.851  24.138  26.626  1.00  0.00     0.010 A 
ATOM     33  C   UNL A   1      41.703  23.363  27.978  1.00  0.00     0.010 A 
ATOM     34  C   UNL A   1      40.934  24.426  27.467  1.00  0.00    -0.014 A 
BRANCH  34  35
ATOM     35  C   UNL A   1      41.389  25.832  27.662  1.00  0.00     0.031 A 
ATOM     36  C   UNL A   1      42.729  26.234  27.106  1.00  0.00     0.074 A 
ATOM     37  C   UNL A   1      40.646  26.743  28.319  1.00  0.00     0.049 A 
ATOM     38  N   UNL A   1      43.388  27.356  27.244  1.00  0.00    -0.248 NA
ATOM     39  C   UNL A   1      43.418  25.224  26.290  1.00  0.00     0.031 C 
ATOM     40  C   UNL A   1      39.310  26.511  28.860  1.00  0.00     0.029 A 
ATOM     41  N   UNL A   1      40.924  28.048  28.657  1.00  0.00    -0.354 N 
ATOM     42  C   UNL A   1      44.579  27.182  26.546  1.00  0.00     0.074 A 
ATOM     43  C   UNL A   1      44.560  25.834  26.016  1.00  0.00     0.031 C 
ATOM     44  C   UNL A   1      38.894  27.630  29.476  1.00  0.00     0.029 A 
ATOM     45  C   UNL A   1      39.942  28.645  29.414  1.00  0.00     0.049 A 
ATOM     46  H   UNL A   1      41.748  28.511  28.383  1.00  0.00     0.167 HD
ATOM     47  C   UNL A   1      45.593  28.065  26.358  1.00  0.00     0.034 A 
ATOM     48  C   UNL A   1      39.902  29.855  30.015  1.00  0.00     0.034 A 
ATOM     49  C   UNL A   1      45.611  29.402  26.902  1.00  0.00     0.049 A 
ATOM     50  C   UNL A   1      41.086  30.785  29.884  1.00  0.00     0.074 A 
ATOM     51  C   UNL A   1      46.585  30.375  26.763  1.00  0.00     0.029 A 
ATOM     52  N   UNL A   1      44.618  29.951  27.705  1.00  0.00    -0.354 N 
ATOM     53  N   UNL A   1      42.209  30.609  29.224  1.00  0.00    -0.248 NA
ATOM     54  C   UNL A   1      40.997  32.079  30.579  1.00  0.00     0.031 C 
ATOM     55  C   UNL A   1      46.225  31.475  27.548  1.00  0.00     0.029 A 
ATOM     56  C   UNL A   1      44.978  31.231  28.100  1.00  0.00     0.049 A 
ATOM     57  H   UNL A   1      43.781  29.497  27.957  1.00  0.00     0.167 HD
ATOM     58  C   UNL A   1      42.941  31.783  29.399  1.00  0.00     0.074 A 
ATOM     59  C   UNL A   1      42.128  32.663  30.211  1.00  0.00     0.031 C 
ATOM     60  C   UNL A   1      44.172  32.105  28.921  1.00  0.00     0.034 A 
BRANCH  47  61
ATOM     61  C   UNL A   1      46.794  27.579  25.582  1.00  0.00     0.023 A 
ATOM     62  C   UNL A   1      47.041  27.991  24.261  1.00  0.00     0.031 A 
ATOM     63  C   UNL A   1      47.685  26.656  26.161  1.00  0.00     0.131 A 
ATOM     64  C   UNL A   1      48.097  27.418  23.536  1.00  0.00     0.055 A 
ATOM     65  C   UNL A   1      48.788  26.160  25.463  1.00  0.00     0.041 A 
ATOM     66  F   UNL A   1      47.487  26.206  27.410  1.00  0.00    -0.206 F 
ATOM     67  C   UNL A   1      48.989  26.527  24.137  1.00  0.00     0.022 A 
BRANCH  64  68
ATOM     68  S   UNL A   1      48.186  27.724  21.751  1.00  0.00     0.124 S 
ATOM     69  O   UNL A   1      48.523  26.397  21.240  1.00  0.00    -0.237 OA
ATOM     70  O   UNL A   1      46.842  28.203  21.445  1.00  0.00    -0.237 OA
ATOM     71  O   UNL A   1      49.249  28.719  21.626  1.00  0.00    -0.744 OA
ENDBRANCH  64  68
ENDBRANCH  47  61
BRANCH  48  72
ATOM     72  C   UNL A   1      38.722  30.253  30.842  1.00  0.00     0.023 A 
ATOM     73  C   UNL A   1      37.773  31.169  30.361  1.00  0.00     0.031 A 
ATOM     74  C   UNL A   1      38.560  29.770  32.154  1.00  0.00     0.131 A 
ATOM     75  C   UNL A   1      36.733  31.607  31.198  1.00  0.00     0.055 A 
ATOM     76  C   UNL A   1      37.490  30.161  32.960  1.00  0.00     0.041 A 
ATOM     77  F   UNL A   1      39.443  28.900  32.670  1.00  0.00    -0.206 F 
ATOM     78  C   UNL A   1      36.575  31.096  32.487  1.00  0.00     0.022 A 
BRANCH  75  79
ATOM     79  S   UNL A   1      35.641  32.930  30.607  1.00  0.00     0.124 S 
ATOM     80  O   UNL A   1      36.384  34.123  30.996  1.00  0.00    -0.237 OA
ATOM     81  O   UNL A   1      35.579  32.651  29.176  1.00  0.00    -0.237 OA
ATOM     82  O   UNL A   1      34.399  32.699  31.340  1.00  0.00    -0.744 OA
ENDBRANCH  75  79
ENDBRANCH  48  72
BRANCH  60  83
ATOM     83  C   UNL A   1      44.694  33.492  29.221  1.00  0.00     0.023 A 
ATOM     84  C   UNL A   1      44.335  34.610  28.449  1.00  0.00     0.031 A 
ATOM     85  C   UNL A   1      45.574  33.696  30.302  1.00  0.00     0.131 A 
ATOM     86  C   UNL A   1      44.897  35.867  28.730  1.00  0.00     0.055 A 
ATOM     87  C   UNL A   1      46.074  34.960  30.619  1.00  0.00     0.041 A 
ATOM     88  F   UNL A   1      45.960  32.667  31.073  1.00  0.00    -0.206 F 
ATOM     89  C   UNL A   1      45.747  36.052  29.822  1.00  0.00     0.022 A 
BRANCH  86  90
ATOM     90  S   UNL A   1      44.583  37.240  27.585  1.00  0.00     0.124 S 
ATOM     91  O   UNL A   1      44.041  38.259  28.478  1.00  0.00    -0.237 OA
ATOM     92  O   UNL A   1      45.911  37.506  27.044  1.00  0.00    -0.237 OA
ATOM     93  O   UNL A   1      43.626  36.680  26.632  1.00  0.00    -0.744 OA
ENDBRANCH  86  90
ENDBRANCH  60  83
ENDBRANCH  34  35
ENDBRANCH  27  29
ENDBRANCH  26  27
ENDBRANCH  25  26
ENDBRANCH  24  25
ENDBRANCH  23  24
ENDBRANCH   1  23
TORSDOF 22
ENDMDL
MODEL 3
REMARK VINA RESULT:     -10.1      1.642      7.617
REMARK SMILES Cc1ccc(C[N@H+]2CCC[C@@H](C(=O)OCCOCCOCCOC(=O)c3ccc(-c4c5nc(c(-c6cc(S(=O)(=O)[O-])ccc6F)c6ccc([nH]6)c(-c6cc(S(=O)(=O)[O-])ccc6F)c6nc(c(-c7cc(S(=O)(=O)[O-])ccc7F)c7ccc4[nH]7)C=C6)C=C5)cc3)C2)o1
REMARK SMILES IDX 19 1 18 2 17 3 16 4 15 5 14 6 12 7 13 8 11 9 7 10 8 11 89 12
REMARK SMILES IDX 9 14 10 15 6 16 5 17 1 18 2 19 3 20 90 21 4 22 20 23 21 24
REMARK SMILES IDX 22 25 23 26 24 27 25 28 26 29 27 30 88 31 28 32 87 33 29 34
REMARK SMILES IDX 30 35 31 36 81 37 32 38 86 39 80 40 82 41 33 42 85 43 79 44
REMARK SMILES IDX 78 45 34 47 66 48 46 49 65 50 47 51 50 52 64 53 83 54 48 55
REMARK SMILES IDX 49 56 63 58 84 59 51 60 35 61 36 62 44 63 37 64 43 65 45 66
REMARK SMILES IDX 42 67 38 68 39 69 40 70 41 71 67 72 68 73 76 74 69 75 75 76
REMARK SMILES IDX 77 77 74 78 70 79 71 80 72 81 73 82 52 83 53 84 61 85 54 86
REMARK SMILES IDX 60 87 62 88 59 89 55 90 56 91 57 92 58 93
REMARK H PARENT 7 13 82 46 50 57
REMARK Flexibility Score: inf
ROOT
ATOM      1  C   UNL A   1      34.395  22.706  26.420  1.00  0.00     0.188 C 
ENDROOT
BRANCH   1   2
ATOM      2  C   UNL A   1      33.190  21.744  26.484  1.00  0.00     0.188 C 
BRANCH   2   3
ATOM      3  O   UNL A   1      32.250  21.742  25.415  1.00  0.00    -0.376 OA
BRANCH   3   4
ATOM      4  C   UNL A   1      32.714  21.447  24.106  1.00  0.00     0.202 C 
BRANCH   4   5
ATOM      5  C   UNL A   1      32.067  22.155  22.902  1.00  0.00     0.261 C 
BRANCH   5   6
ATOM      6  O   UNL A   1      31.767  23.564  23.057  1.00  0.00    -0.463 OA
BRANCH   6   7
ATOM      7  C   UNL A   1      32.850  24.379  23.153  1.00  0.00     0.314 C 
ATOM      8  O   UNL A   1      33.832  24.263  22.423  1.00  0.00    -0.252 OA
BRANCH   7   9
ATOM      9  C   UNL A   1      32.796  25.409  24.296  1.00  0.00     0.154 C 
ATOM     10  N   UNL A   1      32.172  27.843  24.535  1.00  0.00    -0.328 N 
ATOM     11  C   UNL A   1      31.197  27.556  25.589  1.00  0.00     0.262 C 
ATOM     12  C   UNL A   1      32.324  26.704  23.620  1.00  0.00     0.278 C 
ATOM     13  H   UNL A   1      33.065  28.002  25.001  1.00  0.00     0.348 HD
ATOM     14  C   UNL A   1      31.650  26.336  26.390  1.00  0.00     0.062 C 
ATOM     15  C   UNL A   1      31.877  25.118  25.490  1.00  0.00     0.027 C 
BRANCH  10  16
ATOM     16  C   UNL A   1      31.838  29.076  23.782  1.00  0.00     0.338 C 
BRANCH  16  17
ATOM     17  C   UNL A   1      30.411  29.240  23.365  1.00  0.00     0.158 A 
ATOM     18  C   UNL A   1      27.648  31.490  23.585  1.00  0.00     0.087 C 
ATOM     19  C   UNL A   1      28.501  30.324  23.283  1.00  0.00     0.101 A 
ATOM     20  C   UNL A   1      28.327  29.178  22.539  1.00  0.00     0.046 A 
ATOM     21  O   UNL A   1      29.748  30.342  23.821  1.00  0.00    -0.460 OA
ATOM     22  C   UNL A   1      29.559  28.479  22.592  1.00  0.00     0.052 A 
ENDBRANCH  16  17
ENDBRANCH  10  16
ENDBRANCH   7   9
ENDBRANCH   6   7
ENDBRANCH   5   6
ENDBRANCH   4   5
ENDBRANCH   3   4
ENDBRANCH   2   3
ENDBRANCH   1   2
BRANCH   1  23
ATOM     23  O   UNL A   1      35.447  22.228  25.610  1.00  0.00    -0.376 OA
BRANCH  23  24
ATOM     24  C   UNL A   1      35.727  20.847  25.672  1.00  0.00     0.202 C 
BRANCH  24  25
ATOM     25  C   UNL A   1      36.989  20.400  24.918  1.00  0.00     0.261 C 
BRANCH  25  26
ATOM     26  O   UNL A   1      38.129  21.279  24.993  1.00  0.00    -0.460 OA
BRANCH  26  27
ATOM     27  C   UNL A   1      39.110  20.944  25.863  1.00  0.00     0.338 C 
ATOM     28  O   UNL A   1      39.597  19.830  26.001  1.00  0.00    -0.246 OA
BRANCH  27  29
ATOM     29  C   UNL A   1      39.664  22.186  26.458  1.00  0.00     0.060 A 
ATOM     30  C   UNL A   1      39.198  23.430  26.006  1.00  0.00     0.016 A 
ATOM     31  C   UNL A   1      40.644  22.129  27.450  1.00  0.00     0.016 A 
ATOM     32  C   UNL A   1      39.727  24.618  26.526  1.00  0.00     0.010 A 
ATOM     33  C   UNL A   1      41.190  23.319  27.951  1.00  0.00     0.010 A 
ATOM     34  C   UNL A   1      40.758  24.572  27.473  1.00  0.00    -0.014 A 
BRANCH  34  35
ATOM     35  C   UNL A   1      41.520  25.803  27.825  1.00  0.00     0.031 A 
ATOM     36  C   UNL A   1      40.802  26.903  28.563  1.00  0.00     0.074 A 
ATOM     37  C   UNL A   1      42.817  25.964  27.502  1.00  0.00     0.049 A 
ATOM     38  N   UNL A   1      41.212  28.105  28.876  1.00  0.00    -0.248 NA
ATOM     39  C   UNL A   1      39.429  26.601  28.994  1.00  0.00     0.031 C 
ATOM     40  C   UNL A   1      43.651  24.964  26.841  1.00  0.00     0.029 A 
ATOM     41  N   UNL A   1      43.656  27.041  27.676  1.00  0.00    -0.354 N 
ATOM     42  C   UNL A   1      40.144  28.710  29.529  1.00  0.00     0.074 A 
ATOM     43  C   UNL A   1      39.058  27.751  29.533  1.00  0.00     0.031 C 
ATOM     44  C   UNL A   1      44.876  25.483  26.650  1.00  0.00     0.029 A 
ATOM     45  C   UNL A   1      44.908  26.861  27.133  1.00  0.00     0.049 A 
ATOM     46  H   UNL A   1      43.386  27.863  28.144  1.00  0.00     0.167 HD
ATOM     47  C   UNL A   1      40.072  29.949  30.079  1.00  0.00     0.034 A 
ATOM     48  C   UNL A   1      45.949  27.714  27.009  1.00  0.00     0.034 A 
ATOM     49  C   UNL A   1      41.153  30.906  30.058  1.00  0.00     0.049 A 
ATOM     50  C   UNL A   1      45.815  29.125  27.533  1.00  0.00     0.074 A 
ATOM     51  C   UNL A   1      41.185  32.181  30.594  1.00  0.00     0.029 A 
ATOM     52  N   UNL A   1      42.388  30.702  29.455  1.00  0.00    -0.354 N 
ATOM     53  N   UNL A   1      44.798  29.688  28.146  1.00  0.00    -0.248 NA
ATOM     54  C   UNL A   1      46.971  30.016  27.350  1.00  0.00     0.031 C 
ATOM     55  C   UNL A   1      42.399  32.777  30.241  1.00  0.00     0.029 A 
ATOM     56  C   UNL A   1      43.170  31.842  29.570  1.00  0.00     0.049 A 
ATOM     57  H   UNL A   1      42.668  29.869  29.010  1.00  0.00     0.167 HD
ATOM     58  C   UNL A   1      45.208  30.986  28.449  1.00  0.00     0.074 A 
ATOM     59  C   UNL A   1      46.565  31.117  27.966  1.00  0.00     0.031 C 
ATOM     60  C   UNL A   1      44.522  31.977  29.077  1.00  0.00     0.034 A 
BRANCH  47  61
ATOM     61  C   UNL A   1      38.753  30.356  30.692  1.00  0.00     0.023 A 
ATOM     62  C   UNL A   1      37.772  31.042  29.956  1.00  0.00     0.031 A 
ATOM     63  C   UNL A   1      38.490  30.090  32.049  1.00  0.00     0.131 A 
ATOM     64  C   UNL A   1      36.616  31.512  30.598  1.00  0.00     0.055 A 
ATOM     65  C   UNL A   1      37.297  30.480  32.658  1.00  0.00     0.041 A 
ATOM     66  F   UNL A   1      39.399  29.461  32.810  1.00  0.00    -0.206 F 
ATOM     67  C   UNL A   1      36.359  31.210  31.937  1.00  0.00     0.022 A 
BRANCH  64  68
ATOM     68  S   UNL A   1      35.538  32.664  29.704  1.00  0.00     0.124 S 
ATOM     69  O   UNL A   1      36.488  33.323  28.809  1.00  0.00    -0.237 OA
ATOM     70  O   UNL A   1      34.578  31.769  29.067  1.00  0.00    -0.237 OA
ATOM     71  O   UNL A   1      34.996  33.516  30.759  1.00  0.00    -0.744 OA
ENDBRANCH  64  68
ENDBRANCH  47  61
BRANCH  48  72
ATOM     72  C   UNL A   1      47.203  27.284  26.318  1.00  0.00     0.023 A 
ATOM     73  C   UNL A   1      48.161  26.494  26.974  1.00  0.00     0.031 A 
ATOM     74  C   UNL A   1      47.494  27.713  25.010  1.00  0.00     0.131 A 
ATOM     75  C   UNL A   1      49.378  26.195  26.340  1.00  0.00     0.055 A 
ATOM     76  C   UNL A   1      48.679  27.362  24.361  1.00  0.00     0.041 A 
ATOM     77  F   UNL A   1      46.620  28.480  24.338  1.00  0.00    -0.206 F 
ATOM     78  C   UNL A   1      49.635  26.608  25.032  1.00  0.00     0.022 A 
BRANCH  75  79
ATOM     79  S   UNL A   1      50.664  25.334  27.289  1.00  0.00     0.124 S 
ATOM     80  O   UNL A   1      49.891  24.294  27.958  1.00  0.00    -0.237 OA
ATOM     81  O   UNL A   1      51.565  24.884  26.233  1.00  0.00    -0.237 OA
ATOM     82  O   UNL A   1      51.198  26.377  28.160  1.00  0.00    -0.744 OA
ENDBRANCH  75  79
ENDBRANCH  48  72
BRANCH  60  83
ATOM     83  C   UNL A   1      45.251  33.277  29.329  1.00  0.00     0.023 A 
ATOM     84  C   UNL A   1      45.271  34.318  28.385  1.00  0.00     0.031 A 
ATOM     85  C   UNL A   1      45.943  33.475  30.540  1.00  0.00     0.131 A 
ATOM     86  C   UNL A   1      46.015  35.482  28.640  1.00  0.00     0.055 A 
ATOM     87  C   UNL A   1      46.622  34.662  30.816  1.00  0.00     0.041 A 
ATOM     88  F   UNL A   1      45.966  32.515  31.479  1.00  0.00    -0.206 F 
ATOM     89  C   UNL A   1      46.673  35.669  29.858  1.00  0.00     0.022 A 
BRANCH  86  90
ATOM     90  S   UNL A   1      46.198  36.710  27.316  1.00  0.00     0.124 S 
ATOM     91  O   UNL A   1      45.027  37.556  27.524  1.00  0.00    -0.237 OA
ATOM     92  O   UNL A   1      47.488  37.317  27.629  1.00  0.00    -0.237 OA
ATOM     93  O   UNL A   1      46.172  35.906  26.095  1.00  0.00    -0.744 OA
ENDBRANCH  86  90
ENDBRANCH  60  83
ENDBRANCH  34  35
ENDBRANCH  27  29
ENDBRANCH  26  27
ENDBRANCH  25  26
ENDBRANCH  24  25
ENDBRANCH  23  24
ENDBRANCH   1  23
TORSDOF 22
ENDMDL
