MODEL 1
REMARK VINA RESULT:      -9.3      0.000      0.000
REMARK SMILES O=C(COc1cccc(NC(=O)c2ccc3c(c2)C(=O)N(c2ccccc2-c2ccccc2)C3=O)c1)OCCOCCOCCOC(=O)c1ccc(-c2c3nc(c(-c4cc(S(=O)(=O)[O-])ccc4F)c4ccc([nH]4)c(-c4cc(S(=O)(=O)[O-])ccc4F)c4nc(c(-c5cc(S(=O)(=O)[O-])ccc5F)c5ccc2[nH]5)C=C4)C=C3)cc1
REMARK SMILES IDX 40 1 39 2 38 3 37 4 2 5 1 6 3 7 4 8 5 9 6 10 36 11 7 12 9 13
REMARK SMILES IDX 8 14 10 15 11 16 12 18 13 19 14 20 18 21 15 22 17 23 16 24
REMARK SMILES IDX 19 25 34 26 20 27 21 28 35 29 22 30 23 31 27 32 24 33 26 34
REMARK SMILES IDX 25 35 28 36 29 37 33 38 30 39 32 40 31 41 41 42 42 43 43 44
REMARK SMILES IDX 44 45 45 46 46 47 47 48 48 49 49 50 50 51 111 52 51 53
REMARK SMILES IDX 110 54 52 55 53 56 54 57 104 58 55 59 109 60 103 61 105 62
REMARK SMILES IDX 56 63 108 64 102 65 101 66 57 68 89 69 69 70 88 71 70 72
REMARK SMILES IDX 73 73 87 74 106 75 71 76 72 77 86 79 107 80 74 81 58 82
REMARK SMILES IDX 59 83 67 84 60 85 66 86 68 87 65 88 61 89 62 90 63 91 64 92
REMARK SMILES IDX 90 93 91 94 99 95 92 96 98 97 100 98 97 99 93 100 94 101
REMARK SMILES IDX 95 102 96 103 75 104 76 105 84 106 77 107 83 108 85 109
REMARK SMILES IDX 82 110 78 111 79 112 80 113 81 114
REMARK H PARENT 10 17 105 67 73 78
REMARK Flexibility Score: inf
ROOT
ATOM      1  O   UNL A   1      32.962  34.864  29.817  1.00  0.00    -0.376 OA
ENDROOT
BRANCH   1   2
ATOM      2  C   UNL A   1      33.393  34.852  28.465  1.00  0.00     0.202 C 
BRANCH   2   3
ATOM      3  C   UNL A   1      33.418  33.421  27.941  1.00  0.00     0.261 C 
BRANCH   3   4
ATOM      4  O   UNL A   1      34.375  32.545  28.585  1.00  0.00    -0.461 OA
BRANCH   4   5
ATOM      5  C   UNL A   1      34.741  31.293  28.239  1.00  0.00     0.344 C 
ATOM      6  O   UNL A   1      33.979  30.607  27.559  1.00  0.00    -0.248 OA
BRANCH   5   7
ATOM      7  C   UNL A   1      36.079  30.731  28.698  1.00  0.00     0.351 C 
BRANCH   7   8
ATOM      8  O   UNL A   1      36.080  29.650  29.609  1.00  0.00    -0.482 OA
BRANCH   8   9
ATOM      9  C   UNL A   1      37.322  29.260  30.020  1.00  0.00     0.122 A 
ATOM     10  C   UNL A   1      37.420  28.968  31.374  1.00  0.00     0.046 A 
ATOM     11  C   UNL A   1      38.452  29.211  29.191  1.00  0.00     0.072 A 
ATOM     12  C   UNL A   1      38.651  28.620  31.901  1.00  0.00     0.006 A 
ATOM     13  C   UNL A   1      39.684  28.807  29.699  1.00  0.00     0.045 A 
ATOM     14  C   UNL A   1      39.773  28.566  31.070  1.00  0.00     0.026 A 
BRANCH  13  15
ATOM     15  N   UNL A   1      40.774  28.721  28.798  1.00  0.00    -0.322 N 
ATOM     16  C   UNL A   1      41.429  27.616  28.276  1.00  0.00     0.255 C 
ATOM     17  H   UNL A   1      41.123  29.588  28.492  1.00  0.00     0.170 HD
ATOM     18  O   UNL A   1      42.464  27.716  27.627  1.00  0.00    -0.269 OA
BRANCH  16  19
ATOM     19  C   UNL A   1      40.749  26.309  28.351  1.00  0.00     0.041 A 
ATOM     20  C   UNL A   1      39.484  26.137  27.750  1.00  0.00     0.015 A 
ATOM     21  C   UNL A   1      41.549  25.225  28.708  1.00  0.00     0.028 A 
ATOM     22  C   UNL A   1      39.122  24.871  27.260  1.00  0.00     0.015 A 
ATOM     23  C   UNL A   1      41.152  24.004  28.215  1.00  0.00     0.054 A 
ATOM     24  C   UNL A   1      40.031  23.839  27.440  1.00  0.00     0.053 A 
ATOM     25  C   UNL A   1      41.949  22.807  28.115  1.00  0.00     0.266 C 
ATOM     26  C   UNL A   1      40.191  22.559  26.740  1.00  0.00     0.266 C 
ATOM     27  O   UNL A   1      42.866  22.656  28.901  1.00  0.00    -0.268 OA
ATOM     28  N   UNL A   1      41.447  22.078  27.056  1.00  0.00    -0.242 N 
ATOM     29  O   UNL A   1      39.261  22.126  26.086  1.00  0.00    -0.268 OA
BRANCH  28  30
ATOM     30  C   UNL A   1      42.196  21.027  26.416  1.00  0.00     0.060 A 
ATOM     31  C   UNL A   1      41.725  19.697  26.576  1.00  0.00     0.027 A 
ATOM     32  C   UNL A   1      43.431  21.189  25.730  1.00  0.00     0.006 A 
ATOM     33  C   UNL A   1      42.409  18.581  26.106  1.00  0.00     0.002 A 
ATOM     34  C   UNL A   1      44.082  20.037  25.217  1.00  0.00     0.011 A 
ATOM     35  C   UNL A   1      43.587  18.755  25.419  1.00  0.00     0.001 A 
BRANCH  32  36
ATOM     36  C   UNL A   1      44.219  22.424  25.600  1.00  0.00    -0.016 A 
ATOM     37  C   UNL A   1      43.657  23.590  25.057  1.00  0.00     0.009 A 
ATOM     38  C   UNL A   1      45.599  22.415  25.866  1.00  0.00     0.009 A 
ATOM     39  C   UNL A   1      44.436  24.733  24.852  1.00  0.00     0.001 A 
ATOM     40  C   UNL A   1      46.382  23.551  25.646  1.00  0.00     0.001 A 
ATOM     41  C   UNL A   1      45.796  24.715  25.154  1.00  0.00     0.000 A 
ENDBRANCH  32  36
ENDBRANCH  28  30
ENDBRANCH  16  19
ENDBRANCH  13  15
ENDBRANCH   8   9
ENDBRANCH   7   8
ENDBRANCH   5   7
ENDBRANCH   4   5
ENDBRANCH   3   4
ENDBRANCH   2   3
ENDBRANCH   1   2
BRANCH   1  42
ATOM     42  C   UNL A   1      34.015  34.931  30.774  1.00  0.00     0.188 C 
BRANCH  42  43
ATOM     43  C   UNL A   1      33.697  35.920  31.904  1.00  0.00     0.188 C 
BRANCH  43  44
ATOM     44  O   UNL A   1      33.990  35.546  33.248  1.00  0.00    -0.376 OA
BRANCH  44  45
ATOM     45  C   UNL A   1      34.598  34.288  33.498  1.00  0.00     0.202 C 
BRANCH  45  46
ATOM     46  C   UNL A   1      36.052  34.324  33.981  1.00  0.00     0.261 C 
BRANCH  46  47
ATOM     47  O   UNL A   1      37.019  34.190  32.922  1.00  0.00    -0.460 OA
BRANCH  47  48
ATOM     48  C   UNL A   1      37.127  32.952  32.376  1.00  0.00     0.338 C 
ATOM     49  O   UNL A   1      36.585  32.560  31.356  1.00  0.00    -0.246 OA
BRANCH  48  50
ATOM     50  C   UNL A   1      38.141  32.153  33.108  1.00  0.00     0.060 A 
ATOM     51  C   UNL A   1      37.728  31.427  34.236  1.00  0.00     0.016 A 
ATOM     52  C   UNL A   1      39.489  32.166  32.745  1.00  0.00     0.016 A 
ATOM     53  C   UNL A   1      38.667  30.764  35.037  1.00  0.00     0.010 A 
ATOM     54  C   UNL A   1      40.429  31.517  33.556  1.00  0.00     0.010 A 
ATOM     55  C   UNL A   1      40.031  30.845  34.729  1.00  0.00    -0.014 A 
BRANCH  55  56
ATOM     56  C   UNL A   1      41.064  30.450  35.727  1.00  0.00     0.031 A 
ATOM     57  C   UNL A   1      41.283  31.354  36.912  1.00  0.00     0.074 A 
ATOM     58  C   UNL A   1      41.826  29.352  35.578  1.00  0.00     0.049 A 
ATOM     59  N   UNL A   1      42.227  31.333  37.817  1.00  0.00    -0.248 NA
ATOM     60  C   UNL A   1      40.305  32.438  37.084  1.00  0.00     0.031 C 
ATOM     61  C   UNL A   1      41.688  28.363  34.513  1.00  0.00     0.029 A 
ATOM     62  N   UNL A   1      42.900  28.907  36.316  1.00  0.00    -0.354 N 
ATOM     63  C   UNL A   1      41.971  32.415  38.655  1.00  0.00     0.074 A 
ATOM     64  C   UNL A   1      40.797  33.080  38.131  1.00  0.00     0.031 C 
ATOM     65  C   UNL A   1      42.670  27.451  34.638  1.00  0.00     0.029 A 
ATOM     66  C   UNL A   1      43.535  27.820  35.760  1.00  0.00     0.049 A 
ATOM     67  H   UNL A   1      43.185  29.326  37.159  1.00  0.00     0.167 HD
ATOM     68  C   UNL A   1      42.652  32.819  39.757  1.00  0.00     0.034 A 
ATOM     69  C   UNL A   1      44.705  27.226  36.085  1.00  0.00     0.034 A 
ATOM     70  C   UNL A   1      43.828  32.157  40.265  1.00  0.00     0.049 A 
ATOM     71  C   UNL A   1      45.506  27.748  37.258  1.00  0.00     0.074 A 
ATOM     72  C   UNL A   1      44.571  32.464  41.391  1.00  0.00     0.029 A 
ATOM     73  N   UNL A   1      44.448  31.068  39.665  1.00  0.00    -0.354 N 
ATOM     74  N   UNL A   1      45.241  28.753  38.061  1.00  0.00    -0.248 NA
ATOM     75  C   UNL A   1      46.766  27.055  37.570  1.00  0.00     0.031 C 
ATOM     76  C   UNL A   1      45.682  31.613  41.429  1.00  0.00     0.029 A 
ATOM     77  C   UNL A   1      45.587  30.721  40.373  1.00  0.00     0.049 A 
ATOM     78  H   UNL A   1      44.124  30.610  38.857  1.00  0.00     0.167 HD
ATOM     79  C   UNL A   1      46.281  28.786  38.989  1.00  0.00     0.074 A 
ATOM     80  C   UNL A   1      47.175  27.700  38.653  1.00  0.00     0.031 C 
ATOM     81  C   UNL A   1      46.473  29.632  40.033  1.00  0.00     0.034 A 
BRANCH  68  82
ATOM     82  C   UNL A   1      42.171  34.078  40.437  1.00  0.00     0.023 A 
ATOM     83  C   UNL A   1      41.289  34.041  41.530  1.00  0.00     0.031 A 
ATOM     84  C   UNL A   1      42.554  35.338  39.942  1.00  0.00     0.131 A 
ATOM     85  C   UNL A   1      40.747  35.233  42.031  1.00  0.00     0.055 A 
ATOM     86  C   UNL A   1      42.080  36.524  40.503  1.00  0.00     0.041 A 
ATOM     87  F   UNL A   1      43.378  35.436  38.887  1.00  0.00    -0.206 F 
ATOM     88  C   UNL A   1      41.153  36.476  41.541  1.00  0.00     0.022 A 
BRANCH  85  89
ATOM     89  S   UNL A   1      39.365  35.129  43.203  1.00  0.00     0.124 S 
ATOM     90  O   UNL A   1      38.384  36.018  42.584  1.00  0.00    -0.237 OA
ATOM     91  O   UNL A   1      39.043  33.707  43.180  1.00  0.00    -0.237 OA
ATOM     92  O   UNL A   1      39.939  35.622  44.453  1.00  0.00    -0.744 OA
ENDBRANCH  85  89
ENDBRANCH  68  82
BRANCH  69  93
ATOM     93  C   UNL A   1      45.251  26.121  35.242  1.00  0.00     0.023 A 
ATOM     94  C   UNL A   1      45.126  24.776  35.625  1.00  0.00     0.031 A 
ATOM     95  C   UNL A   1      45.977  26.405  34.070  1.00  0.00     0.131 A 
ATOM     96  C   UNL A   1      45.764  23.773  34.877  1.00  0.00     0.055 A 
ATOM     97  C   UNL A   1      46.545  25.398  33.289  1.00  0.00     0.041 A 
ATOM     98  F   UNL A   1      46.140  27.674  33.663  1.00  0.00    -0.206 F 
ATOM     99  C   UNL A   1      46.448  24.073  33.697  1.00  0.00     0.022 A 
BRANCH  96 100
ATOM    100  S   UNL A   1      45.685  22.050  35.448  1.00  0.00     0.124 S 
ATOM    101  O   UNL A   1      45.536  22.227  36.886  1.00  0.00    -0.237 OA
ATOM    102  O   UNL A   1      44.516  21.537  34.742  1.00  0.00    -0.237 OA
ATOM    103  O   UNL A   1      46.966  21.502  35.004  1.00  0.00    -0.744 OA
ENDBRANCH  96 100
ENDBRANCH  69  93
BRANCH  81 104
ATOM    104  C   UNL A   1      47.659  29.377  40.934  1.00  0.00     0.023 A 
ATOM    105  C   UNL A   1      48.935  29.896  40.657  1.00  0.00     0.031 A 
ATOM    106  C   UNL A   1      47.493  28.622  42.109  1.00  0.00     0.131 A 
ATOM    107  C   UNL A   1      50.004  29.624  41.528  1.00  0.00     0.055 A 
ATOM    108  C   UNL A   1      48.546  28.396  42.996  1.00  0.00     0.041 A 
ATOM    109  F   UNL A   1      46.296  28.101  42.422  1.00  0.00    -0.206 F 
ATOM    110  C   UNL A   1      49.812  28.893  42.705  1.00  0.00     0.022 A 
BRANCH 107 111
ATOM    111  S   UNL A   1      51.668  30.195  41.082  1.00  0.00     0.124 S 
ATOM    112  O   UNL A   1      52.514  29.326  41.892  1.00  0.00    -0.237 OA
ATOM    113  O   UNL A   1      51.704  29.960  39.642  1.00  0.00    -0.237 OA
ATOM    114  O   UNL A   1      51.665  31.603  41.477  1.00  0.00    -0.744 OA
ENDBRANCH 107 111
ENDBRANCH  81 104
ENDBRANCH  55  56
ENDBRANCH  48  50
ENDBRANCH  47  48
ENDBRANCH  46  47
ENDBRANCH  45  46
ENDBRANCH  44  45
ENDBRANCH  43  44
ENDBRANCH  42  43
ENDBRANCH   1  42
TORSDOF 26
ENDMDL
MODEL 2
REMARK VINA RESULT:      -9.0      5.170     12.120
REMARK SMILES O=C(COc1cccc(NC(=O)c2ccc3c(c2)C(=O)N(c2ccccc2-c2ccccc2)C3=O)c1)OCCOCCOCCOC(=O)c1ccc(-c2c3nc(c(-c4cc(S(=O)(=O)[O-])ccc4F)c4ccc([nH]4)c(-c4cc(S(=O)(=O)[O-])ccc4F)c4nc(c(-c5cc(S(=O)(=O)[O-])ccc5F)c5ccc2[nH]5)C=C4)C=C3)cc1
REMARK SMILES IDX 40 1 39 2 38 3 37 4 2 5 1 6 3 7 4 8 5 9 6 10 36 11 7 12 9 13
REMARK SMILES IDX 8 14 10 15 11 16 12 18 13 19 14 20 18 21 15 22 17 23 16 24
REMARK SMILES IDX 19 25 34 26 20 27 21 28 35 29 22 30 23 31 27 32 24 33 26 34
REMARK SMILES IDX 25 35 28 36 29 37 33 38 30 39 32 40 31 41 41 42 42 43 43 44
REMARK SMILES IDX 44 45 45 46 46 47 47 48 48 49 49 50 50 51 111 52 51 53
REMARK SMILES IDX 110 54 52 55 53 56 54 57 104 58 55 59 109 60 103 61 105 62
REMARK SMILES IDX 56 63 108 64 102 65 101 66 57 68 89 69 69 70 88 71 70 72
REMARK SMILES IDX 73 73 87 74 106 75 71 76 72 77 86 79 107 80 74 81 58 82
REMARK SMILES IDX 59 83 67 84 60 85 66 86 68 87 65 88 61 89 62 90 63 91 64 92
REMARK SMILES IDX 90 93 91 94 99 95 92 96 98 97 100 98 97 99 93 100 94 101
REMARK SMILES IDX 95 102 96 103 75 104 76 105 84 106 77 107 83 108 85 109
REMARK SMILES IDX 82 110 78 111 79 112 80 113 81 114
REMARK H PARENT 10 17 105 67 73 78
REMARK Flexibility Score: inf
ROOT
ATOM      1  O   UNL A   1      50.705  24.558  38.391  1.00  0.00    -0.376 OA
ENDROOT
BRANCH   1   2
ATOM      2  C   UNL A   1      50.668  24.631  36.974  1.00  0.00     0.202 C 
BRANCH   2   3
ATOM      3  C   UNL A   1      50.090  25.972  36.539  1.00  0.00     0.261 C 
BRANCH   3   4
ATOM      4  O   UNL A   1      49.890  26.124  35.111  1.00  0.00    -0.461 OA
BRANCH   4   5
ATOM      5  C   UNL A   1      48.756  25.971  34.395  1.00  0.00     0.344 C 
ATOM      6  O   UNL A   1      47.684  26.331  34.879  1.00  0.00    -0.248 OA
BRANCH   5   7
ATOM      7  C   UNL A   1      48.804  25.346  33.009  1.00  0.00     0.351 C 
BRANCH   7   8
ATOM      8  O   UNL A   1      49.115  26.173  31.906  1.00  0.00    -0.482 OA
BRANCH   8   9
ATOM      9  C   UNL A   1      48.054  26.448  31.090  1.00  0.00     0.122 A 
ATOM     10  C   UNL A   1      46.920  25.686  31.336  1.00  0.00     0.046 A 
ATOM     11  C   UNL A   1      48.087  27.368  30.032  1.00  0.00     0.072 A 
ATOM     12  C   UNL A   1      45.811  25.847  30.525  1.00  0.00     0.006 A 
ATOM     13  C   UNL A   1      46.958  27.579  29.245  1.00  0.00     0.045 A 
ATOM     14  C   UNL A   1      45.845  26.769  29.476  1.00  0.00     0.026 A 
BRANCH  13  15
ATOM     15  N   UNL A   1      47.034  28.564  28.230  1.00  0.00    -0.322 N 
ATOM     16  C   UNL A   1      47.168  28.436  26.856  1.00  0.00     0.255 C 
ATOM     17  H   UNL A   1      46.984  29.491  28.554  1.00  0.00     0.170 HD
ATOM     18  O   UNL A   1      47.381  29.399  26.128  1.00  0.00    -0.269 OA
BRANCH  16  19
ATOM     19  C   UNL A   1      46.857  27.128  26.249  1.00  0.00     0.041 A 
ATOM     20  C   UNL A   1      47.649  26.002  26.557  1.00  0.00     0.015 A 
ATOM     21  C   UNL A   1      45.591  27.005  25.681  1.00  0.00     0.028 A 
ATOM     22  C   UNL A   1      47.065  24.725  26.539  1.00  0.00     0.015 A 
ATOM     23  C   UNL A   1      45.062  25.736  25.676  1.00  0.00     0.054 A 
ATOM     24  C   UNL A   1      45.731  24.644  26.170  1.00  0.00     0.053 A 
ATOM     25  C   UNL A   1      43.679  25.372  25.495  1.00  0.00     0.266 C 
ATOM     26  C   UNL A   1      44.719  23.612  26.423  1.00  0.00     0.266 C 
ATOM     27  O   UNL A   1      42.963  26.119  24.853  1.00  0.00    -0.268 OA
ATOM     28  N   UNL A   1      43.487  24.180  26.163  1.00  0.00    -0.242 N 
ATOM     29  O   UNL A   1      45.084  22.497  26.746  1.00  0.00    -0.268 OA
BRANCH  28  30
ATOM     30  C   UNL A   1      42.178  23.698  26.526  1.00  0.00     0.060 A 
ATOM     31  C   UNL A   1      41.766  22.451  25.986  1.00  0.00     0.027 A 
ATOM     32  C   UNL A   1      41.215  24.413  27.290  1.00  0.00     0.006 A 
ATOM     33  C   UNL A   1      40.492  21.922  26.164  1.00  0.00     0.002 A 
ATOM     34  C   UNL A   1      39.940  23.826  27.499  1.00  0.00     0.011 A 
ATOM     35  C   UNL A   1      39.582  22.611  26.930  1.00  0.00     0.001 A 
BRANCH  32  36
ATOM     36  C   UNL A   1      41.324  25.791  27.791  1.00  0.00    -0.016 A 
ATOM     37  C   UNL A   1      40.627  26.844  27.177  1.00  0.00     0.009 A 
ATOM     38  C   UNL A   1      42.257  26.108  28.792  1.00  0.00     0.009 A 
ATOM     39  C   UNL A   1      40.806  28.164  27.599  1.00  0.00     0.001 A 
ATOM     40  C   UNL A   1      42.449  27.430  29.204  1.00  0.00     0.001 A 
ATOM     41  C   UNL A   1      41.711  28.456  28.618  1.00  0.00     0.000 A 
ENDBRANCH  32  36
ENDBRANCH  28  30
ENDBRANCH  16  19
ENDBRANCH  13  15
ENDBRANCH   8   9
ENDBRANCH   7   8
ENDBRANCH   5   7
ENDBRANCH   4   5
ENDBRANCH   3   4
ENDBRANCH   2   3
ENDBRANCH   1   2
BRANCH   1  42
ATOM     42  C   UNL A   1      49.518  24.044  38.988  1.00  0.00     0.188 C 
BRANCH  42  43
ATOM     43  C   UNL A   1      48.745  25.130  39.747  1.00  0.00     0.188 C 
BRANCH  43  44
ATOM     44  O   UNL A   1      47.412  25.437  39.343  1.00  0.00    -0.376 OA
BRANCH  44  45
ATOM     45  C   UNL A   1      46.867  24.779  38.209  1.00  0.00     0.202 C 
BRANCH  45  46
ATOM     46  C   UNL A   1      45.412  24.312  38.335  1.00  0.00     0.261 C 
BRANCH  46  47
ATOM     47  O   UNL A   1      44.491  25.053  37.513  1.00  0.00    -0.460 OA
BRANCH  47  48
ATOM     48  C   UNL A   1      44.313  24.580  36.253  1.00  0.00     0.338 C 
ATOM     49  O   UNL A   1      44.445  23.425  35.888  1.00  0.00    -0.246 OA
BRANCH  48  50
ATOM     50  C   UNL A   1      43.769  25.647  35.375  1.00  0.00     0.060 A 
ATOM     51  C   UNL A   1      43.737  25.417  33.991  1.00  0.00     0.016 A 
ATOM     52  C   UNL A   1      43.361  26.881  35.884  1.00  0.00     0.016 A 
ATOM     53  C   UNL A   1      43.356  26.437  33.110  1.00  0.00     0.010 A 
ATOM     54  C   UNL A   1      42.996  27.907  35.001  1.00  0.00     0.010 A 
ATOM     55  C   UNL A   1      43.030  27.705  33.608  1.00  0.00    -0.014 A 
BRANCH  55  56
ATOM     56  C   UNL A   1      42.955  28.885  32.701  1.00  0.00     0.031 A 
ATOM     57  C   UNL A   1      44.247  29.542  32.289  1.00  0.00     0.074 A 
ATOM     58  C   UNL A   1      41.784  29.400  32.284  1.00  0.00     0.049 A 
ATOM     59  N   UNL A   1      44.447  30.673  31.662  1.00  0.00    -0.248 NA
ATOM     60  C   UNL A   1      45.478  28.826  32.652  1.00  0.00     0.031 C 
ATOM     61  C   UNL A   1      40.466  28.838  32.560  1.00  0.00     0.029 A 
ATOM     62  N   UNL A   1      41.520  30.543  31.565  1.00  0.00    -0.354 N 
ATOM     63  C   UNL A   1      45.829  30.815  31.574  1.00  0.00     0.074 A 
ATOM     64  C   UNL A   1      46.410  29.666  32.235  1.00  0.00     0.031 C 
ATOM     65  C   UNL A   1      39.528  29.662  32.057  1.00  0.00     0.029 A 
ATOM     66  C   UNL A   1      40.179  30.834  31.468  1.00  0.00     0.049 A 
ATOM     67  H   UNL A   1      42.224  31.099  31.159  1.00  0.00     0.167 HD
ATOM     68  C   UNL A   1      46.548  31.813  30.999  1.00  0.00     0.034 A 
ATOM     69  C   UNL A   1      39.550  31.939  31.009  1.00  0.00     0.034 A 
ATOM     70  C   UNL A   1      45.960  32.960  30.354  1.00  0.00     0.049 A 
ATOM     71  C   UNL A   1      40.368  33.088  30.459  1.00  0.00     0.074 A 
ATOM     72  C   UNL A   1      46.597  34.008  29.711  1.00  0.00     0.029 A 
ATOM     73  N   UNL A   1      44.599  33.224  30.289  1.00  0.00    -0.354 N 
ATOM     74  N   UNL A   1      41.673  33.201  30.355  1.00  0.00    -0.248 NA
ATOM     75  C   UNL A   1      39.629  34.260  29.964  1.00  0.00     0.031 C 
ATOM     76  C   UNL A   1      45.627  34.942  29.328  1.00  0.00     0.029 A 
ATOM     77  C   UNL A   1      44.379  34.438  29.658  1.00  0.00     0.049 A 
ATOM     78  H   UNL A   1      43.892  32.635  30.640  1.00  0.00     0.167 HD
ATOM     79  C   UNL A   1      41.903  34.437  29.751  1.00  0.00     0.074 A 
ATOM     80  C   UNL A   1      40.606  35.031  29.509  1.00  0.00     0.031 C 
ATOM     81  C   UNL A   1      43.081  35.023  29.417  1.00  0.00     0.034 A 
BRANCH  68  82
ATOM     82  C   UNL A   1      48.051  31.729  31.114  1.00  0.00     0.023 A 
ATOM     83  C   UNL A   1      48.830  31.045  30.166  1.00  0.00     0.031 A 
ATOM     84  C   UNL A   1      48.707  32.290  32.224  1.00  0.00     0.131 A 
ATOM     85  C   UNL A   1      50.202  30.858  30.392  1.00  0.00     0.055 A 
ATOM     86  C   UNL A   1      50.087  32.177  32.398  1.00  0.00     0.041 A 
ATOM     87  F   UNL A   1      48.012  32.937  33.174  1.00  0.00    -0.206 F 
ATOM     88  C   UNL A   1      50.840  31.440  31.490  1.00  0.00     0.022 A 
BRANCH  85  89
ATOM     89  S   UNL A   1      51.102  29.692  29.334  1.00  0.00     0.124 S 
ATOM     90  O   UNL A   1      51.253  28.542  30.223  1.00  0.00    -0.237 OA
ATOM     91  O   UNL A   1      50.185  29.516  28.213  1.00  0.00    -0.237 OA
ATOM     92  O   UNL A   1      52.343  30.398  29.024  1.00  0.00    -0.744 OA
ENDBRANCH  85  89
ENDBRANCH  68  82
BRANCH  69  93
ATOM     93  C   UNL A   1      38.067  32.068  31.122  1.00  0.00     0.023 A 
ATOM     94  C   UNL A   1      37.472  32.809  32.154  1.00  0.00     0.031 A 
ATOM     95  C   UNL A   1      37.218  31.381  30.233  1.00  0.00     0.131 A 
ATOM     96  C   UNL A   1      36.076  32.801  32.307  1.00  0.00     0.055 A 
ATOM     97  C   UNL A   1      35.829  31.437  30.344  1.00  0.00     0.041 A 
ATOM     98  F   UNL A   1      37.733  30.645  29.235  1.00  0.00    -0.206 F 
ATOM     99  C   UNL A   1      35.250  32.144  31.392  1.00  0.00     0.022 A 
BRANCH  96 100
ATOM    100  S   UNL A   1      35.328  33.675  33.713  1.00  0.00     0.124 S 
ATOM    101  O   UNL A   1      36.025  33.066  34.838  1.00  0.00    -0.237 OA
ATOM    102  O   UNL A   1      35.661  35.068  33.432  1.00  0.00    -0.237 OA
ATOM    103  O   UNL A   1      33.911  33.341  33.587  1.00  0.00    -0.744 OA
ENDBRANCH  96 100
ENDBRANCH  69  93
BRANCH  81 104
ATOM    104  C   UNL A   1      43.024  36.345  28.689  1.00  0.00     0.023 A 
ATOM    105  C   UNL A   1      43.180  37.574  29.353  1.00  0.00     0.031 A 
ATOM    106  C   UNL A   1      42.840  36.367  27.294  1.00  0.00     0.131 A 
ATOM    107  C   UNL A   1      43.116  38.775  28.626  1.00  0.00     0.055 A 
ATOM    108  C   UNL A   1      42.826  37.559  26.570  1.00  0.00     0.041 A 
ATOM    109  F   UNL A   1      42.684  35.223  26.609  1.00  0.00    -0.206 F 
ATOM    110  C   UNL A   1      42.958  38.773  27.236  1.00  0.00     0.022 A 
BRANCH 107 111
ATOM    111  S   UNL A   1      43.190  40.350  29.523  1.00  0.00     0.124 S 
ATOM    112  O   UNL A   1      43.549  39.916  30.869  1.00  0.00    -0.237 OA
ATOM    113  O   UNL A   1      44.219  41.080  28.792  1.00  0.00    -0.237 OA
ATOM    114  O   UNL A   1      41.836  40.887  29.386  1.00  0.00    -0.744 OA
ENDBRANCH 107 111
ENDBRANCH  81 104
ENDBRANCH  55  56
ENDBRANCH  48  50
ENDBRANCH  47  48
ENDBRANCH  46  47
ENDBRANCH  45  46
ENDBRANCH  44  45
ENDBRANCH  43  44
ENDBRANCH  42  43
ENDBRANCH   1  42
TORSDOF 26
ENDMDL
MODEL 3
REMARK VINA RESULT:      -8.8      5.452     11.955
REMARK SMILES O=C(COc1cccc(NC(=O)c2ccc3c(c2)C(=O)N(c2ccccc2-c2ccccc2)C3=O)c1)OCCOCCOCCOC(=O)c1ccc(-c2c3nc(c(-c4cc(S(=O)(=O)[O-])ccc4F)c4ccc([nH]4)c(-c4cc(S(=O)(=O)[O-])ccc4F)c4nc(c(-c5cc(S(=O)(=O)[O-])ccc5F)c5ccc2[nH]5)C=C4)C=C3)cc1
REMARK SMILES IDX 40 1 39 2 38 3 37 4 2 5 1 6 3 7 4 8 5 9 6 10 36 11 7 12 9 13
REMARK SMILES IDX 8 14 10 15 11 16 12 18 13 19 14 20 18 21 15 22 17 23 16 24
REMARK SMILES IDX 19 25 34 26 20 27 21 28 35 29 22 30 23 31 27 32 24 33 26 34
REMARK SMILES IDX 25 35 28 36 29 37 33 38 30 39 32 40 31 41 41 42 42 43 43 44
REMARK SMILES IDX 44 45 45 46 46 47 47 48 48 49 49 50 50 51 111 52 51 53
REMARK SMILES IDX 110 54 52 55 53 56 54 57 104 58 55 59 109 60 103 61 105 62
REMARK SMILES IDX 56 63 108 64 102 65 101 66 57 68 89 69 69 70 88 71 70 72
REMARK SMILES IDX 73 73 87 74 106 75 71 76 72 77 86 79 107 80 74 81 58 82
REMARK SMILES IDX 59 83 67 84 60 85 66 86 68 87 65 88 61 89 62 90 63 91 64 92
REMARK SMILES IDX 90 93 91 94 99 95 92 96 98 97 100 98 97 99 93 100 94 101
REMARK SMILES IDX 95 102 96 103 75 104 76 105 84 106 77 107 83 108 85 109
REMARK SMILES IDX 82 110 78 111 79 112 80 113 81 114
REMARK H PARENT 10 17 105 67 73 78
REMARK Flexibility Score: inf
ROOT
ATOM      1  O   UNL A   1      51.356  25.176  37.073  1.00  0.00    -0.376 OA
ENDROOT
BRANCH   1   2
ATOM      2  C   UNL A   1      51.299  25.408  35.674  1.00  0.00     0.202 C 
BRANCH   2   3
ATOM      3  C   UNL A   1      50.561  26.712  35.394  1.00  0.00     0.261 C 
BRANCH   3   4
ATOM      4  O   UNL A   1      50.195  26.929  34.009  1.00  0.00    -0.461 OA
BRANCH   4   5
ATOM      5  C   UNL A   1      49.108  26.485  33.342  1.00  0.00     0.344 C 
ATOM      6  O   UNL A   1      47.994  26.628  33.843  1.00  0.00    -0.248 OA
BRANCH   5   7
ATOM      7  C   UNL A   1      49.264  25.802  31.991  1.00  0.00     0.351 C 
BRANCH   7   8
ATOM      8  O   UNL A   1      49.357  26.608  30.835  1.00  0.00    -0.482 OA
BRANCH   8   9
ATOM      9  C   UNL A   1      48.177  26.774  30.166  1.00  0.00     0.122 A 
ATOM     10  C   UNL A   1      47.173  25.888  30.533  1.00  0.00     0.046 A 
ATOM     11  C   UNL A   1      47.974  27.704  29.136  1.00  0.00     0.072 A 
ATOM     12  C   UNL A   1      45.959  25.935  29.872  1.00  0.00     0.006 A 
ATOM     13  C   UNL A   1      46.737  27.798  28.503  1.00  0.00     0.045 A 
ATOM     14  C   UNL A   1      45.758  26.867  28.852  1.00  0.00     0.026 A 
BRANCH  13  15
ATOM     15  N   UNL A   1      46.577  28.797  27.512  1.00  0.00    -0.322 N 
ATOM     16  C   UNL A   1      46.608  28.710  26.128  1.00  0.00     0.255 C 
ATOM     17  H   UNL A   1      46.415  29.701  27.864  1.00  0.00     0.170 HD
ATOM     18  O   UNL A   1      46.609  29.704  25.411  1.00  0.00    -0.269 OA
BRANCH  16  19
ATOM     19  C   UNL A   1      46.447  27.378  25.515  1.00  0.00     0.041 A 
ATOM     20  C   UNL A   1      47.468  26.414  25.645  1.00  0.00     0.015 A 
ATOM     21  C   UNL A   1      45.149  27.032  25.141  1.00  0.00     0.028 A 
ATOM     22  C   UNL A   1      47.128  25.050  25.656  1.00  0.00     0.015 A 
ATOM     23  C   UNL A   1      44.864  25.687  25.157  1.00  0.00     0.054 A 
ATOM     24  C   UNL A   1      45.790  24.730  25.491  1.00  0.00     0.053 A 
ATOM     25  C   UNL A   1      43.559  25.076  25.172  1.00  0.00     0.266 C 
ATOM     26  C   UNL A   1      45.033  23.523  25.846  1.00  0.00     0.266 C 
ATOM     27  O   UNL A   1      42.628  25.689  24.683  1.00  0.00    -0.268 OA
ATOM     28  N   UNL A   1      43.694  23.857  25.805  1.00  0.00    -0.242 N 
ATOM     29  O   UNL A   1      45.641  22.490  26.057  1.00  0.00    -0.268 OA
BRANCH  28  30
ATOM     30  C   UNL A   1      42.568  23.134  26.340  1.00  0.00     0.060 A 
ATOM     31  C   UNL A   1      42.377  21.798  25.896  1.00  0.00     0.027 A 
ATOM     32  C   UNL A   1      41.564  23.675  27.189  1.00  0.00     0.006 A 
ATOM     33  C   UNL A   1      41.275  21.026  26.245  1.00  0.00     0.002 A 
ATOM     34  C   UNL A   1      40.477  22.847  27.570  1.00  0.00     0.011 A 
ATOM     35  C   UNL A   1      40.328  21.552  27.091  1.00  0.00     0.001 A 
BRANCH  32  36
ATOM     36  C   UNL A   1      41.429  25.073  27.625  1.00  0.00    -0.016 A 
ATOM     37  C   UNL A   1      42.409  25.682  28.423  1.00  0.00     0.009 A 
ATOM     38  C   UNL A   1      40.236  25.776  27.388  1.00  0.00     0.009 A 
ATOM     39  C   UNL A   1      42.232  26.980  28.910  1.00  0.00     0.001 A 
ATOM     40  C   UNL A   1      40.050  27.068  27.887  1.00  0.00     0.001 A 
ATOM     41  C   UNL A   1      41.056  27.675  28.636  1.00  0.00     0.000 A 
ENDBRANCH  32  36
ENDBRANCH  28  30
ENDBRANCH  16  19
ENDBRANCH  13  15
ENDBRANCH   8   9
ENDBRANCH   7   8
ENDBRANCH   5   7
ENDBRANCH   4   5
ENDBRANCH   3   4
ENDBRANCH   2   3
ENDBRANCH   1   2
BRANCH   1  42
ATOM     42  C   UNL A   1      50.175  24.605  37.627  1.00  0.00     0.188 C 
BRANCH  42  43
ATOM     43  C   UNL A   1      49.270  25.669  38.261  1.00  0.00     0.188 C 
BRANCH  43  44
ATOM     44  O   UNL A   1      47.880  25.672  37.940  1.00  0.00    -0.376 OA
BRANCH  44  45
ATOM     45  C   UNL A   1      47.406  24.805  36.921  1.00  0.00     0.202 C 
BRANCH  45  46
ATOM     46  C   UNL A   1      46.126  24.025  37.240  1.00  0.00     0.261 C 
BRANCH  46  47
ATOM     47  O   UNL A   1      44.941  24.584  36.641  1.00  0.00    -0.460 OA
BRANCH  47  48
ATOM     48  C   UNL A   1      44.690  24.202  35.363  1.00  0.00     0.338 C 
ATOM     49  O   UNL A   1      44.774  23.071  34.916  1.00  0.00    -0.246 OA
BRANCH  48  50
ATOM     50  C   UNL A   1      44.132  25.337  34.587  1.00  0.00     0.060 A 
ATOM     51  C   UNL A   1      44.061  25.216  33.190  1.00  0.00     0.016 A 
ATOM     52  C   UNL A   1      43.750  26.531  35.201  1.00  0.00     0.016 A 
ATOM     53  C   UNL A   1      43.666  26.304  32.402  1.00  0.00     0.010 A 
ATOM     54  C   UNL A   1      43.371  27.625  34.411  1.00  0.00     0.010 A 
ATOM     55  C   UNL A   1      43.365  27.532  33.005  1.00  0.00    -0.014 A 
BRANCH  55  56
ATOM     56  C   UNL A   1      43.277  28.780  32.195  1.00  0.00     0.031 A 
ATOM     57  C   UNL A   1      44.557  29.505  31.875  1.00  0.00     0.074 A 
ATOM     58  C   UNL A   1      42.102  29.293  31.789  1.00  0.00     0.049 A 
ATOM     59  N   UNL A   1      44.739  30.689  31.347  1.00  0.00    -0.248 NA
ATOM     60  C   UNL A   1      45.800  28.798  32.214  1.00  0.00     0.031 C 
ATOM     61  C   UNL A   1      40.794  28.671  31.981  1.00  0.00     0.029 A 
ATOM     62  N   UNL A   1      41.821  30.483  31.157  1.00  0.00    -0.354 N 
ATOM     63  C   UNL A   1      46.117  30.878  31.311  1.00  0.00     0.074 A 
ATOM     64  C   UNL A   1      46.717  29.696  31.893  1.00  0.00     0.031 C 
ATOM     65  C   UNL A   1      39.845  29.506  31.519  1.00  0.00     0.029 A 
ATOM     66  C   UNL A   1      40.474  30.741  31.046  1.00  0.00     0.049 A 
ATOM     67  H   UNL A   1      42.517  31.090  30.818  1.00  0.00     0.167 HD
ATOM     68  C   UNL A   1      46.819  31.940  30.839  1.00  0.00     0.034 A 
ATOM     69  C   UNL A   1      39.823  31.861  30.660  1.00  0.00     0.034 A 
ATOM     70  C   UNL A   1      46.213  33.118  30.272  1.00  0.00     0.049 A 
ATOM     71  C   UNL A   1      40.619  33.074  30.228  1.00  0.00     0.074 A 
ATOM     72  C   UNL A   1      46.833  34.233  29.734  1.00  0.00     0.029 A 
ATOM     73  N   UNL A   1      44.846  33.347  30.190  1.00  0.00    -0.354 N 
ATOM     74  N   UNL A   1      41.921  33.233  30.171  1.00  0.00    -0.248 NA
ATOM     75  C   UNL A   1      39.856  34.261  29.808  1.00  0.00     0.031 C 
ATOM     76  C   UNL A   1      45.844  35.166  29.401  1.00  0.00     0.029 A 
ATOM     77  C   UNL A   1      44.604  34.602  29.653  1.00  0.00     0.049 A 
ATOM     78  H   UNL A   1      44.149  32.711  30.472  1.00  0.00     0.167 HD
ATOM     79  C   UNL A   1      42.128  34.521  29.676  1.00  0.00     0.074 A 
ATOM     80  C   UNL A   1      40.820  35.095  29.446  1.00  0.00     0.031 C 
ATOM     81  C   UNL A   1      43.295  35.166  29.423  1.00  0.00     0.034 A 
BRANCH  68  82
ATOM     82  C   UNL A   1      48.321  31.890  30.989  1.00  0.00     0.023 A 
ATOM     83  C   UNL A   1      48.960  32.280  32.178  1.00  0.00     0.031 A 
ATOM     84  C   UNL A   1      49.127  31.507  29.902  1.00  0.00     0.131 A 
ATOM     85  C   UNL A   1      50.360  32.367  32.222  1.00  0.00     0.055 A 
ATOM     86  C   UNL A   1      50.520  31.511  29.982  1.00  0.00     0.041 A 
ATOM     87  F   UNL A   1      48.572  31.145  28.734  1.00  0.00    -0.206 F 
ATOM     88  C   UNL A   1      51.145  31.963  31.140  1.00  0.00     0.022 A 
BRANCH  85  89
ATOM     89  S   UNL A   1      51.129  33.190  33.644  1.00  0.00     0.124 S 
ATOM     90  O   UNL A   1      52.507  33.351  33.182  1.00  0.00    -0.237 OA
ATOM     91  O   UNL A   1      50.346  34.415  33.757  1.00  0.00    -0.237 OA
ATOM     92  O   UNL A   1      50.953  32.231  34.731  1.00  0.00    -0.744 OA
ENDBRANCH  85  89
ENDBRANCH  68  82
BRANCH  69  93
ATOM     93  C   UNL A   1      38.334  31.937  30.741  1.00  0.00     0.023 A 
ATOM     94  C   UNL A   1      37.531  31.847  29.593  1.00  0.00     0.031 A 
ATOM     95  C   UNL A   1      37.695  32.177  31.972  1.00  0.00     0.131 A 
ATOM     96  C   UNL A   1      36.145  32.053  29.691  1.00  0.00     0.055 A 
ATOM     97  C   UNL A   1      36.310  32.306  32.075  1.00  0.00     0.041 A 
ATOM     98  F   UNL A   1      38.415  32.285  33.101  1.00  0.00    -0.206 F 
ATOM     99  C   UNL A   1      35.527  32.253  30.928  1.00  0.00     0.022 A 
BRANCH  96 100
ATOM    100  S   UNL A   1      35.135  32.044  28.181  1.00  0.00     0.124 S 
ATOM    101  O   UNL A   1      35.635  33.225  27.490  1.00  0.00    -0.237 OA
ATOM    102  O   UNL A   1      35.477  30.759  27.580  1.00  0.00    -0.237 OA
ATOM    103  O   UNL A   1      33.772  32.140  28.702  1.00  0.00    -0.744 OA
ENDBRANCH  96 100
ENDBRANCH  69  93
BRANCH  81 104
ATOM    104  C   UNL A   1      43.216  36.541  28.803  1.00  0.00     0.023 A 
ATOM    105  C   UNL A   1      43.565  37.704  29.512  1.00  0.00     0.031 A 
ATOM    106  C   UNL A   1      42.810  36.681  27.463  1.00  0.00     0.131 A 
ATOM    107  C   UNL A   1      43.470  38.959  28.886  1.00  0.00     0.055 A 
ATOM    108  C   UNL A   1      42.764  37.924  26.832  1.00  0.00     0.041 A 
ATOM    109  F   UNL A   1      42.463  35.604  26.740  1.00  0.00    -0.206 F 
ATOM    110  C   UNL A   1      43.089  39.073  27.545  1.00  0.00     0.022 A 
BRANCH 107 111
ATOM    111  S   UNL A   1      43.801  40.454  29.860  1.00  0.00     0.124 S 
ATOM    112  O   UNL A   1      43.649  41.506  28.862  1.00  0.00    -0.237 OA
ATOM    113  O   UNL A   1      42.767  40.393  30.887  1.00  0.00    -0.237 OA
ATOM    114  O   UNL A   1      45.166  40.252  30.346  1.00  0.00    -0.744 OA
ENDBRANCH 107 111
ENDBRANCH  81 104
ENDBRANCH  55  56
ENDBRANCH  48  50
ENDBRANCH  47  48
ENDBRANCH  46  47
ENDBRANCH  45  46
ENDBRANCH  44  45
ENDBRANCH  43  44
ENDBRANCH  42  43
ENDBRANCH   1  42
TORSDOF 26
ENDMDL
