MODEL 1
REMARK VINA RESULT:     -10.4      0.000      0.000
REMARK SMILES Cc1cc(N2CCOC[C@H]2C(=O)OCCOCCOCCOC(=O)c2ccc(-c3c4nc(c(-c5cc(S(=O)(=O)[O-])ccc5F)c5ccc([nH]5)c(-c5cc(S(=O)(=O)[O-])ccc5F)c5nc(c(-c6cc(S(=O)(=O)[O-])ccc6F)c6ccc3[nH]6)C=C5)C=C4)cc2)ncc1[N+](=O)[O-]
REMARK SMILES IDX 18 1 17 2 16 3 15 4 14 5 13 6 11 7 12 8 10 9 5 10 6 11 7 12
REMARK SMILES IDX 9 13 8 14 4 15 1 16 2 17 3 18 90 19 89 20 88 21 91 22 92 23
REMARK SMILES IDX 93 24 19 25 20 26 21 27 22 28 23 29 24 30 25 31 26 32 87 33
REMARK SMILES IDX 27 34 86 35 28 36 29 37 30 38 80 39 31 40 85 41 79 42 81 43
REMARK SMILES IDX 32 44 84 45 78 46 77 47 33 49 65 50 45 51 64 52 46 53 49 54
REMARK SMILES IDX 63 55 82 56 47 57 48 58 62 60 83 61 50 62 34 63 35 64 43 65
REMARK SMILES IDX 36 66 42 67 44 68 41 69 37 70 38 71 39 72 40 73 66 74 67 75
REMARK SMILES IDX 75 76 68 77 74 78 76 79 73 80 69 81 70 82 71 83 72 84 51 85
REMARK SMILES IDX 52 86 60 87 53 88 59 89 61 90 58 91 54 92 55 93 56 94 57 95
REMARK H PARENT 81 48 49 59
REMARK Flexibility Score: inf
ROOT
ATOM      1  C   UNL A   1      34.297  21.365  26.361  1.00  0.00     0.188 C 
ENDROOT
BRANCH   1   2
ATOM      2  C   UNL A   1      34.398  22.829  26.831  1.00  0.00     0.188 C 
BRANCH   2   3
ATOM      3  O   UNL A   1      33.490  23.767  26.261  1.00  0.00    -0.376 OA
BRANCH   3   4
ATOM      4  C   UNL A   1      32.219  23.283  25.841  1.00  0.00     0.202 C 
BRANCH   4   5
ATOM      5  C   UNL A   1      31.032  23.924  26.553  1.00  0.00     0.261 C 
BRANCH   5   6
ATOM      6  O   UNL A   1      31.231  25.341  26.697  1.00  0.00    -0.462 OA
BRANCH   6   7
ATOM      7  C   UNL A   1      30.640  26.149  25.777  1.00  0.00     0.331 C 
ATOM      8  O   UNL A   1      29.662  25.826  25.110  1.00  0.00    -0.250 OA
BRANCH   7   9
ATOM      9  C   UNL A   1      31.345  27.500  25.596  1.00  0.00     0.220 C 
ATOM     10  N   UNL A   1      32.801  27.509  25.928  1.00  0.00    -0.339 N 
ATOM     11  C   UNL A   1      33.698  26.984  24.880  1.00  0.00     0.147 C 
ATOM     12  C   UNL A   1      33.322  27.512  23.491  1.00  0.00     0.181 C 
ATOM     13  C   UNL A   1      31.097  27.946  24.143  1.00  0.00     0.197 C 
ATOM     14  O   UNL A   1      31.938  27.258  23.199  1.00  0.00    -0.377 OA
BRANCH  10  15
ATOM     15  C   UNL A   1      33.275  28.639  26.593  1.00  0.00     0.130 A 
ATOM     16  C   UNL A   1      36.604  29.889  27.946  1.00  0.00     0.052 C 
ATOM     17  C   UNL A   1      35.146  29.852  27.593  1.00  0.00     0.032 A 
ATOM     18  C   UNL A   1      34.597  28.672  27.052  1.00  0.00     0.057 A 
ATOM     19  C   UNL A   1      34.289  30.943  27.730  1.00  0.00     0.290 A 
ATOM     20  C   UNL A   1      32.984  30.838  27.279  1.00  0.00     0.199 A 
ATOM     21  N   UNL A   1      32.473  29.719  26.704  1.00  0.00    -0.232 NA
BRANCH  19  22
ATOM     22  N   UNL A   1      34.691  32.200  28.326  1.00  0.00     0.064 N 
ATOM     23  O   UNL A   1      34.418  32.364  29.523  1.00  0.00    -0.258 OA
ATOM     24  O   UNL A   1      35.321  32.992  27.617  1.00  0.00    -0.258 OA
ENDBRANCH  19  22
ENDBRANCH  10  15
ENDBRANCH   7   9
ENDBRANCH   6   7
ENDBRANCH   5   6
ENDBRANCH   4   5
ENDBRANCH   3   4
ENDBRANCH   2   3
ENDBRANCH   1   2
BRANCH   1  25
ATOM     25  O   UNL A   1      34.850  21.049  25.086  1.00  0.00    -0.376 OA
BRANCH  25  26
ATOM     26  C   UNL A   1      36.125  21.611  24.787  1.00  0.00     0.202 C 
BRANCH  26  27
ATOM     27  C   UNL A   1      37.289  20.746  25.254  1.00  0.00     0.261 C 
BRANCH  27  28
ATOM     28  O   UNL A   1      38.525  21.442  25.017  1.00  0.00    -0.460 OA
BRANCH  28  29
ATOM     29  C   UNL A   1      39.447  21.256  25.980  1.00  0.00     0.338 C 
ATOM     30  O   UNL A   1      40.066  20.218  26.200  1.00  0.00    -0.246 OA
BRANCH  29  31
ATOM     31  C   UNL A   1      39.639  22.488  26.762  1.00  0.00     0.060 A 
ATOM     32  C   UNL A   1      38.855  23.620  26.529  1.00  0.00     0.016 A 
ATOM     33  C   UNL A   1      40.749  22.572  27.602  1.00  0.00     0.016 A 
ATOM     34  C   UNL A   1      39.266  24.865  27.017  1.00  0.00     0.010 A 
ATOM     35  C   UNL A   1      41.124  23.808  28.136  1.00  0.00     0.010 A 
ATOM     36  C   UNL A   1      40.442  24.984  27.772  1.00  0.00    -0.014 A 
BRANCH  36  37
ATOM     37  C   UNL A   1      41.094  26.310  28.000  1.00  0.00     0.031 A 
ATOM     38  C   UNL A   1      42.367  26.628  27.243  1.00  0.00     0.074 A 
ATOM     39  C   UNL A   1      40.572  27.254  28.806  1.00  0.00     0.049 A 
ATOM     40  N   UNL A   1      43.272  27.541  27.476  1.00  0.00    -0.248 NA
ATOM     41  C   UNL A   1      42.661  25.783  26.073  1.00  0.00     0.031 C 
ATOM     42  C   UNL A   1      39.290  27.168  29.505  1.00  0.00     0.029 A 
ATOM     43  N   UNL A   1      41.061  28.488  29.167  1.00  0.00    -0.354 N 
ATOM     44  C   UNL A   1      44.289  27.316  26.550  1.00  0.00     0.074 A 
ATOM     45  C   UNL A   1      43.873  26.196  25.734  1.00  0.00     0.031 C 
ATOM     46  C   UNL A   1      39.079  28.310  30.178  1.00  0.00     0.029 A 
ATOM     47  C   UNL A   1      40.256  29.165  30.057  1.00  0.00     0.049 A 
ATOM     48  H   UNL A   1      41.908  28.853  28.822  1.00  0.00     0.167 HD
ATOM     49  C   UNL A   1      45.468  27.972  26.412  1.00  0.00     0.034 A 
ATOM     50  C   UNL A   1      40.470  30.307  30.743  1.00  0.00     0.034 A 
ATOM     51  C   UNL A   1      45.824  29.145  27.173  1.00  0.00     0.049 A 
ATOM     52  C   UNL A   1      41.798  31.013  30.596  1.00  0.00     0.074 A 
ATOM     53  C   UNL A   1      46.998  29.880  27.131  1.00  0.00     0.029 A 
ATOM     54  N   UNL A   1      44.996  29.775  28.091  1.00  0.00    -0.354 N 
ATOM     55  N   UNL A   1      42.824  30.699  29.837  1.00  0.00    -0.248 NA
ATOM     56  C   UNL A   1      42.005  32.212  31.419  1.00  0.00     0.031 C 
ATOM     57  C   UNL A   1      46.894  30.927  28.055  1.00  0.00     0.029 A 
ATOM     58  C   UNL A   1      45.633  30.884  28.626  1.00  0.00     0.049 A 
ATOM     59  H   UNL A   1      44.088  29.478  28.327  1.00  0.00     0.167 HD
ATOM     60  C   UNL A   1      43.789  31.673  30.084  1.00  0.00     0.074 A 
ATOM     61  C   UNL A   1      43.214  32.598  31.037  1.00  0.00     0.031 C 
ATOM     62  C   UNL A   1      45.043  31.792  29.577  1.00  0.00     0.034 A 
BRANCH  49  63
ATOM     63  C   UNL A   1      46.494  27.383  25.476  1.00  0.00     0.023 A 
ATOM     64  C   UNL A   1      46.887  28.007  24.281  1.00  0.00     0.031 A 
ATOM     65  C   UNL A   1      47.085  26.145  25.798  1.00  0.00     0.131 A 
ATOM     66  C   UNL A   1      47.805  27.368  23.429  1.00  0.00     0.055 A 
ATOM     67  C   UNL A   1      48.048  25.550  24.983  1.00  0.00     0.041 A 
ATOM     68  F   UNL A   1      46.729  25.490  26.915  1.00  0.00    -0.206 F 
ATOM     69  C   UNL A   1      48.405  26.157  23.784  1.00  0.00     0.022 A 
BRANCH  66  70
ATOM     70  S   UNL A   1      48.123  28.083  21.792  1.00  0.00     0.124 S 
ATOM     71  O   UNL A   1      47.104  29.128  21.724  1.00  0.00    -0.237 OA
ATOM     72  O   UNL A   1      49.502  28.540  21.911  1.00  0.00    -0.237 OA
ATOM     73  O   UNL A   1      47.916  26.959  20.881  1.00  0.00    -0.744 OA
ENDBRANCH  66  70
ENDBRANCH  49  63
BRANCH  50  74
ATOM     74  C   UNL A   1      39.453  30.819  31.711  1.00  0.00     0.023 A 
ATOM     75  C   UNL A   1      38.625  31.906  31.388  1.00  0.00     0.031 A 
ATOM     76  C   UNL A   1      39.348  30.277  33.005  1.00  0.00     0.131 A 
ATOM     77  C   UNL A   1      37.765  32.446  32.360  1.00  0.00     0.055 A 
ATOM     78  C   UNL A   1      38.443  30.773  33.945  1.00  0.00     0.041 A 
ATOM     79  F   UNL A   1      40.124  29.246  33.377  1.00  0.00    -0.206 F 
ATOM     80  C   UNL A   1      37.655  31.875  33.629  1.00  0.00     0.022 A 
BRANCH  77  81
ATOM     81  S   UNL A   1      36.869  33.976  31.976  1.00  0.00     0.124 S 
ATOM     82  O   UNL A   1      37.252  34.833  33.091  1.00  0.00    -0.237 OA
ATOM     83  O   UNL A   1      37.422  34.331  30.673  1.00  0.00    -0.237 OA
ATOM     84  O   UNL A   1      35.469  33.556  31.963  1.00  0.00    -0.744 OA
ENDBRANCH  77  81
ENDBRANCH  50  74
BRANCH  62  85
ATOM     85  C   UNL A   1      45.843  32.995  30.011  1.00  0.00     0.023 A 
ATOM     86  C   UNL A   1      45.845  34.189  29.269  1.00  0.00     0.031 A 
ATOM     87  C   UNL A   1      46.641  32.930  31.167  1.00  0.00     0.131 A 
ATOM     88  C   UNL A   1      46.679  35.249  29.656  1.00  0.00     0.055 A 
ATOM     89  C   UNL A   1      47.426  34.008  31.578  1.00  0.00     0.041 A 
ATOM     90  F   UNL A   1      46.674  31.814  31.912  1.00  0.00    -0.206 F 
ATOM     91  C   UNL A   1      47.460  35.170  30.811  1.00  0.00     0.022 A 
BRANCH  88  92
ATOM     92  S   UNL A   1      46.809  36.696  28.569  1.00  0.00     0.124 S 
ATOM     93  O   UNL A   1      47.648  37.595  29.354  1.00  0.00    -0.237 OA
ATOM     94  O   UNL A   1      47.425  36.133  27.372  1.00  0.00    -0.237 OA
ATOM     95  O   UNL A   1      45.422  37.128  28.406  1.00  0.00    -0.744 OA
ENDBRANCH  88  92
ENDBRANCH  62  85
ENDBRANCH  36  37
ENDBRANCH  29  31
ENDBRANCH  28  29
ENDBRANCH  27  28
ENDBRANCH  26  27
ENDBRANCH  25  26
ENDBRANCH   1  25
TORSDOF 22
ENDMDL
MODEL 2
REMARK VINA RESULT:      -9.9      1.694      2.050
REMARK SMILES Cc1cc(N2CCOC[C@H]2C(=O)OCCOCCOCCOC(=O)c2ccc(-c3c4nc(c(-c5cc(S(=O)(=O)[O-])ccc5F)c5ccc([nH]5)c(-c5cc(S(=O)(=O)[O-])ccc5F)c5nc(c(-c6cc(S(=O)(=O)[O-])ccc6F)c6ccc3[nH]6)C=C5)C=C4)cc2)ncc1[N+](=O)[O-]
REMARK SMILES IDX 18 1 17 2 16 3 15 4 14 5 13 6 11 7 12 8 10 9 5 10 6 11 7 12
REMARK SMILES IDX 9 13 8 14 4 15 1 16 2 17 3 18 90 19 89 20 88 21 91 22 92 23
REMARK SMILES IDX 93 24 19 25 20 26 21 27 22 28 23 29 24 30 25 31 26 32 87 33
REMARK SMILES IDX 27 34 86 35 28 36 29 37 30 38 80 39 31 40 85 41 79 42 81 43
REMARK SMILES IDX 32 44 84 45 78 46 77 47 33 49 65 50 45 51 64 52 46 53 49 54
REMARK SMILES IDX 63 55 82 56 47 57 48 58 62 60 83 61 50 62 34 63 35 64 43 65
REMARK SMILES IDX 36 66 42 67 44 68 41 69 37 70 38 71 39 72 40 73 66 74 67 75
REMARK SMILES IDX 75 76 68 77 74 78 76 79 73 80 69 81 70 82 71 83 72 84 51 85
REMARK SMILES IDX 52 86 60 87 53 88 59 89 61 90 58 91 54 92 55 93 56 94 57 95
REMARK H PARENT 81 48 49 59
REMARK Flexibility Score: inf
ROOT
ATOM      1  C   UNL A   1      34.962  22.035  26.902  1.00  0.00     0.188 C 
ENDROOT
BRANCH   1   2
ATOM      2  C   UNL A   1      33.489  22.322  27.253  1.00  0.00     0.188 C 
BRANCH   2   3
ATOM      3  O   UNL A   1      32.631  22.740  26.195  1.00  0.00    -0.376 OA
BRANCH   3   4
ATOM      4  C   UNL A   1      31.251  22.914  26.496  1.00  0.00     0.202 C 
BRANCH   4   5
ATOM      5  C   UNL A   1      30.796  24.369  26.555  1.00  0.00     0.261 C 
BRANCH   5   6
ATOM      6  O   UNL A   1      31.471  25.153  25.556  1.00  0.00    -0.462 OA
BRANCH   6   7
ATOM      7  C   UNL A   1      30.717  26.019  24.829  1.00  0.00     0.331 C 
ATOM      8  O   UNL A   1      29.734  25.687  24.173  1.00  0.00    -0.250 OA
BRANCH   7   9
ATOM      9  C   UNL A   1      31.237  27.462  24.849  1.00  0.00     0.220 C 
ATOM     10  N   UNL A   1      32.710  27.606  25.050  1.00  0.00    -0.339 N 
ATOM     11  C   UNL A   1      33.541  27.401  23.847  1.00  0.00     0.147 C 
ATOM     12  C   UNL A   1      32.957  28.115  22.623  1.00  0.00     0.181 C 
ATOM     13  C   UNL A   1      30.781  28.124  23.536  1.00  0.00     0.197 C 
ATOM     14  O   UNL A   1      31.588  27.735  22.408  1.00  0.00    -0.377 OA
BRANCH  10  15
ATOM     15  C   UNL A   1      33.120  28.652  25.876  1.00  0.00     0.130 A 
ATOM     16  C   UNL A   1      36.256  29.620  27.802  1.00  0.00     0.052 C 
ATOM     17  C   UNL A   1      34.866  29.683  27.241  1.00  0.00     0.032 A 
ATOM     18  C   UNL A   1      34.360  28.582  26.522  1.00  0.00     0.057 A 
ATOM     19  C   UNL A   1      34.038  30.800  27.350  1.00  0.00     0.290 A 
ATOM     20  C   UNL A   1      32.811  30.797  26.709  1.00  0.00     0.199 A 
ATOM     21  N   UNL A   1      32.351  29.756  25.967  1.00  0.00    -0.232 NA
BRANCH  19  22
ATOM     22  N   UNL A   1      34.392  31.982  28.109  1.00  0.00     0.064 N 
ATOM     23  O   UNL A   1      35.384  32.616  27.725  1.00  0.00    -0.258 OA
ATOM     24  O   UNL A   1      33.652  32.301  29.046  1.00  0.00    -0.258 OA
ENDBRANCH  19  22
ENDBRANCH  10  15
ENDBRANCH   7   9
ENDBRANCH   6   7
ENDBRANCH   5   6
ENDBRANCH   4   5
ENDBRANCH   3   4
ENDBRANCH   2   3
ENDBRANCH   1   2
BRANCH   1  25
ATOM     25  O   UNL A   1      35.326  22.084  25.525  1.00  0.00    -0.376 OA
BRANCH  25  26
ATOM     26  C   UNL A   1      36.161  21.033  25.047  1.00  0.00     0.202 C 
BRANCH  26  27
ATOM     27  C   UNL A   1      37.621  21.442  24.899  1.00  0.00     0.261 C 
BRANCH  27  28
ATOM     28  O   UNL A   1      38.334  21.107  26.102  1.00  0.00    -0.460 OA
BRANCH  28  29
ATOM     29  C   UNL A   1      39.626  21.485  26.091  1.00  0.00     0.338 C 
ATOM     30  O   UNL A   1      40.556  20.872  25.573  1.00  0.00    -0.246 OA
BRANCH  29  31
ATOM     31  C   UNL A   1      39.800  22.768  26.791  1.00  0.00     0.060 A 
ATOM     32  C   UNL A   1      38.998  23.871  26.487  1.00  0.00     0.016 A 
ATOM     33  C   UNL A   1      40.909  22.923  27.621  1.00  0.00     0.016 A 
ATOM     34  C   UNL A   1      39.390  25.151  26.892  1.00  0.00     0.010 A 
ATOM     35  C   UNL A   1      41.266  24.197  28.072  1.00  0.00     0.010 A 
ATOM     36  C   UNL A   1      40.566  25.336  27.634  1.00  0.00    -0.014 A 
BRANCH  36  37
ATOM     37  C   UNL A   1      41.197  26.684  27.774  1.00  0.00     0.031 A 
ATOM     38  C   UNL A   1      42.501  26.948  27.051  1.00  0.00     0.074 A 
ATOM     39  C   UNL A   1      40.632  27.690  28.470  1.00  0.00     0.049 A 
ATOM     40  N   UNL A   1      43.389  27.889  27.244  1.00  0.00    -0.248 NA
ATOM     41  C   UNL A   1      42.855  26.007  25.975  1.00  0.00     0.031 C 
ATOM     42  C   UNL A   1      39.319  27.651  29.114  1.00  0.00     0.029 A 
ATOM     43  N   UNL A   1      41.095  28.955  28.743  1.00  0.00    -0.354 N 
ATOM     44  C   UNL A   1      44.449  27.594  26.388  1.00  0.00     0.074 A 
ATOM     45  C   UNL A   1      44.079  26.403  25.656  1.00  0.00     0.031 C 
ATOM     46  C   UNL A   1      39.070  28.846  29.673  1.00  0.00     0.029 A 
ATOM     47  C   UNL A   1      40.246  29.699  29.531  1.00  0.00     0.049 A 
ATOM     48  H   UNL A   1      41.955  29.298  28.405  1.00  0.00     0.167 HD
ATOM     49  C   UNL A   1      45.629  28.248  26.246  1.00  0.00     0.034 A 
ATOM     50  C   UNL A   1      40.420  30.900  30.123  1.00  0.00     0.034 A 
ATOM     51  C   UNL A   1      45.941  29.487  26.917  1.00  0.00     0.049 A 
ATOM     52  C   UNL A   1      41.748  31.604  29.975  1.00  0.00     0.074 A 
ATOM     53  C   UNL A   1      47.110  30.229  26.864  1.00  0.00     0.029 A 
ATOM     54  N   UNL A   1      45.067  30.187  27.737  1.00  0.00    -0.354 N 
ATOM     55  N   UNL A   1      42.810  31.236  29.295  1.00  0.00    -0.248 NA
ATOM     56  C   UNL A   1      41.909  32.873  30.698  1.00  0.00     0.031 C 
ATOM     57  C   UNL A   1      46.957  31.351  27.686  1.00  0.00     0.029 A 
ATOM     58  C   UNL A   1      45.671  31.345  28.201  1.00  0.00     0.049 A 
ATOM     59  H   UNL A   1      44.151  29.901  27.956  1.00  0.00     0.167 HD
ATOM     60  C   UNL A   1      43.756  32.239  29.498  1.00  0.00     0.074 A 
ATOM     61  C   UNL A   1      43.131  33.237  30.339  1.00  0.00     0.031 C 
ATOM     62  C   UNL A   1      45.032  32.326  29.040  1.00  0.00     0.034 A 
BRANCH  49  63
ATOM     63  C   UNL A   1      46.701  27.591  25.414  1.00  0.00     0.023 A 
ATOM     64  C   UNL A   1      47.045  28.030  24.125  1.00  0.00     0.031 A 
ATOM     65  C   UNL A   1      47.388  26.477  25.936  1.00  0.00     0.131 A 
ATOM     66  C   UNL A   1      48.014  27.329  23.385  1.00  0.00     0.055 A 
ATOM     67  C   UNL A   1      48.397  25.829  25.224  1.00  0.00     0.041 A 
ATOM     68  F   UNL A   1      47.083  25.997  27.153  1.00  0.00    -0.206 F 
ATOM     69  C   UNL A   1      48.708  26.248  23.935  1.00  0.00     0.022 A 
BRANCH  66  70
ATOM     70  S   UNL A   1      48.278  27.776  21.647  1.00  0.00     0.124 S 
ATOM     71  O   UNL A   1      48.545  26.472  21.045  1.00  0.00    -0.237 OA
ATOM     72  O   UNL A   1      47.011  28.401  21.286  1.00  0.00    -0.237 OA
ATOM     73  O   UNL A   1      49.425  28.680  21.696  1.00  0.00    -0.744 OA
ENDBRANCH  66  70
ENDBRANCH  49  63
BRANCH  50  74
ATOM     74  C   UNL A   1      39.355  31.484  30.995  1.00  0.00     0.023 A 
ATOM     75  C   UNL A   1      39.416  31.368  32.393  1.00  0.00     0.031 A 
ATOM     76  C   UNL A   1      38.219  32.099  30.437  1.00  0.00     0.131 A 
ATOM     77  C   UNL A   1      38.342  31.817  33.181  1.00  0.00     0.055 A 
ATOM     78  C   UNL A   1      37.187  32.605  31.228  1.00  0.00     0.041 A 
ATOM     79  F   UNL A   1      38.099  32.226  29.106  1.00  0.00    -0.206 F 
ATOM     80  C   UNL A   1      37.238  32.450  32.609  1.00  0.00     0.022 A 
BRANCH  77  81
ATOM     81  S   UNL A   1      38.360  31.461  34.960  1.00  0.00     0.124 S 
ATOM     82  O   UNL A   1      37.284  32.317  35.445  1.00  0.00    -0.237 OA
ATOM     83  O   UNL A   1      38.099  30.025  34.983  1.00  0.00    -0.237 OA
ATOM     84  O   UNL A   1      39.706  31.855  35.372  1.00  0.00    -0.744 OA
ENDBRANCH  77  81
ENDBRANCH  50  74
BRANCH  62  85
ATOM     85  C   UNL A   1      45.802  33.571  29.402  1.00  0.00     0.023 A 
ATOM     86  C   UNL A   1      46.619  33.629  30.545  1.00  0.00     0.031 A 
ATOM     87  C   UNL A   1      45.689  34.727  28.610  1.00  0.00     0.131 A 
ATOM     88  C   UNL A   1      47.241  34.836  30.899  1.00  0.00     0.055 A 
ATOM     89  C   UNL A   1      46.354  35.909  28.935  1.00  0.00     0.041 A 
ATOM     90  F   UNL A   1      44.923  34.725  27.507  1.00  0.00    -0.206 F 
ATOM     91  C   UNL A   1      47.122  35.972  30.095  1.00  0.00     0.022 A 
BRANCH  88  92
ATOM     92  S   UNL A   1      48.123  34.930  32.481  1.00  0.00     0.124 S 
ATOM     93  O   UNL A   1      47.534  33.823  33.227  1.00  0.00    -0.237 OA
ATOM     94  O   UNL A   1      49.514  34.755  32.073  1.00  0.00    -0.237 OA
ATOM     95  O   UNL A   1      47.788  36.261  32.982  1.00  0.00    -0.744 OA
ENDBRANCH  88  92
ENDBRANCH  62  85
ENDBRANCH  36  37
ENDBRANCH  29  31
ENDBRANCH  28  29
ENDBRANCH  27  28
ENDBRANCH  26  27
ENDBRANCH  25  26
ENDBRANCH   1  25
TORSDOF 22
ENDMDL
MODEL 3
REMARK VINA RESULT:      -9.9      5.548     11.606
REMARK SMILES Cc1cc(N2CCOC[C@H]2C(=O)OCCOCCOCCOC(=O)c2ccc(-c3c4nc(c(-c5cc(S(=O)(=O)[O-])ccc5F)c5ccc([nH]5)c(-c5cc(S(=O)(=O)[O-])ccc5F)c5nc(c(-c6cc(S(=O)(=O)[O-])ccc6F)c6ccc3[nH]6)C=C5)C=C4)cc2)ncc1[N+](=O)[O-]
REMARK SMILES IDX 18 1 17 2 16 3 15 4 14 5 13 6 11 7 12 8 10 9 5 10 6 11 7 12
REMARK SMILES IDX 9 13 8 14 4 15 1 16 2 17 3 18 90 19 89 20 88 21 91 22 92 23
REMARK SMILES IDX 93 24 19 25 20 26 21 27 22 28 23 29 24 30 25 31 26 32 87 33
REMARK SMILES IDX 27 34 86 35 28 36 29 37 30 38 80 39 31 40 85 41 79 42 81 43
REMARK SMILES IDX 32 44 84 45 78 46 77 47 33 49 65 50 45 51 64 52 46 53 49 54
REMARK SMILES IDX 63 55 82 56 47 57 48 58 62 60 83 61 50 62 34 63 35 64 43 65
REMARK SMILES IDX 36 66 42 67 44 68 41 69 37 70 38 71 39 72 40 73 66 74 67 75
REMARK SMILES IDX 75 76 68 77 74 78 76 79 73 80 69 81 70 82 71 83 72 84 51 85
REMARK SMILES IDX 52 86 60 87 53 88 59 89 61 90 58 91 54 92 55 93 56 94 57 95
REMARK H PARENT 81 48 49 59
REMARK Flexibility Score: inf
ROOT
ATOM      1  C   UNL A   1      35.378  32.986  28.411  1.00  0.00     0.188 C 
ENDROOT
BRANCH   1   2
ATOM      2  C   UNL A   1      34.577  31.671  28.359  1.00  0.00     0.188 C 
BRANCH   2   3
ATOM      3  O   UNL A   1      33.919  31.350  27.137  1.00  0.00    -0.376 OA
BRANCH   3   4
ATOM      4  C   UNL A   1      33.522  29.998  26.938  1.00  0.00     0.202 C 
BRANCH   4   5
ATOM      5  C   UNL A   1      32.523  29.793  25.803  1.00  0.00     0.261 C 
BRANCH   5   6
ATOM      6  O   UNL A   1      32.986  28.775  24.898  1.00  0.00    -0.462 OA
BRANCH   6   7
ATOM      7  C   UNL A   1      32.060  28.194  24.090  1.00  0.00     0.331 C 
ATOM      8  O   UNL A   1      31.215  28.819  23.456  1.00  0.00    -0.250 OA
BRANCH   7   9
ATOM      9  C   UNL A   1      32.122  26.661  24.078  1.00  0.00     0.220 C 
ATOM     10  N   UNL A   1      32.592  26.032  25.349  1.00  0.00    -0.339 N 
ATOM     11  C   UNL A   1      31.577  25.910  26.413  1.00  0.00     0.147 C 
ATOM     12  C   UNL A   1      30.238  25.403  25.869  1.00  0.00     0.181 C 
ATOM     13  C   UNL A   1      30.721  26.156  23.686  1.00  0.00     0.197 C 
ATOM     14  O   UNL A   1      29.783  26.217  24.776  1.00  0.00    -0.377 OA
BRANCH  10  15
ATOM     15  C   UNL A   1      33.439  24.933  25.217  1.00  0.00     0.130 A 
ATOM     16  C   UNL A   1      34.337  21.843  27.247  1.00  0.00     0.052 C 
ATOM     17  C   UNL A   1      34.316  22.841  26.127  1.00  0.00     0.032 A 
ATOM     18  C   UNL A   1      33.587  24.037  26.283  1.00  0.00     0.057 A 
ATOM     19  C   UNL A   1      34.951  22.643  24.902  1.00  0.00     0.290 A 
ATOM     20  C   UNL A   1      34.786  23.580  23.896  1.00  0.00     0.199 A 
ATOM     21  N   UNL A   1      34.034  24.703  24.028  1.00  0.00    -0.232 NA
BRANCH  19  22
ATOM     22  N   UNL A   1      35.787  21.495  24.616  1.00  0.00     0.064 N 
ATOM     23  O   UNL A   1      35.263  20.379  24.731  1.00  0.00    -0.258 OA
ATOM     24  O   UNL A   1      36.940  21.712  24.226  1.00  0.00    -0.258 OA
ENDBRANCH  19  22
ENDBRANCH  10  15
ENDBRANCH   7   9
ENDBRANCH   6   7
ENDBRANCH   5   6
ENDBRANCH   4   5
ENDBRANCH   3   4
ENDBRANCH   2   3
ENDBRANCH   1   2
BRANCH   1  25
ATOM     25  O   UNL A   1      34.831  34.112  27.730  1.00  0.00    -0.376 OA
BRANCH  25  26
ATOM     26  C   UNL A   1      34.521  35.252  28.528  1.00  0.00     0.202 C 
BRANCH  26  27
ATOM     27  C   UNL A   1      33.047  35.342  28.902  1.00  0.00     0.261 C 
BRANCH  27  28
ATOM     28  O   UNL A   1      32.846  34.745  30.194  1.00  0.00    -0.460 OA
BRANCH  28  29
ATOM     29  C   UNL A   1      32.988  35.606  31.219  1.00  0.00     0.338 C 
ATOM     30  O   UNL A   1      32.428  36.693  31.336  1.00  0.00    -0.246 OA
BRANCH  29  31
ATOM     31  C   UNL A   1      33.920  35.070  32.225  1.00  0.00     0.060 A 
ATOM     32  C   UNL A   1      35.144  35.694  32.478  1.00  0.00     0.016 A 
ATOM     33  C   UNL A   1      33.651  33.820  32.776  1.00  0.00     0.016 A 
ATOM     34  C   UNL A   1      36.151  35.003  33.160  1.00  0.00     0.010 A 
ATOM     35  C   UNL A   1      34.640  33.155  33.507  1.00  0.00     0.010 A 
ATOM     36  C   UNL A   1      35.932  33.699  33.626  1.00  0.00    -0.014 A 
BRANCH  36  37
ATOM     37  C   UNL A   1      37.067  32.812  34.029  1.00  0.00     0.031 A 
ATOM     38  C   UNL A   1      37.707  33.031  35.383  1.00  0.00     0.074 A 
ATOM     39  C   UNL A   1      37.508  31.794  33.265  1.00  0.00     0.049 A 
ATOM     40  N   UNL A   1      38.865  32.626  35.836  1.00  0.00    -0.248 NA
ATOM     41  C   UNL A   1      36.938  33.835  36.349  1.00  0.00     0.031 C 
ATOM     42  C   UNL A   1      36.921  31.360  31.998  1.00  0.00     0.029 A 
ATOM     43  N   UNL A   1      38.560  30.929  33.455  1.00  0.00    -0.354 N 
ATOM     44  C   UNL A   1      39.007  33.207  37.095  1.00  0.00     0.074 A 
ATOM     45  C   UNL A   1      37.804  33.971  37.343  1.00  0.00     0.031 C 
ATOM     46  C   UNL A   1      37.596  30.291  31.545  1.00  0.00     0.029 A 
ATOM     47  C   UNL A   1      38.733  30.032  32.424  1.00  0.00     0.049 A 
ATOM     48  H   UNL A   1      39.135  30.948  34.254  1.00  0.00     0.167 HD
ATOM     49  C   UNL A   1      40.056  33.126  37.951  1.00  0.00     0.034 A 
ATOM     50  C   UNL A   1      39.726  29.150  32.182  1.00  0.00     0.034 A 
ATOM     51  C   UNL A   1      41.207  32.285  37.727  1.00  0.00     0.049 A 
ATOM     52  C   UNL A   1      40.899  29.089  33.132  1.00  0.00     0.074 A 
ATOM     53  C   UNL A   1      42.337  32.137  38.515  1.00  0.00     0.029 A 
ATOM     54  N   UNL A   1      41.360  31.422  36.651  1.00  0.00    -0.354 N 
ATOM     55  N   UNL A   1      41.105  29.766  34.240  1.00  0.00    -0.248 NA
ATOM     56  C   UNL A   1      41.986  28.163  32.785  1.00  0.00     0.031 C 
ATOM     57  C   UNL A   1      43.190  31.219  37.892  1.00  0.00     0.029 A 
ATOM     58  C   UNL A   1      42.566  30.745  36.750  1.00  0.00     0.049 A 
ATOM     59  H   UNL A   1      40.707  31.307  35.924  1.00  0.00     0.167 HD
ATOM     60  C   UNL A   1      42.338  29.333  34.724  1.00  0.00     0.074 A 
ATOM     61  C   UNL A   1      42.814  28.320  33.807  1.00  0.00     0.031 C 
ATOM     62  C   UNL A   1      43.023  29.740  35.824  1.00  0.00     0.034 A 
BRANCH  49  63
ATOM     63  C   UNL A   1      40.054  34.037  39.153  1.00  0.00     0.023 A 
ATOM     64  C   UNL A   1      39.478  33.679  40.383  1.00  0.00     0.031 A 
ATOM     65  C   UNL A   1      40.643  35.313  39.048  1.00  0.00     0.131 A 
ATOM     66  C   UNL A   1      39.462  34.605  41.441  1.00  0.00     0.055 A 
ATOM     67  C   UNL A   1      40.685  36.200  40.123  1.00  0.00     0.041 A 
ATOM     68  F   UNL A   1      41.186  35.719  37.888  1.00  0.00    -0.206 F 
ATOM     69  C   UNL A   1      40.082  35.852  41.326  1.00  0.00     0.022 A 
BRANCH  66  70
ATOM     70  S   UNL A   1      38.517  34.205  42.937  1.00  0.00     0.124 S 
ATOM     71  O   UNL A   1      37.572  35.317  42.995  1.00  0.00    -0.237 OA
ATOM     72  O   UNL A   1      37.953  32.900  42.615  1.00  0.00    -0.237 OA
ATOM     73  O   UNL A   1      39.531  34.201  43.991  1.00  0.00    -0.744 OA
ENDBRANCH  66  70
ENDBRANCH  49  63
BRANCH  50  74
ATOM     74  C   UNL A   1      39.722  28.314  30.943  1.00  0.00     0.023 A 
ATOM     75  C   UNL A   1      40.432  28.707  29.798  1.00  0.00     0.031 A 
ATOM     76  C   UNL A   1      38.941  27.146  30.861  1.00  0.00     0.131 A 
ATOM     77  C   UNL A   1      40.311  27.968  28.609  1.00  0.00     0.055 A 
ATOM     78  C   UNL A   1      38.877  26.377  29.698  1.00  0.00     0.041 A 
ATOM     79  F   UNL A   1      38.228  26.728  31.919  1.00  0.00    -0.206 F 
ATOM     80  C   UNL A   1      39.554  26.797  28.557  1.00  0.00     0.022 A 
BRANCH  77  81
ATOM     81  S   UNL A   1      41.071  28.621  27.097  1.00  0.00     0.124 S 
ATOM     82  O   UNL A   1      42.129  29.467  27.637  1.00  0.00    -0.237 OA
ATOM     83  O   UNL A   1      41.504  27.400  26.426  1.00  0.00    -0.237 OA
ATOM     84  O   UNL A   1      39.974  29.333  26.445  1.00  0.00    -0.744 OA
ENDBRANCH  77  81
ENDBRANCH  50  74
BRANCH  62  85
ATOM     85  C   UNL A   1      44.330  29.043  36.110  1.00  0.00     0.023 A 
ATOM     86  C   UNL A   1      44.390  27.875  36.889  1.00  0.00     0.031 A 
ATOM     87  C   UNL A   1      45.535  29.578  35.622  1.00  0.00     0.131 A 
ATOM     88  C   UNL A   1      45.635  27.314  37.211  1.00  0.00     0.055 A 
ATOM     89  C   UNL A   1      46.767  28.985  35.899  1.00  0.00     0.041 A 
ATOM     90  F   UNL A   1      45.533  30.692  34.872  1.00  0.00    -0.206 F 
ATOM     91  C   UNL A   1      46.823  27.855  36.712  1.00  0.00     0.022 A 
BRANCH  88  92
ATOM     92  S   UNL A   1      45.690  25.927  38.379  1.00  0.00     0.124 S 
ATOM     93  O   UNL A   1      44.326  25.414  38.308  1.00  0.00    -0.237 OA
ATOM     94  O   UNL A   1      46.722  25.073  37.799  1.00  0.00    -0.237 OA
ATOM     95  O   UNL A   1      46.049  26.559  39.646  1.00  0.00    -0.744 OA
ENDBRANCH  88  92
ENDBRANCH  62  85
ENDBRANCH  36  37
ENDBRANCH  29  31
ENDBRANCH  28  29
ENDBRANCH  27  28
ENDBRANCH  26  27
ENDBRANCH  25  26
ENDBRANCH   1  25
TORSDOF 22
ENDMDL
