MODEL 1
REMARK VINA RESULT:     -11.0      0.000      0.000
REMARK SMILES CO[C@H]1C[C@@H](C(=O)OCCOCCOCCOC(=O)c2ccc(-c3c4nc(c(-c5cc(S(=O)(=O)[O-])ccc5F)c5ccc([nH]5)c(-c5cc(S(=O)(=O)[O-])ccc5F)c5nc(c(-c6cc(S(=O)(=O)[O-])ccc6F)c6ccc3[nH]6)C=C5)C=C4)cc2)N(C(=O)Nc2cc(C)cc(F)c2)C1
REMARK SMILES IDX 13 1 12 2 11 3 10 4 9 5 8 6 6 7 7 8 5 9 3 10 4 11 95 12
REMARK SMILES IDX 83 13 2 14 1 15 84 16 85 17 86 18 87 20 88 21 94 22 89 23
REMARK SMILES IDX 92 24 90 25 91 26 93 27 14 28 15 29 16 30 17 31 18 32 19 33
REMARK SMILES IDX 20 34 21 35 82 36 22 37 81 38 23 39 24 40 25 41 75 42 26 43
REMARK SMILES IDX 80 44 74 45 76 46 27 47 79 48 73 49 72 50 28 52 60 53 40 54
REMARK SMILES IDX 59 55 41 56 44 57 58 58 77 59 42 60 43 61 57 63 78 64 45 65
REMARK SMILES IDX 29 66 30 67 38 68 31 69 37 70 39 71 36 72 32 73 33 74 34 75
REMARK SMILES IDX 35 76 61 77 62 78 70 79 63 80 69 81 71 82 68 83 64 84 65 85
REMARK SMILES IDX 66 86 67 87 46 88 47 89 55 90 48 91 54 92 56 93 53 94 49 95
REMARK SMILES IDX 50 96 51 97 52 98
REMARK H PARENT 86 19 76 51 44 62
REMARK Flexibility Score: inf
ROOT
ATOM      1  C   UNL A   1      33.100  29.361  25.261  1.00  0.00     0.188 C 
ENDROOT
BRANCH   1   2
ATOM      2  C   UNL A   1      31.923  29.105  24.321  1.00  0.00     0.188 C 
BRANCH   2   3
ATOM      3  O   UNL A   1      32.237  28.797  22.984  1.00  0.00    -0.376 OA
BRANCH   3   4
ATOM      4  C   UNL A   1      32.163  27.493  22.447  1.00  0.00     0.202 C 
BRANCH   4   5
ATOM      5  C   UNL A   1      33.267  26.426  22.549  1.00  0.00     0.261 C 
BRANCH   5   6
ATOM      6  O   UNL A   1      32.931  25.213  23.238  1.00  0.00    -0.462 OA
BRANCH   6   7
ATOM      7  C   UNL A   1      33.863  24.213  23.276  1.00  0.00     0.329 C 
ATOM      8  O   UNL A   1      34.262  23.611  22.285  1.00  0.00    -0.250 OA
BRANCH   7   9
ATOM      9  C   UNL A   1      34.126  23.718  24.724  1.00  0.00     0.199 C 
ATOM     10  C   UNL A   1      36.062  23.098  26.060  1.00  0.00     0.140 C 
ATOM     11  C   UNL A   1      35.676  23.800  24.783  1.00  0.00     0.071 C 
ATOM     12  C   UNL A   1      35.066  21.940  26.069  1.00  0.00     0.154 C 
ATOM     13  N   UNL A   1      33.848  22.399  25.371  1.00  0.00    -0.308 N 
BRANCH  10  14
ATOM     14  O   UNL A   1      37.398  22.606  26.012  1.00  0.00    -0.380 OA
ATOM     15  C   UNL A   1      37.719  21.926  24.807  1.00  0.00     0.195 C 
ENDBRANCH  10  14
BRANCH  13  16
ATOM     16  C   UNL A   1      32.677  21.879  25.889  1.00  0.00     0.322 C 
ATOM     17  O   UNL A   1      32.149  22.396  26.881  1.00  0.00    -0.248 OA
ATOM     18  N   UNL A   1      31.980  20.841  25.367  1.00  0.00    -0.308 N 
ATOM     19  H   UNL A   1      31.007  20.943  25.470  1.00  0.00     0.171 HD
BRANCH  18  20
ATOM     20  C   UNL A   1      32.339  19.657  24.715  1.00  0.00     0.046 A 
ATOM     21  C   UNL A   1      32.880  18.577  25.429  1.00  0.00     0.029 A 
ATOM     22  C   UNL A   1      32.284  19.559  23.349  1.00  0.00     0.065 A 
ATOM     23  C   UNL A   1      33.198  17.368  24.773  1.00  0.00    -0.046 A 
ATOM     24  C   UNL A   1      32.528  18.355  22.710  1.00  0.00     0.125 A 
ATOM     25  C   UNL A   1      33.882  16.234  25.473  1.00  0.00     0.044 C 
ATOM     26  C   UNL A   1      32.957  17.250  23.407  1.00  0.00     0.042 A 
ATOM     27  F   UNL A   1      32.355  18.250  21.393  1.00  0.00    -0.207 F 
ENDBRANCH  18  20
ENDBRANCH  13  16
ENDBRANCH   7   9
ENDBRANCH   6   7
ENDBRANCH   5   6
ENDBRANCH   4   5
ENDBRANCH   3   4
ENDBRANCH   2   3
ENDBRANCH   1   2
BRANCH   1  28
ATOM     28  O   UNL A   1      32.917  30.175  26.412  1.00  0.00    -0.376 OA
BRANCH  28  29
ATOM     29  C   UNL A   1      34.030  30.441  27.249  1.00  0.00     0.202 C 
BRANCH  29  30
ATOM     30  C   UNL A   1      34.287  31.894  27.675  1.00  0.00     0.261 C 
BRANCH  30  31
ATOM     31  O   UNL A   1      33.137  32.746  27.820  1.00  0.00    -0.460 OA
BRANCH  31  32
ATOM     32  C   UNL A   1      33.367  33.923  28.457  1.00  0.00     0.338 C 
ATOM     33  O   UNL A   1      32.748  34.959  28.307  1.00  0.00    -0.246 OA
BRANCH  32  34
ATOM     34  C   UNL A   1      34.484  33.799  29.424  1.00  0.00     0.060 A 
ATOM     35  C   UNL A   1      35.747  34.286  29.063  1.00  0.00     0.016 A 
ATOM     36  C   UNL A   1      34.334  33.040  30.587  1.00  0.00     0.016 A 
ATOM     37  C   UNL A   1      36.874  33.962  29.831  1.00  0.00     0.010 A 
ATOM     38  C   UNL A   1      35.466  32.712  31.350  1.00  0.00     0.010 A 
ATOM     39  C   UNL A   1      36.751  33.131  30.954  1.00  0.00    -0.014 A 
BRANCH  39  40
ATOM     40  C   UNL A   1      37.956  32.556  31.622  1.00  0.00     0.031 A 
ATOM     41  C   UNL A   1      38.672  31.396  30.971  1.00  0.00     0.074 A 
ATOM     42  C   UNL A   1      38.409  33.032  32.796  1.00  0.00     0.049 A 
ATOM     43  N   UNL A   1      39.652  30.656  31.425  1.00  0.00    -0.248 NA
ATOM     44  C   UNL A   1      38.210  31.021  29.626  1.00  0.00     0.031 C 
ATOM     45  C   UNL A   1      37.856  34.178  33.514  1.00  0.00     0.029 A 
ATOM     46  N   UNL A   1      39.435  32.593  33.602  1.00  0.00    -0.354 N 
ATOM     47  C   UNL A   1      39.918  29.718  30.430  1.00  0.00     0.074 A 
ATOM     48  C   UNL A   1      38.970  29.968  29.363  1.00  0.00     0.031 C 
ATOM     49  C   UNL A   1      38.535  34.340  34.664  1.00  0.00     0.029 A 
ATOM     50  C   UNL A   1      39.541  33.284  34.787  1.00  0.00     0.049 A 
ATOM     51  H   UNL A   1      40.038  31.856  33.352  1.00  0.00     0.167 HD
ATOM     52  C   UNL A   1      40.863  28.745  30.403  1.00  0.00     0.034 A 
ATOM     53  C   UNL A   1      40.328  33.069  35.863  1.00  0.00     0.034 A 
ATOM     54  C   UNL A   1      41.804  28.496  31.472  1.00  0.00     0.049 A 
ATOM     55  C   UNL A   1      41.309  31.917  35.856  1.00  0.00     0.074 A 
ATOM     56  C   UNL A   1      42.808  27.545  31.531  1.00  0.00     0.029 A 
ATOM     57  N   UNL A   1      41.851  29.193  32.672  1.00  0.00    -0.354 N 
ATOM     58  N   UNL A   1      41.544  31.034  34.914  1.00  0.00    -0.248 NA
ATOM     59  C   UNL A   1      42.135  31.739  37.060  1.00  0.00     0.031 C 
ATOM     60  C   UNL A   1      43.409  27.615  32.794  1.00  0.00     0.029 A 
ATOM     61  C   UNL A   1      42.841  28.668  33.490  1.00  0.00     0.049 A 
ATOM     62  H   UNL A   1      41.267  29.950  32.908  1.00  0.00     0.167 HD
ATOM     63  C   UNL A   1      42.569  30.223  35.398  1.00  0.00     0.074 A 
ATOM     64  C   UNL A   1      42.911  30.723  36.712  1.00  0.00     0.031 C 
ATOM     65  C   UNL A   1      43.181  29.166  34.803  1.00  0.00     0.034 A 
BRANCH  52  66
ATOM     66  C   UNL A   1      40.890  27.835  29.197  1.00  0.00     0.023 A 
ATOM     67  C   UNL A   1      41.803  28.021  28.143  1.00  0.00     0.031 A 
ATOM     68  C   UNL A   1      39.975  26.772  29.092  1.00  0.00     0.131 A 
ATOM     69  C   UNL A   1      41.734  27.205  27.004  1.00  0.00     0.055 A 
ATOM     70  C   UNL A   1      39.964  25.913  27.991  1.00  0.00     0.041 A 
ATOM     71  F   UNL A   1      39.066  26.554  30.055  1.00  0.00    -0.206 F 
ATOM     72  C   UNL A   1      40.837  26.136  26.931  1.00  0.00     0.022 A 
BRANCH  69  73
ATOM     73  S   UNL A   1      42.735  27.646  25.557  1.00  0.00     0.124 S 
ATOM     74  O   UNL A   1      42.061  28.855  25.090  1.00  0.00    -0.237 OA
ATOM     75  O   UNL A   1      44.060  27.835  26.136  1.00  0.00    -0.237 OA
ATOM     76  O   UNL A   1      42.596  26.487  24.678  1.00  0.00    -0.744 OA
ENDBRANCH  69  73
ENDBRANCH  52  66
BRANCH  53  77
ATOM     77  C   UNL A   1      40.195  33.927  37.077  1.00  0.00     0.023 A 
ATOM     78  C   UNL A   1      39.492  33.484  38.209  1.00  0.00     0.031 A 
ATOM     79  C   UNL A   1      40.712  35.236  37.094  1.00  0.00     0.131 A 
ATOM     80  C   UNL A   1      39.282  34.356  39.289  1.00  0.00     0.055 A 
ATOM     81  C   UNL A   1      40.548  36.081  38.194  1.00  0.00     0.041 A 
ATOM     82  F   UNL A   1      41.387  35.714  36.038  1.00  0.00    -0.206 F 
ATOM     83  C   UNL A   1      39.817  35.646  39.295  1.00  0.00     0.022 A 
BRANCH  80  84
ATOM     84  S   UNL A   1      38.217  33.812  40.655  1.00  0.00     0.124 S 
ATOM     85  O   UNL A   1      37.860  35.081  41.275  1.00  0.00    -0.237 OA
ATOM     86  O   UNL A   1      37.148  33.118  39.945  1.00  0.00    -0.237 OA
ATOM     87  O   UNL A   1      39.096  32.954  41.447  1.00  0.00    -0.744 OA
ENDBRANCH  80  84
ENDBRANCH  53  77
BRANCH  65  88
ATOM     88  C   UNL A   1      44.331  28.516  35.542  1.00  0.00     0.023 A 
ATOM     89  C   UNL A   1      44.130  27.533  36.527  1.00  0.00     0.031 A 
ATOM     90  C   UNL A   1      45.654  28.892  35.248  1.00  0.00     0.131 A 
ATOM     91  C   UNL A   1      45.231  26.997  37.216  1.00  0.00     0.055 A 
ATOM     92  C   UNL A   1      46.748  28.314  35.894  1.00  0.00     0.041 A 
ATOM     93  F   UNL A   1      45.909  29.828  34.318  1.00  0.00    -0.206 F 
ATOM     94  C   UNL A   1      46.538  27.369  36.894  1.00  0.00     0.022 A 
BRANCH  91  95
ATOM     95  S   UNL A   1      44.931  25.865  38.603  1.00  0.00     0.124 S 
ATOM     96  O   UNL A   1      44.563  24.631  37.915  1.00  0.00    -0.237 OA
ATOM     97  O   UNL A   1      46.221  25.855  39.284  1.00  0.00    -0.237 OA
ATOM     98  O   UNL A   1      43.845  26.508  39.343  1.00  0.00    -0.744 OA
ENDBRANCH  91  95
ENDBRANCH  65  88
ENDBRANCH  39  40
ENDBRANCH  32  34
ENDBRANCH  31  32
ENDBRANCH  30  31
ENDBRANCH  29  30
ENDBRANCH  28  29
ENDBRANCH   1  28
TORSDOF 23
ENDMDL
MODEL 2
REMARK VINA RESULT:     -10.9      5.397      9.329
REMARK SMILES CO[C@H]1C[C@@H](C(=O)OCCOCCOCCOC(=O)c2ccc(-c3c4nc(c(-c5cc(S(=O)(=O)[O-])ccc5F)c5ccc([nH]5)c(-c5cc(S(=O)(=O)[O-])ccc5F)c5nc(c(-c6cc(S(=O)(=O)[O-])ccc6F)c6ccc3[nH]6)C=C5)C=C4)cc2)N(C(=O)Nc2cc(C)cc(F)c2)C1
REMARK SMILES IDX 13 1 12 2 11 3 10 4 9 5 8 6 6 7 7 8 5 9 3 10 4 11 95 12
REMARK SMILES IDX 83 13 2 14 1 15 84 16 85 17 86 18 87 20 88 21 94 22 89 23
REMARK SMILES IDX 92 24 90 25 91 26 93 27 14 28 15 29 16 30 17 31 18 32 19 33
REMARK SMILES IDX 20 34 21 35 82 36 22 37 81 38 23 39 24 40 25 41 75 42 26 43
REMARK SMILES IDX 80 44 74 45 76 46 27 47 79 48 73 49 72 50 28 52 60 53 40 54
REMARK SMILES IDX 59 55 41 56 44 57 58 58 77 59 42 60 43 61 57 63 78 64 45 65
REMARK SMILES IDX 29 66 30 67 38 68 31 69 37 70 39 71 36 72 32 73 33 74 34 75
REMARK SMILES IDX 35 76 61 77 62 78 70 79 63 80 69 81 71 82 68 83 64 84 65 85
REMARK SMILES IDX 66 86 67 87 46 88 47 89 55 90 48 91 54 92 56 93 53 94 49 95
REMARK SMILES IDX 50 96 51 97 52 98
REMARK H PARENT 86 19 76 51 44 62
REMARK Flexibility Score: inf
ROOT
ATOM      1  C   UNL A   1      35.762  21.380  24.652  1.00  0.00     0.188 C 
ENDROOT
BRANCH   1   2
ATOM      2  C   UNL A   1      34.348  21.231  25.211  1.00  0.00     0.188 C 
BRANCH   2   3
ATOM      3  O   UNL A   1      33.303  21.776  24.442  1.00  0.00    -0.376 OA
BRANCH   3   4
ATOM      4  C   UNL A   1      32.175  22.415  25.001  1.00  0.00     0.202 C 
BRANCH   4   5
ATOM      5  C   UNL A   1      32.217  23.648  25.921  1.00  0.00     0.261 C 
BRANCH   5   6
ATOM      6  O   UNL A   1      32.432  24.918  25.289  1.00  0.00    -0.462 OA
BRANCH   6   7
ATOM      7  C   UNL A   1      33.712  25.393  25.214  1.00  0.00     0.329 C 
ATOM      8  O   UNL A   1      34.696  24.773  25.601  1.00  0.00    -0.250 OA
BRANCH   7   9
ATOM      9  C   UNL A   1      33.751  26.908  24.877  1.00  0.00     0.199 C 
ATOM     10  C   UNL A   1      33.417  28.999  26.074  1.00  0.00     0.140 C 
ATOM     11  C   UNL A   1      33.647  27.526  26.298  1.00  0.00     0.071 C 
ATOM     12  C   UNL A   1      32.482  28.969  24.867  1.00  0.00     0.154 C 
ATOM     13  N   UNL A   1      32.807  27.757  24.086  1.00  0.00    -0.308 N 
BRANCH  10  14
ATOM     14  O   UNL A   1      32.773  29.611  27.188  1.00  0.00    -0.380 OA
ATOM     15  C   UNL A   1      32.132  30.840  26.879  1.00  0.00     0.195 C 
ENDBRANCH  10  14
BRANCH  13  16
ATOM     16  C   UNL A   1      32.669  27.919  22.721  1.00  0.00     0.322 C 
ATOM     17  O   UNL A   1      33.668  27.961  21.992  1.00  0.00    -0.248 OA
ATOM     18  N   UNL A   1      31.493  27.986  22.053  1.00  0.00    -0.308 N 
ATOM     19  H   UNL A   1      31.532  27.565  21.165  1.00  0.00     0.171 HD
BRANCH  18  20
ATOM     20  C   UNL A   1      30.235  28.523  22.348  1.00  0.00     0.046 A 
ATOM     21  C   UNL A   1      29.921  29.848  22.011  1.00  0.00     0.029 A 
ATOM     22  C   UNL A   1      29.317  27.811  23.076  1.00  0.00     0.065 A 
ATOM     23  C   UNL A   1      28.635  30.371  22.271  1.00  0.00    -0.046 A 
ATOM     24  C   UNL A   1      28.034  28.292  23.271  1.00  0.00     0.125 A 
ATOM     25  C   UNL A   1      28.294  31.809  22.033  1.00  0.00     0.044 C 
ATOM     26  C   UNL A   1      27.672  29.551  22.853  1.00  0.00     0.042 A 
ATOM     27  F   UNL A   1      27.122  27.536  23.880  1.00  0.00    -0.207 F 
ENDBRANCH  18  20
ENDBRANCH  13  16
ENDBRANCH   7   9
ENDBRANCH   6   7
ENDBRANCH   5   6
ENDBRANCH   4   5
ENDBRANCH   3   4
ENDBRANCH   2   3
ENDBRANCH   1   2
BRANCH   1  28
ATOM     28  O   UNL A   1      36.742  20.394  24.947  1.00  0.00    -0.376 OA
BRANCH  28  29
ATOM     29  C   UNL A   1      38.029  20.810  25.375  1.00  0.00     0.202 C 
BRANCH  29  30
ATOM     30  C   UNL A   1      39.068  19.730  25.707  1.00  0.00     0.261 C 
BRANCH  30  31
ATOM     31  O   UNL A   1      40.447  20.139  25.741  1.00  0.00    -0.460 OA
BRANCH  31  32
ATOM     32  C   UNL A   1      40.978  20.274  26.984  1.00  0.00     0.338 C 
ATOM     33  O   UNL A   1      41.437  19.384  27.675  1.00  0.00    -0.246 OA
BRANCH  32  34
ATOM     34  C   UNL A   1      40.970  21.691  27.419  1.00  0.00     0.060 A 
ATOM     35  C   UNL A   1      40.270  22.630  26.650  1.00  0.00     0.016 A 
ATOM     36  C   UNL A   1      41.801  22.120  28.457  1.00  0.00     0.016 A 
ATOM     37  C   UNL A   1      40.449  24.001  26.876  1.00  0.00     0.010 A 
ATOM     38  C   UNL A   1      41.982  23.494  28.676  1.00  0.00     0.010 A 
ATOM     39  C   UNL A   1      41.344  24.447  27.859  1.00  0.00    -0.014 A 
BRANCH  39  40
ATOM     40  C   UNL A   1      41.753  25.880  27.935  1.00  0.00     0.031 A 
ATOM     41  C   UNL A   1      43.078  26.298  27.344  1.00  0.00     0.074 A 
ATOM     42  C   UNL A   1      40.979  26.806  28.532  1.00  0.00     0.049 A 
ATOM     43  N   UNL A   1      43.696  27.451  27.406  1.00  0.00    -0.248 NA
ATOM     44  C   UNL A   1      43.803  25.268  26.585  1.00  0.00     0.031 C 
ATOM     45  C   UNL A   1      39.654  26.563  29.098  1.00  0.00     0.029 A 
ATOM     46  N   UNL A   1      41.210  28.140  28.778  1.00  0.00    -0.354 N 
ATOM     47  C   UNL A   1      44.889  27.285  26.707  1.00  0.00     0.074 A 
ATOM     48  C   UNL A   1      44.917  25.907  26.260  1.00  0.00     0.031 C 
ATOM     49  C   UNL A   1      39.197  27.705  29.643  1.00  0.00     0.029 A 
ATOM     50  C   UNL A   1      40.214  28.749  29.507  1.00  0.00     0.049 A 
ATOM     51  H   UNL A   1      42.012  28.615  28.460  1.00  0.00     0.167 HD
ATOM     52  C   UNL A   1      45.867  28.192  26.457  1.00  0.00     0.034 A 
ATOM     53  C   UNL A   1      40.143  29.990  30.035  1.00  0.00     0.034 A 
ATOM     54  C   UNL A   1      45.837  29.564  26.910  1.00  0.00     0.049 A 
ATOM     55  C   UNL A   1      41.288  30.957  29.829  1.00  0.00     0.074 A 
ATOM     56  C   UNL A   1      46.772  30.563  26.694  1.00  0.00     0.029 A 
ATOM     57  N   UNL A   1      44.829  30.129  27.679  1.00  0.00    -0.354 N 
ATOM     58  N   UNL A   1      42.413  30.785  29.176  1.00  0.00    -0.248 NA
ATOM     59  C   UNL A   1      41.147  32.291  30.434  1.00  0.00     0.031 C 
ATOM     60  C   UNL A   1      46.368  31.705  27.395  1.00  0.00     0.029 A 
ATOM     61  C   UNL A   1      45.137  31.449  27.976  1.00  0.00     0.049 A 
ATOM     62  H   UNL A   1      44.013  29.662  27.971  1.00  0.00     0.167 HD
ATOM     63  C   UNL A   1      43.092  32.000  29.258  1.00  0.00     0.074 A 
ATOM     64  C   UNL A   1      42.250  32.897  30.020  1.00  0.00     0.031 C 
ATOM     65  C   UNL A   1      44.299  32.344  28.739  1.00  0.00     0.034 A 
BRANCH  52  66
ATOM     66  C   UNL A   1      47.085  27.712  25.702  1.00  0.00     0.023 A 
ATOM     67  C   UNL A   1      47.279  28.002  24.340  1.00  0.00     0.031 A 
ATOM     68  C   UNL A   1      48.060  26.935  26.353  1.00  0.00     0.131 A 
ATOM     69  C   UNL A   1      48.380  27.463  23.658  1.00  0.00     0.055 A 
ATOM     70  C   UNL A   1      49.196  26.467  25.688  1.00  0.00     0.041 A 
ATOM     71  F   UNL A   1      47.922  26.607  27.647  1.00  0.00    -0.206 F 
ATOM     72  C   UNL A   1      49.354  26.718  24.329  1.00  0.00     0.022 A 
BRANCH  69  73
ATOM     73  S   UNL A   1      48.451  27.626  21.853  1.00  0.00     0.124 S 
ATOM     74  O   UNL A   1      48.655  26.240  21.439  1.00  0.00    -0.237 OA
ATOM     75  O   UNL A   1      47.150  28.204  21.537  1.00  0.00    -0.237 OA
ATOM     76  O   UNL A   1      49.596  28.508  21.634  1.00  0.00    -0.744 OA
ENDBRANCH  69  73
ENDBRANCH  52  66
BRANCH  53  77
ATOM     77  C   UNL A   1      38.969  30.389  30.865  1.00  0.00     0.023 A 
ATOM     78  C   UNL A   1      37.949  31.202  30.342  1.00  0.00     0.031 A 
ATOM     79  C   UNL A   1      38.886  30.020  32.221  1.00  0.00     0.131 A 
ATOM     80  C   UNL A   1      36.918  31.658  31.180  1.00  0.00     0.055 A 
ATOM     81  C   UNL A   1      37.829  30.431  33.035  1.00  0.00     0.041 A 
ATOM     82  F   UNL A   1      39.835  29.250  32.774  1.00  0.00    -0.206 F 
ATOM     83  C   UNL A   1      36.844  31.267  32.518  1.00  0.00     0.022 A 
BRANCH  80  84
ATOM     84  S   UNL A   1      35.721  32.849  30.517  1.00  0.00     0.124 S 
ATOM     85  O   UNL A   1      36.154  34.088  31.150  1.00  0.00    -0.237 OA
ATOM     86  O   UNL A   1      35.953  32.744  29.081  1.00  0.00    -0.237 OA
ATOM     87  O   UNL A   1      34.435  32.328  30.977  1.00  0.00    -0.744 OA
ENDBRANCH  80  84
ENDBRANCH  53  77
BRANCH  65  88
ATOM     88  C   UNL A   1      44.756  33.776  28.921  1.00  0.00     0.023 A 
ATOM     89  C   UNL A   1      45.596  34.166  29.980  1.00  0.00     0.031 A 
ATOM     90  C   UNL A   1      44.341  34.765  28.012  1.00  0.00     0.131 A 
ATOM     91  C   UNL A   1      45.951  35.517  30.130  1.00  0.00     0.055 A 
ATOM     92  C   UNL A   1      44.745  36.096  28.132  1.00  0.00     0.041 A 
ATOM     93  F   UNL A   1      43.537  34.453  26.982  1.00  0.00    -0.206 F 
ATOM     94  C   UNL A   1      45.545  36.480  29.204  1.00  0.00     0.022 A 
BRANCH  91  95
ATOM     95  S   UNL A   1      46.885  36.019  31.603  1.00  0.00     0.124 S 
ATOM     96  O   UNL A   1      48.264  35.785  31.185  1.00  0.00    -0.237 OA
ATOM     97  O   UNL A   1      46.495  37.416  31.761  1.00  0.00    -0.237 OA
ATOM     98  O   UNL A   1      46.394  35.118  32.646  1.00  0.00    -0.744 OA
ENDBRANCH  91  95
ENDBRANCH  65  88
ENDBRANCH  39  40
ENDBRANCH  32  34
ENDBRANCH  31  32
ENDBRANCH  30  31
ENDBRANCH  29  30
ENDBRANCH  28  29
ENDBRANCH   1  28
TORSDOF 23
ENDMDL
MODEL 3
REMARK VINA RESULT:     -10.7      5.702     10.228
REMARK SMILES CO[C@H]1C[C@@H](C(=O)OCCOCCOCCOC(=O)c2ccc(-c3c4nc(c(-c5cc(S(=O)(=O)[O-])ccc5F)c5ccc([nH]5)c(-c5cc(S(=O)(=O)[O-])ccc5F)c5nc(c(-c6cc(S(=O)(=O)[O-])ccc6F)c6ccc3[nH]6)C=C5)C=C4)cc2)N(C(=O)Nc2cc(C)cc(F)c2)C1
REMARK SMILES IDX 13 1 12 2 11 3 10 4 9 5 8 6 6 7 7 8 5 9 3 10 4 11 95 12
REMARK SMILES IDX 83 13 2 14 1 15 84 16 85 17 86 18 87 20 88 21 94 22 89 23
REMARK SMILES IDX 92 24 90 25 91 26 93 27 14 28 15 29 16 30 17 31 18 32 19 33
REMARK SMILES IDX 20 34 21 35 82 36 22 37 81 38 23 39 24 40 25 41 75 42 26 43
REMARK SMILES IDX 80 44 74 45 76 46 27 47 79 48 73 49 72 50 28 52 60 53 40 54
REMARK SMILES IDX 59 55 41 56 44 57 58 58 77 59 42 60 43 61 57 63 78 64 45 65
REMARK SMILES IDX 29 66 30 67 38 68 31 69 37 70 39 71 36 72 32 73 33 74 34 75
REMARK SMILES IDX 35 76 61 77 62 78 70 79 63 80 69 81 71 82 68 83 64 84 65 85
REMARK SMILES IDX 66 86 67 87 46 88 47 89 55 90 48 91 54 92 56 93 53 94 49 95
REMARK SMILES IDX 50 96 51 97 52 98
REMARK H PARENT 86 19 76 51 44 62
REMARK Flexibility Score: inf
ROOT
ATOM      1  C   UNL A   1      36.502  22.646  25.943  1.00  0.00     0.188 C 
ENDROOT
BRANCH   1   2
ATOM      2  C   UNL A   1      35.527  21.480  25.798  1.00  0.00     0.188 C 
BRANCH   2   3
ATOM      3  O   UNL A   1      34.219  21.797  25.386  1.00  0.00    -0.376 OA
BRANCH   3   4
ATOM      4  C   UNL A   1      33.195  22.188  26.276  1.00  0.00     0.202 C 
BRANCH   4   5
ATOM      5  C   UNL A   1      32.697  23.630  26.481  1.00  0.00     0.261 C 
BRANCH   5   6
ATOM      6  O   UNL A   1      33.523  24.679  25.957  1.00  0.00    -0.462 OA
BRANCH   6   7
ATOM      7  C   UNL A   1      33.188  25.222  24.749  1.00  0.00     0.329 C 
ATOM      8  O   UNL A   1      32.805  24.566  23.785  1.00  0.00    -0.250 OA
BRANCH   7   9
ATOM      9  C   UNL A   1      33.636  26.704  24.633  1.00  0.00     0.199 C 
ATOM     10  C   UNL A   1      33.911  28.595  26.138  1.00  0.00     0.140 C 
ATOM     11  C   UNL A   1      33.733  27.098  26.132  1.00  0.00     0.071 C 
ATOM     12  C   UNL A   1      32.981  29.005  24.998  1.00  0.00     0.154 C 
ATOM     13  N   UNL A   1      32.946  27.888  24.032  1.00  0.00    -0.308 N 
BRANCH  10  14
ATOM     14  O   UNL A   1      33.482  29.176  27.366  1.00  0.00    -0.380 OA
ATOM     15  C   UNL A   1      32.802  30.413  27.211  1.00  0.00     0.195 C 
ENDBRANCH  10  14
BRANCH  13  16
ATOM     16  C   UNL A   1      32.832  28.292  22.715  1.00  0.00     0.322 C 
ATOM     17  O   UNL A   1      33.842  28.571  22.057  1.00  0.00    -0.248 OA
ATOM     18  N   UNL A   1      31.675  28.367  22.015  1.00  0.00    -0.308 N 
ATOM     19  H   UNL A   1      31.785  28.128  21.067  1.00  0.00     0.171 HD
BRANCH  18  20
ATOM     20  C   UNL A   1      30.359  28.710  22.342  1.00  0.00     0.046 A 
ATOM     21  C   UNL A   1      29.865  29.996  22.084  1.00  0.00     0.029 A 
ATOM     22  C   UNL A   1      29.553  27.838  23.029  1.00  0.00     0.065 A 
ATOM     23  C   UNL A   1      28.522  30.323  22.376  1.00  0.00    -0.046 A 
ATOM     24  C   UNL A   1      28.218  28.128  23.254  1.00  0.00     0.125 A 
ATOM     25  C   UNL A   1      27.986  31.713  22.223  1.00  0.00     0.044 C 
ATOM     26  C   UNL A   1      27.685  29.348  22.911  1.00  0.00     0.042 A 
ATOM     27  F   UNL A   1      27.424  27.221  23.819  1.00  0.00    -0.207 F 
ENDBRANCH  18  20
ENDBRANCH  13  16
ENDBRANCH   7   9
ENDBRANCH   6   7
ENDBRANCH   5   6
ENDBRANCH   4   5
ENDBRANCH   3   4
ENDBRANCH   2   3
ENDBRANCH   1   2
BRANCH   1  28
ATOM     28  O   UNL A   1      37.789  22.566  25.344  1.00  0.00    -0.376 OA
BRANCH  28  29
ATOM     29  C   UNL A   1      38.873  22.066  26.110  1.00  0.00     0.202 C 
BRANCH  29  30
ATOM     30  C   UNL A   1      39.379  20.648  25.811  1.00  0.00     0.261 C 
BRANCH  30  31
ATOM     31  O   UNL A   1      40.368  20.105  26.704  1.00  0.00    -0.460 OA
BRANCH  31  32
ATOM     32  C   UNL A   1      41.613  19.979  26.177  1.00  0.00     0.338 C 
ATOM     33  O   UNL A   1      42.056  19.008  25.591  1.00  0.00    -0.246 OA
BRANCH  32  34
ATOM     34  C   UNL A   1      42.405  21.218  26.368  1.00  0.00     0.060 A 
ATOM     35  C   UNL A   1      42.657  21.663  27.672  1.00  0.00     0.016 A 
ATOM     36  C   UNL A   1      42.723  22.032  25.278  1.00  0.00     0.016 A 
ATOM     37  C   UNL A   1      43.170  22.948  27.892  1.00  0.00     0.010 A 
ATOM     38  C   UNL A   1      43.230  23.321  25.503  1.00  0.00     0.010 A 
ATOM     39  C   UNL A   1      43.415  23.808  26.811  1.00  0.00    -0.014 A 
BRANCH  39  40
ATOM     40  C   UNL A   1      43.699  25.257  27.029  1.00  0.00     0.031 A 
ATOM     41  C   UNL A   1      45.088  25.782  26.753  1.00  0.00     0.074 A 
ATOM     42  C   UNL A   1      42.755  26.104  27.481  1.00  0.00     0.049 A 
ATOM     43  N   UNL A   1      45.600  26.964  26.991  1.00  0.00    -0.248 NA
ATOM     44  C   UNL A   1      46.026  24.837  26.129  1.00  0.00     0.031 C 
ATOM     45  C   UNL A   1      41.360  25.755  27.739  1.00  0.00     0.029 A 
ATOM     46  N   UNL A   1      42.838  27.435  27.822  1.00  0.00    -0.354 N 
ATOM     47  C   UNL A   1      46.922  26.903  26.559  1.00  0.00     0.074 A 
ATOM     48  C   UNL A   1      47.138  25.555  26.075  1.00  0.00     0.031 C 
ATOM     49  C   UNL A   1      40.722  26.839  28.217  1.00  0.00     0.029 A 
ATOM     50  C   UNL A   1      41.671  27.946  28.342  1.00  0.00     0.049 A 
ATOM     51  H   UNL A   1      43.655  27.971  27.702  1.00  0.00     0.167 HD
ATOM     52  C   UNL A   1      47.867  27.877  26.560  1.00  0.00     0.034 A 
ATOM     53  C   UNL A   1      41.406  29.151  28.890  1.00  0.00     0.034 A 
ATOM     54  C   UNL A   1      47.649  29.220  27.048  1.00  0.00     0.049 A 
ATOM     55  C   UNL A   1      42.500  30.193  28.973  1.00  0.00     0.074 A 
ATOM     56  C   UNL A   1      48.538  30.281  27.077  1.00  0.00     0.029 A 
ATOM     57  N   UNL A   1      46.464  29.685  27.604  1.00  0.00    -0.354 N 
ATOM     58  N   UNL A   1      43.747  30.121  28.570  1.00  0.00    -0.248 NA
ATOM     59  C   UNL A   1      42.144  31.483  29.584  1.00  0.00     0.031 C 
ATOM     60  C   UNL A   1      47.918  31.360  27.719  1.00  0.00     0.029 A 
ATOM     61  C   UNL A   1      46.612  31.003  28.011  1.00  0.00     0.049 A 
ATOM     62  H   UNL A   1      45.639  29.157  27.696  1.00  0.00     0.167 HD
ATOM     63  C   UNL A   1      44.309  31.367  28.844  1.00  0.00     0.074 A 
ATOM     64  C   UNL A   1      43.266  32.173  29.441  1.00  0.00     0.031 C 
ATOM     65  C   UNL A   1      45.573  31.807  28.610  1.00  0.00     0.034 A 
BRANCH  52  66
ATOM     66  C   UNL A   1      49.247  27.509  26.066  1.00  0.00     0.023 A 
ATOM     67  C   UNL A   1      50.314  27.267  26.949  1.00  0.00     0.031 A 
ATOM     68  C   UNL A   1      49.502  27.414  24.686  1.00  0.00     0.131 A 
ATOM     69  C   UNL A   1      51.598  27.014  26.443  1.00  0.00     0.055 A 
ATOM     70  C   UNL A   1      50.765  27.082  24.190  1.00  0.00     0.041 A 
ATOM     71  F   UNL A   1      48.529  27.651  23.792  1.00  0.00    -0.206 F 
ATOM     72  C   UNL A   1      51.826  26.894  25.070  1.00  0.00     0.022 A 
BRANCH  69  73
ATOM     73  S   UNL A   1      52.997  26.983  27.598  1.00  0.00     0.124 S 
ATOM     74  O   UNL A   1      54.059  26.433  26.759  1.00  0.00    -0.237 OA
ATOM     75  O   UNL A   1      53.134  28.388  27.966  1.00  0.00    -0.237 OA
ATOM     76  O   UNL A   1      52.539  26.099  28.667  1.00  0.00    -0.744 OA
ENDBRANCH  69  73
ENDBRANCH  52  66
BRANCH  53  77
ATOM     77  C   UNL A   1      40.058  29.438  29.463  1.00  0.00     0.023 A 
ATOM     78  C   UNL A   1      39.840  29.436  30.851  1.00  0.00     0.031 A 
ATOM     79  C   UNL A   1      38.948  29.648  28.624  1.00  0.00     0.131 A 
ATOM     80  C   UNL A   1      38.540  29.591  31.357  1.00  0.00     0.055 A 
ATOM     81  C   UNL A   1      37.665  29.858  29.134  1.00  0.00     0.041 A 
ATOM     82  F   UNL A   1      39.097  29.655  27.291  1.00  0.00    -0.206 F 
ATOM     83  C   UNL A   1      37.454  29.816  30.508  1.00  0.00     0.022 A 
BRANCH  80  84
ATOM     84  S   UNL A   1      38.270  29.403  33.141  1.00  0.00     0.124 S 
ATOM     85  O   UNL A   1      37.042  28.620  33.174  1.00  0.00    -0.237 OA
ATOM     86  O   UNL A   1      39.486  28.713  33.559  1.00  0.00    -0.237 OA
ATOM     87  O   UNL A   1      38.147  30.781  33.612  1.00  0.00    -0.744 OA
ENDBRANCH  80  84
ENDBRANCH  53  77
BRANCH  65  88
ATOM     88  C   UNL A   1      45.883  33.251  28.941  1.00  0.00     0.023 A 
ATOM     89  C   UNL A   1      45.699  34.291  28.011  1.00  0.00     0.031 A 
ATOM     90  C   UNL A   1      46.370  33.588  30.217  1.00  0.00     0.131 A 
ATOM     91  C   UNL A   1      46.048  35.607  28.355  1.00  0.00     0.055 A 
ATOM     92  C   UNL A   1      46.659  34.907  30.573  1.00  0.00     0.041 A 
ATOM     93  F   UNL A   1      46.567  32.639  31.147  1.00  0.00    -0.206 F 
ATOM     94  C   UNL A   1      46.511  35.924  29.635  1.00  0.00     0.022 A 
BRANCH  91  95
ATOM     95  S   UNL A   1      45.971  36.896  27.079  1.00  0.00     0.124 S 
ATOM     96  O   UNL A   1      44.540  36.967  26.804  1.00  0.00    -0.237 OA
ATOM     97  O   UNL A   1      46.547  38.049  27.763  1.00  0.00    -0.237 OA
ATOM     98  O   UNL A   1      46.784  36.352  25.992  1.00  0.00    -0.744 OA
ENDBRANCH  91  95
ENDBRANCH  65  88
ENDBRANCH  39  40
ENDBRANCH  32  34
ENDBRANCH  31  32
ENDBRANCH  30  31
ENDBRANCH  29  30
ENDBRANCH  28  29
ENDBRANCH   1  28
TORSDOF 23
ENDMDL
