MODEL 1
REMARK VINA RESULT:     -10.3      0.000      0.000
REMARK SMILES C[C@@H](Sc1nc2ccccc2c(=O)n1N)C(=O)OCCOCCOCCOC(=O)c1ccc(-c2c3nc(c(-c4cc(S(=O)(=O)[O-])ccc4F)c4ccc([nH]4)c(-c4cc(S(=O)(=O)[O-])ccc4F)c4nc(c(-c5cc(S(=O)(=O)[O-])ccc5F)c5ccc2[nH]5)C=C4)C=C3)cc1
REMARK SMILES IDX 22 1 21 2 20 3 19 4 18 5 16 6 17 7 2 8 1 9 3 10 4 11 5 12
REMARK SMILES IDX 14 13 6 14 12 15 7 16 11 17 13 18 8 19 10 20 9 21 15 22
REMARK SMILES IDX 23 25 24 26 25 27 26 28 27 29 28 30 29 31 30 32 31 33 92 34
REMARK SMILES IDX 32 35 91 36 33 37 34 38 35 39 85 40 36 41 90 42 84 43 86 44
REMARK SMILES IDX 37 45 89 46 83 47 82 48 38 50 70 51 50 52 69 53 51 54 54 55
REMARK SMILES IDX 68 56 87 57 52 58 53 59 67 61 88 62 55 63 39 64 40 65 48 66
REMARK SMILES IDX 41 67 47 68 49 69 46 70 42 71 43 72 44 73 45 74 71 75 72 76
REMARK SMILES IDX 80 77 73 78 79 79 81 80 78 81 74 82 75 83 76 84 77 85 56 86
REMARK SMILES IDX 57 87 65 88 58 89 64 90 66 91 63 92 59 93 60 94 61 95 62 96
REMARK H PARENT 15 23 15 24 86 49 54 60
REMARK Flexibility Score: inf
ROOT
ATOM      1  C   UNL A   1      33.111  29.036  27.326  1.00  0.00     0.188 C 
ENDROOT
BRANCH   1   2
ATOM      2  O   UNL A   1      31.957  28.238  27.557  1.00  0.00    -0.376 OA
BRANCH   2   3
ATOM      3  C   UNL A   1      31.516  27.330  26.556  1.00  0.00     0.202 C 
BRANCH   3   4
ATOM      4  C   UNL A   1      32.546  26.632  25.651  1.00  0.00     0.261 C 
BRANCH   4   5
ATOM      5  O   UNL A   1      32.836  25.254  25.968  1.00  0.00    -0.462 OA
BRANCH   5   6
ATOM      6  C   UNL A   1      31.768  24.414  26.017  1.00  0.00     0.319 C 
ATOM      7  O   UNL A   1      31.245  24.050  27.066  1.00  0.00    -0.251 OA
BRANCH   6   8
ATOM      8  C   UNL A   1      31.228  23.990  24.638  1.00  0.00     0.161 C 
ATOM      9  C   UNL A   1      30.165  24.863  23.965  1.00  0.00     0.032 C 
BRANCH   8  10
ATOM     10  S   UNL A   1      32.703  23.800  23.572  1.00  0.00    -0.071 SA
BRANCH  10  11
ATOM     11  C   UNL A   1      33.288  22.233  24.070  1.00  0.00     0.191 A 
ATOM     12  N   UNL A   1      32.590  21.219  23.674  1.00  0.00    -0.222 NA
ATOM     13  N   UNL A   1      34.481  22.132  24.775  1.00  0.00    -0.202 N 
ATOM     14  C   UNL A   1      33.087  19.938  23.930  1.00  0.00     0.079 A 
ATOM     15  C   UNL A   1      35.076  20.891  25.014  1.00  0.00     0.280 A 
ATOM     16  C   UNL A   1      32.337  18.841  23.501  1.00  0.00     0.029 A 
ATOM     17  C   UNL A   1      34.326  19.717  24.531  1.00  0.00     0.068 A 
ATOM     18  O   UNL A   1      36.161  20.751  25.574  1.00  0.00    -0.267 OA
ATOM     19  C   UNL A   1      32.840  17.545  23.631  1.00  0.00     0.002 A 
ATOM     20  C   UNL A   1      34.841  18.424  24.659  1.00  0.00     0.016 A 
ATOM     21  C   UNL A   1      34.098  17.339  24.197  1.00  0.00     0.001 A 
BRANCH  13  22
ATOM     22  N   UNL A   1      35.158  23.282  25.298  1.00  0.00    -0.334 N 
ATOM     23  H   UNL A   1      34.706  24.156  25.309  1.00  0.00     0.178 HD
ATOM     24  H   UNL A   1      36.076  23.198  25.645  1.00  0.00     0.178 HD
ENDBRANCH  13  22
ENDBRANCH  10  11
ENDBRANCH   8  10
ENDBRANCH   6   8
ENDBRANCH   5   6
ENDBRANCH   4   5
ENDBRANCH   3   4
ENDBRANCH   2   3
ENDBRANCH   1   2
BRANCH   1  25
ATOM     25  C   UNL A   1      32.952  30.548  27.100  1.00  0.00     0.188 C 
BRANCH  25  26
ATOM     26  O   UNL A   1      31.735  30.933  26.501  1.00  0.00    -0.376 OA
BRANCH  26  27
ATOM     27  C   UNL A   1      31.333  32.286  26.628  1.00  0.00     0.202 C 
BRANCH  27  28
ATOM     28  C   UNL A   1      32.404  33.365  26.875  1.00  0.00     0.261 C 
BRANCH  28  29
ATOM     29  O   UNL A   1      32.520  33.876  28.213  1.00  0.00    -0.460 OA
BRANCH  29  30
ATOM     30  C   UNL A   1      33.607  34.632  28.495  1.00  0.00     0.338 C 
ATOM     31  O   UNL A   1      33.634  35.849  28.606  1.00  0.00    -0.246 OA
BRANCH  30  32
ATOM     32  C   UNL A   1      34.700  33.714  28.895  1.00  0.00     0.060 A 
ATOM     33  C   UNL A   1      34.385  32.538  29.594  1.00  0.00     0.016 A 
ATOM     34  C   UNL A   1      36.025  33.995  28.558  1.00  0.00     0.016 A 
ATOM     35  C   UNL A   1      35.396  31.648  29.969  1.00  0.00     0.010 A 
ATOM     36  C   UNL A   1      37.039  33.117  28.958  1.00  0.00     0.010 A 
ATOM     37  C   UNL A   1      36.735  31.951  29.686  1.00  0.00    -0.014 A 
BRANCH  37  38
ATOM     38  C   UNL A   1      37.829  31.166  30.315  1.00  0.00     0.031 A 
ATOM     39  C   UNL A   1      38.153  31.432  31.762  1.00  0.00     0.074 A 
ATOM     40  C   UNL A   1      38.519  30.232  29.635  1.00  0.00     0.049 A 
ATOM     41  N   UNL A   1      39.121  30.958  32.502  1.00  0.00    -0.248 NA
ATOM     42  C   UNL A   1      37.262  32.371  32.462  1.00  0.00     0.031 C 
ATOM     43  C   UNL A   1      38.263  29.831  28.254  1.00  0.00     0.029 A 
ATOM     44  N   UNL A   1      39.587  29.456  30.019  1.00  0.00    -0.354 N 
ATOM     45  C   UNL A   1      38.961  31.545  33.753  1.00  0.00     0.074 A 
ATOM     46  C   UNL A   1      37.828  32.439  33.656  1.00  0.00     0.031 C 
ATOM     47  C   UNL A   1      39.158  28.890  27.902  1.00  0.00     0.029 A 
ATOM     48  C   UNL A   1      40.080  28.656  29.013  1.00  0.00     0.049 A 
ATOM     49  H   UNL A   1      39.964  29.471  30.928  1.00  0.00     0.167 HD
ATOM     50  C   UNL A   1      39.687  31.350  34.882  1.00  0.00     0.034 A 
ATOM     51  C   UNL A   1      41.167  27.855  28.985  1.00  0.00     0.034 A 
ATOM     52  C   UNL A   1      40.826  30.468  34.962  1.00  0.00     0.049 A 
ATOM     53  C   UNL A   1      42.035  27.744  30.219  1.00  0.00     0.074 A 
ATOM     54  C   UNL A   1      41.631  30.199  36.055  1.00  0.00     0.029 A 
ATOM     55  N   UNL A   1      41.331  29.721  33.906  1.00  0.00    -0.354 N 
ATOM     56  N   UNL A   1      41.883  28.313  31.394  1.00  0.00    -0.248 NA
ATOM     57  C   UNL A   1      43.219  26.879  30.123  1.00  0.00     0.031 C 
ATOM     58  C   UNL A   1      42.669  29.359  35.640  1.00  0.00     0.029 A 
ATOM     59  C   UNL A   1      42.459  29.022  34.314  1.00  0.00     0.049 A 
ATOM     60  H   UNL A   1      40.947  29.691  33.001  1.00  0.00     0.167 HD
ATOM     61  C   UNL A   1      42.929  27.840  32.185  1.00  0.00     0.074 A 
ATOM     62  C   UNL A   1      43.698  26.935  31.358  1.00  0.00     0.031 C 
ATOM     63  C   UNL A   1      43.224  28.123  33.481  1.00  0.00     0.034 A 
BRANCH  50  64
ATOM     64  C   UNL A   1      39.300  32.151  36.102  1.00  0.00     0.023 A 
ATOM     65  C   UNL A   1      38.452  31.627  37.093  1.00  0.00     0.031 A 
ATOM     66  C   UNL A   1      39.764  33.469  36.262  1.00  0.00     0.131 A 
ATOM     67  C   UNL A   1      38.037  32.440  38.159  1.00  0.00     0.055 A 
ATOM     68  C   UNL A   1      39.417  34.242  37.370  1.00  0.00     0.041 A 
ATOM     69  F   UNL A   1      40.555  34.032  35.335  1.00  0.00    -0.206 F 
ATOM     70  C   UNL A   1      38.536  33.735  38.320  1.00  0.00     0.022 A 
BRANCH  67  71
ATOM     71  S   UNL A   1      36.717  31.835  39.247  1.00  0.00     0.124 S 
ATOM     72  O   UNL A   1      36.621  30.434  38.842  1.00  0.00    -0.237 OA
ATOM     73  O   UNL A   1      37.264  32.081  40.575  1.00  0.00    -0.237 OA
ATOM     74  O   UNL A   1      35.568  32.660  38.882  1.00  0.00    -0.744 OA
ENDBRANCH  67  71
ENDBRANCH  50  64
BRANCH  51  75
ATOM     75  C   UNL A   1      41.540  27.122  27.738  1.00  0.00     0.023 A 
ATOM     76  C   UNL A   1      41.357  25.734  27.630  1.00  0.00     0.031 A 
ATOM     77  C   UNL A   1      42.156  27.788  26.662  1.00  0.00     0.131 A 
ATOM     78  C   UNL A   1      41.828  25.049  26.498  1.00  0.00     0.055 A 
ATOM     79  C   UNL A   1      42.566  27.112  25.511  1.00  0.00     0.041 A 
ATOM     80  F   UNL A   1      42.368  29.112  26.715  1.00  0.00    -0.206 F 
ATOM     81  C   UNL A   1      42.416  25.732  25.431  1.00  0.00     0.022 A 
BRANCH  78  82
ATOM     82  S   UNL A   1      41.754  23.237  26.484  1.00  0.00     0.124 S 
ATOM     83  O   UNL A   1      42.398  22.925  25.212  1.00  0.00    -0.237 OA
ATOM     84  O   UNL A   1      42.507  22.893  27.686  1.00  0.00    -0.237 OA
ATOM     85  O   UNL A   1      40.322  22.953  26.544  1.00  0.00    -0.744 OA
ENDBRANCH  78  82
ENDBRANCH  51  75
BRANCH  63  86
ATOM     86  C   UNL A   1      44.394  27.396  34.105  1.00  0.00     0.023 A 
ATOM     87  C   UNL A   1      45.708  27.890  34.029  1.00  0.00     0.031 A 
ATOM     88  C   UNL A   1      44.186  26.185  34.791  1.00  0.00     0.131 A 
ATOM     89  C   UNL A   1      46.768  27.148  34.577  1.00  0.00     0.055 A 
ATOM     90  C   UNL A   1      45.233  25.488  35.394  1.00  0.00     0.041 A 
ATOM     91  F   UNL A   1      42.953  25.661  34.893  1.00  0.00    -0.206 F 
ATOM     92  C   UNL A   1      46.536  25.961  35.277  1.00  0.00     0.022 A 
BRANCH  89  93
ATOM     93  S   UNL A   1      48.469  27.704  34.278  1.00  0.00     0.124 S 
ATOM     94  O   UNL A   1      48.316  28.514  33.074  1.00  0.00    -0.237 OA
ATOM     95  O   UNL A   1      48.780  28.432  35.503  1.00  0.00    -0.237 OA
ATOM     96  O   UNL A   1      49.210  26.457  34.095  1.00  0.00    -0.744 OA
ENDBRANCH  89  93
ENDBRANCH  63  86
ENDBRANCH  37  38
ENDBRANCH  30  32
ENDBRANCH  29  30
ENDBRANCH  28  29
ENDBRANCH  27  28
ENDBRANCH  26  27
ENDBRANCH  25  26
ENDBRANCH   1  25
TORSDOF 23
ENDMDL
MODEL 2
REMARK VINA RESULT:     -10.1      1.693      2.191
REMARK SMILES C[C@@H](Sc1nc2ccccc2c(=O)n1N)C(=O)OCCOCCOCCOC(=O)c1ccc(-c2c3nc(c(-c4cc(S(=O)(=O)[O-])ccc4F)c4ccc([nH]4)c(-c4cc(S(=O)(=O)[O-])ccc4F)c4nc(c(-c5cc(S(=O)(=O)[O-])ccc5F)c5ccc2[nH]5)C=C4)C=C3)cc1
REMARK SMILES IDX 22 1 21 2 20 3 19 4 18 5 16 6 17 7 2 8 1 9 3 10 4 11 5 12
REMARK SMILES IDX 14 13 6 14 12 15 7 16 11 17 13 18 8 19 10 20 9 21 15 22
REMARK SMILES IDX 23 25 24 26 25 27 26 28 27 29 28 30 29 31 30 32 31 33 92 34
REMARK SMILES IDX 32 35 91 36 33 37 34 38 35 39 85 40 36 41 90 42 84 43 86 44
REMARK SMILES IDX 37 45 89 46 83 47 82 48 38 50 70 51 50 52 69 53 51 54 54 55
REMARK SMILES IDX 68 56 87 57 52 58 53 59 67 61 88 62 55 63 39 64 40 65 48 66
REMARK SMILES IDX 41 67 47 68 49 69 46 70 42 71 43 72 44 73 45 74 71 75 72 76
REMARK SMILES IDX 80 77 73 78 79 79 81 80 78 81 74 82 75 83 76 84 77 85 56 86
REMARK SMILES IDX 57 87 65 88 58 89 64 90 66 91 63 92 59 93 60 94 61 95 62 96
REMARK H PARENT 15 23 15 24 86 49 54 60
REMARK Flexibility Score: inf
ROOT
ATOM      1  C   UNL A   1      33.128  29.287  27.452  1.00  0.00     0.188 C 
ENDROOT
BRANCH   1   2
ATOM      2  O   UNL A   1      32.054  28.441  27.063  1.00  0.00    -0.376 OA
BRANCH   2   3
ATOM      3  C   UNL A   1      31.885  28.101  25.692  1.00  0.00     0.202 C 
BRANCH   3   4
ATOM      4  C   UNL A   1      33.086  28.178  24.734  1.00  0.00     0.261 C 
BRANCH   4   5
ATOM      5  O   UNL A   1      33.485  26.935  24.119  1.00  0.00    -0.462 OA
BRANCH   5   6
ATOM      6  C   UNL A   1      32.609  25.901  24.237  1.00  0.00     0.319 C 
ATOM      7  O   UNL A   1      32.495  25.228  25.257  1.00  0.00    -0.251 OA
BRANCH   6   8
ATOM      8  C   UNL A   1      31.728  25.670  22.995  1.00  0.00     0.161 C 
ATOM      9  C   UNL A   1      30.900  26.839  22.454  1.00  0.00     0.032 C 
BRANCH   8  10
ATOM     10  S   UNL A   1      32.851  25.003  21.713  1.00  0.00    -0.071 SA
BRANCH  10  11
ATOM     11  C   UNL A   1      33.527  23.620  22.535  1.00  0.00     0.191 A 
ATOM     12  N   UNL A   1      34.802  23.656  22.745  1.00  0.00    -0.222 NA
ATOM     13  N   UNL A   1      32.690  22.606  22.989  1.00  0.00    -0.202 N 
ATOM     14  C   UNL A   1      35.372  22.640  23.516  1.00  0.00     0.079 A 
ATOM     15  C   UNL A   1      33.170  21.591  23.818  1.00  0.00     0.280 A 
ATOM     16  C   UNL A   1      36.748  22.679  23.748  1.00  0.00     0.029 A 
ATOM     17  C   UNL A   1      34.614  21.634  24.115  1.00  0.00     0.068 A 
ATOM     18  O   UNL A   1      32.460  20.710  24.300  1.00  0.00    -0.267 OA
ATOM     19  C   UNL A   1      37.349  21.752  24.602  1.00  0.00     0.002 A 
ATOM     20  C   UNL A   1      35.205  20.706  24.978  1.00  0.00     0.016 A 
ATOM     21  C   UNL A   1      36.575  20.776  25.228  1.00  0.00     0.001 A 
BRANCH  13  22
ATOM     22  N   UNL A   1      31.304  22.544  22.630  1.00  0.00    -0.334 N 
ATOM     23  H   UNL A   1      31.045  22.333  21.704  1.00  0.00     0.178 HD
ATOM     24  H   UNL A   1      30.611  22.713  23.309  1.00  0.00     0.178 HD
ENDBRANCH  13  22
ENDBRANCH  10  11
ENDBRANCH   8  10
ENDBRANCH   6   8
ENDBRANCH   5   6
ENDBRANCH   4   5
ENDBRANCH   3   4
ENDBRANCH   2   3
ENDBRANCH   1   2
BRANCH   1  25
ATOM     25  C   UNL A   1      32.997  30.808  27.271  1.00  0.00     0.188 C 
BRANCH  25  26
ATOM     26  O   UNL A   1      31.749  31.241  26.780  1.00  0.00    -0.376 OA
BRANCH  26  27
ATOM     27  C   UNL A   1      31.478  32.632  26.790  1.00  0.00     0.202 C 
BRANCH  27  28
ATOM     28  C   UNL A   1      32.618  33.613  27.125  1.00  0.00     0.261 C 
BRANCH  28  29
ATOM     29  O   UNL A   1      32.541  34.297  28.386  1.00  0.00    -0.460 OA
BRANCH  29  30
ATOM     30  C   UNL A   1      33.621  35.020  28.765  1.00  0.00     0.338 C 
ATOM     31  O   UNL A   1      33.653  36.227  28.958  1.00  0.00    -0.246 OA
BRANCH  30  32
ATOM     32  C   UNL A   1      34.688  34.066  29.148  1.00  0.00     0.060 A 
ATOM     33  C   UNL A   1      34.363  32.961  29.950  1.00  0.00     0.016 A 
ATOM     34  C   UNL A   1      35.997  34.241  28.694  1.00  0.00     0.016 A 
ATOM     35  C   UNL A   1      35.349  32.039  30.313  1.00  0.00     0.010 A 
ATOM     36  C   UNL A   1      36.988  33.332  29.081  1.00  0.00     0.010 A 
ATOM     37  C   UNL A   1      36.676  32.239  29.911  1.00  0.00    -0.014 A 
BRANCH  37  38
ATOM     38  C   UNL A   1      37.770  31.432  30.513  1.00  0.00     0.031 A 
ATOM     39  C   UNL A   1      38.160  31.716  31.939  1.00  0.00     0.074 A 
ATOM     40  C   UNL A   1      38.404  30.463  29.825  1.00  0.00     0.049 A 
ATOM     41  N   UNL A   1      39.142  31.226  32.650  1.00  0.00    -0.248 NA
ATOM     42  C   UNL A   1      37.327  32.695  32.655  1.00  0.00     0.031 C 
ATOM     43  C   UNL A   1      38.080  30.044  28.464  1.00  0.00     0.029 A 
ATOM     44  N   UNL A   1      39.462  29.662  30.182  1.00  0.00    -0.354 N 
ATOM     45  C   UNL A   1      39.051  31.841  33.895  1.00  0.00     0.074 A 
ATOM     46  C   UNL A   1      37.942  32.769  33.824  1.00  0.00     0.031 C 
ATOM     47  C   UNL A   1      38.931  29.069  28.096  1.00  0.00     0.029 A 
ATOM     48  C   UNL A   1      39.890  28.827  29.175  1.00  0.00     0.049 A 
ATOM     49  H   UNL A   1      39.876  29.683  31.075  1.00  0.00     0.167 HD
ATOM     50  C   UNL A   1      39.815  31.646  34.998  1.00  0.00     0.034 A 
ATOM     51  C   UNL A   1      40.949  27.993  29.120  1.00  0.00     0.034 A 
ATOM     52  C   UNL A   1      40.928  30.731  35.050  1.00  0.00     0.049 A 
ATOM     53  C   UNL A   1      41.862  27.878  30.321  1.00  0.00     0.074 A 
ATOM     54  C   UNL A   1      41.768  30.458  36.117  1.00  0.00     0.029 A 
ATOM     55  N   UNL A   1      41.368  29.948  33.991  1.00  0.00    -0.354 N 
ATOM     56  N   UNL A   1      41.775  28.474  31.489  1.00  0.00    -0.248 NA
ATOM     57  C   UNL A   1      43.015  26.975  30.197  1.00  0.00     0.031 C 
ATOM     58  C   UNL A   1      42.762  29.577  35.678  1.00  0.00     0.029 A 
ATOM     59  C   UNL A   1      42.489  29.222  34.369  1.00  0.00     0.049 A 
ATOM     60  H   UNL A   1      40.947  29.912  33.103  1.00  0.00     0.167 HD
ATOM     61  C   UNL A   1      42.838  27.984  32.247  1.00  0.00     0.074 A 
ATOM     62  C   UNL A   1      43.544  27.039  31.410  1.00  0.00     0.031 C 
ATOM     63  C   UNL A   1      43.192  28.283  33.525  1.00  0.00     0.034 A 
BRANCH  50  64
ATOM     64  C   UNL A   1      39.502  32.482  36.215  1.00  0.00     0.023 A 
ATOM     65  C   UNL A   1      38.655  32.016  37.236  1.00  0.00     0.031 A 
ATOM     66  C   UNL A   1      40.036  33.777  36.343  1.00  0.00     0.131 A 
ATOM     67  C   UNL A   1      38.310  32.863  38.300  1.00  0.00     0.055 A 
ATOM     68  C   UNL A   1      39.758  34.582  37.448  1.00  0.00     0.041 A 
ATOM     69  F   UNL A   1      40.829  34.286  35.387  1.00  0.00    -0.206 F 
ATOM     70  C   UNL A   1      38.879  34.133  38.429  1.00  0.00     0.022 A 
BRANCH  67  71
ATOM     71  S   UNL A   1      36.991  32.342  39.431  1.00  0.00     0.124 S 
ATOM     72  O   UNL A   1      37.344  33.068  40.649  1.00  0.00    -0.237 OA
ATOM     73  O   UNL A   1      35.788  32.795  38.743  1.00  0.00    -0.237 OA
ATOM     74  O   UNL A   1      37.159  30.893  39.508  1.00  0.00    -0.744 OA
ENDBRANCH  67  71
ENDBRANCH  50  64
BRANCH  51  75
ATOM     75  C   UNL A   1      41.249  27.224  27.874  1.00  0.00     0.023 A 
ATOM     76  C   UNL A   1      41.056  25.835  27.815  1.00  0.00     0.031 A 
ATOM     77  C   UNL A   1      41.807  27.857  26.748  1.00  0.00     0.131 A 
ATOM     78  C   UNL A   1      41.460  25.117  26.678  1.00  0.00     0.055 A 
ATOM     79  C   UNL A   1      42.150  27.149  25.596  1.00  0.00     0.041 A 
ATOM     80  F   UNL A   1      42.027  29.181  26.754  1.00  0.00    -0.206 F 
ATOM     81  C   UNL A   1      41.990  25.768  25.561  1.00  0.00     0.022 A 
BRANCH  78  82
ATOM     82  S   UNL A   1      41.379  23.305  26.717  1.00  0.00     0.124 S 
ATOM     83  O   UNL A   1      42.313  22.945  25.656  1.00  0.00    -0.237 OA
ATOM     84  O   UNL A   1      41.810  23.011  28.080  1.00  0.00    -0.237 OA
ATOM     85  O   UNL A   1      39.974  23.021  26.434  1.00  0.00    -0.744 OA
ENDBRANCH  78  82
ENDBRANCH  51  75
BRANCH  63  86
ATOM     86  C   UNL A   1      44.363  27.531  34.118  1.00  0.00     0.023 A 
ATOM     87  C   UNL A   1      44.217  26.262  34.704  1.00  0.00     0.031 A 
ATOM     88  C   UNL A   1      45.651  28.099  34.093  1.00  0.00     0.131 A 
ATOM     89  C   UNL A   1      45.326  25.630  35.291  1.00  0.00     0.055 A 
ATOM     90  C   UNL A   1      46.761  27.436  34.615  1.00  0.00     0.041 A 
ATOM     91  F   UNL A   1      45.852  29.312  33.550  1.00  0.00    -0.206 F 
ATOM     92  C   UNL A   1      46.600  26.199  35.231  1.00  0.00     0.022 A 
BRANCH  89  93
ATOM     93  S   UNL A   1      45.064  24.095  36.223  1.00  0.00     0.124 S 
ATOM     94  O   UNL A   1      46.432  23.669  36.496  1.00  0.00    -0.237 OA
ATOM     95  O   UNL A   1      44.296  24.556  37.375  1.00  0.00    -0.237 OA
ATOM     96  O   UNL A   1      44.327  23.247  35.287  1.00  0.00    -0.744 OA
ENDBRANCH  89  93
ENDBRANCH  63  86
ENDBRANCH  37  38
ENDBRANCH  30  32
ENDBRANCH  29  30
ENDBRANCH  28  29
ENDBRANCH  27  28
ENDBRANCH  26  27
ENDBRANCH  25  26
ENDBRANCH   1  25
TORSDOF 23
ENDMDL
MODEL 3
REMARK VINA RESULT:      -9.8      3.322      5.539
REMARK SMILES C[C@@H](Sc1nc2ccccc2c(=O)n1N)C(=O)OCCOCCOCCOC(=O)c1ccc(-c2c3nc(c(-c4cc(S(=O)(=O)[O-])ccc4F)c4ccc([nH]4)c(-c4cc(S(=O)(=O)[O-])ccc4F)c4nc(c(-c5cc(S(=O)(=O)[O-])ccc5F)c5ccc2[nH]5)C=C4)C=C3)cc1
REMARK SMILES IDX 22 1 21 2 20 3 19 4 18 5 16 6 17 7 2 8 1 9 3 10 4 11 5 12
REMARK SMILES IDX 14 13 6 14 12 15 7 16 11 17 13 18 8 19 10 20 9 21 15 22
REMARK SMILES IDX 23 25 24 26 25 27 26 28 27 29 28 30 29 31 30 32 31 33 92 34
REMARK SMILES IDX 32 35 91 36 33 37 34 38 35 39 85 40 36 41 90 42 84 43 86 44
REMARK SMILES IDX 37 45 89 46 83 47 82 48 38 50 70 51 50 52 69 53 51 54 54 55
REMARK SMILES IDX 68 56 87 57 52 58 53 59 67 61 88 62 55 63 39 64 40 65 48 66
REMARK SMILES IDX 41 67 47 68 49 69 46 70 42 71 43 72 44 73 45 74 71 75 72 76
REMARK SMILES IDX 80 77 73 78 79 79 81 80 78 81 74 82 75 83 76 84 77 85 56 86
REMARK SMILES IDX 57 87 65 88 58 89 64 90 66 91 63 92 59 93 60 94 61 95 62 96
REMARK H PARENT 15 23 15 24 86 49 54 60
REMARK Flexibility Score: inf
ROOT
ATOM      1  C   UNL A   1      33.396  25.215  25.817  1.00  0.00     0.188 C 
ENDROOT
BRANCH   1   2
ATOM      2  O   UNL A   1      34.071  23.976  25.638  1.00  0.00    -0.376 OA
BRANCH   2   3
ATOM      3  C   UNL A   1      35.457  23.969  25.320  1.00  0.00     0.202 C 
BRANCH   3   4
ATOM      4  C   UNL A   1      36.379  22.911  25.951  1.00  0.00     0.261 C 
BRANCH   4   5
ATOM      5  O   UNL A   1      37.786  23.042  25.657  1.00  0.00    -0.462 OA
BRANCH   5   6
ATOM      6  C   UNL A   1      38.520  21.899  25.727  1.00  0.00     0.319 C 
ATOM      7  O   UNL A   1      38.111  20.810  25.332  1.00  0.00    -0.251 OA
BRANCH   6   8
ATOM      8  C   UNL A   1      39.938  22.087  26.297  1.00  0.00     0.161 C 
ATOM      9  C   UNL A   1      40.133  23.040  27.480  1.00  0.00     0.032 C 
BRANCH   8  10
ATOM     10  S   UNL A   1      40.534  20.404  26.696  1.00  0.00    -0.071 SA
BRANCH  10  11
ATOM     11  C   UNL A   1      42.110  20.410  25.947  1.00  0.00     0.191 A 
ATOM     12  N   UNL A   1      42.527  21.558  25.521  1.00  0.00    -0.222 NA
ATOM     13  N   UNL A   1      42.865  19.244  25.911  1.00  0.00    -0.202 N 
ATOM     14  C   UNL A   1      43.835  21.645  25.037  1.00  0.00     0.079 A 
ATOM     15  C   UNL A   1      44.200  19.259  25.502  1.00  0.00     0.280 A 
ATOM     16  C   UNL A   1      44.289  22.883  24.580  1.00  0.00     0.029 A 
ATOM     17  C   UNL A   1      44.719  20.565  25.057  1.00  0.00     0.068 A 
ATOM     18  O   UNL A   1      44.930  18.270  25.515  1.00  0.00    -0.267 OA
ATOM     19  C   UNL A   1      45.620  23.050  24.191  1.00  0.00     0.002 A 
ATOM     20  C   UNL A   1      46.055  20.724  24.676  1.00  0.00     0.016 A 
ATOM     21  C   UNL A   1      46.505  21.974  24.253  1.00  0.00     0.001 A 
BRANCH  13  22
ATOM     22  N   UNL A   1      42.320  17.971  26.282  1.00  0.00    -0.334 N 
ATOM     23  H   UNL A   1      42.775  17.142  26.009  1.00  0.00     0.178 HD
ATOM     24  H   UNL A   1      41.489  17.926  26.809  1.00  0.00     0.178 HD
ENDBRANCH  13  22
ENDBRANCH  10  11
ENDBRANCH   8  10
ENDBRANCH   6   8
ENDBRANCH   5   6
ENDBRANCH   4   5
ENDBRANCH   3   4
ENDBRANCH   2   3
ENDBRANCH   1   2
BRANCH   1  25
ATOM     25  C   UNL A   1      33.443  26.270  24.699  1.00  0.00     0.188 C 
BRANCH  25  26
ATOM     26  O   UNL A   1      33.915  27.536  25.100  1.00  0.00    -0.376 OA
BRANCH  26  27
ATOM     27  C   UNL A   1      33.225  28.200  26.145  1.00  0.00     0.202 C 
BRANCH  27  28
ATOM     28  C   UNL A   1      33.490  29.699  26.381  1.00  0.00     0.261 C 
BRANCH  28  29
ATOM     29  O   UNL A   1      34.028  30.074  27.659  1.00  0.00    -0.460 OA
BRANCH  29  30
ATOM     30  C   UNL A   1      34.865  31.138  27.691  1.00  0.00     0.338 C 
ATOM     31  O   UNL A   1      34.586  32.288  27.388  1.00  0.00    -0.246 OA
BRANCH  30  32
ATOM     32  C   UNL A   1      36.099  30.716  28.394  1.00  0.00     0.060 A 
ATOM     33  C   UNL A   1      36.134  29.462  29.025  1.00  0.00     0.016 A 
ATOM     34  C   UNL A   1      37.229  31.537  28.407  1.00  0.00     0.016 A 
ATOM     35  C   UNL A   1      37.291  29.034  29.682  1.00  0.00     0.010 A 
ATOM     36  C   UNL A   1      38.377  31.118  29.088  1.00  0.00     0.010 A 
ATOM     37  C   UNL A   1      38.408  29.876  29.750  1.00  0.00    -0.014 A 
BRANCH  37  38
ATOM     38  C   UNL A   1      39.531  29.557  30.670  1.00  0.00     0.031 A 
ATOM     39  C   UNL A   1      39.555  30.224  32.020  1.00  0.00     0.074 A 
ATOM     40  C   UNL A   1      40.506  28.693  30.333  1.00  0.00     0.049 A 
ATOM     41  N   UNL A   1      40.471  30.192  32.952  1.00  0.00    -0.248 NA
ATOM     42  C   UNL A   1      38.382  31.047  32.355  1.00  0.00     0.031 C 
ATOM     43  C   UNL A   1      40.568  27.931  29.088  1.00  0.00     0.029 A 
ATOM     44  N   UNL A   1      41.642  28.319  31.012  1.00  0.00    -0.354 N 
ATOM     45  C   UNL A   1      39.991  30.994  33.982  1.00  0.00     0.074 A 
ATOM     46  C   UNL A   1      38.721  31.530  33.539  1.00  0.00     0.031 C 
ATOM     47  C   UNL A   1      41.689  27.188  29.087  1.00  0.00     0.029 A 
ATOM     48  C   UNL A   1      42.450  27.456  30.308  1.00  0.00     0.049 A 
ATOM     49  H   UNL A   1      41.857  28.638  31.918  1.00  0.00     0.167 HD
ATOM     50  C   UNL A   1      40.552  31.254  35.189  1.00  0.00     0.034 A 
ATOM     51  C   UNL A   1      43.674  26.968  30.600  1.00  0.00     0.034 A 
ATOM     52  C   UNL A   1      41.826  30.728  35.612  1.00  0.00     0.049 A 
ATOM     53  C   UNL A   1      44.337  27.367  31.901  1.00  0.00     0.074 A 
ATOM     54  C   UNL A   1      42.485  30.930  36.813  1.00  0.00     0.029 A 
ATOM     55  N   UNL A   1      42.643  29.906  34.846  1.00  0.00    -0.354 N 
ATOM     56  N   UNL A   1      43.880  28.136  32.863  1.00  0.00    -0.248 NA
ATOM     57  C   UNL A   1      45.680  26.826  32.156  1.00  0.00     0.031 C 
ATOM     58  C   UNL A   1      43.733  30.302  36.739  1.00  0.00     0.029 A 
ATOM     59  C   UNL A   1      43.815  29.625  35.535  1.00  0.00     0.049 A 
ATOM     60  H   UNL A   1      42.424  29.572  33.947  1.00  0.00     0.167 HD
ATOM     61  C   UNL A   1      44.864  28.136  33.851  1.00  0.00     0.074 A 
ATOM     62  C   UNL A   1      45.932  27.285  33.373  1.00  0.00     0.031 C 
ATOM     63  C   UNL A   1      44.880  28.777  35.049  1.00  0.00     0.034 A 
BRANCH  50  64
ATOM     64  C   UNL A   1      39.811  32.194  36.109  1.00  0.00     0.023 A 
ATOM     65  C   UNL A   1      39.008  31.720  37.162  1.00  0.00     0.031 A 
ATOM     66  C   UNL A   1      39.886  33.584  35.914  1.00  0.00     0.131 A 
ATOM     67  C   UNL A   1      38.258  32.623  37.930  1.00  0.00     0.055 A 
ATOM     68  C   UNL A   1      39.205  34.482  36.737  1.00  0.00     0.041 A 
ATOM     69  F   UNL A   1      40.615  34.095  34.908  1.00  0.00    -0.206 F 
ATOM     70  C   UNL A   1      38.373  34.003  37.744  1.00  0.00     0.022 A 
BRANCH  67  71
ATOM     71  S   UNL A   1      37.013  31.963  39.073  1.00  0.00     0.124 S 
ATOM     72  O   UNL A   1      35.853  32.794  38.756  1.00  0.00    -0.237 OA
ATOM     73  O   UNL A   1      36.925  30.565  38.671  1.00  0.00    -0.237 OA
ATOM     74  O   UNL A   1      37.597  32.200  40.391  1.00  0.00    -0.744 OA
ENDBRANCH  67  71
ENDBRANCH  50  64
BRANCH  51  75
ATOM     75  C   UNL A   1      44.391  26.082  29.634  1.00  0.00     0.023 A 
ATOM     76  C   UNL A   1      45.062  26.613  28.521  1.00  0.00     0.031 A 
ATOM     77  C   UNL A   1      44.352  24.681  29.770  1.00  0.00     0.131 A 
ATOM     78  C   UNL A   1      45.622  25.753  27.563  1.00  0.00     0.055 A 
ATOM     79  C   UNL A   1      44.964  23.832  28.847  1.00  0.00     0.041 A 
ATOM     80  F   UNL A   1      43.714  24.117  30.807  1.00  0.00    -0.206 F 
ATOM     81  C   UNL A   1      45.592  24.367  27.727  1.00  0.00     0.022 A 
BRANCH  78  82
ATOM     82  S   UNL A   1      46.302  26.471  26.042  1.00  0.00     0.124 S 
ATOM     83  O   UNL A   1      47.376  25.534  25.728  1.00  0.00    -0.237 OA
ATOM     84  O   UNL A   1      45.147  26.445  25.150  1.00  0.00    -0.237 OA
ATOM     85  O   UNL A   1      46.737  27.802  26.458  1.00  0.00    -0.744 OA
ENDBRANCH  78  82
ENDBRANCH  51  75
BRANCH  63  86
ATOM     86  C   UNL A   1      46.064  28.530  35.957  1.00  0.00     0.023 A 
ATOM     87  C   UNL A   1      46.140  27.404  36.796  1.00  0.00     0.031 A 
ATOM     88  C   UNL A   1      47.136  29.441  35.980  1.00  0.00     0.131 A 
ATOM     89  C   UNL A   1      47.236  27.250  37.662  1.00  0.00     0.055 A 
ATOM     90  C   UNL A   1      48.254  29.246  36.792  1.00  0.00     0.041 A 
ATOM     91  F   UNL A   1      47.118  30.537  35.205  1.00  0.00    -0.206 F 
ATOM     92  C   UNL A   1      48.302  28.152  37.650  1.00  0.00     0.022 A 
BRANCH  89  93
ATOM     93  S   UNL A   1      47.203  25.904  38.879  1.00  0.00     0.124 S 
ATOM     94  O   UNL A   1      48.152  24.955  38.307  1.00  0.00    -0.237 OA
ATOM     95  O   UNL A   1      47.630  26.577  40.101  1.00  0.00    -0.237 OA
ATOM     96  O   UNL A   1      45.808  25.466  38.869  1.00  0.00    -0.744 OA
ENDBRANCH  89  93
ENDBRANCH  63  86
ENDBRANCH  37  38
ENDBRANCH  30  32
ENDBRANCH  29  30
ENDBRANCH  28  29
ENDBRANCH  27  28
ENDBRANCH  26  27
ENDBRANCH  25  26
ENDBRANCH   1  25
TORSDOF 23
ENDMDL
