MODEL 1
REMARK VINA RESULT:     -10.5      0.000      0.000
REMARK SMILES Cc1ccc(Cl)c(Nc2ccccc2C(=O)OCCOCCOCCOC(=O)c2ccc(-c3c4nc(c(-c5cc(S(=O)(=O)[O-])ccc5F)c5ccc([nH]5)c(-c5cc(S(=O)(=O)[O-])ccc5F)c5nc(c(-c6cc(S(=O)(=O)[O-])ccc6F)c6ccc3[nH]6)C=C5)C=C4)cc2)c1Cl
REMARK SMILES IDX 22 1 21 2 20 3 19 4 18 5 17 6 15 7 16 8 14 9 9 10 10 11
REMARK SMILES IDX 11 12 13 13 12 14 8 15 7 17 1 18 2 19 3 20 92 21 4 22 93 23
REMARK SMILES IDX 5 24 6 25 23 26 24 27 25 28 26 29 27 30 28 31 29 32 30 33
REMARK SMILES IDX 91 34 31 35 90 36 32 37 33 38 34 39 84 40 35 41 89 42 83 43
REMARK SMILES IDX 85 44 36 45 88 46 82 47 81 48 37 50 69 51 49 52 68 53 50 54
REMARK SMILES IDX 53 55 67 56 86 57 51 58 52 59 66 61 87 62 54 63 38 64 39 65
REMARK SMILES IDX 47 66 40 67 46 68 48 69 45 70 41 71 42 72 43 73 44 74 70 75
REMARK SMILES IDX 71 76 79 77 72 78 78 79 80 80 77 81 73 82 74 83 75 84 76 85
REMARK SMILES IDX 55 86 56 87 64 88 57 89 63 90 65 91 62 92 58 93 59 94 60 95
REMARK SMILES IDX 61 96
REMARK H PARENT 8 16 85 49 53 60
REMARK Flexibility Score: inf
ROOT
ATOM      1  C   UNL A   1      46.586  21.523  39.845  1.00  0.00     0.188 C 
ENDROOT
BRANCH   1   2
ATOM      2  C   UNL A   1      45.961  20.363  40.652  1.00  0.00     0.188 C 
BRANCH   2   3
ATOM      3  O   UNL A   1      44.832  20.635  41.456  1.00  0.00    -0.376 OA
BRANCH   3   4
ATOM      4  C   UNL A   1      44.789  20.181  42.797  1.00  0.00     0.202 C 
BRANCH   4   5
ATOM      5  C   UNL A   1      45.338  18.828  43.269  1.00  0.00     0.261 C 
BRANCH   5   6
ATOM      6  O   UNL A   1      44.421  17.730  43.279  1.00  0.00    -0.460 OA
BRANCH   6   7
ATOM      7  C   UNL A   1      44.888  16.564  42.760  1.00  0.00     0.340 C 
ATOM      8  O   UNL A   1      45.584  15.752  43.352  1.00  0.00    -0.246 OA
BRANCH   7   9
ATOM      9  C   UNL A   1      44.301  16.294  41.421  1.00  0.00     0.083 A 
ATOM     10  C   UNL A   1      43.156  15.504  41.167  1.00  0.00     0.053 A 
ATOM     11  C   UNL A   1      42.789  15.309  39.819  1.00  0.00     0.027 A 
ATOM     12  C   UNL A   1      43.516  15.872  38.766  1.00  0.00     0.002 A 
ATOM     13  C   UNL A   1      45.027  16.858  40.351  1.00  0.00     0.018 A 
ATOM     14  C   UNL A   1      44.636  16.649  39.032  1.00  0.00     0.001 A 
BRANCH  10  15
ATOM     15  N   UNL A   1      42.276  14.960  42.133  1.00  0.00    -0.352 N 
ATOM     16  H   UNL A   1      41.546  15.561  42.407  1.00  0.00     0.167 HD
BRANCH  15  17
ATOM     17  C   UNL A   1      42.270  13.695  42.773  1.00  0.00     0.077 A 
ATOM     18  C   UNL A   1      44.123  12.006  45.647  1.00  0.00     0.046 C 
ATOM     19  C   UNL A   1      43.183  12.200  44.487  1.00  0.00    -0.030 A 
ATOM     20  C   UNL A   1      42.816  11.093  43.710  1.00  0.00     0.006 A 
ATOM     21  C   UNL A   1      42.807  13.488  44.062  1.00  0.00     0.069 A 
ATOM     22  C   UNL A   1      42.121  11.268  42.515  1.00  0.00     0.023 A 
ATOM     23  Cl  UNL A   1      42.967  14.822  45.170  1.00  0.00    -0.082 Cl
ATOM     24  C   UNL A   1      41.883  12.557  42.037  1.00  0.00     0.066 A 
ATOM     25  Cl  UNL A   1      41.139  12.715  40.479  1.00  0.00    -0.082 Cl
ENDBRANCH  15  17
ENDBRANCH  10  15
ENDBRANCH   7   9
ENDBRANCH   6   7
ENDBRANCH   5   6
ENDBRANCH   4   5
ENDBRANCH   3   4
ENDBRANCH   2   3
ENDBRANCH   1   2
BRANCH   1  26
ATOM     26  O   UNL A   1      45.751  22.486  39.240  1.00  0.00    -0.376 OA
BRANCH  26  27
ATOM     27  C   UNL A   1      45.765  23.824  39.702  1.00  0.00     0.202 C 
BRANCH  27  28
ATOM     28  C   UNL A   1      45.137  25.025  38.963  1.00  0.00     0.261 C 
BRANCH  28  29
ATOM     29  O   UNL A   1      45.981  26.137  38.650  1.00  0.00    -0.460 OA
BRANCH  29  30
ATOM     30  C   UNL A   1      46.656  26.044  37.472  1.00  0.00     0.338 C 
ATOM     31  O   UNL A   1      47.729  25.506  37.287  1.00  0.00    -0.246 OA
BRANCH  30  32
ATOM     32  C   UNL A   1      45.778  26.518  36.379  1.00  0.00     0.060 A 
ATOM     33  C   UNL A   1      45.865  27.860  35.978  1.00  0.00     0.016 A 
ATOM     34  C   UNL A   1      44.870  25.656  35.765  1.00  0.00     0.016 A 
ATOM     35  C   UNL A   1      45.035  28.348  34.969  1.00  0.00     0.010 A 
ATOM     36  C   UNL A   1      44.017  26.155  34.774  1.00  0.00     0.010 A 
ATOM     37  C   UNL A   1      44.077  27.508  34.389  1.00  0.00    -0.014 A 
BRANCH  37  38
ATOM     38  C   UNL A   1      43.018  28.087  33.523  1.00  0.00     0.031 A 
ATOM     39  C   UNL A   1      42.067  29.085  34.126  1.00  0.00     0.074 A 
ATOM     40  C   UNL A   1      42.908  27.748  32.225  1.00  0.00     0.049 A 
ATOM     41  N   UNL A   1      41.026  29.671  33.596  1.00  0.00    -0.248 NA
ATOM     42  C   UNL A   1      42.328  29.465  35.523  1.00  0.00     0.031 C 
ATOM     43  C   UNL A   1      43.796  26.832  31.513  1.00  0.00     0.029 A 
ATOM     44  N   UNL A   1      41.988  28.130  31.278  1.00  0.00    -0.354 N 
ATOM     45  C   UNL A   1      40.496  30.477  34.597  1.00  0.00     0.074 A 
ATOM     46  C   UNL A   1      41.314  30.278  35.774  1.00  0.00     0.031 C 
ATOM     47  C   UNL A   1      43.365  26.707  30.245  1.00  0.00     0.029 A 
ATOM     48  C   UNL A   1      42.148  27.498  30.067  1.00  0.00     0.049 A 
ATOM     49  H   UNL A   1      41.281  28.794  31.450  1.00  0.00     0.167 HD
ATOM     50  C   UNL A   1      39.426  31.309  34.538  1.00  0.00     0.034 A 
ATOM     51  C   UNL A   1      41.380  27.524  28.958  1.00  0.00     0.034 A 
ATOM     52  C   UNL A   1      38.612  31.485  33.360  1.00  0.00     0.049 A 
ATOM     53  C   UNL A   1      40.140  28.390  28.940  1.00  0.00     0.074 A 
ATOM     54  C   UNL A   1      37.526  32.325  33.183  1.00  0.00     0.029 A 
ATOM     55  N   UNL A   1      38.778  30.796  32.164  1.00  0.00    -0.354 N 
ATOM     56  N   UNL A   1      39.658  29.165  29.886  1.00  0.00    -0.248 NA
ATOM     57  C   UNL A   1      39.347  28.390  27.704  1.00  0.00     0.031 C 
ATOM     58  C   UNL A   1      36.981  32.075  31.918  1.00  0.00     0.029 A 
ATOM     59  C   UNL A   1      37.786  31.156  31.265  1.00  0.00     0.049 A 
ATOM     60  H   UNL A   1      39.496  30.147  31.982  1.00  0.00     0.167 HD
ATOM     61  C   UNL A   1      38.522  29.767  29.345  1.00  0.00     0.074 A 
ATOM     62  C   UNL A   1      38.403  29.276  27.988  1.00  0.00     0.031 C 
ATOM     63  C   UNL A   1      37.663  30.650  29.915  1.00  0.00     0.034 A 
BRANCH  50  64
ATOM     64  C   UNL A   1      39.039  32.034  35.807  1.00  0.00     0.023 A 
ATOM     65  C   UNL A   1      39.552  33.303  36.128  1.00  0.00     0.031 A 
ATOM     66  C   UNL A   1      38.166  31.427  36.727  1.00  0.00     0.131 A 
ATOM     67  C   UNL A   1      39.250  33.887  37.368  1.00  0.00     0.055 A 
ATOM     68  C   UNL A   1      37.800  32.051  37.920  1.00  0.00     0.041 A 
ATOM     69  F   UNL A   1      37.665  30.204  36.490  1.00  0.00    -0.206 F 
ATOM     70  C   UNL A   1      38.356  33.283  38.254  1.00  0.00     0.022 A 
BRANCH  67  71
ATOM     71  S   UNL A   1      40.168  35.367  37.876  1.00  0.00     0.124 S 
ATOM     72  O   UNL A   1      39.763  35.502  39.273  1.00  0.00    -0.237 OA
ATOM     73  O   UNL A   1      41.553  34.972  37.649  1.00  0.00    -0.237 OA
ATOM     74  O   UNL A   1      39.661  36.407  36.984  1.00  0.00    -0.744 OA
ENDBRANCH  67  71
ENDBRANCH  50  64
BRANCH  51  75
ATOM     75  C   UNL A   1      41.720  26.663  27.786  1.00  0.00     0.023 A 
ATOM     76  C   UNL A   1      41.317  25.320  27.720  1.00  0.00     0.031 A 
ATOM     77  C   UNL A   1      42.505  27.166  26.732  1.00  0.00     0.131 A 
ATOM     78  C   UNL A   1      41.734  24.516  26.646  1.00  0.00     0.055 A 
ATOM     79  C   UNL A   1      42.867  26.380  25.637  1.00  0.00     0.041 A 
ATOM     80  F   UNL A   1      42.928  28.440  26.748  1.00  0.00    -0.206 F 
ATOM     81  C   UNL A   1      42.490  25.042  25.596  1.00  0.00     0.022 A 
BRANCH  78  82
ATOM     82  S   UNL A   1      41.346  22.744  26.682  1.00  0.00     0.124 S 
ATOM     83  O   UNL A   1      39.889  22.758  26.624  1.00  0.00    -0.237 OA
ATOM     84  O   UNL A   1      42.031  22.258  25.489  1.00  0.00    -0.237 OA
ATOM     85  O   UNL A   1      41.917  22.296  27.951  1.00  0.00    -0.744 OA
ENDBRANCH  78  82
ENDBRANCH  51  75
BRANCH  63  86
ATOM     86  C   UNL A   1      36.539  31.183  29.053  1.00  0.00     0.023 A 
ATOM     87  C   UNL A   1      35.524  30.351  28.550  1.00  0.00     0.031 A 
ATOM     88  C   UNL A   1      36.488  32.552  28.729  1.00  0.00     0.131 A 
ATOM     89  C   UNL A   1      34.537  30.881  27.704  1.00  0.00     0.055 A 
ATOM     90  C   UNL A   1      35.464  33.086  27.945  1.00  0.00     0.041 A 
ATOM     91  F   UNL A   1      37.431  33.397  29.175  1.00  0.00    -0.206 F 
ATOM     92  C   UNL A   1      34.489  32.247  27.416  1.00  0.00     0.022 A 
BRANCH  89  93
ATOM     93  S   UNL A   1      33.378  29.745  26.894  1.00  0.00     0.124 S 
ATOM     94  O   UNL A   1      32.409  30.666  26.310  1.00  0.00    -0.237 OA
ATOM     95  O   UNL A   1      34.238  29.040  25.950  1.00  0.00    -0.237 OA
ATOM     96  O   UNL A   1      32.870  28.930  27.997  1.00  0.00    -0.744 OA
ENDBRANCH  89  93
ENDBRANCH  63  86
ENDBRANCH  37  38
ENDBRANCH  30  32
ENDBRANCH  29  30
ENDBRANCH  28  29
ENDBRANCH  27  28
ENDBRANCH  26  27
ENDBRANCH   1  26
TORSDOF 22
ENDMDL
MODEL 2
REMARK VINA RESULT:     -10.0     10.106     14.800
REMARK SMILES Cc1ccc(Cl)c(Nc2ccccc2C(=O)OCCOCCOCCOC(=O)c2ccc(-c3c4nc(c(-c5cc(S(=O)(=O)[O-])ccc5F)c5ccc([nH]5)c(-c5cc(S(=O)(=O)[O-])ccc5F)c5nc(c(-c6cc(S(=O)(=O)[O-])ccc6F)c6ccc3[nH]6)C=C5)C=C4)cc2)c1Cl
REMARK SMILES IDX 22 1 21 2 20 3 19 4 18 5 17 6 15 7 16 8 14 9 9 10 10 11
REMARK SMILES IDX 11 12 13 13 12 14 8 15 7 17 1 18 2 19 3 20 92 21 4 22 93 23
REMARK SMILES IDX 5 24 6 25 23 26 24 27 25 28 26 29 27 30 28 31 29 32 30 33
REMARK SMILES IDX 91 34 31 35 90 36 32 37 33 38 34 39 84 40 35 41 89 42 83 43
REMARK SMILES IDX 85 44 36 45 88 46 82 47 81 48 37 50 69 51 49 52 68 53 50 54
REMARK SMILES IDX 53 55 67 56 86 57 51 58 52 59 66 61 87 62 54 63 38 64 39 65
REMARK SMILES IDX 47 66 40 67 46 68 48 69 45 70 41 71 42 72 43 73 44 74 70 75
REMARK SMILES IDX 71 76 79 77 72 78 78 79 80 80 77 81 73 82 74 83 75 84 76 85
REMARK SMILES IDX 55 86 56 87 64 88 57 89 63 90 65 91 62 92 58 93 59 94 60 95
REMARK SMILES IDX 61 96
REMARK H PARENT 8 16 85 49 53 60
REMARK Flexibility Score: inf
ROOT
ATOM      1  C   UNL A   1      38.851  22.546  26.082  1.00  0.00     0.188 C 
ENDROOT
BRANCH   1   2
ATOM      2  C   UNL A   1      37.741  23.605  25.902  1.00  0.00     0.188 C 
BRANCH   2   3
ATOM      3  O   UNL A   1      37.128  23.729  24.636  1.00  0.00    -0.376 OA
BRANCH   3   4
ATOM      4  C   UNL A   1      35.738  23.495  24.494  1.00  0.00     0.202 C 
BRANCH   4   5
ATOM      5  C   UNL A   1      34.662  24.584  24.609  1.00  0.00     0.261 C 
BRANCH   5   6
ATOM      6  O   UNL A   1      34.442  25.393  23.449  1.00  0.00    -0.460 OA
BRANCH   6   7
ATOM      7  C   UNL A   1      33.389  25.033  22.669  1.00  0.00     0.340 C 
ATOM      8  O   UNL A   1      33.428  24.227  21.752  1.00  0.00    -0.246 OA
BRANCH   7   9
ATOM      9  C   UNL A   1      32.116  25.610  23.178  1.00  0.00     0.083 A 
ATOM     10  C   UNL A   1      30.959  24.875  23.525  1.00  0.00     0.053 A 
ATOM     11  C   UNL A   1      29.822  25.606  23.928  1.00  0.00     0.027 A 
ATOM     12  C   UNL A   1      29.828  27.003  23.992  1.00  0.00     0.002 A 
ATOM     13  C   UNL A   1      32.111  27.018  23.248  1.00  0.00     0.018 A 
ATOM     14  C   UNL A   1      30.973  27.711  23.653  1.00  0.00     0.001 A 
BRANCH  10  15
ATOM     15  N   UNL A   1      30.847  23.465  23.600  1.00  0.00    -0.352 N 
ATOM     16  H   UNL A   1      30.165  23.077  23.004  1.00  0.00     0.167 HD
BRANCH  15  17
ATOM     17  C   UNL A   1      31.550  22.519  24.387  1.00  0.00     0.077 A 
ATOM     18  C   UNL A   1      33.222  22.424  27.814  1.00  0.00     0.046 C 
ATOM     19  C   UNL A   1      32.754  21.981  26.453  1.00  0.00    -0.030 A 
ATOM     20  C   UNL A   1      33.474  20.991  25.769  1.00  0.00     0.006 A 
ATOM     21  C   UNL A   1      31.722  22.661  25.780  1.00  0.00     0.069 A 
ATOM     22  C   UNL A   1      33.194  20.709  24.434  1.00  0.00     0.023 A 
ATOM     23  Cl  UNL A   1      30.620  23.646  26.704  1.00  0.00    -0.082 Cl
ATOM     24  C   UNL A   1      32.266  21.490  23.742  1.00  0.00     0.066 A 
ATOM     25  Cl  UNL A   1      32.059  21.187  22.049  1.00  0.00    -0.082 Cl
ENDBRANCH  15  17
ENDBRANCH  10  15
ENDBRANCH   7   9
ENDBRANCH   6   7
ENDBRANCH   5   6
ENDBRANCH   4   5
ENDBRANCH   3   4
ENDBRANCH   2   3
ENDBRANCH   1   2
BRANCH   1  26
ATOM     26  O   UNL A   1      39.629  22.538  27.259  1.00  0.00    -0.376 OA
BRANCH  26  27
ATOM     27  C   UNL A   1      41.010  22.231  27.191  1.00  0.00     0.202 C 
BRANCH  27  28
ATOM     28  C   UNL A   1      41.820  22.074  25.887  1.00  0.00     0.261 C 
BRANCH  28  29
ATOM     29  O   UNL A   1      43.241  22.227  25.956  1.00  0.00    -0.460 OA
BRANCH  29  30
ATOM     30  C   UNL A   1      43.753  23.261  25.234  1.00  0.00     0.338 C 
ATOM     31  O   UNL A   1      44.179  23.216  24.098  1.00  0.00    -0.246 OA
BRANCH  30  32
ATOM     32  C   UNL A   1      43.517  24.522  25.973  1.00  0.00     0.060 A 
ATOM     33  C   UNL A   1      42.975  25.616  25.281  1.00  0.00     0.016 A 
ATOM     34  C   UNL A   1      43.837  24.631  27.325  1.00  0.00     0.016 A 
ATOM     35  C   UNL A   1      42.763  26.828  25.938  1.00  0.00     0.010 A 
ATOM     36  C   UNL A   1      43.652  25.856  27.975  1.00  0.00     0.010 A 
ATOM     37  C   UNL A   1      43.138  26.968  27.279  1.00  0.00    -0.014 A 
BRANCH  37  38
ATOM     38  C   UNL A   1      43.173  28.318  27.897  1.00  0.00     0.031 A 
ATOM     39  C   UNL A   1      44.478  29.065  27.911  1.00  0.00     0.074 A 
ATOM     40  C   UNL A   1      42.068  28.879  28.423  1.00  0.00     0.049 A 
ATOM     41  N   UNL A   1      44.773  30.219  28.450  1.00  0.00    -0.248 NA
ATOM     42  C   UNL A   1      45.604  28.413  27.225  1.00  0.00     0.031 C 
ATOM     43  C   UNL A   1      40.736  28.278  28.427  1.00  0.00     0.029 A 
ATOM     44  N   UNL A   1      41.898  30.080  29.068  1.00  0.00    -0.354 N 
ATOM     45  C   UNL A   1      46.123  30.426  28.185  1.00  0.00     0.074 A 
ATOM     46  C   UNL A   1      46.592  29.261  27.465  1.00  0.00     0.031 C 
ATOM     47  C   UNL A   1      39.888  29.105  29.063  1.00  0.00     0.029 A 
ATOM     48  C   UNL A   1      40.624  30.272  29.550  1.00  0.00     0.049 A 
ATOM     49  H   UNL A   1      42.619  30.741  29.176  1.00  0.00     0.167 HD
ATOM     50  C   UNL A   1      46.898  31.490  28.511  1.00  0.00     0.034 A 
ATOM     51  C   UNL A   1      40.120  31.255  30.326  1.00  0.00     0.034 A 
ATOM     52  C   UNL A   1      46.416  32.637  29.243  1.00  0.00     0.049 A 
ATOM     53  C   UNL A   1      41.022  32.390  30.754  1.00  0.00     0.074 A 
ATOM     54  C   UNL A   1      47.108  33.782  29.598  1.00  0.00     0.029 A 
ATOM     55  N   UNL A   1      45.131  32.778  29.752  1.00  0.00    -0.354 N 
ATOM     56  N   UNL A   1      42.292  32.587  30.482  1.00  0.00    -0.248 NA
ATOM     57  C   UNL A   1      40.419  33.438  31.589  1.00  0.00     0.031 C 
ATOM     58  C   UNL A   1      46.271  34.568  30.398  1.00  0.00     0.029 A 
ATOM     59  C   UNL A   1      45.025  33.966  30.458  1.00  0.00     0.049 A 
ATOM     60  H   UNL A   1      44.401  32.128  29.628  1.00  0.00     0.167 HD
ATOM     61  C   UNL A   1      42.630  33.798  31.086  1.00  0.00     0.074 A 
ATOM     62  C   UNL A   1      41.426  34.290  31.723  1.00  0.00     0.031 C 
ATOM     63  C   UNL A   1      43.823  34.445  31.106  1.00  0.00     0.034 A 
BRANCH  50  64
ATOM     64  C   UNL A   1      48.361  31.425  28.138  1.00  0.00     0.023 A 
ATOM     65  C   UNL A   1      49.295  30.701  28.901  1.00  0.00     0.031 A 
ATOM     66  C   UNL A   1      48.834  32.128  27.016  1.00  0.00     0.131 A 
ATOM     67  C   UNL A   1      50.659  30.761  28.578  1.00  0.00     0.055 A 
ATOM     68  C   UNL A   1      50.180  32.112  26.649  1.00  0.00     0.041 A 
ATOM     69  F   UNL A   1      47.996  32.859  26.264  1.00  0.00    -0.206 F 
ATOM     70  C   UNL A   1      51.105  31.439  27.441  1.00  0.00     0.022 A 
BRANCH  67  71
ATOM     71  S   UNL A   1      51.859  30.077  29.754  1.00  0.00     0.124 S 
ATOM     72  O   UNL A   1      51.065  30.003  30.978  1.00  0.00    -0.237 OA
ATOM     73  O   UNL A   1      52.209  28.801  29.142  1.00  0.00    -0.237 OA
ATOM     74  O   UNL A   1      52.927  31.075  29.773  1.00  0.00    -0.744 OA
ENDBRANCH  67  71
ENDBRANCH  50  64
BRANCH  51  75
ATOM     75  C   UNL A   1      38.705  31.189  30.801  1.00  0.00     0.023 A 
ATOM     76  C   UNL A   1      37.665  31.818  30.100  1.00  0.00     0.031 A 
ATOM     77  C   UNL A   1      38.384  30.532  32.004  1.00  0.00     0.131 A 
ATOM     78  C   UNL A   1      36.362  31.813  30.627  1.00  0.00     0.055 A 
ATOM     79  C   UNL A   1      37.078  30.477  32.492  1.00  0.00     0.041 A 
ATOM     80  F   UNL A   1      39.342  29.921  32.721  1.00  0.00    -0.206 F 
ATOM     81  C   UNL A   1      36.059  31.131  31.808  1.00  0.00     0.022 A 
BRANCH  78  82
ATOM     82  S   UNL A   1      35.080  32.786  29.790  1.00  0.00     0.124 S 
ATOM     83  O   UNL A   1      34.636  31.861  28.754  1.00  0.00    -0.237 OA
ATOM     84  O   UNL A   1      34.135  33.038  30.872  1.00  0.00    -0.237 OA
ATOM     85  O   UNL A   1      35.803  33.962  29.311  1.00  0.00    -0.744 OA
ENDBRANCH  78  82
ENDBRANCH  51  75
BRANCH  63  86
ATOM     86  C   UNL A   1      43.874  35.788  31.801  1.00  0.00     0.023 A 
ATOM     87  C   UNL A   1      43.857  36.999  31.088  1.00  0.00     0.031 A 
ATOM     88  C   UNL A   1      43.944  35.853  33.205  1.00  0.00     0.131 A 
ATOM     89  C   UNL A   1      43.969  38.219  31.774  1.00  0.00     0.055 A 
ATOM     90  C   UNL A   1      43.983  37.071  33.886  1.00  0.00     0.041 A 
ATOM     91  F   UNL A   1      43.969  34.731  33.942  1.00  0.00    -0.206 F 
ATOM     92  C   UNL A   1      44.010  38.263  33.170  1.00  0.00     0.022 A 
BRANCH  89  93
ATOM     93  S   UNL A   1      44.169  39.746  30.815  1.00  0.00     0.124 S 
ATOM     94  O   UNL A   1      44.241  40.756  31.867  1.00  0.00    -0.237 OA
ATOM     95  O   UNL A   1      45.406  39.497  30.085  1.00  0.00    -0.237 OA
ATOM     96  O   UNL A   1      42.962  39.795  29.992  1.00  0.00    -0.744 OA
ENDBRANCH  89  93
ENDBRANCH  63  86
ENDBRANCH  37  38
ENDBRANCH  30  32
ENDBRANCH  29  30
ENDBRANCH  28  29
ENDBRANCH  27  28
ENDBRANCH  26  27
ENDBRANCH   1  26
TORSDOF 22
ENDMDL
MODEL 3
REMARK VINA RESULT:      -9.9     10.162     14.561
REMARK SMILES Cc1ccc(Cl)c(Nc2ccccc2C(=O)OCCOCCOCCOC(=O)c2ccc(-c3c4nc(c(-c5cc(S(=O)(=O)[O-])ccc5F)c5ccc([nH]5)c(-c5cc(S(=O)(=O)[O-])ccc5F)c5nc(c(-c6cc(S(=O)(=O)[O-])ccc6F)c6ccc3[nH]6)C=C5)C=C4)cc2)c1Cl
REMARK SMILES IDX 22 1 21 2 20 3 19 4 18 5 17 6 15 7 16 8 14 9 9 10 10 11
REMARK SMILES IDX 11 12 13 13 12 14 8 15 7 17 1 18 2 19 3 20 92 21 4 22 93 23
REMARK SMILES IDX 5 24 6 25 23 26 24 27 25 28 26 29 27 30 28 31 29 32 30 33
REMARK SMILES IDX 91 34 31 35 90 36 32 37 33 38 34 39 84 40 35 41 89 42 83 43
REMARK SMILES IDX 85 44 36 45 88 46 82 47 81 48 37 50 69 51 49 52 68 53 50 54
REMARK SMILES IDX 53 55 67 56 86 57 51 58 52 59 66 61 87 62 54 63 38 64 39 65
REMARK SMILES IDX 47 66 40 67 46 68 48 69 45 70 41 71 42 72 43 73 44 74 70 75
REMARK SMILES IDX 71 76 79 77 72 78 78 79 80 80 77 81 73 82 74 83 75 84 76 85
REMARK SMILES IDX 55 86 56 87 64 88 57 89 63 90 65 91 62 92 58 93 59 94 60 95
REMARK SMILES IDX 61 96
REMARK H PARENT 8 16 85 49 53 60
REMARK Flexibility Score: inf
ROOT
ATOM      1  C   UNL A   1      39.278  21.741  26.051  1.00  0.00     0.188 C 
ENDROOT
BRANCH   1   2
ATOM      2  C   UNL A   1      37.803  21.680  25.595  1.00  0.00     0.188 C 
BRANCH   2   3
ATOM      3  O   UNL A   1      36.966  22.783  25.875  1.00  0.00    -0.376 OA
BRANCH   3   4
ATOM      4  C   UNL A   1      36.482  23.593  24.819  1.00  0.00     0.202 C 
BRANCH   4   5
ATOM      5  C   UNL A   1      36.215  23.088  23.395  1.00  0.00     0.261 C 
BRANCH   5   6
ATOM      6  O   UNL A   1      34.846  22.886  23.031  1.00  0.00    -0.460 OA
BRANCH   6   7
ATOM      7  C   UNL A   1      34.018  23.945  23.233  1.00  0.00     0.340 C 
ATOM      8  O   UNL A   1      33.936  24.929  22.513  1.00  0.00    -0.246 OA
BRANCH   7   9
ATOM      9  C   UNL A   1      33.076  23.691  24.356  1.00  0.00     0.083 A 
ATOM     10  C   UNL A   1      32.664  24.641  25.318  1.00  0.00     0.053 A 
ATOM     11  C   UNL A   1      31.814  24.192  26.350  1.00  0.00     0.027 A 
ATOM     12  C   UNL A   1      31.383  22.864  26.427  1.00  0.00     0.002 A 
ATOM     13  C   UNL A   1      32.635  22.354  24.442  1.00  0.00     0.018 A 
ATOM     14  C   UNL A   1      31.793  21.944  25.472  1.00  0.00     0.001 A 
BRANCH  10  15
ATOM     15  N   UNL A   1      32.943  26.029  25.305  1.00  0.00    -0.352 N 
ATOM     16  H   UNL A   1      33.895  26.256  25.415  1.00  0.00     0.167 HD
BRANCH  15  17
ATOM     17  C   UNL A   1      32.083  27.146  25.159  1.00  0.00     0.077 A 
ATOM     18  C   UNL A   1      29.778  28.569  22.474  1.00  0.00     0.046 C 
ATOM     19  C   UNL A   1      30.532  28.440  23.771  1.00  0.00    -0.030 A 
ATOM     20  C   UNL A   1      30.861  29.597  24.490  1.00  0.00     0.006 A 
ATOM     21  C   UNL A   1      31.064  27.205  24.184  1.00  0.00     0.069 A 
ATOM     22  C   UNL A   1      31.731  29.530  25.576  1.00  0.00     0.023 A 
ATOM     23  Cl  UNL A   1      30.411  25.737  23.510  1.00  0.00    -0.082 Cl
ATOM     24  C   UNL A   1      32.361  28.323  25.884  1.00  0.00     0.066 A 
ATOM     25  Cl  UNL A   1      33.538  28.328  27.156  1.00  0.00    -0.082 Cl
ENDBRANCH  15  17
ENDBRANCH  10  15
ENDBRANCH   7   9
ENDBRANCH   6   7
ENDBRANCH   5   6
ENDBRANCH   4   5
ENDBRANCH   3   4
ENDBRANCH   2   3
ENDBRANCH   1   2
BRANCH   1  26
ATOM     26  O   UNL A   1      40.038  20.555  26.128  1.00  0.00    -0.376 OA
BRANCH  26  27
ATOM     27  C   UNL A   1      41.450  20.625  26.207  1.00  0.00     0.202 C 
BRANCH  27  28
ATOM     28  C   UNL A   1      42.274  21.930  26.223  1.00  0.00     0.261 C 
BRANCH  28  29
ATOM     29  O   UNL A   1      42.602  22.533  24.968  1.00  0.00    -0.460 OA
BRANCH  29  30
ATOM     30  C   UNL A   1      43.785  23.206  24.935  1.00  0.00     0.338 C 
ATOM     31  O   UNL A   1      44.754  22.944  24.251  1.00  0.00    -0.246 OA
BRANCH  30  32
ATOM     32  C   UNL A   1      43.644  24.458  25.712  1.00  0.00     0.060 A 
ATOM     33  C   UNL A   1      43.176  25.607  25.059  1.00  0.00     0.016 A 
ATOM     34  C   UNL A   1      43.982  24.503  27.064  1.00  0.00     0.016 A 
ATOM     35  C   UNL A   1      43.056  26.811  25.754  1.00  0.00     0.010 A 
ATOM     36  C   UNL A   1      43.890  25.718  27.752  1.00  0.00     0.010 A 
ATOM     37  C   UNL A   1      43.451  26.884  27.094  1.00  0.00    -0.014 A 
BRANCH  37  38
ATOM     38  C   UNL A   1      43.586  28.209  27.752  1.00  0.00     0.031 A 
ATOM     39  C   UNL A   1      42.362  28.829  28.368  1.00  0.00     0.074 A 
ATOM     40  C   UNL A   1      44.770  28.845  27.816  1.00  0.00     0.049 A 
ATOM     41  N   UNL A   1      42.214  29.998  28.932  1.00  0.00    -0.248 NA
ATOM     42  C   UNL A   1      41.138  28.014  28.335  1.00  0.00     0.031 C 
ATOM     43  C   UNL A   1      46.036  28.327  27.300  1.00  0.00     0.029 A 
ATOM     44  N   UNL A   1      45.095  30.075  28.333  1.00  0.00    -0.354 N 
ATOM     45  C   UNL A   1      40.876  30.070  29.308  1.00  0.00     0.074 A 
ATOM     46  C   UNL A   1      40.253  28.837  28.877  1.00  0.00     0.031 C 
ATOM     47  C   UNL A   1      46.998  29.243  27.509  1.00  0.00     0.029 A 
ATOM     48  C   UNL A   1      46.410  30.428  28.133  1.00  0.00     0.049 A 
ATOM     49  H   UNL A   1      44.449  30.651  28.803  1.00  0.00     0.167 HD
ATOM     50  C   UNL A   1      40.229  31.072  29.955  1.00  0.00     0.034 A 
ATOM     51  C   UNL A   1      47.053  31.587  28.387  1.00  0.00     0.034 A 
ATOM     52  C   UNL A   1      40.864  32.301  30.365  1.00  0.00     0.049 A 
ATOM     53  C   UNL A   1      46.294  32.726  29.029  1.00  0.00     0.074 A 
ATOM     54  C   UNL A   1      40.310  33.367  31.052  1.00  0.00     0.029 A 
ATOM     55  N   UNL A   1      42.187  32.642  30.107  1.00  0.00    -0.354 N 
ATOM     56  N   UNL A   1      45.034  32.777  29.398  1.00  0.00    -0.248 NA
ATOM     57  C   UNL A   1      47.045  33.961  29.293  1.00  0.00     0.031 C 
ATOM     58  C   UNL A   1      41.267  34.385  31.127  1.00  0.00     0.029 A 
ATOM     59  C   UNL A   1      42.451  33.919  30.579  1.00  0.00     0.049 A 
ATOM     60  H   UNL A   1      42.841  32.061  29.656  1.00  0.00     0.167 HD
ATOM     61  C   UNL A   1      44.853  34.038  29.967  1.00  0.00     0.074 A 
ATOM     62  C   UNL A   1      46.136  34.706  29.904  1.00  0.00     0.031 C 
ATOM     63  C   UNL A   1      43.731  34.588  30.499  1.00  0.00     0.034 A 
BRANCH  50  64
ATOM     64  C   UNL A   1      38.747  30.903  30.191  1.00  0.00     0.023 A 
ATOM     65  C   UNL A   1      37.784  31.487  29.349  1.00  0.00     0.031 A 
ATOM     66  C   UNL A   1      38.289  30.170  31.301  1.00  0.00     0.131 A 
ATOM     67  C   UNL A   1      36.422  31.394  29.673  1.00  0.00     0.055 A 
ATOM     68  C   UNL A   1      36.930  30.007  31.569  1.00  0.00     0.041 A 
ATOM     69  F   UNL A   1      39.159  29.611  32.157  1.00  0.00    -0.206 F 
ATOM     70  C   UNL A   1      35.986  30.635  30.761  1.00  0.00     0.022 A 
BRANCH  67  71
ATOM     71  S   UNL A   1      35.239  32.412  28.747  1.00  0.00     0.124 S 
ATOM     72  O   UNL A   1      34.269  31.413  28.307  1.00  0.00    -0.237 OA
ATOM     73  O   UNL A   1      34.773  33.353  29.759  1.00  0.00    -0.237 OA
ATOM     74  O   UNL A   1      36.051  32.994  27.680  1.00  0.00    -0.744 OA
ENDBRANCH  67  71
ENDBRANCH  50  64
BRANCH  51  75
ATOM     75  C   UNL A   1      48.482  31.759  27.986  1.00  0.00     0.023 A 
ATOM     76  C   UNL A   1      49.528  31.204  28.739  1.00  0.00     0.031 A 
ATOM     77  C   UNL A   1      48.821  32.534  26.861  1.00  0.00     0.131 A 
ATOM     78  C   UNL A   1      50.862  31.464  28.382  1.00  0.00     0.055 A 
ATOM     79  C   UNL A   1      50.147  32.740  26.476  1.00  0.00     0.041 A 
ATOM     80  F   UNL A   1      47.862  33.098  26.110  1.00  0.00    -0.206 F 
ATOM     81  C   UNL A   1      51.177  32.212  27.246  1.00  0.00     0.022 A 
BRANCH  78  82
ATOM     82  S   UNL A   1      52.186  30.881  29.477  1.00  0.00     0.124 S 
ATOM     83  O   UNL A   1      51.463  30.656  30.724  1.00  0.00    -0.237 OA
ATOM     84  O   UNL A   1      52.652  29.686  28.781  1.00  0.00    -0.237 OA
ATOM     85  O   UNL A   1      53.130  31.997  29.494  1.00  0.00    -0.744 OA
ENDBRANCH  78  82
ENDBRANCH  51  75
BRANCH  63  86
ATOM     86  C   UNL A   1      43.853  35.970  31.103  1.00  0.00     0.023 A 
ATOM     87  C   UNL A   1      44.063  36.168  32.479  1.00  0.00     0.031 A 
ATOM     88  C   UNL A   1      43.754  37.109  30.282  1.00  0.00     0.131 A 
ATOM     89  C   UNL A   1      44.108  37.470  33.001  1.00  0.00     0.055 A 
ATOM     90  C   UNL A   1      43.871  38.402  30.797  1.00  0.00     0.041 A 
ATOM     91  F   UNL A   1      43.549  36.985  28.962  1.00  0.00    -0.206 F 
ATOM     92  C   UNL A   1      44.034  38.587  32.166  1.00  0.00     0.022 A 
BRANCH  89  93
ATOM     93  S   UNL A   1      44.155  37.688  34.802  1.00  0.00     0.124 S 
ATOM     94  O   UNL A   1      45.545  37.367  35.109  1.00  0.00    -0.237 OA
ATOM     95  O   UNL A   1      43.774  39.087  34.957  1.00  0.00    -0.237 OA
ATOM     96  O   UNL A   1      43.174  36.720  35.290  1.00  0.00    -0.744 OA
ENDBRANCH  89  93
ENDBRANCH  63  86
ENDBRANCH  37  38
ENDBRANCH  30  32
ENDBRANCH  29  30
ENDBRANCH  28  29
ENDBRANCH  27  28
ENDBRANCH  26  27
ENDBRANCH   1  26
TORSDOF 22
ENDMDL
