MODEL 1
REMARK VINA RESULT:     -10.5      0.000      0.000
REMARK SMILES O=C(OCCOCCOCCOC(=O)[C@H]1CCc2[nH]nc(C(F)(F)F)c2C1)c1ccc(-c2c3nc(c(-c4cc(S(=O)(=O)[O-])ccc4F)c4ccc([nH]4)c(-c4cc(S(=O)(=O)[O-])ccc4F)c4nc(c(-c5cc(S(=O)(=O)[O-])ccc5F)c5ccc2[nH]5)C=C4)C=C3)cc1
REMARK SMILES IDX 7 1 6 2 5 3 4 4 3 5 2 6 1 7 28 8 29 9 90 10 30 11 89 12
REMARK SMILES IDX 31 13 32 14 33 15 83 16 34 17 88 18 82 19 84 20 35 21 87 22
REMARK SMILES IDX 81 23 80 24 36 26 68 27 48 28 67 29 49 30 52 31 66 32 85 33
REMARK SMILES IDX 50 34 51 35 65 37 86 38 53 39 37 40 38 41 46 42 39 43 45 44
REMARK SMILES IDX 47 45 44 46 40 47 41 48 42 49 43 50 69 51 70 52 78 53 71 54
REMARK SMILES IDX 77 55 79 56 76 57 72 58 73 59 74 60 75 61 54 62 55 63 63 64
REMARK SMILES IDX 56 65 62 66 64 67 61 68 57 69 58 70 59 71 60 72 8 73 9 74
REMARK SMILES IDX 10 75 11 76 12 77 13 78 14 79 15 80 16 81 27 82 17 83 26 84
REMARK SMILES IDX 18 85 21 86 19 87 20 88 22 90 23 91 24 92 25 93
REMARK H PARENT 84 25 52 36 19 89
REMARK Flexibility Score: inf
ROOT
ATOM      1  C   UNL A   1      33.976  31.221  27.997  1.00  0.00     0.188 C 
ENDROOT
BRANCH   1   2
ATOM      2  O   UNL A   1      33.937  32.604  27.620  1.00  0.00    -0.376 OA
BRANCH   2   3
ATOM      3  C   UNL A   1      33.658  33.501  28.689  1.00  0.00     0.202 C 
BRANCH   3   4
ATOM      4  C   UNL A   1      34.870  34.110  29.403  1.00  0.00     0.261 C 
BRANCH   4   5
ATOM      5  O   UNL A   1      35.119  33.645  30.740  1.00  0.00    -0.460 OA
BRANCH   5   6
ATOM      6  C   UNL A   1      35.406  32.417  31.233  1.00  0.00     0.338 C 
ATOM      7  O   UNL A   1      34.663  31.971  32.109  1.00  0.00    -0.246 OA
BRANCH   6   8
ATOM      8  C   UNL A   1      36.596  31.590  30.848  1.00  0.00     0.060 A 
ATOM      9  C   UNL A   1      37.467  30.963  31.736  1.00  0.00     0.016 A 
ATOM     10  C   UNL A   1      36.879  31.481  29.466  1.00  0.00     0.016 A 
ATOM     11  C   UNL A   1      38.565  30.239  31.271  1.00  0.00     0.010 A 
ATOM     12  C   UNL A   1      37.997  30.774  28.991  1.00  0.00     0.010 A 
ATOM     13  C   UNL A   1      38.849  30.150  29.902  1.00  0.00    -0.014 A 
BRANCH  13  14
ATOM     14  C   UNL A   1      40.198  29.650  29.549  1.00  0.00     0.031 A 
ATOM     15  C   UNL A   1      40.245  28.280  28.946  1.00  0.00     0.074 A 
ATOM     16  C   UNL A   1      41.281  30.450  29.551  1.00  0.00     0.049 A 
ATOM     17  N   UNL A   1      41.207  27.695  28.293  1.00  0.00    -0.248 NA
ATOM     18  C   UNL A   1      39.017  27.478  29.079  1.00  0.00     0.031 C 
ATOM     19  C   UNL A   1      41.320  31.794  30.103  1.00  0.00     0.029 A 
ATOM     20  N   UNL A   1      42.535  30.281  29.021  1.00  0.00    -0.354 N 
ATOM     21  C   UNL A   1      40.697  26.458  27.922  1.00  0.00     0.074 A 
ATOM     22  C   UNL A   1      39.345  26.380  28.424  1.00  0.00     0.031 C 
ATOM     23  C   UNL A   1      42.482  32.382  29.776  1.00  0.00     0.029 A 
ATOM     24  C   UNL A   1      43.319  31.417  29.076  1.00  0.00     0.049 A 
ATOM     25  H   UNL A   1      42.847  29.430  28.637  1.00  0.00     0.167 HD
ATOM     26  C   UNL A   1      41.320  25.468  27.243  1.00  0.00     0.034 A 
ATOM     27  C   UNL A   1      44.574  31.638  28.627  1.00  0.00     0.034 A 
ATOM     28  C   UNL A   1      42.702  25.543  26.850  1.00  0.00     0.049 A 
ATOM     29  C   UNL A   1      45.280  30.474  27.971  1.00  0.00     0.074 A 
ATOM     30  C   UNL A   1      43.489  24.569  26.270  1.00  0.00     0.029 A 
ATOM     31  N   UNL A   1      43.515  26.657  27.036  1.00  0.00    -0.354 N 
ATOM     32  N   UNL A   1      44.804  29.287  27.661  1.00  0.00    -0.248 NA
ATOM     33  C   UNL A   1      46.695  30.661  27.635  1.00  0.00     0.031 C 
ATOM     34  C   UNL A   1      44.795  25.062  26.184  1.00  0.00     0.029 A 
ATOM     35  C   UNL A   1      44.804  26.382  26.614  1.00  0.00     0.049 A 
ATOM     36  H   UNL A   1      43.217  27.517  27.414  1.00  0.00     0.167 HD
ATOM     37  C   UNL A   1      45.861  28.593  27.079  1.00  0.00     0.074 A 
ATOM     38  C   UNL A   1      46.986  29.507  27.054  1.00  0.00     0.031 C 
ATOM     39  C   UNL A   1      45.906  27.317  26.615  1.00  0.00     0.034 A 
BRANCH  26  40
ATOM     40  C   UNL A   1      40.531  24.201  27.046  1.00  0.00     0.023 A 
ATOM     41  C   UNL A   1      41.095  22.934  27.282  1.00  0.00     0.031 A 
ATOM     42  C   UNL A   1      39.250  24.260  26.474  1.00  0.00     0.131 A 
ATOM     43  C   UNL A   1      40.418  21.781  26.857  1.00  0.00     0.055 A 
ATOM     44  C   UNL A   1      38.543  23.105  26.138  1.00  0.00     0.041 A 
ATOM     45  F   UNL A   1      38.685  25.442  26.182  1.00  0.00    -0.206 F 
ATOM     46  C   UNL A   1      39.134  21.857  26.312  1.00  0.00     0.022 A 
BRANCH  43  47
ATOM     47  S   UNL A   1      41.316  20.204  26.842  1.00  0.00     0.124 S 
ATOM     48  O   UNL A   1      41.122  19.743  28.215  1.00  0.00    -0.237 OA
ATOM     49  O   UNL A   1      40.616  19.449  25.812  1.00  0.00    -0.237 OA
ATOM     50  O   UNL A   1      42.686  20.593  26.512  1.00  0.00    -0.744 OA
ENDBRANCH  43  47
ENDBRANCH  26  40
BRANCH  27  51
ATOM     51  C   UNL A   1      45.278  32.946  28.840  1.00  0.00     0.023 A 
ATOM     52  C   UNL A   1      45.974  33.230  30.032  1.00  0.00     0.031 A 
ATOM     53  C   UNL A   1      45.183  33.982  27.890  1.00  0.00     0.131 A 
ATOM     54  C   UNL A   1      46.491  34.520  30.261  1.00  0.00     0.055 A 
ATOM     55  C   UNL A   1      45.764  35.237  28.089  1.00  0.00     0.041 A 
ATOM     56  F   UNL A   1      44.511  33.796  26.743  1.00  0.00    -0.206 F 
ATOM     57  C   UNL A   1      46.408  35.518  29.288  1.00  0.00     0.022 A 
BRANCH  54  58
ATOM     58  S   UNL A   1      47.151  34.930  31.904  1.00  0.00     0.124 S 
ATOM     59  O   UNL A   1      47.925  33.735  32.220  1.00  0.00    -0.237 OA
ATOM     60  O   UNL A   1      47.918  36.141  31.634  1.00  0.00    -0.237 OA
ATOM     61  O   UNL A   1      45.949  35.124  32.714  1.00  0.00    -0.744 OA
ENDBRANCH  54  58
ENDBRANCH  27  51
BRANCH  39  62
ATOM     62  C   UNL A   1      47.207  26.864  25.999  1.00  0.00     0.023 A 
ATOM     63  C   UNL A   1      48.203  26.223  26.754  1.00  0.00     0.031 A 
ATOM     64  C   UNL A   1      47.447  27.086  24.632  1.00  0.00     0.131 A 
ATOM     65  C   UNL A   1      49.423  25.888  26.151  1.00  0.00     0.055 A 
ATOM     66  C   UNL A   1      48.633  26.682  24.021  1.00  0.00     0.041 A 
ATOM     67  F   UNL A   1      46.529  27.697  23.866  1.00  0.00    -0.206 F 
ATOM     68  C   UNL A   1      49.636  26.094  24.785  1.00  0.00     0.022 A 
BRANCH  65  69
ATOM     69  S   UNL A   1      50.775  25.287  27.200  1.00  0.00     0.124 S 
ATOM     70  O   UNL A   1      51.725  24.785  26.214  1.00  0.00    -0.237 OA
ATOM     71  O   UNL A   1      51.176  26.495  27.914  1.00  0.00    -0.237 OA
ATOM     72  O   UNL A   1      50.138  24.262  28.025  1.00  0.00    -0.744 OA
ENDBRANCH  65  69
ENDBRANCH  39  62
ENDBRANCH  13  14
ENDBRANCH   6   8
ENDBRANCH   5   6
ENDBRANCH   4   5
ENDBRANCH   3   4
ENDBRANCH   2   3
ENDBRANCH   1   2
BRANCH   1  73
ATOM     73  C   UNL A   1      33.580  30.297  26.838  1.00  0.00     0.188 C 
BRANCH  73  74
ATOM     74  O   UNL A   1      32.231  29.825  26.876  1.00  0.00    -0.376 OA
BRANCH  74  75
ATOM     75  C   UNL A   1      32.028  28.461  26.520  1.00  0.00     0.202 C 
BRANCH  75  76
ATOM     76  C   UNL A   1      33.295  27.623  26.316  1.00  0.00     0.261 C 
BRANCH  76  77
ATOM     77  O   UNL A   1      33.603  27.400  24.937  1.00  0.00    -0.463 OA
BRANCH  77  78
ATOM     78  C   UNL A   1      33.782  26.119  24.517  1.00  0.00     0.309 C 
ATOM     79  O   UNL A   1      34.182  25.205  25.222  1.00  0.00    -0.252 OA
BRANCH  78  80
ATOM     80  C   UNL A   1      33.472  25.943  23.029  1.00  0.00     0.104 C 
ATOM     81  C   UNL A   1      32.968  24.529  22.670  1.00  0.00     0.022 C 
ATOM     82  C   UNL A   1      32.499  27.041  22.535  1.00  0.00     0.055 C 
ATOM     83  C   UNL A   1      31.543  24.213  23.153  1.00  0.00     0.057 C 
ATOM     84  C   UNL A   1      31.123  26.733  23.003  1.00  0.00     0.006 A 
ATOM     85  C   UNL A   1      30.737  25.448  23.298  1.00  0.00     0.039 A 
ATOM     86  C   UNL A   1      30.000  27.545  23.313  1.00  0.00     0.169 A 
ATOM     87  N   UNL A   1      29.515  25.546  23.877  1.00  0.00    -0.282 N 
ATOM     88  N   UNL A   1      29.038  26.799  23.904  1.00  0.00    -0.171 NA
ATOM     89  H   UNL A   1      29.025  24.773  24.242  1.00  0.00     0.190 HD
BRANCH  86  90
ATOM     90  C   UNL A   1      29.853  29.031  23.102  1.00  0.00     0.435 C 
ATOM     91  F   UNL A   1      30.075  29.402  21.817  1.00  0.00    -0.164 F 
ATOM     92  F   UNL A   1      28.611  29.471  23.447  1.00  0.00    -0.164 F 
ATOM     93  F   UNL A   1      30.729  29.735  23.873  1.00  0.00    -0.164 F 
ENDBRANCH  86  90
ENDBRANCH  78  80
ENDBRANCH  77  78
ENDBRANCH  76  77
ENDBRANCH  75  76
ENDBRANCH  74  75
ENDBRANCH  73  74
ENDBRANCH   1  73
TORSDOF 21
ENDMDL
MODEL 2
REMARK VINA RESULT:     -10.5      5.848      9.571
REMARK SMILES O=C(OCCOCCOCCOC(=O)[C@H]1CCc2[nH]nc(C(F)(F)F)c2C1)c1ccc(-c2c3nc(c(-c4cc(S(=O)(=O)[O-])ccc4F)c4ccc([nH]4)c(-c4cc(S(=O)(=O)[O-])ccc4F)c4nc(c(-c5cc(S(=O)(=O)[O-])ccc5F)c5ccc2[nH]5)C=C4)C=C3)cc1
REMARK SMILES IDX 7 1 6 2 5 3 4 4 3 5 2 6 1 7 28 8 29 9 90 10 30 11 89 12
REMARK SMILES IDX 31 13 32 14 33 15 83 16 34 17 88 18 82 19 84 20 35 21 87 22
REMARK SMILES IDX 81 23 80 24 36 26 68 27 48 28 67 29 49 30 52 31 66 32 85 33
REMARK SMILES IDX 50 34 51 35 65 37 86 38 53 39 37 40 38 41 46 42 39 43 45 44
REMARK SMILES IDX 47 45 44 46 40 47 41 48 42 49 43 50 69 51 70 52 78 53 71 54
REMARK SMILES IDX 77 55 79 56 76 57 72 58 73 59 74 60 75 61 54 62 55 63 63 64
REMARK SMILES IDX 56 65 62 66 64 67 61 68 57 69 58 70 59 71 60 72 8 73 9 74
REMARK SMILES IDX 10 75 11 76 12 77 13 78 14 79 15 80 16 81 27 82 17 83 26 84
REMARK SMILES IDX 18 85 21 86 19 87 20 88 22 90 23 91 24 92 25 93
REMARK H PARENT 84 25 52 36 19 89
REMARK Flexibility Score: inf
ROOT
ATOM      1  C   UNL A   1      35.490  32.858  28.024  1.00  0.00     0.188 C 
ENDROOT
BRANCH   1   2
ATOM      2  O   UNL A   1      34.546  33.884  27.690  1.00  0.00    -0.376 OA
BRANCH   2   3
ATOM      3  C   UNL A   1      33.479  34.032  28.619  1.00  0.00     0.202 C 
BRANCH   3   4
ATOM      4  C   UNL A   1      33.023  35.466  28.912  1.00  0.00     0.261 C 
BRANCH   4   5
ATOM      5  O   UNL A   1      33.038  35.868  30.292  1.00  0.00    -0.460 OA
BRANCH   5   6
ATOM      6  C   UNL A   1      33.163  35.162  31.439  1.00  0.00     0.338 C 
ATOM      7  O   UNL A   1      32.147  34.999  32.117  1.00  0.00    -0.246 OA
BRANCH   6   8
ATOM      8  C   UNL A   1      34.452  34.624  31.985  1.00  0.00     0.060 A 
ATOM      9  C   UNL A   1      35.678  35.286  31.964  1.00  0.00     0.016 A 
ATOM     10  C   UNL A   1      34.424  33.315  32.519  1.00  0.00     0.016 A 
ATOM     11  C   UNL A   1      36.827  34.681  32.473  1.00  0.00     0.010 A 
ATOM     12  C   UNL A   1      35.582  32.689  33.012  1.00  0.00     0.010 A 
ATOM     13  C   UNL A   1      36.795  33.378  32.986  1.00  0.00    -0.014 A 
BRANCH  13  14
ATOM     14  C   UNL A   1      38.110  32.724  33.185  1.00  0.00     0.031 A 
ATOM     15  C   UNL A   1      38.764  32.974  34.509  1.00  0.00     0.074 A 
ATOM     16  C   UNL A   1      38.581  31.790  32.338  1.00  0.00     0.049 A 
ATOM     17  N   UNL A   1      39.749  32.341  35.079  1.00  0.00    -0.248 NA
ATOM     18  C   UNL A   1      38.200  34.076  35.306  1.00  0.00     0.031 C 
ATOM     19  C   UNL A   1      38.001  31.475  31.042  1.00  0.00     0.029 A 
ATOM     20  N   UNL A   1      39.608  30.889  32.461  1.00  0.00    -0.354 N 
ATOM     21  C   UNL A   1      39.915  32.958  36.311  1.00  0.00     0.074 A 
ATOM     22  C   UNL A   1      38.932  34.014  36.403  1.00  0.00     0.031 C 
ATOM     23  C   UNL A   1      38.589  30.377  30.541  1.00  0.00     0.029 A 
ATOM     24  C   UNL A   1      39.663  29.966  31.435  1.00  0.00     0.049 A 
ATOM     25  H   UNL A   1      40.246  30.899  33.210  1.00  0.00     0.167 HD
ATOM     26  C   UNL A   1      40.829  32.679  37.268  1.00  0.00     0.034 A 
ATOM     27  C   UNL A   1      40.499  28.923  31.238  1.00  0.00     0.034 A 
ATOM     28  C   UNL A   1      41.858  31.690  37.096  1.00  0.00     0.049 A 
ATOM     29  C   UNL A   1      41.579  28.709  32.273  1.00  0.00     0.074 A 
ATOM     30  C   UNL A   1      42.918  31.392  37.929  1.00  0.00     0.029 A 
ATOM     31  N   UNL A   1      41.974  30.856  35.987  1.00  0.00    -0.354 N 
ATOM     32  N   UNL A   1      41.758  29.327  33.421  1.00  0.00    -0.248 NA
ATOM     33  C   UNL A   1      42.587  27.686  31.978  1.00  0.00     0.031 C 
ATOM     34  C   UNL A   1      43.720  30.443  37.286  1.00  0.00     0.029 A 
ATOM     35  C   UNL A   1      43.107  30.069  36.098  1.00  0.00     0.049 A 
ATOM     36  H   UNL A   1      41.341  30.830  35.232  1.00  0.00     0.167 HD
ATOM     37  C   UNL A   1      42.892  28.754  33.990  1.00  0.00     0.074 A 
ATOM     38  C   UNL A   1      43.332  27.721  33.072  1.00  0.00     0.031 C 
ATOM     39  C   UNL A   1      43.521  29.055  35.156  1.00  0.00     0.034 A 
BRANCH  26  40
ATOM     40  C   UNL A   1      40.814  33.572  38.480  1.00  0.00     0.023 A 
ATOM     41  C   UNL A   1      39.884  33.390  39.521  1.00  0.00     0.031 A 
ATOM     42  C   UNL A   1      41.641  34.705  38.522  1.00  0.00     0.131 A 
ATOM     43  C   UNL A   1      39.741  34.380  40.505  1.00  0.00     0.055 A 
ATOM     44  C   UNL A   1      41.556  35.639  39.555  1.00  0.00     0.041 A 
ATOM     45  F   UNL A   1      42.512  34.954  37.530  1.00  0.00    -0.206 F 
ATOM     46  C   UNL A   1      40.589  35.489  40.545  1.00  0.00     0.022 A 
BRANCH  43  47
ATOM     47  S   UNL A   1      38.305  34.298  41.613  1.00  0.00     0.124 S 
ATOM     48  O   UNL A   1      37.962  35.712  41.754  1.00  0.00    -0.237 OA
ATOM     49  O   UNL A   1      37.363  33.488  40.852  1.00  0.00    -0.237 OA
ATOM     50  O   UNL A   1      38.839  33.672  42.821  1.00  0.00    -0.744 OA
ENDBRANCH  43  47
ENDBRANCH  26  40
BRANCH  27  51
ATOM     51  C   UNL A   1      40.426  28.063  30.010  1.00  0.00     0.023 A 
ATOM     52  C   UNL A   1      41.304  28.243  28.924  1.00  0.00     0.031 A 
ATOM     53  C   UNL A   1      39.405  27.104  29.859  1.00  0.00     0.131 A 
ATOM     54  C   UNL A   1      41.110  27.524  27.729  1.00  0.00     0.055 A 
ATOM     55  C   UNL A   1      39.263  26.338  28.699  1.00  0.00     0.041 A 
ATOM     56  F   UNL A   1      38.513  26.897  30.840  1.00  0.00    -0.206 F 
ATOM     57  C   UNL A   1      40.108  26.558  27.618  1.00  0.00     0.022 A 
BRANCH  54  58
ATOM     58  S   UNL A   1      42.090  27.963  26.262  1.00  0.00     0.124 S 
ATOM     59  O   UNL A   1      41.645  29.328  26.007  1.00  0.00    -0.237 OA
ATOM     60  O   UNL A   1      43.457  27.811  26.748  1.00  0.00    -0.237 OA
ATOM     61  O   UNL A   1      41.672  26.977  25.267  1.00  0.00    -0.744 OA
ENDBRANCH  54  58
ENDBRANCH  27  51
BRANCH  39  62
ATOM     62  C   UNL A   1      44.722  28.216  35.516  1.00  0.00     0.023 A 
ATOM     63  C   UNL A   1      44.604  27.023  36.247  1.00  0.00     0.031 A 
ATOM     64  C   UNL A   1      46.006  28.629  35.119  1.00  0.00     0.131 A 
ATOM     65  C   UNL A   1      45.758  26.319  36.619  1.00  0.00     0.055 A 
ATOM     66  C   UNL A   1      47.144  27.884  35.427  1.00  0.00     0.041 A 
ATOM     67  F   UNL A   1      46.175  29.764  34.421  1.00  0.00    -0.206 F 
ATOM     68  C   UNL A   1      47.024  26.730  36.195  1.00  0.00     0.022 A 
BRANCH  65  69
ATOM     69  S   UNL A   1      45.592  24.922  37.764  1.00  0.00     0.124 S 
ATOM     70  O   UNL A   1      46.003  23.797  36.931  1.00  0.00    -0.237 OA
ATOM     71  O   UNL A   1      46.510  25.289  38.838  1.00  0.00    -0.237 OA
ATOM     72  O   UNL A   1      44.176  24.942  38.126  1.00  0.00    -0.744 OA
ENDBRANCH  65  69
ENDBRANCH  39  62
ENDBRANCH  13  14
ENDBRANCH   6   8
ENDBRANCH   5   6
ENDBRANCH   4   5
ENDBRANCH   3   4
ENDBRANCH   2   3
ENDBRANCH   1   2
BRANCH   1  73
ATOM     73  C   UNL A   1      34.823  31.482  28.156  1.00  0.00     0.188 C 
BRANCH  73  74
ATOM     74  O   UNL A   1      34.149  31.024  26.982  1.00  0.00    -0.376 OA
BRANCH  74  75
ATOM     75  C   UNL A   1      32.868  30.432  27.178  1.00  0.00     0.202 C 
BRANCH  75  76
ATOM     76  C   UNL A   1      32.630  29.095  26.471  1.00  0.00     0.261 C 
BRANCH  76  77
ATOM     77  O   UNL A   1      33.398  28.949  25.273  1.00  0.00    -0.463 OA
BRANCH  77  78
ATOM     78  C   UNL A   1      33.614  27.694  24.796  1.00  0.00     0.309 C 
ATOM     79  O   UNL A   1      33.877  26.722  25.488  1.00  0.00    -0.252 OA
BRANCH  78  80
ATOM     80  C   UNL A   1      33.540  27.628  23.269  1.00  0.00     0.104 C 
ATOM     81  C   UNL A   1      33.443  26.188  22.721  1.00  0.00     0.022 C 
ATOM     82  C   UNL A   1      32.397  28.523  22.734  1.00  0.00     0.055 C 
ATOM     83  C   UNL A   1      32.089  25.500  22.962  1.00  0.00     0.057 C 
ATOM     84  C   UNL A   1      31.091  27.856  22.967  1.00  0.00     0.006 A 
ATOM     85  C   UNL A   1      30.995  26.491  23.091  1.00  0.00     0.039 A 
ATOM     86  C   UNL A   1      29.775  28.347  23.177  1.00  0.00     0.169 A 
ATOM     87  N   UNL A   1      29.725  26.237  23.491  1.00  0.00    -0.282 N 
ATOM     88  N   UNL A   1      28.958  27.335  23.555  1.00  0.00    -0.171 NA
ATOM     89  H   UNL A   1      29.397  25.335  23.713  1.00  0.00     0.190 HD
BRANCH  86  90
ATOM     90  C   UNL A   1      29.298  29.774  23.075  1.00  0.00     0.435 C 
ATOM     91  F   UNL A   1      29.649  30.360  21.904  1.00  0.00    -0.164 F 
ATOM     92  F   UNL A   1      27.944  29.864  23.189  1.00  0.00    -0.164 F 
ATOM     93  F   UNL A   1      29.812  30.546  24.073  1.00  0.00    -0.164 F 
ENDBRANCH  86  90
ENDBRANCH  78  80
ENDBRANCH  77  78
ENDBRANCH  76  77
ENDBRANCH  75  76
ENDBRANCH  74  75
ENDBRANCH  73  74
ENDBRANCH   1  73
TORSDOF 21
ENDMDL
MODEL 3
REMARK VINA RESULT:     -10.4      2.462      8.779
REMARK SMILES O=C(OCCOCCOCCOC(=O)[C@H]1CCc2[nH]nc(C(F)(F)F)c2C1)c1ccc(-c2c3nc(c(-c4cc(S(=O)(=O)[O-])ccc4F)c4ccc([nH]4)c(-c4cc(S(=O)(=O)[O-])ccc4F)c4nc(c(-c5cc(S(=O)(=O)[O-])ccc5F)c5ccc2[nH]5)C=C4)C=C3)cc1
REMARK SMILES IDX 7 1 6 2 5 3 4 4 3 5 2 6 1 7 28 8 29 9 90 10 30 11 89 12
REMARK SMILES IDX 31 13 32 14 33 15 83 16 34 17 88 18 82 19 84 20 35 21 87 22
REMARK SMILES IDX 81 23 80 24 36 26 68 27 48 28 67 29 49 30 52 31 66 32 85 33
REMARK SMILES IDX 50 34 51 35 65 37 86 38 53 39 37 40 38 41 46 42 39 43 45 44
REMARK SMILES IDX 47 45 44 46 40 47 41 48 42 49 43 50 69 51 70 52 78 53 71 54
REMARK SMILES IDX 77 55 79 56 76 57 72 58 73 59 74 60 75 61 54 62 55 63 63 64
REMARK SMILES IDX 56 65 62 66 64 67 61 68 57 69 58 70 59 71 60 72 8 73 9 74
REMARK SMILES IDX 10 75 11 76 12 77 13 78 14 79 15 80 16 81 27 82 17 83 26 84
REMARK SMILES IDX 18 85 21 86 19 87 20 88 22 90 23 91 24 92 25 93
REMARK H PARENT 84 25 52 36 19 89
REMARK Flexibility Score: inf
ROOT
ATOM      1  C   UNL A   1      37.047  22.674  24.965  1.00  0.00     0.188 C 
ENDROOT
BRANCH   1   2
ATOM      2  O   UNL A   1      37.280  21.468  24.225  1.00  0.00    -0.376 OA
BRANCH   2   3
ATOM      3  C   UNL A   1      37.804  20.393  24.995  1.00  0.00     0.202 C 
BRANCH   3   4
ATOM      4  C   UNL A   1      39.040  20.703  25.847  1.00  0.00     0.261 C 
BRANCH   4   5
ATOM      5  O   UNL A   1      40.085  19.716  25.833  1.00  0.00    -0.460 OA
BRANCH   5   6
ATOM      6  C   UNL A   1      41.418  19.806  26.047  1.00  0.00     0.338 C 
ATOM      7  O   UNL A   1      42.084  18.778  25.915  1.00  0.00    -0.246 OA
BRANCH   6   8
ATOM      8  C   UNL A   1      42.137  21.042  26.502  1.00  0.00     0.060 A 
ATOM      9  C   UNL A   1      42.417  21.374  27.825  1.00  0.00     0.016 A 
ATOM     10  C   UNL A   1      42.516  21.966  25.500  1.00  0.00     0.016 A 
ATOM     11  C   UNL A   1      43.067  22.567  28.141  1.00  0.00     0.010 A 
ATOM     12  C   UNL A   1      43.148  23.181  25.813  1.00  0.00     0.010 A 
ATOM     13  C   UNL A   1      43.425  23.486  27.145  1.00  0.00    -0.014 A 
BRANCH  13  14
ATOM     14  C   UNL A   1      43.797  24.841  27.614  1.00  0.00     0.031 A 
ATOM     15  C   UNL A   1      45.194  25.276  27.295  1.00  0.00     0.074 A 
ATOM     16  C   UNL A   1      42.886  25.711  28.087  1.00  0.00     0.049 A 
ATOM     17  N   UNL A   1      45.717  26.468  27.318  1.00  0.00    -0.248 NA
ATOM     18  C   UNL A   1      46.114  24.211  26.861  1.00  0.00     0.031 C 
ATOM     19  C   UNL A   1      41.508  25.377  28.411  1.00  0.00     0.029 A 
ATOM     20  N   UNL A   1      42.954  27.062  28.316  1.00  0.00    -0.354 N 
ATOM     21  C   UNL A   1      47.026  26.302  26.887  1.00  0.00     0.074 A 
ATOM     22  C   UNL A   1      47.215  24.896  26.611  1.00  0.00     0.031 C 
ATOM     23  C   UNL A   1      40.822  26.501  28.674  1.00  0.00     0.029 A 
ATOM     24  C   UNL A   1      41.738  27.634  28.637  1.00  0.00     0.049 A 
ATOM     25  H   UNL A   1      43.791  27.576  28.258  1.00  0.00     0.167 HD
ATOM     26  C   UNL A   1      47.988  27.243  26.759  1.00  0.00     0.034 A 
ATOM     27  C   UNL A   1      41.414  28.920  28.888  1.00  0.00     0.034 A 
ATOM     28  C   UNL A   1      47.791  28.615  27.142  1.00  0.00     0.049 A 
ATOM     29  C   UNL A   1      42.538  29.929  28.845  1.00  0.00     0.074 A 
ATOM     30  C   UNL A   1      48.713  29.642  27.182  1.00  0.00     0.029 A 
ATOM     31  N   UNL A   1      46.584  29.143  27.591  1.00  0.00    -0.354 N 
ATOM     32  N   UNL A   1      43.790  29.757  28.476  1.00  0.00    -0.248 NA
ATOM     33  C   UNL A   1      42.222  31.293  29.280  1.00  0.00     0.031 C 
ATOM     34  C   UNL A   1      48.087  30.764  27.734  1.00  0.00     0.029 A 
ATOM     35  C   UNL A   1      46.746  30.471  27.943  1.00  0.00     0.049 A 
ATOM     36  H   UNL A   1      45.737  28.643  27.651  1.00  0.00     0.167 HD
ATOM     37  C   UNL A   1      44.404  30.997  28.622  1.00  0.00     0.074 A 
ATOM     38  C   UNL A   1      43.376  31.911  29.081  1.00  0.00     0.031 C 
ATOM     39  C   UNL A   1      45.698  31.351  28.408  1.00  0.00     0.034 A 
BRANCH  26  40
ATOM     40  C   UNL A   1      49.345  26.750  26.333  1.00  0.00     0.023 A 
ATOM     41  C   UNL A   1      50.396  26.584  27.254  1.00  0.00     0.031 A 
ATOM     42  C   UNL A   1      49.630  26.587  24.967  1.00  0.00     0.131 A 
ATOM     43  C   UNL A   1      51.701  26.362  26.788  1.00  0.00     0.055 A 
ATOM     44  C   UNL A   1      50.913  26.274  24.517  1.00  0.00     0.041 A 
ATOM     45  F   UNL A   1      48.677  26.781  24.042  1.00  0.00    -0.206 F 
ATOM     46  C   UNL A   1      51.961  26.179  25.428  1.00  0.00     0.022 A 
BRANCH  43  47
ATOM     47  S   UNL A   1      53.077  26.515  27.961  1.00  0.00     0.124 S 
ATOM     48  O   UNL A   1      53.990  25.481  27.478  1.00  0.00    -0.237 OA
ATOM     49  O   UNL A   1      53.513  27.891  27.763  1.00  0.00    -0.237 OA
ATOM     50  O   UNL A   1      52.458  26.233  29.255  1.00  0.00    -0.744 OA
ENDBRANCH  43  47
ENDBRANCH  26  40
BRANCH  27  51
ATOM     51  C   UNL A   1      40.024  29.331  29.280  1.00  0.00     0.023 A 
ATOM     52  C   UNL A   1      39.608  29.355  30.625  1.00  0.00     0.031 A 
ATOM     53  C   UNL A   1      39.050  29.612  28.301  1.00  0.00     0.131 A 
ATOM     54  C   UNL A   1      38.258  29.596  30.945  1.00  0.00     0.055 A 
ATOM     55  C   UNL A   1      37.729  29.925  28.628  1.00  0.00     0.041 A 
ATOM     56  F   UNL A   1      39.366  29.580  26.997  1.00  0.00    -0.206 F 
ATOM     57  C   UNL A   1      37.321  29.901  29.956  1.00  0.00     0.022 A 
BRANCH  54  58
ATOM     58  S   UNL A   1      37.699  29.364  32.659  1.00  0.00     0.124 S 
ATOM     59  O   UNL A   1      36.314  29.814  32.583  1.00  0.00    -0.237 OA
ATOM     60  O   UNL A   1      37.900  27.933  32.858  1.00  0.00    -0.237 OA
ATOM     61  O   UNL A   1      38.592  30.229  33.428  1.00  0.00    -0.744 OA
ENDBRANCH  54  58
ENDBRANCH  27  51
BRANCH  39  62
ATOM     62  C   UNL A   1      46.050  32.802  28.624  1.00  0.00     0.023 A 
ATOM     63  C   UNL A   1      46.458  33.290  29.876  1.00  0.00     0.031 A 
ATOM     64  C   UNL A   1      45.967  33.708  27.552  1.00  0.00     0.131 A 
ATOM     65  C   UNL A   1      46.703  34.660  30.042  1.00  0.00     0.055 A 
ATOM     66  C   UNL A   1      46.285  35.057  27.706  1.00  0.00     0.041 A 
ATOM     67  F   UNL A   1      45.579  33.294  26.335  1.00  0.00    -0.206 F 
ATOM     68  C   UNL A   1      46.639  35.543  28.960  1.00  0.00     0.022 A 
BRANCH  65  69
ATOM     69  S   UNL A   1      46.989  35.295  31.717  1.00  0.00     0.124 S 
ATOM     70  O   UNL A   1      48.307  34.752  32.026  1.00  0.00    -0.237 OA
ATOM     71  O   UNL A   1      46.926  36.740  31.518  1.00  0.00    -0.237 OA
ATOM     72  O   UNL A   1      45.887  34.728  32.491  1.00  0.00    -0.744 OA
ENDBRANCH  65  69
ENDBRANCH  39  62
ENDBRANCH  13  14
ENDBRANCH   6   8
ENDBRANCH   5   6
ENDBRANCH   4   5
ENDBRANCH   3   4
ENDBRANCH   2   3
ENDBRANCH   1   2
BRANCH   1  73
ATOM     73  C   UNL A   1      36.183  23.672  24.182  1.00  0.00     0.188 C 
BRANCH  73  74
ATOM     74  O   UNL A   1      34.776  23.429  24.241  1.00  0.00    -0.376 OA
BRANCH  74  75
ATOM     75  C   UNL A   1      34.164  22.958  23.045  1.00  0.00     0.202 C 
BRANCH  75  76
ATOM     76  C   UNL A   1      33.007  23.802  22.503  1.00  0.00     0.261 C 
BRANCH  76  77
ATOM     77  O   UNL A   1      32.545  24.783  23.437  1.00  0.00    -0.463 OA
BRANCH  77  78
ATOM     78  C   UNL A   1      32.576  26.091  23.064  1.00  0.00     0.309 C 
ATOM     79  O   UNL A   1      33.594  26.723  22.831  1.00  0.00    -0.252 OA
BRANCH  78  80
ATOM     80  C   UNL A   1      31.181  26.717  23.012  1.00  0.00     0.104 C 
ATOM     81  C   UNL A   1      30.067  25.782  23.531  1.00  0.00     0.022 C 
ATOM     82  C   UNL A   1      31.164  28.085  23.735  1.00  0.00     0.055 C 
ATOM     83  C   UNL A   1      30.071  25.564  25.052  1.00  0.00     0.057 C 
ATOM     84  C   UNL A   1      31.166  27.871  25.205  1.00  0.00     0.006 A 
ATOM     85  C   UNL A   1      30.689  26.709  25.761  1.00  0.00     0.039 A 
ATOM     86  C   UNL A   1      31.654  28.639  26.296  1.00  0.00     0.169 A 
ATOM     87  N   UNL A   1      31.020  26.757  27.075  1.00  0.00    -0.282 N 
ATOM     88  N   UNL A   1      31.605  27.908  27.435  1.00  0.00    -0.171 NA
ATOM     89  H   UNL A   1      30.847  26.019  27.704  1.00  0.00     0.190 HD
BRANCH  86  90
ATOM     90  C   UNL A   1      32.214  30.039  26.259  1.00  0.00     0.435 C 
ATOM     91  F   UNL A   1      32.466  30.535  27.494  1.00  0.00    -0.164 F 
ATOM     92  F   UNL A   1      33.374  30.100  25.548  1.00  0.00    -0.164 F 
ATOM     93  F   UNL A   1      31.354  30.905  25.652  1.00  0.00    -0.164 F 
ENDBRANCH  86  90
ENDBRANCH  78  80
ENDBRANCH  77  78
ENDBRANCH  76  77
ENDBRANCH  75  76
ENDBRANCH  74  75
ENDBRANCH  73  74
ENDBRANCH   1  73
TORSDOF 21
ENDMDL
