MODEL 1
REMARK VINA RESULT:     -11.3      0.000      0.000
REMARK SMILES Cc1ccccc1CSCC(=O)Nc1ccc(C)c(C(=O)OCCOCCOCCOC(=O)c2ccc(-c3c4nc(c(-c5cc(S(=O)(=O)[O-])ccc5F)c5ccc([nH]5)c(-c5cc(S(=O)(=O)[O-])ccc5F)c5nc(c(-c6cc(S(=O)(=O)[O-])ccc6F)c6ccc3[nH]6)C=C5)C=C4)cc2)c1
REMARK SMILES IDX 26 1 25 2 24 3 23 4 22 5 20 6 21 7 19 8 14 9 15 10 97 11
REMARK SMILES IDX 16 12 17 13 18 14 13 15 11 16 12 17 10 19 9 20 8 21 7 22
REMARK SMILES IDX 1 23 2 24 3 25 4 26 6 27 5 28 27 29 28 30 29 31 30 32 31 33
REMARK SMILES IDX 32 34 33 35 34 36 35 37 96 38 36 39 95 40 37 41 38 42 39 43
REMARK SMILES IDX 89 44 40 45 94 46 88 47 90 48 41 49 93 50 87 51 86 52 42 54
REMARK SMILES IDX 74 55 54 56 73 57 55 58 58 59 72 60 91 61 56 62 57 63 71 65
REMARK SMILES IDX 92 66 59 67 43 68 44 69 52 70 45 71 51 72 53 73 50 74 46 75
REMARK SMILES IDX 47 76 48 77 49 78 75 79 76 80 84 81 77 82 83 83 85 84 82 85
REMARK SMILES IDX 78 86 79 87 80 88 81 89 60 90 61 91 69 92 62 93 68 94 70 95
REMARK SMILES IDX 67 96 63 97 64 98 65 99 66 100
REMARK H PARENT 13 18 90 53 58 64
REMARK Flexibility Score: inf
ROOT
ATOM      1  C   UNL A   1      34.683  34.343  28.184  1.00  0.00     0.188 C 
ENDROOT
BRANCH   1   2
ATOM      2  O   UNL A   1      35.504  33.435  27.462  1.00  0.00    -0.376 OA
BRANCH   2   3
ATOM      3  C   UNL A   1      35.809  32.158  28.030  1.00  0.00     0.202 C 
BRANCH   3   4
ATOM      4  C   UNL A   1      34.712  31.046  28.293  1.00  0.00     0.261 C 
BRANCH   4   5
ATOM      5  O   UNL A   1      34.057  30.388  27.140  1.00  0.00    -0.460 OA
BRANCH   5   6
ATOM      6  C   UNL A   1      34.223  29.092  26.676  1.00  0.00     0.338 C 
ATOM      7  O   UNL A   1      35.269  28.494  26.893  1.00  0.00    -0.246 OA
BRANCH   6   8
ATOM      8  C   UNL A   1      33.040  28.382  25.744  1.00  0.00     0.065 A 
ATOM      9  C   UNL A   1      32.039  27.514  23.523  1.00  0.00     0.042 A 
ATOM     10  C   UNL A   1      30.830  27.319  24.126  1.00  0.00     0.026 A 
ATOM     11  C   UNL A   1      33.070  27.980  24.360  1.00  0.00     0.042 A 
ATOM     12  C   UNL A   1      30.717  27.620  25.497  1.00  0.00     0.006 A 
ATOM     13  C   UNL A   1      31.786  28.151  26.298  1.00  0.00    -0.036 A 
ATOM     14  C   UNL A   1      31.551  28.299  27.767  1.00  0.00     0.045 C 
BRANCH   9  15
ATOM     15  N   UNL A   1      32.363  27.098  22.203  1.00  0.00    -0.325 N 
ATOM     16  C   UNL A   1      32.727  25.889  21.660  1.00  0.00     0.234 C 
ATOM     17  O   UNL A   1      33.279  25.887  20.551  1.00  0.00    -0.274 OA
ATOM     18  H   UNL A   1      32.317  27.825  21.542  1.00  0.00     0.169 HD
BRANCH  16  19
ATOM     19  C   UNL A   1      32.282  24.570  22.270  1.00  0.00     0.170 C 
BRANCH  19  20
ATOM     20  S   UNL A   1      33.241  23.138  21.743  1.00  0.00    -0.147 SA
BRANCH  20  21
ATOM     21  C   UNL A   1      33.497  22.342  23.367  1.00  0.00     0.105 C 
BRANCH  21  22
ATOM     22  C   UNL A   1      32.876  23.124  24.500  1.00  0.00    -0.035 A 
ATOM     23  C   UNL A   1      34.998  24.488  25.061  1.00  0.00     0.044 C 
ATOM     24  C   UNL A   1      33.564  24.082  25.273  1.00  0.00    -0.047 A 
ATOM     25  C   UNL A   1      32.885  24.704  26.340  1.00  0.00     0.004 A 
ATOM     26  C   UNL A   1      31.552  24.413  26.626  1.00  0.00     0.000 A 
ATOM     27  C   UNL A   1      31.513  22.880  24.781  1.00  0.00     0.005 A 
ATOM     28  C   UNL A   1      30.860  23.507  25.838  1.00  0.00     0.000 A 
ENDBRANCH  21  22
ENDBRANCH  20  21
ENDBRANCH  19  20
ENDBRANCH  16  19
ENDBRANCH   9  15
ENDBRANCH   6   8
ENDBRANCH   5   6
ENDBRANCH   4   5
ENDBRANCH   3   4
ENDBRANCH   2   3
ENDBRANCH   1   2
BRANCH   1  29
ATOM     29  C   UNL A   1      33.167  34.205  28.171  1.00  0.00     0.188 C 
BRANCH  29  30
ATOM     30  O   UNL A   1      32.614  34.709  29.386  1.00  0.00    -0.376 OA
BRANCH  30  31
ATOM     31  C   UNL A   1      32.920  36.071  29.644  1.00  0.00     0.202 C 
BRANCH  31  32
ATOM     32  C   UNL A   1      32.790  36.503  31.122  1.00  0.00     0.261 C 
BRANCH  32  33
ATOM     33  O   UNL A   1      33.018  35.398  32.034  1.00  0.00    -0.460 OA
BRANCH  33  34
ATOM     34  C   UNL A   1      34.159  35.435  32.815  1.00  0.00     0.338 C 
ATOM     35  O   UNL A   1      34.471  36.374  33.501  1.00  0.00    -0.246 OA
BRANCH  34  36
ATOM     36  C   UNL A   1      34.895  34.121  32.722  1.00  0.00     0.060 A 
ATOM     37  C   UNL A   1      35.312  33.298  33.777  1.00  0.00     0.016 A 
ATOM     38  C   UNL A   1      35.385  33.802  31.499  1.00  0.00     0.016 A 
ATOM     39  C   UNL A   1      36.387  32.328  33.612  1.00  0.00     0.010 A 
ATOM     40  C   UNL A   1      36.553  33.052  31.449  1.00  0.00     0.010 A 
ATOM     41  C   UNL A   1      37.155  32.244  32.445  1.00  0.00    -0.014 A 
BRANCH  41  42
ATOM     42  C   UNL A   1      38.586  31.462  32.254  1.00  0.00     0.031 A 
ATOM     43  C   UNL A   1      38.996  30.014  31.603  1.00  0.00     0.074 A 
ATOM     44  C   UNL A   1      39.661  32.269  32.362  1.00  0.00     0.049 A 
ATOM     45  N   UNL A   1      39.822  29.893  30.591  1.00  0.00    -0.248 NA
ATOM     46  C   UNL A   1      38.497  28.637  31.942  1.00  0.00     0.031 C 
ATOM     47  C   UNL A   1      41.014  32.095  31.854  1.00  0.00     0.029 A 
ATOM     48  N   UNL A   1      39.771  33.341  33.231  1.00  0.00    -0.354 N 
ATOM     49  C   UNL A   1      39.816  28.602  30.089  1.00  0.00     0.074 A 
ATOM     50  C   UNL A   1      38.860  27.880  30.894  1.00  0.00     0.031 C 
ATOM     51  C   UNL A   1      41.862  32.786  32.630  1.00  0.00     0.029 A 
ATOM     52  C   UNL A   1      41.085  33.301  33.735  1.00  0.00     0.049 A 
ATOM     53  H   UNL A   1      39.073  34.000  33.451  1.00  0.00     0.167 HD
ATOM     54  C   UNL A   1      40.926  28.022  29.546  1.00  0.00     0.034 A 
ATOM     55  C   UNL A   1      41.210  32.981  35.052  1.00  0.00     0.034 A 
ATOM     56  C   UNL A   1      42.092  28.454  30.280  1.00  0.00     0.049 A 
ATOM     57  C   UNL A   1      41.752  31.559  35.212  1.00  0.00     0.074 A 
ATOM     58  C   UNL A   1      43.032  29.455  30.195  1.00  0.00     0.029 A 
ATOM     59  N   UNL A   1      42.189  27.944  31.554  1.00  0.00    -0.354 N 
ATOM     60  N   UNL A   1      42.102  30.780  34.214  1.00  0.00    -0.248 NA
ATOM     61  C   UNL A   1      41.935  30.887  36.493  1.00  0.00     0.031 C 
ATOM     62  C   UNL A   1      43.514  29.674  31.535  1.00  0.00     0.029 A 
ATOM     63  C   UNL A   1      42.907  28.764  32.392  1.00  0.00     0.049 A 
ATOM     64  H   UNL A   1      41.788  27.088  31.834  1.00  0.00     0.167 HD
ATOM     65  C   UNL A   1      42.479  29.546  34.665  1.00  0.00     0.074 A 
ATOM     66  C   UNL A   1      42.348  29.664  36.112  1.00  0.00     0.031 C 
ATOM     67  C   UNL A   1      42.844  28.513  33.837  1.00  0.00     0.034 A 
BRANCH  54  68
ATOM     68  C   UNL A   1      40.923  26.948  28.481  1.00  0.00     0.023 A 
ATOM     69  C   UNL A   1      41.454  25.676  28.793  1.00  0.00     0.031 A 
ATOM     70  C   UNL A   1      40.595  27.159  27.123  1.00  0.00     0.131 A 
ATOM     71  C   UNL A   1      41.684  24.708  27.792  1.00  0.00     0.055 A 
ATOM     72  C   UNL A   1      40.804  26.183  26.132  1.00  0.00     0.041 A 
ATOM     73  F   UNL A   1      40.083  28.325  26.702  1.00  0.00    -0.206 F 
ATOM     74  C   UNL A   1      41.365  24.955  26.459  1.00  0.00     0.022 A 
BRANCH  71  75
ATOM     75  S   UNL A   1      42.492  23.145  28.249  1.00  0.00     0.124 S 
ATOM     76  O   UNL A   1      43.420  22.941  27.141  1.00  0.00    -0.237 OA
ATOM     77  O   UNL A   1      43.090  23.470  29.539  1.00  0.00    -0.237 OA
ATOM     78  O   UNL A   1      41.386  22.189  28.307  1.00  0.00    -0.744 OA
ENDBRANCH  71  75
ENDBRANCH  54  68
BRANCH  55  79
ATOM     79  C   UNL A   1      40.154  33.750  35.829  1.00  0.00     0.023 A 
ATOM     80  C   UNL A   1      39.073  32.958  36.331  1.00  0.00     0.031 A 
ATOM     81  C   UNL A   1      40.390  34.966  36.481  1.00  0.00     0.131 A 
ATOM     82  C   UNL A   1      38.455  33.262  37.556  1.00  0.00     0.055 A 
ATOM     83  C   UNL A   1      39.659  35.336  37.632  1.00  0.00     0.041 A 
ATOM     84  F   UNL A   1      41.440  35.731  36.148  1.00  0.00    -0.206 F 
ATOM     85  C   UNL A   1      38.743  34.453  38.213  1.00  0.00     0.022 A 
BRANCH  82  86
ATOM     86  S   UNL A   1      37.546  31.951  38.450  1.00  0.00     0.124 S 
ATOM     87  O   UNL A   1      36.222  32.545  38.592  1.00  0.00    -0.237 OA
ATOM     88  O   UNL A   1      37.642  30.808  37.546  1.00  0.00    -0.237 OA
ATOM     89  O   UNL A   1      38.311  31.793  39.685  1.00  0.00    -0.744 OA
ENDBRANCH  82  86
ENDBRANCH  55  79
BRANCH  67  90
ATOM     90  C   UNL A   1      43.156  27.136  34.385  1.00  0.00     0.023 A 
ATOM     91  C   UNL A   1      44.479  26.709  34.517  1.00  0.00     0.031 A 
ATOM     92  C   UNL A   1      42.163  26.199  34.767  1.00  0.00     0.131 A 
ATOM     93  C   UNL A   1      44.773  25.464  35.099  1.00  0.00     0.055 A 
ATOM     94  C   UNL A   1      42.458  24.902  35.190  1.00  0.00     0.041 A 
ATOM     95  F   UNL A   1      40.863  26.525  34.821  1.00  0.00    -0.206 F 
ATOM     96  C   UNL A   1      43.776  24.533  35.383  1.00  0.00     0.022 A 
BRANCH  93  97
ATOM     97  S   UNL A   1      46.467  25.171  35.652  1.00  0.00     0.124 S 
ATOM     98  O   UNL A   1      46.460  23.749  35.977  1.00  0.00    -0.237 OA
ATOM     99  O   UNL A   1      47.223  25.544  34.457  1.00  0.00    -0.237 OA
ATOM    100  O   UNL A   1      46.619  26.075  36.789  1.00  0.00    -0.744 OA
ENDBRANCH  93  97
ENDBRANCH  67  90
ENDBRANCH  41  42
ENDBRANCH  34  36
ENDBRANCH  33  34
ENDBRANCH  32  33
ENDBRANCH  31  32
ENDBRANCH  30  31
ENDBRANCH  29  30
ENDBRANCH   1  29
TORSDOF 25
ENDMDL
MODEL 2
REMARK VINA RESULT:     -10.5      2.059      2.535
REMARK SMILES Cc1ccccc1CSCC(=O)Nc1ccc(C)c(C(=O)OCCOCCOCCOC(=O)c2ccc(-c3c4nc(c(-c5cc(S(=O)(=O)[O-])ccc5F)c5ccc([nH]5)c(-c5cc(S(=O)(=O)[O-])ccc5F)c5nc(c(-c6cc(S(=O)(=O)[O-])ccc6F)c6ccc3[nH]6)C=C5)C=C4)cc2)c1
REMARK SMILES IDX 26 1 25 2 24 3 23 4 22 5 20 6 21 7 19 8 14 9 15 10 97 11
REMARK SMILES IDX 16 12 17 13 18 14 13 15 11 16 12 17 10 19 9 20 8 21 7 22
REMARK SMILES IDX 1 23 2 24 3 25 4 26 6 27 5 28 27 29 28 30 29 31 30 32 31 33
REMARK SMILES IDX 32 34 33 35 34 36 35 37 96 38 36 39 95 40 37 41 38 42 39 43
REMARK SMILES IDX 89 44 40 45 94 46 88 47 90 48 41 49 93 50 87 51 86 52 42 54
REMARK SMILES IDX 74 55 54 56 73 57 55 58 58 59 72 60 91 61 56 62 57 63 71 65
REMARK SMILES IDX 92 66 59 67 43 68 44 69 52 70 45 71 51 72 53 73 50 74 46 75
REMARK SMILES IDX 47 76 48 77 49 78 75 79 76 80 84 81 77 82 83 83 85 84 82 85
REMARK SMILES IDX 78 86 79 87 80 88 81 89 60 90 61 91 69 92 62 93 68 94 70 95
REMARK SMILES IDX 67 96 63 97 64 98 65 99 66 100
REMARK H PARENT 13 18 90 53 58 64
REMARK Flexibility Score: inf
ROOT
ATOM      1  C   UNL A   1      34.662  34.673  28.322  1.00  0.00     0.188 C 
ENDROOT
BRANCH   1   2
ATOM      2  O   UNL A   1      35.102  33.570  27.539  1.00  0.00    -0.376 OA
BRANCH   2   3
ATOM      3  C   UNL A   1      34.871  32.239  28.009  1.00  0.00     0.202 C 
BRANCH   3   4
ATOM      4  C   UNL A   1      33.587  31.398  27.621  1.00  0.00     0.261 C 
BRANCH   4   5
ATOM      5  O   UNL A   1      33.687  30.371  26.558  1.00  0.00    -0.460 OA
BRANCH   5   6
ATOM      6  C   UNL A   1      34.051  29.039  26.676  1.00  0.00     0.338 C 
ATOM      7  O   UNL A   1      35.115  28.739  27.204  1.00  0.00    -0.246 OA
BRANCH   6   8
ATOM      8  C   UNL A   1      33.089  27.850  26.016  1.00  0.00     0.065 A 
ATOM      9  C   UNL A   1      32.475  26.078  24.235  1.00  0.00     0.042 A 
ATOM     10  C   UNL A   1      31.243  25.916  24.799  1.00  0.00     0.026 A 
ATOM     11  C   UNL A   1      33.331  26.983  24.891  1.00  0.00     0.042 A 
ATOM     12  C   UNL A   1      30.934  26.671  25.946  1.00  0.00     0.006 A 
ATOM     13  C   UNL A   1      31.822  27.629  26.546  1.00  0.00    -0.036 A 
ATOM     14  C   UNL A   1      31.403  28.260  27.835  1.00  0.00     0.045 C 
BRANCH   9  15
ATOM     15  N   UNL A   1      33.002  25.271  23.190  1.00  0.00    -0.325 N 
ATOM     16  C   UNL A   1      33.185  23.917  23.049  1.00  0.00     0.234 C 
ATOM     17  O   UNL A   1      33.973  23.520  22.179  1.00  0.00    -0.274 OA
ATOM     18  H   UNL A   1      33.294  25.789  22.407  1.00  0.00     0.169 HD
BRANCH  16  19
ATOM     19  C   UNL A   1      32.301  22.908  23.765  1.00  0.00     0.170 C 
BRANCH  19  20
ATOM     20  S   UNL A   1      32.528  21.201  23.236  1.00  0.00    -0.147 SA
BRANCH  20  21
ATOM     21  C   UNL A   1      33.619  20.619  24.579  1.00  0.00     0.105 C 
BRANCH  21  22
ATOM     22  C   UNL A   1      33.731  19.114  24.623  1.00  0.00    -0.035 A 
ATOM     23  C   UNL A   1      36.315  19.051  24.626  1.00  0.00     0.044 C 
ATOM     24  C   UNL A   1      34.953  18.410  24.628  1.00  0.00    -0.047 A 
ATOM     25  C   UNL A   1      34.922  17.001  24.614  1.00  0.00     0.004 A 
ATOM     26  C   UNL A   1      33.718  16.297  24.623  1.00  0.00     0.000 A 
ATOM     27  C   UNL A   1      32.527  18.378  24.678  1.00  0.00     0.005 A 
ATOM     28  C   UNL A   1      32.517  16.987  24.666  1.00  0.00     0.000 A 
ENDBRANCH  21  22
ENDBRANCH  20  21
ENDBRANCH  19  20
ENDBRANCH  16  19
ENDBRANCH   9  15
ENDBRANCH   6   8
ENDBRANCH   5   6
ENDBRANCH   4   5
ENDBRANCH   3   4
ENDBRANCH   2   3
ENDBRANCH   1   2
BRANCH   1  29
ATOM     29  C   UNL A   1      33.187  35.042  28.390  1.00  0.00     0.188 C 
BRANCH  29  30
ATOM     30  O   UNL A   1      32.715  34.945  29.733  1.00  0.00    -0.376 OA
BRANCH  30  31
ATOM     31  C   UNL A   1      32.528  36.196  30.377  1.00  0.00     0.202 C 
BRANCH  31  32
ATOM     32  C   UNL A   1      32.238  36.117  31.893  1.00  0.00     0.261 C 
BRANCH  32  33
ATOM     33  O   UNL A   1      32.850  34.953  32.503  1.00  0.00    -0.460 OA
BRANCH  33  34
ATOM     34  C   UNL A   1      34.182  35.043  32.867  1.00  0.00     0.338 C 
ATOM     35  O   UNL A   1      34.654  35.982  33.454  1.00  0.00    -0.246 OA
BRANCH  34  36
ATOM     36  C   UNL A   1      34.913  33.783  32.475  1.00  0.00     0.060 A 
ATOM     37  C   UNL A   1      35.260  32.704  33.301  1.00  0.00     0.016 A 
ATOM     38  C   UNL A   1      35.473  33.781  31.241  1.00  0.00     0.016 A 
ATOM     39  C   UNL A   1      36.337  31.787  32.949  1.00  0.00     0.010 A 
ATOM     40  C   UNL A   1      36.638  33.045  31.063  1.00  0.00     0.010 A 
ATOM     41  C   UNL A   1      37.173  31.992  31.846  1.00  0.00    -0.014 A 
BRANCH  41  42
ATOM     42  C   UNL A   1      38.607  31.255  31.538  1.00  0.00     0.031 A 
ATOM     43  C   UNL A   1      39.016  29.724  31.119  1.00  0.00     0.074 A 
ATOM     44  C   UNL A   1      39.611  32.116  31.275  1.00  0.00     0.049 A 
ATOM     45  N   UNL A   1      39.653  29.431  30.010  1.00  0.00    -0.248 NA
ATOM     46  C   UNL A   1      38.706  28.427  31.814  1.00  0.00     0.031 C 
ATOM     47  C   UNL A   1      40.860  31.903  30.558  1.00  0.00     0.029 A 
ATOM     48  N   UNL A   1      39.783  33.351  31.876  1.00  0.00    -0.354 N 
ATOM     49  C   UNL A   1      39.667  28.065  29.783  1.00  0.00     0.074 A 
ATOM     50  C   UNL A   1      38.938  27.484  30.885  1.00  0.00     0.031 C 
ATOM     51  C   UNL A   1      41.772  32.780  31.003  1.00  0.00     0.029 A 
ATOM     52  C   UNL A   1      41.166  33.479  32.113  1.00  0.00     0.049 A 
ATOM     53  H   UNL A   1      39.083  34.008  32.093  1.00  0.00     0.167 HD
ATOM     54  C   UNL A   1      40.706  27.437  29.160  1.00  0.00     0.034 A 
ATOM     55  C   UNL A   1      41.553  33.449  33.418  1.00  0.00     0.034 A 
ATOM     56  C   UNL A   1      41.944  28.067  29.554  1.00  0.00     0.049 A 
ATOM     57  C   UNL A   1      42.235  32.119  33.747  1.00  0.00     0.074 A 
ATOM     58  C   UNL A   1      42.764  29.071  29.093  1.00  0.00     0.029 A 
ATOM     59  N   UNL A   1      42.313  27.841  30.860  1.00  0.00    -0.354 N 
ATOM     60  N   UNL A   1      42.465  31.166  32.874  1.00  0.00    -0.248 NA
ATOM     61  C   UNL A   1      42.703  31.740  35.075  1.00  0.00     0.031 C 
ATOM     62  C   UNL A   1      43.459  29.589  30.243  1.00  0.00     0.029 A 
ATOM     63  C   UNL A   1      43.097  28.851  31.364  1.00  0.00     0.049 A 
ATOM     64  H   UNL A   1      42.044  27.045  31.376  1.00  0.00     0.167 HD
ATOM     65  C   UNL A   1      43.022  30.072  33.477  1.00  0.00     0.074 A 
ATOM     66  C   UNL A   1      43.144  30.485  34.870  1.00  0.00     0.031 C 
ATOM     67  C   UNL A   1      43.318  28.907  32.814  1.00  0.00     0.034 A 
BRANCH  54  68
ATOM     68  C   UNL A   1      40.604  26.164  28.350  1.00  0.00     0.023 A 
ATOM     69  C   UNL A   1      41.677  25.246  28.381  1.00  0.00     0.031 A 
ATOM     70  C   UNL A   1      39.588  25.888  27.407  1.00  0.00     0.131 A 
ATOM     71  C   UNL A   1      41.743  24.158  27.485  1.00  0.00     0.055 A 
ATOM     72  C   UNL A   1      39.645  24.789  26.531  1.00  0.00     0.041 A 
ATOM     73  F   UNL A   1      38.517  26.685  27.282  1.00  0.00    -0.206 F 
ATOM     74  C   UNL A   1      40.733  23.925  26.555  1.00  0.00     0.022 A 
BRANCH  71  75
ATOM     75  S   UNL A   1      43.219  23.097  27.495  1.00  0.00     0.124 S 
ATOM     76  O   UNL A   1      44.303  24.075  27.503  1.00  0.00    -0.237 OA
ATOM     77  O   UNL A   1      43.038  22.325  28.719  1.00  0.00    -0.237 OA
ATOM     78  O   UNL A   1      43.098  22.326  26.257  1.00  0.00    -0.744 OA
ENDBRANCH  71  75
ENDBRANCH  54  68
BRANCH  55  79
ATOM     79  C   UNL A   1      40.593  34.314  34.218  1.00  0.00     0.023 A 
ATOM     80  C   UNL A   1      39.456  33.626  34.750  1.00  0.00     0.031 A 
ATOM     81  C   UNL A   1      40.957  35.504  34.860  1.00  0.00     0.131 A 
ATOM     82  C   UNL A   1      38.900  33.988  35.988  1.00  0.00     0.055 A 
ATOM     83  C   UNL A   1      40.292  35.941  36.027  1.00  0.00     0.041 A 
ATOM     84  F   UNL A   1      42.065  36.167  34.497  1.00  0.00    -0.206 F 
ATOM     85  C   UNL A   1      39.313  35.147  36.633  1.00  0.00     0.022 A 
BRANCH  82  86
ATOM     86  S   UNL A   1      37.896  32.768  36.909  1.00  0.00     0.124 S 
ATOM     87  O   UNL A   1      38.684  32.583  38.122  1.00  0.00    -0.237 OA
ATOM     88  O   UNL A   1      36.615  33.451  37.074  1.00  0.00    -0.237 OA
ATOM     89  O   UNL A   1      37.842  31.622  36.002  1.00  0.00    -0.744 OA
ENDBRANCH  82  86
ENDBRANCH  55  79
BRANCH  67  90
ATOM     90  C   UNL A   1      43.840  27.691  33.552  1.00  0.00     0.023 A 
ATOM     91  C   UNL A   1      43.032  27.019  34.472  1.00  0.00     0.031 A 
ATOM     92  C   UNL A   1      45.151  27.177  33.389  1.00  0.00     0.131 A 
ATOM     93  C   UNL A   1      43.486  25.846  35.097  1.00  0.00     0.055 A 
ATOM     94  C   UNL A   1      45.652  26.109  34.136  1.00  0.00     0.041 A 
ATOM     95  F   UNL A   1      45.982  27.638  32.443  1.00  0.00    -0.206 F 
ATOM     96  C   UNL A   1      44.807  25.417  34.984  1.00  0.00     0.022 A 
BRANCH  93  97
ATOM     97  S   UNL A   1      42.260  24.793  35.905  1.00  0.00     0.124 S 
ATOM     98  O   UNL A   1      42.329  23.562  35.126  1.00  0.00    -0.237 OA
ATOM     99  O   UNL A   1      42.802  24.717  37.260  1.00  0.00    -0.237 OA
ATOM    100  O   UNL A   1      41.018  25.550  35.775  1.00  0.00    -0.744 OA
ENDBRANCH  93  97
ENDBRANCH  67  90
ENDBRANCH  41  42
ENDBRANCH  34  36
ENDBRANCH  33  34
ENDBRANCH  32  33
ENDBRANCH  31  32
ENDBRANCH  30  31
ENDBRANCH  29  30
ENDBRANCH   1  29
TORSDOF 25
ENDMDL
MODEL 3
REMARK VINA RESULT:      -9.7      4.435      6.626
REMARK SMILES Cc1ccccc1CSCC(=O)Nc1ccc(C)c(C(=O)OCCOCCOCCOC(=O)c2ccc(-c3c4nc(c(-c5cc(S(=O)(=O)[O-])ccc5F)c5ccc([nH]5)c(-c5cc(S(=O)(=O)[O-])ccc5F)c5nc(c(-c6cc(S(=O)(=O)[O-])ccc6F)c6ccc3[nH]6)C=C5)C=C4)cc2)c1
REMARK SMILES IDX 26 1 25 2 24 3 23 4 22 5 20 6 21 7 19 8 14 9 15 10 97 11
REMARK SMILES IDX 16 12 17 13 18 14 13 15 11 16 12 17 10 19 9 20 8 21 7 22
REMARK SMILES IDX 1 23 2 24 3 25 4 26 6 27 5 28 27 29 28 30 29 31 30 32 31 33
REMARK SMILES IDX 32 34 33 35 34 36 35 37 96 38 36 39 95 40 37 41 38 42 39 43
REMARK SMILES IDX 89 44 40 45 94 46 88 47 90 48 41 49 93 50 87 51 86 52 42 54
REMARK SMILES IDX 74 55 54 56 73 57 55 58 58 59 72 60 91 61 56 62 57 63 71 65
REMARK SMILES IDX 92 66 59 67 43 68 44 69 52 70 45 71 51 72 53 73 50 74 46 75
REMARK SMILES IDX 47 76 48 77 49 78 75 79 76 80 84 81 77 82 83 83 85 84 82 85
REMARK SMILES IDX 78 86 79 87 80 88 81 89 60 90 61 91 69 92 62 93 68 94 70 95
REMARK SMILES IDX 67 96 63 97 64 98 65 99 66 100
REMARK H PARENT 13 18 90 53 58 64
REMARK Flexibility Score: inf
ROOT
ATOM      1  C   UNL A   1      36.062  32.689  29.124  1.00  0.00     0.188 C 
ENDROOT
BRANCH   1   2
ATOM      2  O   UNL A   1      35.569  32.320  27.843  1.00  0.00    -0.376 OA
BRANCH   2   3
ATOM      3  C   UNL A   1      34.813  31.114  27.703  1.00  0.00     0.202 C 
BRANCH   3   4
ATOM      4  C   UNL A   1      33.276  31.098  27.323  1.00  0.00     0.261 C 
BRANCH   4   5
ATOM      5  O   UNL A   1      32.835  30.359  26.117  1.00  0.00    -0.460 OA
BRANCH   5   6
ATOM      6  C   UNL A   1      32.134  29.165  26.045  1.00  0.00     0.338 C 
ATOM      7  O   UNL A   1      31.692  28.651  27.065  1.00  0.00    -0.246 OA
BRANCH   6   8
ATOM      8  C   UNL A   1      31.974  28.380  24.584  1.00  0.00     0.065 A 
ATOM      9  C   UNL A   1      32.711  26.716  22.746  1.00  0.00     0.042 A 
ATOM     10  C   UNL A   1      31.744  27.191  21.908  1.00  0.00     0.026 A 
ATOM     11  C   UNL A   1      32.740  27.292  24.031  1.00  0.00     0.042 A 
ATOM     12  C   UNL A   1      30.898  28.212  22.382  1.00  0.00     0.006 A 
ATOM     13  C   UNL A   1      31.006  28.810  23.684  1.00  0.00    -0.036 A 
ATOM     14  C   UNL A   1      29.955  29.793  24.091  1.00  0.00     0.045 C 
BRANCH   9  15
ATOM     15  N   UNL A   1      33.523  25.579  22.486  1.00  0.00    -0.325 N 
ATOM     16  C   UNL A   1      33.395  24.244  22.783  1.00  0.00     0.234 C 
ATOM     17  O   UNL A   1      34.409  23.533  22.736  1.00  0.00    -0.274 OA
ATOM     18  H   UNL A   1      34.346  25.792  21.991  1.00  0.00     0.169 HD
BRANCH  16  19
ATOM     19  C   UNL A   1      32.036  23.585  22.949  1.00  0.00     0.170 C 
BRANCH  19  20
ATOM     20  S   UNL A   1      31.212  23.945  24.511  1.00  0.00    -0.147 SA
BRANCH  20  21
ATOM     21  C   UNL A   1      31.440  22.334  25.341  1.00  0.00     0.105 C 
BRANCH  21  22
ATOM     22  C   UNL A   1      32.892  21.934  25.440  1.00  0.00    -0.035 A 
ATOM     23  C   UNL A   1      32.717  19.936  23.810  1.00  0.00     0.044 C 
ATOM     24  C   UNL A   1      33.461  20.839  24.758  1.00  0.00    -0.047 A 
ATOM     25  C   UNL A   1      34.820  20.536  24.978  1.00  0.00     0.004 A 
ATOM     26  C   UNL A   1      35.611  21.307  25.829  1.00  0.00     0.000 A 
ATOM     27  C   UNL A   1      33.726  22.726  26.261  1.00  0.00     0.005 A 
ATOM     28  C   UNL A   1      35.066  22.412  26.463  1.00  0.00     0.000 A 
ENDBRANCH  21  22
ENDBRANCH  20  21
ENDBRANCH  19  20
ENDBRANCH  16  19
ENDBRANCH   9  15
ENDBRANCH   6   8
ENDBRANCH   5   6
ENDBRANCH   4   5
ENDBRANCH   3   4
ENDBRANCH   2   3
ENDBRANCH   1   2
BRANCH   1  29
ATOM     29  C   UNL A   1      35.113  33.153  30.221  1.00  0.00     0.188 C 
BRANCH  29  30
ATOM     30  O   UNL A   1      34.945  32.126  31.197  1.00  0.00    -0.376 OA
BRANCH  30  31
ATOM     31  C   UNL A   1      35.538  32.414  32.454  1.00  0.00     0.202 C 
BRANCH  31  32
ATOM     32  C   UNL A   1      36.640  31.427  32.902  1.00  0.00     0.261 C 
BRANCH  32  33
ATOM     33  O   UNL A   1      36.391  30.081  32.424  1.00  0.00    -0.460 OA
BRANCH  33  34
ATOM     34  C   UNL A   1      37.406  29.152  32.564  1.00  0.00     0.338 C 
ATOM     35  O   UNL A   1      37.412  28.286  33.399  1.00  0.00    -0.246 OA
BRANCH  34  36
ATOM     36  C   UNL A   1      38.447  29.354  31.489  1.00  0.00     0.060 A 
ATOM     37  C   UNL A   1      38.250  29.370  30.102  1.00  0.00     0.016 A 
ATOM     38  C   UNL A   1      39.738  29.316  31.899  1.00  0.00     0.016 A 
ATOM     39  C   UNL A   1      39.342  29.109  29.171  1.00  0.00     0.010 A 
ATOM     40  C   UNL A   1      40.684  28.835  31.002  1.00  0.00     0.010 A 
ATOM     41  C   UNL A   1      40.612  28.702  29.594  1.00  0.00    -0.014 A 
BRANCH  41  42
ATOM     42  C   UNL A   1      41.803  28.050  28.670  1.00  0.00     0.031 A 
ATOM     43  C   UNL A   1      42.428  26.539  28.545  1.00  0.00     0.074 A 
ATOM     44  C   UNL A   1      42.127  28.801  27.598  1.00  0.00     0.049 A 
ATOM     45  N   UNL A   1      42.421  25.853  27.428  1.00  0.00    -0.248 NA
ATOM     46  C   UNL A   1      43.020  25.659  29.610  1.00  0.00     0.031 C 
ATOM     47  C   UNL A   1      42.772  28.418  26.350  1.00  0.00     0.029 A 
ATOM     48  N   UNL A   1      42.149  30.185  27.569  1.00  0.00    -0.354 N 
ATOM     49  C   UNL A   1      42.790  24.535  27.645  1.00  0.00     0.074 A 
ATOM     50  C   UNL A   1      43.029  24.431  29.064  1.00  0.00     0.031 C 
ATOM     51  C   UNL A   1      43.401  29.487  25.841  1.00  0.00     0.029 A 
ATOM     52  C   UNL A   1      43.291  30.540  26.824  1.00  0.00     0.049 A 
ATOM     53  H   UNL A   1      41.499  30.798  27.983  1.00  0.00     0.167 HD
ATOM     54  C   UNL A   1      43.470  23.802  26.716  1.00  0.00     0.034 A 
ATOM     55  C   UNL A   1      44.301  31.127  27.522  1.00  0.00     0.034 A 
ATOM     56  C   UNL A   1      44.409  24.661  26.032  1.00  0.00     0.049 A 
ATOM     57  C   UNL A   1      45.467  30.153  27.703  1.00  0.00     0.074 A 
ATOM     58  C   UNL A   1      44.435  25.433  24.894  1.00  0.00     0.029 A 
ATOM     59  N   UNL A   1      45.474  25.071  26.800  1.00  0.00    -0.354 N 
ATOM     60  N   UNL A   1      45.508  28.940  27.202  1.00  0.00    -0.248 NA
ATOM     61  C   UNL A   1      46.674  30.448  28.467  1.00  0.00     0.031 C 
ATOM     62  C   UNL A   1      45.405  26.472  25.131  1.00  0.00     0.029 A 
ATOM     63  C   UNL A   1      45.992  26.272  26.376  1.00  0.00     0.049 A 
ATOM     64  H   UNL A   1      45.826  24.563  27.567  1.00  0.00     0.167 HD
ATOM     65  C   UNL A   1      46.643  28.286  27.593  1.00  0.00     0.074 A 
ATOM     66  C   UNL A   1      47.342  29.281  28.396  1.00  0.00     0.031 C 
ATOM     67  C   UNL A   1      46.922  26.983  27.260  1.00  0.00     0.034 A 
BRANCH  54  68
ATOM     68  C   UNL A   1      43.402  22.300  26.562  1.00  0.00     0.023 A 
ATOM     69  C   UNL A   1      44.421  21.640  25.839  1.00  0.00     0.031 A 
ATOM     70  C   UNL A   1      42.296  21.500  26.930  1.00  0.00     0.131 A 
ATOM     71  C   UNL A   1      44.304  20.283  25.470  1.00  0.00     0.055 A 
ATOM     72  C   UNL A   1      42.193  20.141  26.582  1.00  0.00     0.041 A 
ATOM     73  F   UNL A   1      41.265  22.010  27.620  1.00  0.00    -0.206 F 
ATOM     74  C   UNL A   1      43.191  19.528  25.834  1.00  0.00     0.022 A 
BRANCH  71  75
ATOM     75  S   UNL A   1      45.593  19.540  24.426  1.00  0.00     0.124 S 
ATOM     76  O   UNL A   1      45.818  18.255  25.081  1.00  0.00    -0.237 OA
ATOM     77  O   UNL A   1      44.946  19.493  23.120  1.00  0.00    -0.237 OA
ATOM     78  O   UNL A   1      46.706  20.484  24.529  1.00  0.00    -0.744 OA
ENDBRANCH  71  75
ENDBRANCH  54  68
BRANCH  55  79
ATOM     79  C   UNL A   1      43.693  32.157  28.461  1.00  0.00     0.023 A 
ATOM     80  C   UNL A   1      43.530  31.723  29.815  1.00  0.00     0.031 A 
ATOM     81  C   UNL A   1      43.754  33.540  28.254  1.00  0.00     0.131 A 
ATOM     82  C   UNL A   1      43.679  32.616  30.889  1.00  0.00     0.055 A 
ATOM     83  C   UNL A   1      43.753  34.445  29.339  1.00  0.00     0.041 A 
ATOM     84  F   UNL A   1      44.003  34.041  27.035  1.00  0.00    -0.206 F 
ATOM     85  C   UNL A   1      43.789  33.982  30.657  1.00  0.00     0.022 A 
BRANCH  82  86
ATOM     86  S   UNL A   1      44.072  31.961  32.550  1.00  0.00     0.124 S 
ATOM     87  O   UNL A   1      45.335  32.628  32.846  1.00  0.00    -0.237 OA
ATOM     88  O   UNL A   1      42.924  32.379  33.351  1.00  0.00    -0.237 OA
ATOM     89  O   UNL A   1      44.148  30.517  32.335  1.00  0.00    -0.744 OA
ENDBRANCH  82  86
ENDBRANCH  55  79
BRANCH  67  90
ATOM     90  C   UNL A   1      48.147  26.276  27.803  1.00  0.00     0.023 A 
ATOM     91  C   UNL A   1      49.293  26.139  27.016  1.00  0.00     0.031 A 
ATOM     92  C   UNL A   1      48.211  25.699  29.096  1.00  0.00     0.131 A 
ATOM     93  C   UNL A   1      50.455  25.554  27.545  1.00  0.00     0.055 A 
ATOM     94  C   UNL A   1      49.313  24.975  29.555  1.00  0.00     0.041 A 
ATOM     95  F   UNL A   1      47.238  25.876  30.001  1.00  0.00    -0.206 F 
ATOM     96  C   UNL A   1      50.460  24.919  28.785  1.00  0.00     0.022 A 
BRANCH  93  97
ATOM     97  S   UNL A   1      52.007  25.813  26.657  1.00  0.00     0.124 S 
ATOM     98  O   UNL A   1      52.940  26.145  27.728  1.00  0.00    -0.237 OA
ATOM     99  O   UNL A   1      52.199  24.505  26.034  1.00  0.00    -0.237 OA
ATOM    100  O   UNL A   1      51.698  26.901  25.733  1.00  0.00    -0.744 OA
ENDBRANCH  93  97
ENDBRANCH  67  90
ENDBRANCH  41  42
ENDBRANCH  34  36
ENDBRANCH  33  34
ENDBRANCH  32  33
ENDBRANCH  31  32
ENDBRANCH  30  31
ENDBRANCH  29  30
ENDBRANCH   1  29
TORSDOF 25
ENDMDL
