MODEL 1
REMARK VINA RESULT:     -10.1      0.000      0.000
REMARK SMILES CC(C)CCN(C(=O)N[C@H](C(=O)OCCOCCOCCOC(=O)c1ccc(-c2c3nc(c(-c4cc(S(=O)(=O)[O-])ccc4F)c4ccc([nH]4)c(-c4cc(S(=O)(=O)[O-])ccc4F)c4nc(c(-c5cc(S(=O)(=O)[O-])ccc5F)c5ccc2[nH]5)C=C4)C=C3)cc1)[C@H](C)O)C1CCCC1
REMARK SMILES IDX 17 1 16 2 15 3 14 4 13 5 11 6 12 7 10 8 9 9 7 10 8 11 6 13
REMARK SMILES IDX 5 14 4 15 2 16 1 17 3 18 91 19 92 20 95 21 93 22 94 23 88 24
REMARK SMILES IDX 89 25 90 26 18 28 19 29 20 30 21 31 22 32 23 33 24 34 25 35
REMARK SMILES IDX 26 36 87 37 27 38 86 39 28 40 29 41 30 42 80 43 31 44 85 45
REMARK SMILES IDX 79 46 81 47 32 48 84 49 78 50 77 51 33 53 65 54 45 55 64 56
REMARK SMILES IDX 46 57 49 58 63 59 82 60 47 61 48 62 62 64 83 65 50 66 34 67
REMARK SMILES IDX 35 68 43 69 36 70 42 71 44 72 41 73 37 74 38 75 39 76 40 77
REMARK SMILES IDX 66 78 67 79 75 80 68 81 74 82 76 83 73 84 69 85 70 86 71 87
REMARK SMILES IDX 72 88 51 89 52 90 60 91 53 92 59 93 61 94 58 95 54 96 55 97
REMARK SMILES IDX 56 98 57 99
REMARK H PARENT 9 12 90 27 81 52 49 63
REMARK Flexibility Score: inf
ROOT
ATOM      1  C   UNL A   1      33.448  27.607  22.452  1.00  0.00     0.188 C 
ENDROOT
BRANCH   1   2
ATOM      2  O   UNL A   1      33.656  26.611  21.478  1.00  0.00    -0.376 OA
BRANCH   2   3
ATOM      3  C   UNL A   1      32.934  25.394  21.513  1.00  0.00     0.202 C 
BRANCH   3   4
ATOM      4  C   UNL A   1      33.184  24.223  22.483  1.00  0.00     0.261 C 
BRANCH   4   5
ATOM      5  O   UNL A   1      34.522  24.038  22.931  1.00  0.00    -0.462 OA
BRANCH   5   6
ATOM      6  C   UNL A   1      34.861  24.521  24.160  1.00  0.00     0.331 C 
ATOM      7  O   UNL A   1      34.400  25.531  24.671  1.00  0.00    -0.250 OA
BRANCH   6   8
ATOM      8  C   UNL A   1      35.907  23.594  24.788  1.00  0.00     0.222 C 
BRANCH   8   9
ATOM      9  N   UNL A   1      35.367  23.034  26.009  1.00  0.00    -0.322 N 
ATOM     10  C   UNL A   1      34.306  22.288  26.328  1.00  0.00     0.318 C 
ATOM     11  O   UNL A   1      34.395  21.844  27.479  1.00  0.00    -0.249 OA
ATOM     12  H   UNL A   1      35.916  23.258  26.795  1.00  0.00     0.166 HD
BRANCH  10  13
ATOM     13  N   UNL A   1      33.228  22.014  25.515  1.00  0.00    -0.322 N 
BRANCH  13  14
ATOM     14  C   UNL A   1      31.871  22.606  25.464  1.00  0.00     0.122 C 
BRANCH  14  15
ATOM     15  C   UNL A   1      31.596  23.755  26.471  1.00  0.00     0.024 C 
BRANCH  15  16
ATOM     16  C   UNL A   1      31.053  25.094  25.900  1.00  0.00    -0.016 C 
ATOM     17  C   UNL A   1      29.554  25.299  26.143  1.00  0.00     0.007 C 
ATOM     18  C   UNL A   1      31.812  26.292  26.482  1.00  0.00     0.007 C 
ENDBRANCH  15  16
ENDBRANCH  14  15
ENDBRANCH  13  14
BRANCH  13  19
ATOM     19  C   UNL A   1      33.344  20.802  24.698  1.00  0.00     0.087 C 
ATOM     20  C   UNL A   1      34.424  19.806  25.109  1.00  0.00     0.025 C 
ATOM     21  C   UNL A   1      32.073  19.972  24.547  1.00  0.00     0.025 C 
ATOM     22  C   UNL A   1      34.075  18.564  24.298  1.00  0.00     0.002 C 
ATOM     23  C   UNL A   1      32.577  18.647  23.984  1.00  0.00     0.002 C 
ENDBRANCH  13  19
ENDBRANCH  10  13
ENDBRANCH   8   9
BRANCH   8  24
ATOM     24  C   UNL A   1      36.515  22.534  23.843  1.00  0.00     0.145 C 
ATOM     25  C   UNL A   1      37.487  21.523  24.426  1.00  0.00     0.041 C 
BRANCH  24  26
ATOM     26  O   UNL A   1      37.143  23.187  22.729  1.00  0.00    -0.391 OA
ATOM     27  H   UNL A   1      37.092  22.615  21.949  1.00  0.00     0.211 HD
ENDBRANCH  24  26
ENDBRANCH   8  24
ENDBRANCH   6   8
ENDBRANCH   5   6
ENDBRANCH   4   5
ENDBRANCH   3   4
ENDBRANCH   2   3
ENDBRANCH   1   2
BRANCH   1  28
ATOM     28  C   UNL A   1      31.981  28.004  22.729  1.00  0.00     0.188 C 
BRANCH  28  29
ATOM     29  O   UNL A   1      31.706  29.251  23.327  1.00  0.00    -0.376 OA
BRANCH  29  30
ATOM     30  C   UNL A   1      31.225  29.286  24.660  1.00  0.00     0.202 C 
BRANCH  30  31
ATOM     31  C   UNL A   1      31.693  30.308  25.720  1.00  0.00     0.261 C 
BRANCH  31  32
ATOM     32  O   UNL A   1      33.035  30.203  26.217  1.00  0.00    -0.460 OA
BRANCH  32  33
ATOM     33  C   UNL A   1      33.427  31.189  27.065  1.00  0.00     0.338 C 
ATOM     34  O   UNL A   1      32.722  32.087  27.508  1.00  0.00    -0.246 OA
BRANCH  33  35
ATOM     35  C   UNL A   1      34.796  30.917  27.560  1.00  0.00     0.060 A 
ATOM     36  C   UNL A   1      35.193  29.584  27.753  1.00  0.00     0.016 A 
ATOM     37  C   UNL A   1      35.667  31.960  27.877  1.00  0.00     0.016 A 
ATOM     38  C   UNL A   1      36.443  29.293  28.309  1.00  0.00     0.010 A 
ATOM     39  C   UNL A   1      36.909  31.667  28.457  1.00  0.00     0.010 A 
ATOM     40  C   UNL A   1      37.286  30.335  28.715  1.00  0.00    -0.014 A 
BRANCH  40  41
ATOM     41  C   UNL A   1      38.434  30.048  29.621  1.00  0.00     0.031 A 
ATOM     42  C   UNL A   1      39.461  29.042  29.164  1.00  0.00     0.074 A 
ATOM     43  C   UNL A   1      38.585  30.667  30.807  1.00  0.00     0.049 A 
ATOM     44  N   UNL A   1      40.503  28.566  29.794  1.00  0.00    -0.248 NA
ATOM     45  C   UNL A   1      39.278  28.497  27.808  1.00  0.00     0.031 C 
ATOM     46  C   UNL A   1      37.702  31.703  31.339  1.00  0.00     0.029 A 
ATOM     47  N   UNL A   1      39.539  30.506  31.784  1.00  0.00    -0.354 N 
ATOM     48  C   UNL A   1      41.093  27.658  28.919  1.00  0.00     0.074 A 
ATOM     49  C   UNL A   1      40.273  27.629  27.728  1.00  0.00     0.031 C 
ATOM     50  C   UNL A   1      38.153  32.080  32.550  1.00  0.00     0.029 A 
ATOM     51  C   UNL A   1      39.328  31.281  32.902  1.00  0.00     0.049 A 
ATOM     52  H   UNL A   1      40.304  29.893  31.692  1.00  0.00     0.167 HD
ATOM     53  C   UNL A   1      42.217  26.919  29.092  1.00  0.00     0.034 A 
ATOM     54  C   UNL A   1      39.988  31.319  34.080  1.00  0.00     0.034 A 
ATOM     55  C   UNL A   1      43.023  26.950  30.287  1.00  0.00     0.049 A 
ATOM     56  C   UNL A   1      41.182  30.408  34.286  1.00  0.00     0.074 A 
ATOM     57  C   UNL A   1      44.185  26.248  30.558  1.00  0.00     0.029 A 
ATOM     58  N   UNL A   1      42.748  27.710  31.415  1.00  0.00    -0.354 N 
ATOM     59  N   UNL A   1      41.731  29.556  33.451  1.00  0.00    -0.248 NA
ATOM     60  C   UNL A   1      41.850  30.472  35.595  1.00  0.00     0.031 C 
ATOM     61  C   UNL A   1      44.563  26.516  31.876  1.00  0.00     0.029 A 
ATOM     62  C   UNL A   1      43.697  27.465  32.396  1.00  0.00     0.049 A 
ATOM     63  H   UNL A   1      41.990  28.333  31.507  1.00  0.00     0.167 HD
ATOM     64  C   UNL A   1      42.836  29.026  34.117  1.00  0.00     0.074 A 
ATOM     65  C   UNL A   1      42.879  29.659  35.417  1.00  0.00     0.031 C 
ATOM     66  C   UNL A   1      43.740  28.107  33.689  1.00  0.00     0.034 A 
BRANCH  53  67
ATOM     67  C   UNL A   1      42.603  25.968  27.986  1.00  0.00     0.023 A 
ATOM     68  C   UNL A   1      41.987  24.713  27.831  1.00  0.00     0.031 A 
ATOM     69  C   UNL A   1      43.616  26.321  27.077  1.00  0.00     0.131 A 
ATOM     70  C   UNL A   1      42.430  23.837  26.827  1.00  0.00     0.055 A 
ATOM     71  C   UNL A   1      43.995  25.478  26.031  1.00  0.00     0.041 A 
ATOM     72  F   UNL A   1      44.260  27.494  27.192  1.00  0.00    -0.206 F 
ATOM     73  C   UNL A   1      43.409  24.222  25.910  1.00  0.00     0.022 A 
BRANCH  70  74
ATOM     74  S   UNL A   1      41.803  22.134  26.822  1.00  0.00     0.124 S 
ATOM     75  O   UNL A   1      40.400  22.336  27.177  1.00  0.00    -0.237 OA
ATOM     76  O   UNL A   1      42.061  21.708  25.452  1.00  0.00    -0.237 OA
ATOM     77  O   UNL A   1      42.608  21.471  27.845  1.00  0.00    -0.744 OA
ENDBRANCH  70  74
ENDBRANCH  53  67
BRANCH  54  78
ATOM     78  C   UNL A   1      39.530  32.207  35.193  1.00  0.00     0.023 A 
ATOM     79  C   UNL A   1      38.879  31.681  36.322  1.00  0.00     0.031 A 
ATOM     80  C   UNL A   1      39.639  33.607  35.094  1.00  0.00     0.131 A 
ATOM     81  C   UNL A   1      38.302  32.546  37.267  1.00  0.00     0.055 A 
ATOM     82  C   UNL A   1      39.125  34.461  36.072  1.00  0.00     0.041 A 
ATOM     83  F   UNL A   1      40.239  34.169  34.032  1.00  0.00    -0.206 F 
ATOM     84  C   UNL A   1      38.435  33.932  37.158  1.00  0.00     0.022 A 
BRANCH  81  85
ATOM     85  S   UNL A   1      37.256  31.837  38.570  1.00  0.00     0.124 S 
ATOM     86  O   UNL A   1      37.080  30.470  38.094  1.00  0.00    -0.237 OA
ATOM     87  O   UNL A   1      38.094  32.002  39.753  1.00  0.00    -0.237 OA
ATOM     88  O   UNL A   1      36.057  32.671  38.535  1.00  0.00    -0.744 OA
ENDBRANCH  81  85
ENDBRANCH  54  78
BRANCH  66  89
ATOM     89  C   UNL A   1      44.904  27.792  34.602  1.00  0.00     0.023 A 
ATOM     90  C   UNL A   1      44.925  26.657  35.432  1.00  0.00     0.031 A 
ATOM     91  C   UNL A   1      46.018  28.654  34.639  1.00  0.00     0.131 A 
ATOM     92  C   UNL A   1      46.004  26.448  36.306  1.00  0.00     0.055 A 
ATOM     93  C   UNL A   1      47.119  28.403  35.458  1.00  0.00     0.041 A 
ATOM     94  F   UNL A   1      46.056  29.755  33.872  1.00  0.00    -0.206 F 
ATOM     95  C   UNL A   1      47.109  27.303  36.310  1.00  0.00     0.022 A 
BRANCH  92  96
ATOM     96  S   UNL A   1      45.898  25.103  37.518  1.00  0.00     0.124 S 
ATOM     97  O   UNL A   1      47.299  24.726  37.677  1.00  0.00    -0.237 OA
ATOM     98  O   UNL A   1      45.282  25.763  38.664  1.00  0.00    -0.237 OA
ATOM     99  O   UNL A   1      45.060  24.106  36.854  1.00  0.00    -0.744 OA
ENDBRANCH  92  96
ENDBRANCH  66  89
ENDBRANCH  40  41
ENDBRANCH  33  35
ENDBRANCH  32  33
ENDBRANCH  31  32
ENDBRANCH  30  31
ENDBRANCH  29  30
ENDBRANCH  28  29
ENDBRANCH   1  28
TORSDOF 28
ENDMDL
MODEL 2
REMARK VINA RESULT:      -9.7      2.410      7.509
REMARK SMILES CC(C)CCN(C(=O)N[C@H](C(=O)OCCOCCOCCOC(=O)c1ccc(-c2c3nc(c(-c4cc(S(=O)(=O)[O-])ccc4F)c4ccc([nH]4)c(-c4cc(S(=O)(=O)[O-])ccc4F)c4nc(c(-c5cc(S(=O)(=O)[O-])ccc5F)c5ccc2[nH]5)C=C4)C=C3)cc1)[C@H](C)O)C1CCCC1
REMARK SMILES IDX 17 1 16 2 15 3 14 4 13 5 11 6 12 7 10 8 9 9 7 10 8 11 6 13
REMARK SMILES IDX 5 14 4 15 2 16 1 17 3 18 91 19 92 20 95 21 93 22 94 23 88 24
REMARK SMILES IDX 89 25 90 26 18 28 19 29 20 30 21 31 22 32 23 33 24 34 25 35
REMARK SMILES IDX 26 36 87 37 27 38 86 39 28 40 29 41 30 42 80 43 31 44 85 45
REMARK SMILES IDX 79 46 81 47 32 48 84 49 78 50 77 51 33 53 65 54 45 55 64 56
REMARK SMILES IDX 46 57 49 58 63 59 82 60 47 61 48 62 62 64 83 65 50 66 34 67
REMARK SMILES IDX 35 68 43 69 36 70 42 71 44 72 41 73 37 74 38 75 39 76 40 77
REMARK SMILES IDX 66 78 67 79 75 80 68 81 74 82 76 83 73 84 69 85 70 86 71 87
REMARK SMILES IDX 72 88 51 89 52 90 60 91 53 92 59 93 61 94 58 95 54 96 55 97
REMARK SMILES IDX 56 98 57 99
REMARK H PARENT 9 12 90 27 81 52 49 63
REMARK Flexibility Score: inf
ROOT
ATOM      1  C   UNL A   1      33.804  27.642  22.338  1.00  0.00     0.188 C 
ENDROOT
BRANCH   1   2
ATOM      2  O   UNL A   1      33.622  26.740  21.272  1.00  0.00    -0.376 OA
BRANCH   2   3
ATOM      3  C   UNL A   1      32.853  25.562  21.435  1.00  0.00     0.202 C 
BRANCH   3   4
ATOM      4  C   UNL A   1      33.073  24.482  22.512  1.00  0.00     0.261 C 
BRANCH   4   5
ATOM      5  O   UNL A   1      34.417  24.243  22.914  1.00  0.00    -0.462 OA
BRANCH   5   6
ATOM      6  C   UNL A   1      34.790  24.617  24.171  1.00  0.00     0.331 C 
ATOM      7  O   UNL A   1      34.443  25.647  24.730  1.00  0.00    -0.250 OA
BRANCH   6   8
ATOM      8  C   UNL A   1      35.708  23.542  24.760  1.00  0.00     0.222 C 
BRANCH   8   9
ATOM      9  N   UNL A   1      35.079  22.979  25.936  1.00  0.00    -0.322 N 
ATOM     10  C   UNL A   1      34.016  22.203  26.171  1.00  0.00     0.318 C 
ATOM     11  O   UNL A   1      34.016  21.776  27.332  1.00  0.00    -0.249 OA
ATOM     12  H   UNL A   1      35.549  23.229  26.764  1.00  0.00     0.166 HD
BRANCH  10  13
ATOM     13  N   UNL A   1      33.024  21.886  25.271  1.00  0.00    -0.322 N 
BRANCH  13  14
ATOM     14  C   UNL A   1      31.711  22.519  25.005  1.00  0.00     0.122 C 
BRANCH  14  15
ATOM     15  C   UNL A   1      31.185  23.476  26.108  1.00  0.00     0.024 C 
BRANCH  15  16
ATOM     16  C   UNL A   1      31.150  24.994  25.782  1.00  0.00    -0.016 C 
ATOM     17  C   UNL A   1      29.757  25.617  25.923  1.00  0.00     0.007 C 
ATOM     18  C   UNL A   1      32.126  25.774  26.671  1.00  0.00     0.007 C 
ENDBRANCH  15  16
ENDBRANCH  14  15
ENDBRANCH  13  14
BRANCH  13  19
ATOM     19  C   UNL A   1      33.172  20.593  24.596  1.00  0.00     0.087 C 
ATOM     20  C   UNL A   1      32.888  19.351  25.436  1.00  0.00     0.025 C 
ATOM     21  C   UNL A   1      32.355  20.405  23.321  1.00  0.00     0.025 C 
ATOM     22  C   UNL A   1      32.811  18.240  24.396  1.00  0.00     0.002 C 
ATOM     23  C   UNL A   1      32.427  18.903  23.069  1.00  0.00     0.002 C 
ENDBRANCH  13  19
ENDBRANCH  10  13
ENDBRANCH   8   9
BRANCH   8  24
ATOM     24  C   UNL A   1      36.212  22.473  23.763  1.00  0.00     0.145 C 
ATOM     25  C   UNL A   1      37.012  21.303  24.307  1.00  0.00     0.041 C 
BRANCH  24  26
ATOM     26  O   UNL A   1      36.970  23.108  22.723  1.00  0.00    -0.391 OA
ATOM     27  H   UNL A   1      37.818  23.412  23.081  1.00  0.00     0.211 HD
ENDBRANCH  24  26
ENDBRANCH   8  24
ENDBRANCH   6   8
ENDBRANCH   5   6
ENDBRANCH   4   5
ENDBRANCH   3   4
ENDBRANCH   2   3
ENDBRANCH   1   2
BRANCH   1  28
ATOM     28  C   UNL A   1      32.526  28.296  22.912  1.00  0.00     0.188 C 
BRANCH  28  29
ATOM     29  O   UNL A   1      32.650  29.369  23.818  1.00  0.00    -0.376 OA
BRANCH  29  30
ATOM     30  C   UNL A   1      32.336  29.159  25.184  1.00  0.00     0.202 C 
BRANCH  30  31
ATOM     31  C   UNL A   1      32.753  30.116  26.323  1.00  0.00     0.261 C 
BRANCH  31  32
ATOM     32  O   UNL A   1      34.085  30.009  26.846  1.00  0.00    -0.460 OA
BRANCH  32  33
ATOM     33  C   UNL A   1      34.520  31.071  27.572  1.00  0.00     0.338 C 
ATOM     34  O   UNL A   1      33.935  32.137  27.717  1.00  0.00    -0.246 OA
BRANCH  33  35
ATOM     35  C   UNL A   1      35.722  30.695  28.350  1.00  0.00     0.060 A 
ATOM     36  C   UNL A   1      36.952  31.289  28.026  1.00  0.00     0.016 A 
ATOM     37  C   UNL A   1      35.654  29.732  29.358  1.00  0.00     0.016 A 
ATOM     38  C   UNL A   1      38.124  30.887  28.675  1.00  0.00     0.010 A 
ATOM     39  C   UNL A   1      36.833  29.313  29.990  1.00  0.00     0.010 A 
ATOM     40  C   UNL A   1      38.079  29.858  29.623  1.00  0.00    -0.014 A 
BRANCH  40  41
ATOM     41  C   UNL A   1      39.339  29.184  30.046  1.00  0.00     0.031 A 
ATOM     42  C   UNL A   1      40.052  29.719  31.263  1.00  0.00     0.074 A 
ATOM     43  C   UNL A   1      39.838  28.119  29.392  1.00  0.00     0.049 A 
ATOM     44  N   UNL A   1      41.195  29.361  31.787  1.00  0.00    -0.248 NA
ATOM     45  C   UNL A   1      39.379  30.815  31.981  1.00  0.00     0.031 C 
ATOM     46  C   UNL A   1      39.217  27.463  28.243  1.00  0.00     0.029 A 
ATOM     47  N   UNL A   1      40.992  27.401  29.603  1.00  0.00    -0.354 N 
ATOM     48  C   UNL A   1      41.386  30.192  32.886  1.00  0.00     0.074 A 
ATOM     49  C   UNL A   1      40.254  31.093  32.933  1.00  0.00     0.031 C 
ATOM     50  C   UNL A   1      40.001  26.445  27.845  1.00  0.00     0.029 A 
ATOM     51  C   UNL A   1      41.203  26.402  28.679  1.00  0.00     0.049 A 
ATOM     52  H   UNL A   1      41.611  27.585  30.346  1.00  0.00     0.167 HD
ATOM     53  C   UNL A   1      42.408  30.202  33.777  1.00  0.00     0.034 A 
ATOM     54  C   UNL A   1      42.255  25.571  28.511  1.00  0.00     0.034 A 
ATOM     55  C   UNL A   1      43.536  29.305  33.717  1.00  0.00     0.049 A 
ATOM     56  C   UNL A   1      43.433  25.670  29.461  1.00  0.00     0.074 A 
ATOM     57  C   UNL A   1      44.618  29.227  34.576  1.00  0.00     0.029 A 
ATOM     58  N   UNL A   1      43.736  28.341  32.739  1.00  0.00    -0.354 N 
ATOM     59  N   UNL A   1      43.599  26.460  30.497  1.00  0.00    -0.248 NA
ATOM     60  C   UNL A   1      44.561  24.760  29.218  1.00  0.00     0.031 C 
ATOM     61  C   UNL A   1      45.512  28.279  34.071  1.00  0.00     0.029 A 
ATOM     62  C   UNL A   1      44.942  27.691  32.953  1.00  0.00     0.049 A 
ATOM     63  H   UNL A   1      43.114  28.147  32.000  1.00  0.00     0.167 HD
ATOM     64  C   UNL A   1      44.825  26.099  31.057  1.00  0.00     0.074 A 
ATOM     65  C   UNL A   1      45.350  25.021  30.249  1.00  0.00     0.031 C 
ATOM     66  C   UNL A   1      45.456  26.608  32.148  1.00  0.00     0.034 A 
BRANCH  53  67
ATOM     67  C   UNL A   1      42.383  31.258  34.856  1.00  0.00     0.023 A 
ATOM     68  C   UNL A   1      42.932  32.538  34.661  1.00  0.00     0.031 A 
ATOM     69  C   UNL A   1      41.808  30.972  36.107  1.00  0.00     0.131 A 
ATOM     70  C   UNL A   1      42.945  33.461  35.718  1.00  0.00     0.055 A 
ATOM     71  C   UNL A   1      41.751  31.922  37.127  1.00  0.00     0.041 A 
ATOM     72  F   UNL A   1      41.293  29.758  36.361  1.00  0.00    -0.206 F 
ATOM     73  C   UNL A   1      42.334  33.172  36.940  1.00  0.00     0.022 A 
BRANCH  70  74
ATOM     74  S   UNL A   1      43.892  34.996  35.521  1.00  0.00     0.124 S 
ATOM     75  O   UNL A   1      44.063  35.052  34.071  1.00  0.00    -0.237 OA
ATOM     76  O   UNL A   1      43.000  35.993  36.099  1.00  0.00    -0.237 OA
ATOM     77  O   UNL A   1      45.117  34.741  36.275  1.00  0.00    -0.744 OA
ENDBRANCH  70  74
ENDBRANCH  53  67
BRANCH  54  78
ATOM     78  C   UNL A   1      42.293  24.594  27.379  1.00  0.00     0.023 A 
ATOM     79  C   UNL A   1      41.601  23.373  27.448  1.00  0.00     0.031 A 
ATOM     80  C   UNL A   1      43.111  24.819  26.256  1.00  0.00     0.131 A 
ATOM     81  C   UNL A   1      41.793  22.399  26.455  1.00  0.00     0.055 A 
ATOM     82  C   UNL A   1      43.243  23.875  25.235  1.00  0.00     0.041 A 
ATOM     83  F   UNL A   1      43.807  25.961  26.139  1.00  0.00    -0.206 F 
ATOM     84  C   UNL A   1      42.597  22.648  25.340  1.00  0.00     0.022 A 
BRANCH  81  85
ATOM     85  S   UNL A   1      41.085  20.747  26.708  1.00  0.00     0.124 S 
ATOM     86  O   UNL A   1      39.799  20.871  26.032  1.00  0.00    -0.237 OA
ATOM     87  O   UNL A   1      42.073  19.892  26.058  1.00  0.00    -0.237 OA
ATOM     88  O   UNL A   1      41.018  20.625  28.163  1.00  0.00    -0.744 OA
ENDBRANCH  81  85
ENDBRANCH  54  78
BRANCH  66  89
ATOM     89  C   UNL A   1      46.745  25.947  32.583  1.00  0.00     0.023 A 
ATOM     90  C   UNL A   1      46.776  24.902  33.523  1.00  0.00     0.031 A 
ATOM     91  C   UNL A   1      47.971  26.381  32.042  1.00  0.00     0.131 A 
ATOM     92  C   UNL A   1      48.007  24.368  33.937  1.00  0.00     0.055 A 
ATOM     93  C   UNL A   1      49.185  25.798  32.405  1.00  0.00     0.041 A 
ATOM     94  F   UNL A   1      48.007  27.377  31.143  1.00  0.00    -0.206 F 
ATOM     95  C   UNL A   1      49.209  24.796  33.370  1.00  0.00     0.022 A 
BRANCH  92  96
ATOM     96  S   UNL A   1      48.027  23.180  35.308  1.00  0.00     0.124 S 
ATOM     97  O   UNL A   1      47.108  22.152  34.833  1.00  0.00    -0.237 OA
ATOM     98  O   UNL A   1      49.434  22.798  35.369  1.00  0.00    -0.237 OA
ATOM     99  O   UNL A   1      47.548  23.961  36.447  1.00  0.00    -0.744 OA
ENDBRANCH  92  96
ENDBRANCH  66  89
ENDBRANCH  40  41
ENDBRANCH  33  35
ENDBRANCH  32  33
ENDBRANCH  31  32
ENDBRANCH  30  31
ENDBRANCH  29  30
ENDBRANCH  28  29
ENDBRANCH   1  28
TORSDOF 28
ENDMDL
MODEL 3
REMARK VINA RESULT:      -8.9      2.994      8.063
REMARK SMILES CC(C)CCN(C(=O)N[C@H](C(=O)OCCOCCOCCOC(=O)c1ccc(-c2c3nc(c(-c4cc(S(=O)(=O)[O-])ccc4F)c4ccc([nH]4)c(-c4cc(S(=O)(=O)[O-])ccc4F)c4nc(c(-c5cc(S(=O)(=O)[O-])ccc5F)c5ccc2[nH]5)C=C4)C=C3)cc1)[C@H](C)O)C1CCCC1
REMARK SMILES IDX 17 1 16 2 15 3 14 4 13 5 11 6 12 7 10 8 9 9 7 10 8 11 6 13
REMARK SMILES IDX 5 14 4 15 2 16 1 17 3 18 91 19 92 20 95 21 93 22 94 23 88 24
REMARK SMILES IDX 89 25 90 26 18 28 19 29 20 30 21 31 22 32 23 33 24 34 25 35
REMARK SMILES IDX 26 36 87 37 27 38 86 39 28 40 29 41 30 42 80 43 31 44 85 45
REMARK SMILES IDX 79 46 81 47 32 48 84 49 78 50 77 51 33 53 65 54 45 55 64 56
REMARK SMILES IDX 46 57 49 58 63 59 82 60 47 61 48 62 62 64 83 65 50 66 34 67
REMARK SMILES IDX 35 68 43 69 36 70 42 71 44 72 41 73 37 74 38 75 39 76 40 77
REMARK SMILES IDX 66 78 67 79 75 80 68 81 74 82 76 83 73 84 69 85 70 86 71 87
REMARK SMILES IDX 72 88 51 89 52 90 60 91 53 92 59 93 61 94 58 95 54 96 55 97
REMARK SMILES IDX 56 98 57 99
REMARK H PARENT 9 12 90 27 81 52 49 63
REMARK Flexibility Score: inf
ROOT
ATOM      1  C   UNL A   1      32.601  27.591  22.411  1.00  0.00     0.188 C 
ENDROOT
BRANCH   1   2
ATOM      2  O   UNL A   1      31.916  26.589  21.698  1.00  0.00    -0.376 OA
BRANCH   2   3
ATOM      3  C   UNL A   1      32.357  25.243  21.723  1.00  0.00     0.202 C 
BRANCH   3   4
ATOM      4  C   UNL A   1      32.019  24.202  22.807  1.00  0.00     0.261 C 
BRANCH   4   5
ATOM      5  O   UNL A   1      31.357  24.682  23.971  1.00  0.00    -0.462 OA
BRANCH   5   6
ATOM      6  C   UNL A   1      31.098  23.796  24.975  1.00  0.00     0.331 C 
ATOM      7  O   UNL A   1      30.559  22.709  24.832  1.00  0.00    -0.250 OA
BRANCH   6   8
ATOM      8  C   UNL A   1      31.591  24.386  26.300  1.00  0.00     0.222 C 
BRANCH   8   9
ATOM      9  N   UNL A   1      32.289  23.358  27.042  1.00  0.00    -0.322 N 
ATOM     10  C   UNL A   1      33.242  22.463  26.767  1.00  0.00     0.318 C 
ATOM     11  O   UNL A   1      33.699  21.956  27.798  1.00  0.00    -0.249 OA
ATOM     12  H   UNL A   1      31.987  23.306  27.978  1.00  0.00     0.166 HD
BRANCH  10  13
ATOM     13  N   UNL A   1      33.697  22.116  25.514  1.00  0.00    -0.322 N 
BRANCH  13  14
ATOM     14  C   UNL A   1      33.210  21.107  24.545  1.00  0.00     0.122 C 
BRANCH  14  15
ATOM     15  C   UNL A   1      33.539  19.629  24.884  1.00  0.00     0.024 C 
BRANCH  15  16
ATOM     16  C   UNL A   1      32.511  18.548  24.451  1.00  0.00    -0.016 C 
ATOM     17  C   UNL A   1      32.736  18.026  23.028  1.00  0.00     0.007 C 
ATOM     18  C   UNL A   1      32.521  17.357  25.416  1.00  0.00     0.007 C 
ENDBRANCH  15  16
ENDBRANCH  14  15
ENDBRANCH  13  14
BRANCH  13  19
ATOM     19  C   UNL A   1      35.000  22.674  25.138  1.00  0.00     0.087 C 
ATOM     20  C   UNL A   1      36.231  21.924  25.638  1.00  0.00     0.025 C 
ATOM     21  C   UNL A   1      35.236  22.875  23.644  1.00  0.00     0.025 C 
ATOM     22  C   UNL A   1      37.365  22.544  24.831  1.00  0.00     0.002 C 
ATOM     23  C   UNL A   1      36.741  23.103  23.548  1.00  0.00     0.002 C 
ENDBRANCH  13  19
ENDBRANCH  10  13
ENDBRANCH   8   9
BRANCH   8  24
ATOM     24  C   UNL A   1      32.384  25.708  26.190  1.00  0.00     0.145 C 
ATOM     25  C   UNL A   1      33.884  25.630  25.958  1.00  0.00     0.041 C 
BRANCH  24  26
ATOM     26  O   UNL A   1      32.138  26.514  27.351  1.00  0.00    -0.391 OA
ATOM     27  H   UNL A   1      32.736  27.277  27.348  1.00  0.00     0.211 HD
ENDBRANCH  24  26
ENDBRANCH   8  24
ENDBRANCH   6   8
ENDBRANCH   5   6
ENDBRANCH   4   5
ENDBRANCH   3   4
ENDBRANCH   2   3
ENDBRANCH   1   2
BRANCH   1  28
ATOM     28  C   UNL A   1      31.805  28.314  23.521  1.00  0.00     0.188 C 
BRANCH  28  29
ATOM     29  O   UNL A   1      32.427  29.347  24.253  1.00  0.00    -0.376 OA
BRANCH  29  30
ATOM     30  C   UNL A   1      32.302  29.365  25.664  1.00  0.00     0.202 C 
BRANCH  30  31
ATOM     31  C   UNL A   1      32.894  30.467  26.569  1.00  0.00     0.261 C 
BRANCH  31  32
ATOM     32  O   UNL A   1      34.171  30.230  27.181  1.00  0.00    -0.460 OA
BRANCH  32  33
ATOM     33  C   UNL A   1      34.727  31.294  27.815  1.00  0.00     0.338 C 
ATOM     34  O   UNL A   1      34.248  32.418  27.900  1.00  0.00    -0.246 OA
BRANCH  33  35
ATOM     35  C   UNL A   1      35.916  30.860  28.584  1.00  0.00     0.060 A 
ATOM     36  C   UNL A   1      37.143  31.501  28.352  1.00  0.00     0.016 A 
ATOM     37  C   UNL A   1      35.840  29.802  29.491  1.00  0.00     0.016 A 
ATOM     38  C   UNL A   1      38.305  31.055  28.988  1.00  0.00     0.010 A 
ATOM     39  C   UNL A   1      37.010  29.340  30.109  1.00  0.00     0.010 A 
ATOM     40  C   UNL A   1      38.255  29.936  29.830  1.00  0.00    -0.014 A 
BRANCH  40  41
ATOM     41  C   UNL A   1      39.516  29.243  30.217  1.00  0.00     0.031 A 
ATOM     42  C   UNL A   1      40.253  29.746  31.433  1.00  0.00     0.074 A 
ATOM     43  C   UNL A   1      39.995  28.188  29.532  1.00  0.00     0.049 A 
ATOM     44  N   UNL A   1      41.402  29.366  31.931  1.00  0.00    -0.248 NA
ATOM     45  C   UNL A   1      39.602  30.831  32.186  1.00  0.00     0.031 C 
ATOM     46  C   UNL A   1      39.349  27.563  28.380  1.00  0.00     0.029 A 
ATOM     47  N   UNL A   1      41.146  27.456  29.708  1.00  0.00    -0.354 N 
ATOM     48  C   UNL A   1      41.618  30.172  33.045  1.00  0.00     0.074 A 
ATOM     49  C   UNL A   1      40.495  31.081  33.130  1.00  0.00     0.031 C 
ATOM     50  C   UNL A   1      40.118  26.547  27.947  1.00  0.00     0.029 A 
ATOM     51  C   UNL A   1      41.333  26.475  28.760  1.00  0.00     0.049 A 
ATOM     52  H   UNL A   1      41.778  27.618  30.445  1.00  0.00     0.167 HD
ATOM     53  C   UNL A   1      42.654  30.153  33.919  1.00  0.00     0.034 A 
ATOM     54  C   UNL A   1      42.374  25.639  28.557  1.00  0.00     0.034 A 
ATOM     55  C   UNL A   1      43.773  29.249  33.821  1.00  0.00     0.049 A 
ATOM     56  C   UNL A   1      43.568  25.708  29.489  1.00  0.00     0.074 A 
ATOM     57  C   UNL A   1      44.868  29.143  34.660  1.00  0.00     0.029 A 
ATOM     58  N   UNL A   1      43.948  28.305  32.818  1.00  0.00    -0.354 N 
ATOM     59  N   UNL A   1      43.759  26.473  30.540  1.00  0.00    -0.248 NA
ATOM     60  C   UNL A   1      44.684  24.793  29.208  1.00  0.00     0.031 C 
ATOM     61  C   UNL A   1      45.745  28.199  34.120  1.00  0.00     0.029 A 
ATOM     62  C   UNL A   1      45.152  27.640  32.999  1.00  0.00     0.049 A 
ATOM     63  H   UNL A   1      43.313  28.132  32.087  1.00  0.00     0.167 HD
ATOM     64  C   UNL A   1      44.990  26.090  31.072  1.00  0.00     0.074 A 
ATOM     65  C   UNL A   1      45.492  25.026  30.232  1.00  0.00     0.031 C 
ATOM     66  C   UNL A   1      45.643  26.570  32.162  1.00  0.00     0.034 A 
BRANCH  53  67
ATOM     67  C   UNL A   1      42.656  31.186  35.020  1.00  0.00     0.023 A 
ATOM     68  C   UNL A   1      43.170  32.481  34.829  1.00  0.00     0.031 A 
ATOM     69  C   UNL A   1      42.144  30.862  36.289  1.00  0.00     0.131 A 
ATOM     70  C   UNL A   1      43.211  33.382  35.905  1.00  0.00     0.055 A 
ATOM     71  C   UNL A   1      42.113  31.789  37.331  1.00  0.00     0.041 A 
ATOM     72  F   UNL A   1      41.666  29.632  36.539  1.00  0.00    -0.206 F 
ATOM     73  C   UNL A   1      42.661  33.054  37.145  1.00  0.00     0.022 A 
BRANCH  70  74
ATOM     74  S   UNL A   1      44.117  34.940  35.699  1.00  0.00     0.124 S 
ATOM     75  O   UNL A   1      45.323  34.686  36.483  1.00  0.00    -0.237 OA
ATOM     76  O   UNL A   1      44.297  35.012  34.254  1.00  0.00    -0.237 OA
ATOM     77  O   UNL A   1      43.213  35.939  36.266  1.00  0.00    -0.744 OA
ENDBRANCH  70  74
ENDBRANCH  53  67
BRANCH  54  78
ATOM     78  C   UNL A   1      42.385  24.687  27.404  1.00  0.00     0.023 A 
ATOM     79  C   UNL A   1      41.768  23.428  27.494  1.00  0.00     0.031 A 
ATOM     80  C   UNL A   1      43.108  24.978  26.231  1.00  0.00     0.131 A 
ATOM     81  C   UNL A   1      41.942  22.485  26.468  1.00  0.00     0.055 A 
ATOM     82  C   UNL A   1      43.219  24.062  25.183  1.00  0.00     0.041 A 
ATOM     83  F   UNL A   1      43.731  26.159  26.092  1.00  0.00    -0.206 F 
ATOM     84  C   UNL A   1      42.650  22.799  25.306  1.00  0.00     0.022 A 
BRANCH  81  85
ATOM     85  S   UNL A   1      41.345  20.791  26.733  1.00  0.00     0.124 S 
ATOM     86  O   UNL A   1      39.907  21.002  26.857  1.00  0.00    -0.237 OA
ATOM     87  O   UNL A   1      41.793  20.119  25.518  1.00  0.00    -0.237 OA
ATOM     88  O   UNL A   1      42.025  20.379  27.960  1.00  0.00    -0.744 OA
ENDBRANCH  81  85
ENDBRANCH  54  78
BRANCH  66  89
ATOM     89  C   UNL A   1      46.933  25.889  32.562  1.00  0.00     0.023 A 
ATOM     90  C   UNL A   1      48.151  26.137  31.905  1.00  0.00     0.031 A 
ATOM     91  C   UNL A   1      46.936  24.966  33.626  1.00  0.00     0.131 A 
ATOM     92  C   UNL A   1      49.305  25.428  32.277  1.00  0.00     0.055 A 
ATOM     93  C   UNL A   1      48.101  24.319  34.038  1.00  0.00     0.041 A 
ATOM     94  F   UNL A   1      45.805  24.684  34.291  1.00  0.00    -0.206 F 
ATOM     95  C   UNL A   1      49.292  24.536  33.352  1.00  0.00     0.022 A 
BRANCH  92  96
ATOM     96  S   UNL A   1      50.802  25.607  31.269  1.00  0.00     0.124 S 
ATOM     97  O   UNL A   1      51.124  27.019  31.450  1.00  0.00    -0.237 OA
ATOM     98  O   UNL A   1      51.717  24.660  31.898  1.00  0.00    -0.237 OA
ATOM     99  O   UNL A   1      50.359  25.240  29.926  1.00  0.00    -0.744 OA
ENDBRANCH  92  96
ENDBRANCH  66  89
ENDBRANCH  40  41
ENDBRANCH  33  35
ENDBRANCH  32  33
ENDBRANCH  31  32
ENDBRANCH  30  31
ENDBRANCH  29  30
ENDBRANCH  28  29
ENDBRANCH   1  28
TORSDOF 28
ENDMDL
