MODEL 1
REMARK VINA RESULT:     -10.7      0.000      0.000
REMARK SMILES O=C(OCCOCCOCCOC(=O)[C@]1(CCc2cccnc2)CCC[NH2+]C1)c1ccc(-c2c3nc(c(-c4cc(S(=O)(=O)[O-])ccc4F)c4ccc([nH]4)c(-c4cc(S(=O)(=O)[O-])ccc4F)c4nc(c(-c5cc(S(=O)(=O)[O-])ccc5F)c5ccc2[nH]5)C=C4)C=C3)cc1
REMARK SMILES IDX 7 1 6 2 5 3 4 4 3 5 2 6 1 7 29 8 30 9 91 10 31 11 90 12
REMARK SMILES IDX 32 13 33 14 34 15 84 16 35 17 89 18 83 19 85 20 36 21 88 22
REMARK SMILES IDX 82 23 81 24 37 26 69 27 49 28 68 29 50 30 53 31 67 32 86 33
REMARK SMILES IDX 51 34 52 35 66 37 87 38 54 39 38 40 39 41 47 42 40 43 46 44
REMARK SMILES IDX 48 45 45 46 41 47 42 48 43 49 44 50 70 51 71 52 79 53 72 54
REMARK SMILES IDX 78 55 80 56 77 57 73 58 74 59 75 60 76 61 55 62 56 63 64 64
REMARK SMILES IDX 57 65 63 66 65 67 62 68 58 69 59 70 60 71 61 72 8 73 9 74
REMARK SMILES IDX 10 75 11 76 12 77 13 78 14 79 15 80 24 81 28 82 25 83 27 84
REMARK SMILES IDX 26 85 16 88 17 89 18 90 19 91 23 92 20 93 22 94 21 95
REMARK H PARENT 85 25 53 36 27 86 27 87
REMARK Flexibility Score: inf
ROOT
ATOM      1  C   UNL A   1      32.564  27.285  25.690  1.00  0.00     0.188 C 
ENDROOT
BRANCH   1   2
ATOM      2  O   UNL A   1      33.114  28.467  26.254  1.00  0.00    -0.376 OA
BRANCH   2   3
ATOM      3  C   UNL A   1      32.898  29.673  25.540  1.00  0.00     0.202 C 
BRANCH   3   4
ATOM      4  C   UNL A   1      32.299  30.804  26.384  1.00  0.00     0.261 C 
BRANCH   4   5
ATOM      5  O   UNL A   1      32.932  30.926  27.670  1.00  0.00    -0.460 OA
BRANCH   5   6
ATOM      6  C   UNL A   1      34.011  31.681  28.003  1.00  0.00     0.338 C 
ATOM      7  O   UNL A   1      33.857  32.900  28.074  1.00  0.00    -0.246 OA
BRANCH   6   8
ATOM      8  C   UNL A   1      35.414  31.145  28.131  1.00  0.00     0.060 A 
ATOM      9  C   UNL A   1      35.793  29.805  28.067  1.00  0.00     0.016 A 
ATOM     10  C   UNL A   1      36.440  32.094  28.333  1.00  0.00     0.016 A 
ATOM     11  C   UNL A   1      37.115  29.408  28.249  1.00  0.00     0.010 A 
ATOM     12  C   UNL A   1      37.775  31.706  28.533  1.00  0.00     0.010 A 
ATOM     13  C   UNL A   1      38.100  30.349  28.542  1.00  0.00    -0.014 A 
BRANCH  13  14
ATOM     14  C   UNL A   1      39.348  29.824  29.139  1.00  0.00     0.031 A 
ATOM     15  C   UNL A   1      39.679  30.287  30.528  1.00  0.00     0.074 A 
ATOM     16  C   UNL A   1      40.019  28.816  28.558  1.00  0.00     0.049 A 
ATOM     17  N   UNL A   1      40.567  29.829  31.367  1.00  0.00    -0.248 NA
ATOM     18  C   UNL A   1      38.867  31.398  31.052  1.00  0.00     0.031 C 
ATOM     19  C   UNL A   1      39.695  28.250  27.252  1.00  0.00     0.029 A 
ATOM     20  N   UNL A   1      41.069  28.055  28.999  1.00  0.00    -0.354 N 
ATOM     21  C   UNL A   1      40.405  30.580  32.526  1.00  0.00     0.074 A 
ATOM     22  C   UNL A   1      39.357  31.541  32.270  1.00  0.00     0.031 C 
ATOM     23  C   UNL A   1      40.504  27.204  27.011  1.00  0.00     0.029 A 
ATOM     24  C   UNL A   1      41.421  27.044  28.135  1.00  0.00     0.049 A 
ATOM     25  H   UNL A   1      41.528  28.217  29.855  1.00  0.00     0.167 HD
ATOM     26  C   UNL A   1      41.075  30.474  33.699  1.00  0.00     0.034 A 
ATOM     27  C   UNL A   1      42.377  26.097  28.250  1.00  0.00     0.034 A 
ATOM     28  C   UNL A   1      42.163  29.554  33.895  1.00  0.00     0.049 A 
ATOM     29  C   UNL A   1      43.187  26.074  29.525  1.00  0.00     0.074 A 
ATOM     30  C   UNL A   1      43.012  29.429  34.980  1.00  0.00     0.029 A 
ATOM     31  N   UNL A   1      42.568  28.607  32.959  1.00  0.00    -0.354 N 
ATOM     32  N   UNL A   1      43.055  26.820  30.600  1.00  0.00    -0.248 NA
ATOM     33  C   UNL A   1      44.267  25.085  29.605  1.00  0.00     0.031 C 
ATOM     34  C   UNL A   1      43.965  28.449  34.673  1.00  0.00     0.029 A 
ATOM     35  C   UNL A   1      43.669  27.911  33.428  1.00  0.00     0.049 A 
ATOM     36  H   UNL A   1      42.134  28.453  32.089  1.00  0.00     0.167 HD
ATOM     37  C   UNL A   1      44.027  26.376  31.492  1.00  0.00     0.074 A 
ATOM     38  C   UNL A   1      44.713  25.280  30.837  1.00  0.00     0.031 C 
ATOM     39  C   UNL A   1      44.333  26.831  32.736  1.00  0.00     0.034 A 
BRANCH  26  40
ATOM     40  C   UNL A   1      40.700  31.467  34.771  1.00  0.00     0.023 A 
ATOM     41  C   UNL A   1      39.733  31.168  35.749  1.00  0.00     0.031 A 
ATOM     42  C   UNL A   1      41.213  32.773  34.728  1.00  0.00     0.131 A 
ATOM     43  C   UNL A   1      39.243  32.187  36.581  1.00  0.00     0.055 A 
ATOM     44  C   UNL A   1      40.779  33.764  35.611  1.00  0.00     0.041 A 
ATOM     45  F   UNL A   1      42.109  33.125  33.793  1.00  0.00    -0.206 F 
ATOM     46  C   UNL A   1      39.774  33.479  36.532  1.00  0.00     0.022 A 
BRANCH  43  47
ATOM     47  S   UNL A   1      37.777  31.852  37.599  1.00  0.00     0.124 S 
ATOM     48  O   UNL A   1      36.816  32.812  37.057  1.00  0.00    -0.237 OA
ATOM     49  O   UNL A   1      37.507  30.448  37.311  1.00  0.00    -0.237 OA
ATOM     50  O   UNL A   1      38.230  32.135  38.958  1.00  0.00    -0.744 OA
ENDBRANCH  43  47
ENDBRANCH  26  40
BRANCH  27  51
ATOM     51  C   UNL A   1      42.641  25.130  27.141  1.00  0.00     0.023 A 
ATOM     52  C   UNL A   1      42.096  23.834  27.143  1.00  0.00     0.031 A 
ATOM     53  C   UNL A   1      43.496  25.474  26.076  1.00  0.00     0.131 A 
ATOM     54  C   UNL A   1      42.441  22.924  26.128  1.00  0.00     0.055 A 
ATOM     55  C   UNL A   1      43.794  24.584  25.043  1.00  0.00     0.041 A 
ATOM     56  F   UNL A   1      44.054  26.694  26.020  1.00  0.00    -0.206 F 
ATOM     57  C   UNL A   1      43.275  23.295  25.071  1.00  0.00     0.022 A 
BRANCH  54  58
ATOM     58  S   UNL A   1      41.856  21.208  26.251  1.00  0.00     0.124 S 
ATOM     59  O   UNL A   1      40.482  21.327  25.778  1.00  0.00    -0.237 OA
ATOM     60  O   UNL A   1      42.783  20.511  25.367  1.00  0.00    -0.237 OA
ATOM     61  O   UNL A   1      42.002  20.901  27.672  1.00  0.00    -0.744 OA
ENDBRANCH  54  58
ENDBRANCH  27  51
BRANCH  39  62
ATOM     62  C   UNL A   1      45.442  26.111  33.461  1.00  0.00     0.023 A 
ATOM     63  C   UNL A   1      45.177  25.029  34.317  1.00  0.00     0.031 A 
ATOM     64  C   UNL A   1      46.775  26.525  33.302  1.00  0.00     0.131 A 
ATOM     65  C   UNL A   1      46.226  24.438  35.034  1.00  0.00     0.055 A 
ATOM     66  C   UNL A   1      47.822  25.894  33.972  1.00  0.00     0.041 A 
ATOM     67  F   UNL A   1      47.079  27.554  32.493  1.00  0.00    -0.206 F 
ATOM     68  C   UNL A   1      47.549  24.853  34.856  1.00  0.00     0.022 A 
BRANCH  65  69
ATOM     69  S   UNL A   1      45.825  23.186  36.282  1.00  0.00     0.124 S 
ATOM     70  O   UNL A   1      45.287  22.103  35.464  1.00  0.00    -0.237 OA
ATOM     71  O   UNL A   1      47.123  22.933  36.899  1.00  0.00    -0.237 OA
ATOM     72  O   UNL A   1      44.851  23.857  37.141  1.00  0.00    -0.744 OA
ENDBRANCH  65  69
ENDBRANCH  39  62
ENDBRANCH  13  14
ENDBRANCH   6   8
ENDBRANCH   5   6
ENDBRANCH   4   5
ENDBRANCH   3   4
ENDBRANCH   2   3
ENDBRANCH   1   2
BRANCH   1  73
ATOM     73  C   UNL A   1      31.037  27.187  25.626  1.00  0.00     0.188 C 
BRANCH  73  74
ATOM     74  O   UNL A   1      30.440  25.984  25.156  1.00  0.00    -0.376 OA
BRANCH  74  75
ATOM     75  C   UNL A   1      29.731  25.187  26.099  1.00  0.00     0.202 C 
BRANCH  75  76
ATOM     76  C   UNL A   1      30.388  23.868  26.506  1.00  0.00     0.261 C 
BRANCH  76  77
ATOM     77  O   UNL A   1      31.778  23.818  26.147  1.00  0.00    -0.463 OA
BRANCH  77  78
ATOM     78  C   UNL A   1      32.528  22.886  26.800  1.00  0.00     0.317 C 
ATOM     79  O   UNL A   1      32.488  22.710  28.007  1.00  0.00    -0.251 OA
BRANCH  78  80
ATOM     80  C   UNL A   1      33.440  22.081  25.851  1.00  0.00     0.117 C 
ATOM     81  C   UNL A   1      34.908  22.258  26.318  1.00  0.00     0.030 C 
ATOM     82  C   UNL A   1      33.340  22.649  24.411  1.00  0.00     0.279 C 
ATOM     83  C   UNL A   1      35.413  23.691  26.114  1.00  0.00     0.063 C 
ATOM     84  N   UNL A   1      33.785  24.038  24.307  1.00  0.00    -0.345 N 
ATOM     85  C   UNL A   1      35.189  24.178  24.687  1.00  0.00     0.260 C 
ATOM     86  H   UNL A   1      33.669  24.354  23.345  1.00  0.00     0.346 HD
ATOM     87  H   UNL A   1      33.223  24.603  24.944  1.00  0.00     0.346 HD
BRANCH  80  88
ATOM     88  C   UNL A   1      33.053  20.569  25.783  1.00  0.00     0.029 C 
BRANCH  88  89
ATOM     89  C   UNL A   1      33.134  19.834  24.433  1.00  0.00     0.038 C 
BRANCH  89  90
ATOM     90  C   UNL A   1      33.234  18.340  24.556  1.00  0.00    -0.030 A 
ATOM     91  C   UNL A   1      32.821  17.676  25.709  1.00  0.00     0.007 A 
ATOM     92  C   UNL A   1      33.702  17.556  23.503  1.00  0.00     0.114 A 
ATOM     93  C   UNL A   1      32.814  16.285  25.746  1.00  0.00     0.020 A 
ATOM     94  N   UNL A   1      33.733  16.203  23.518  1.00  0.00    -0.264 NA
ATOM     95  C   UNL A   1      33.270  15.599  24.634  1.00  0.00     0.111 A 
ENDBRANCH  89  90
ENDBRANCH  88  89
ENDBRANCH  80  88
ENDBRANCH  78  80
ENDBRANCH  77  78
ENDBRANCH  76  77
ENDBRANCH  75  76
ENDBRANCH  74  75
ENDBRANCH  73  74
ENDBRANCH   1  73
TORSDOF 23
ENDMDL
MODEL 2
REMARK VINA RESULT:     -10.5      2.129      2.813
REMARK SMILES O=C(OCCOCCOCCOC(=O)[C@]1(CCc2cccnc2)CCC[NH2+]C1)c1ccc(-c2c3nc(c(-c4cc(S(=O)(=O)[O-])ccc4F)c4ccc([nH]4)c(-c4cc(S(=O)(=O)[O-])ccc4F)c4nc(c(-c5cc(S(=O)(=O)[O-])ccc5F)c5ccc2[nH]5)C=C4)C=C3)cc1
REMARK SMILES IDX 7 1 6 2 5 3 4 4 3 5 2 6 1 7 29 8 30 9 91 10 31 11 90 12
REMARK SMILES IDX 32 13 33 14 34 15 84 16 35 17 89 18 83 19 85 20 36 21 88 22
REMARK SMILES IDX 82 23 81 24 37 26 69 27 49 28 68 29 50 30 53 31 67 32 86 33
REMARK SMILES IDX 51 34 52 35 66 37 87 38 54 39 38 40 39 41 47 42 40 43 46 44
REMARK SMILES IDX 48 45 45 46 41 47 42 48 43 49 44 50 70 51 71 52 79 53 72 54
REMARK SMILES IDX 78 55 80 56 77 57 73 58 74 59 75 60 76 61 55 62 56 63 64 64
REMARK SMILES IDX 57 65 63 66 65 67 62 68 58 69 59 70 60 71 61 72 8 73 9 74
REMARK SMILES IDX 10 75 11 76 12 77 13 78 14 79 15 80 24 81 28 82 25 83 27 84
REMARK SMILES IDX 26 85 16 88 17 89 18 90 19 91 23 92 20 93 22 94 21 95
REMARK H PARENT 85 25 53 36 27 86 27 87
REMARK Flexibility Score: inf
ROOT
ATOM      1  C   UNL A   1      31.544  29.379  24.483  1.00  0.00     0.188 C 
ENDROOT
BRANCH   1   2
ATOM      2  O   UNL A   1      31.408  30.380  25.482  1.00  0.00    -0.376 OA
BRANCH   2   3
ATOM      3  C   UNL A   1      32.177  30.210  26.663  1.00  0.00     0.202 C 
BRANCH   3   4
ATOM      4  C   UNL A   1      32.749  31.512  27.233  1.00  0.00     0.261 C 
BRANCH   4   5
ATOM      5  O   UNL A   1      33.823  31.281  28.162  1.00  0.00    -0.460 OA
BRANCH   5   6
ATOM      6  C   UNL A   1      35.136  31.593  28.015  1.00  0.00     0.338 C 
ATOM      7  O   UNL A   1      35.414  32.670  27.487  1.00  0.00    -0.246 OA
BRANCH   6   8
ATOM      8  C   UNL A   1      36.271  30.644  28.306  1.00  0.00     0.060 A 
ATOM      9  C   UNL A   1      36.336  29.736  29.362  1.00  0.00     0.016 A 
ATOM     10  C   UNL A   1      37.370  30.679  27.419  1.00  0.00     0.016 A 
ATOM     11  C   UNL A   1      37.456  28.936  29.572  1.00  0.00     0.010 A 
ATOM     12  C   UNL A   1      38.512  29.889  27.629  1.00  0.00     0.010 A 
ATOM     13  C   UNL A   1      38.571  29.052  28.744  1.00  0.00    -0.014 A 
BRANCH  13  14
ATOM     14  C   UNL A   1      39.840  28.511  29.279  1.00  0.00     0.031 A 
ATOM     15  C   UNL A   1      40.289  29.035  30.611  1.00  0.00     0.074 A 
ATOM     16  C   UNL A   1      40.429  27.446  28.709  1.00  0.00     0.049 A 
ATOM     17  N   UNL A   1      41.220  28.589  31.409  1.00  0.00    -0.248 NA
ATOM     18  C   UNL A   1      39.559  30.204  31.128  1.00  0.00     0.031 C 
ATOM     19  C   UNL A   1      39.990  26.824  27.465  1.00  0.00     0.029 A 
ATOM     20  N   UNL A   1      41.481  26.670  29.117  1.00  0.00    -0.354 N 
ATOM     21  C   UNL A   1      41.171  29.407  32.531  1.00  0.00     0.074 A 
ATOM     22  C   UNL A   1      40.142  30.394  32.297  1.00  0.00     0.031 C 
ATOM     23  C   UNL A   1      40.740  25.735  27.226  1.00  0.00     0.029 A 
ATOM     24  C   UNL A   1      41.732  25.599  28.289  1.00  0.00     0.049 A 
ATOM     25  H   UNL A   1      42.008  26.859  29.927  1.00  0.00     0.167 HD
ATOM     26  C   UNL A   1      41.923  29.340  33.657  1.00  0.00     0.034 A 
ATOM     27  C   UNL A   1      42.659  24.623  28.389  1.00  0.00     0.034 A 
ATOM     28  C   UNL A   1      42.989  28.389  33.827  1.00  0.00     0.049 A 
ATOM     29  C   UNL A   1      43.560  24.637  29.601  1.00  0.00     0.074 A 
ATOM     30  C   UNL A   1      43.910  28.289  34.853  1.00  0.00     0.029 A 
ATOM     31  N   UNL A   1      43.289  27.376  32.920  1.00  0.00    -0.354 N 
ATOM     32  N   UNL A   1      43.536  25.446  30.639  1.00  0.00    -0.248 NA
ATOM     33  C   UNL A   1      44.607  23.612  29.660  1.00  0.00     0.031 C 
ATOM     34  C   UNL A   1      44.803  27.257  34.535  1.00  0.00     0.029 A 
ATOM     35  C   UNL A   1      44.396  26.663  33.348  1.00  0.00     0.049 A 
ATOM     36  H   UNL A   1      42.786  27.193  32.094  1.00  0.00     0.167 HD
ATOM     37  C   UNL A   1      44.554  25.013  31.483  1.00  0.00     0.074 A 
ATOM     38  C   UNL A   1      45.151  23.856  30.844  1.00  0.00     0.031 C 
ATOM     39  C   UNL A   1      44.968  25.522  32.673  1.00  0.00     0.034 A 
BRANCH  26  40
ATOM     40  C   UNL A   1      41.665  30.403  34.695  1.00  0.00     0.023 A 
ATOM     41  C   UNL A   1      40.480  30.421  35.456  1.00  0.00     0.031 A 
ATOM     42  C   UNL A   1      42.548  31.487  34.823  1.00  0.00     0.131 A 
ATOM     43  C   UNL A   1      40.170  31.546  36.238  1.00  0.00     0.055 A 
ATOM     44  C   UNL A   1      42.271  32.567  35.665  1.00  0.00     0.041 A 
ATOM     45  F   UNL A   1      43.673  31.542  34.095  1.00  0.00    -0.206 F 
ATOM     46  C   UNL A   1      41.067  32.609  36.363  1.00  0.00     0.022 A 
BRANCH  43  47
ATOM     47  S   UNL A   1      38.502  31.683  36.942  1.00  0.00     0.124 S 
ATOM     48  O   UNL A   1      38.041  30.298  36.881  1.00  0.00    -0.237 OA
ATOM     49  O   UNL A   1      38.764  32.212  38.275  1.00  0.00    -0.237 OA
ATOM     50  O   UNL A   1      37.819  32.599  36.031  1.00  0.00    -0.744 OA
ENDBRANCH  43  47
ENDBRANCH  26  40
BRANCH  27  51
ATOM     51  C   UNL A   1      42.806  23.587  27.321  1.00  0.00     0.023 A 
ATOM     52  C   UNL A   1      42.160  22.341  27.405  1.00  0.00     0.031 A 
ATOM     53  C   UNL A   1      43.646  23.810  26.213  1.00  0.00     0.131 A 
ATOM     54  C   UNL A   1      42.395  21.359  26.425  1.00  0.00     0.055 A 
ATOM     55  C   UNL A   1      43.835  22.853  25.216  1.00  0.00     0.041 A 
ATOM     56  F   UNL A   1      44.296  24.978  26.078  1.00  0.00    -0.206 F 
ATOM     57  C   UNL A   1      43.217  21.612  25.325  1.00  0.00     0.022 A 
BRANCH  54  58
ATOM     58  S   UNL A   1      41.681  19.704  26.652  1.00  0.00     0.124 S 
ATOM     59  O   UNL A   1      42.877  18.880  26.790  1.00  0.00    -0.237 OA
ATOM     60  O   UNL A   1      40.882  19.885  27.858  1.00  0.00    -0.237 OA
ATOM     61  O   UNL A   1      40.916  19.493  25.425  1.00  0.00    -0.744 OA
ENDBRANCH  54  58
ENDBRANCH  27  51
BRANCH  39  62
ATOM     62  C   UNL A   1      46.101  24.799  33.356  1.00  0.00     0.023 A 
ATOM     63  C   UNL A   1      45.871  23.676  34.169  1.00  0.00     0.031 A 
ATOM     64  C   UNL A   1      47.422  25.250  33.200  1.00  0.00     0.131 A 
ATOM     65  C   UNL A   1      46.941  23.082  34.851  1.00  0.00     0.055 A 
ATOM     66  C   UNL A   1      48.491  24.616  33.833  1.00  0.00     0.041 A 
ATOM     67  F   UNL A   1      47.694  26.318  32.432  1.00  0.00    -0.206 F 
ATOM     68  C   UNL A   1      48.252  23.534  34.676  1.00  0.00     0.022 A 
BRANCH  65  69
ATOM     69  S   UNL A   1      46.582  21.770  36.050  1.00  0.00     0.124 S 
ATOM     70  O   UNL A   1      46.429  20.603  35.187  1.00  0.00    -0.237 OA
ATOM     71  O   UNL A   1      47.772  21.786  36.895  1.00  0.00    -0.237 OA
ATOM     72  O   UNL A   1      45.355  22.226  36.701  1.00  0.00    -0.744 OA
ENDBRANCH  65  69
ENDBRANCH  39  62
ENDBRANCH  13  14
ENDBRANCH   6   8
ENDBRANCH   5   6
ENDBRANCH   4   5
ENDBRANCH   3   4
ENDBRANCH   2   3
ENDBRANCH   1   2
BRANCH   1  73
ATOM     73  C   UNL A   1      30.345  29.146  23.560  1.00  0.00     0.188 C 
BRANCH  73  74
ATOM     74  O   UNL A   1      30.310  27.974  22.754  1.00  0.00    -0.376 OA
BRANCH  74  75
ATOM     75  C   UNL A   1      29.398  26.946  23.124  1.00  0.00     0.202 C 
BRANCH  75  76
ATOM     76  C   UNL A   1      29.823  26.040  24.280  1.00  0.00     0.261 C 
BRANCH  76  77
ATOM     77  O   UNL A   1      31.242  25.817  24.303  1.00  0.00    -0.463 OA
BRANCH  77  78
ATOM     78  C   UNL A   1      31.658  24.595  23.865  1.00  0.00     0.317 C 
ATOM     79  O   UNL A   1      31.114  23.978  22.964  1.00  0.00    -0.251 OA
BRANCH  78  80
ATOM     80  C   UNL A   1      32.887  24.070  24.637  1.00  0.00     0.117 C 
ATOM     81  C   UNL A   1      32.699  22.550  24.879  1.00  0.00     0.030 C 
ATOM     82  C   UNL A   1      32.971  24.754  26.027  1.00  0.00     0.279 C 
ATOM     83  C   UNL A   1      31.554  22.255  25.855  1.00  0.00     0.063 C 
ATOM     84  N   UNL A   1      31.817  24.472  26.879  1.00  0.00    -0.345 N 
ATOM     85  C   UNL A   1      31.692  23.043  27.152  1.00  0.00     0.260 C 
ATOM     86  H   UNL A   1      31.925  24.970  27.762  1.00  0.00     0.346 HD
ATOM     87  H   UNL A   1      30.976  24.780  26.390  1.00  0.00     0.346 HD
BRANCH  80  88
ATOM     88  C   UNL A   1      34.231  24.357  23.894  1.00  0.00     0.029 C 
BRANCH  88  89
ATOM     89  C   UNL A   1      35.120  23.174  23.469  1.00  0.00     0.038 C 
BRANCH  89  90
ATOM     90  C   UNL A   1      36.317  22.962  24.352  1.00  0.00    -0.030 A 
ATOM     91  C   UNL A   1      36.714  23.921  25.282  1.00  0.00     0.007 A 
ATOM     92  C   UNL A   1      37.051  21.778  24.304  1.00  0.00     0.114 A 
ATOM     93  C   UNL A   1      37.753  23.644  26.166  1.00  0.00     0.020 A 
ATOM     94  N   UNL A   1      38.083  21.491  25.132  1.00  0.00    -0.264 NA
ATOM     95  C   UNL A   1      38.397  22.424  26.056  1.00  0.00     0.111 A 
ENDBRANCH  89  90
ENDBRANCH  88  89
ENDBRANCH  80  88
ENDBRANCH  78  80
ENDBRANCH  77  78
ENDBRANCH  76  77
ENDBRANCH  75  76
ENDBRANCH  74  75
ENDBRANCH  73  74
ENDBRANCH   1  73
TORSDOF 23
ENDMDL
MODEL 3
REMARK VINA RESULT:     -10.0      5.851     10.575
REMARK SMILES O=C(OCCOCCOCCOC(=O)[C@]1(CCc2cccnc2)CCC[NH2+]C1)c1ccc(-c2c3nc(c(-c4cc(S(=O)(=O)[O-])ccc4F)c4ccc([nH]4)c(-c4cc(S(=O)(=O)[O-])ccc4F)c4nc(c(-c5cc(S(=O)(=O)[O-])ccc5F)c5ccc2[nH]5)C=C4)C=C3)cc1
REMARK SMILES IDX 7 1 6 2 5 3 4 4 3 5 2 6 1 7 29 8 30 9 91 10 31 11 90 12
REMARK SMILES IDX 32 13 33 14 34 15 84 16 35 17 89 18 83 19 85 20 36 21 88 22
REMARK SMILES IDX 82 23 81 24 37 26 69 27 49 28 68 29 50 30 53 31 67 32 86 33
REMARK SMILES IDX 51 34 52 35 66 37 87 38 54 39 38 40 39 41 47 42 40 43 46 44
REMARK SMILES IDX 48 45 45 46 41 47 42 48 43 49 44 50 70 51 71 52 79 53 72 54
REMARK SMILES IDX 78 55 80 56 77 57 73 58 74 59 75 60 76 61 55 62 56 63 64 64
REMARK SMILES IDX 57 65 63 66 65 67 62 68 58 69 59 70 60 71 61 72 8 73 9 74
REMARK SMILES IDX 10 75 11 76 12 77 13 78 14 79 15 80 24 81 28 82 25 83 27 84
REMARK SMILES IDX 26 85 16 88 17 89 18 90 19 91 23 92 20 93 22 94 21 95
REMARK H PARENT 85 25 53 36 27 86 27 87
REMARK Flexibility Score: inf
ROOT
ATOM      1  C   UNL A   1      39.472  21.960  26.242  1.00  0.00     0.188 C 
ENDROOT
BRANCH   1   2
ATOM      2  O   UNL A   1      40.432  20.953  25.957  1.00  0.00    -0.376 OA
BRANCH   2   3
ATOM      3  C   UNL A   1      40.972  20.256  27.069  1.00  0.00     0.202 C 
BRANCH   3   4
ATOM      4  C   UNL A   1      42.188  19.386  26.735  1.00  0.00     0.261 C 
BRANCH   4   5
ATOM      5  O   UNL A   1      42.636  19.561  25.379  1.00  0.00    -0.460 OA
BRANCH   5   6
ATOM      6  C   UNL A   1      43.820  20.067  24.948  1.00  0.00     0.338 C 
ATOM      7  O   UNL A   1      44.584  19.308  24.352  1.00  0.00    -0.246 OA
BRANCH   6   8
ATOM      8  C   UNL A   1      44.328  21.444  25.291  1.00  0.00     0.060 A 
ATOM      9  C   UNL A   1      45.361  21.744  26.178  1.00  0.00     0.016 A 
ATOM     10  C   UNL A   1      43.695  22.532  24.650  1.00  0.00     0.016 A 
ATOM     11  C   UNL A   1      45.722  23.058  26.465  1.00  0.00     0.010 A 
ATOM     12  C   UNL A   1      44.038  23.862  24.943  1.00  0.00     0.010 A 
ATOM     13  C   UNL A   1      45.024  24.122  25.896  1.00  0.00    -0.014 A 
BRANCH  13  14
ATOM     14  C   UNL A   1      45.169  25.432  26.569  1.00  0.00     0.031 A 
ATOM     15  C   UNL A   1      46.510  26.098  26.466  1.00  0.00     0.074 A 
ATOM     16  C   UNL A   1      44.096  26.085  27.044  1.00  0.00     0.049 A 
ATOM     17  N   UNL A   1      46.854  27.323  26.756  1.00  0.00    -0.248 NA
ATOM     18  C   UNL A   1      47.604  25.275  25.924  1.00  0.00     0.031 C 
ATOM     19  C   UNL A   1      42.745  25.536  27.088  1.00  0.00     0.029 A 
ATOM     20  N   UNL A   1      43.955  27.358  27.529  1.00  0.00    -0.354 N 
ATOM     21  C   UNL A   1      48.196  27.423  26.411  1.00  0.00     0.074 A 
ATOM     22  C   UNL A   1      48.611  26.129  25.920  1.00  0.00     0.031 C 
ATOM     23  C   UNL A   1      41.899  26.479  27.538  1.00  0.00     0.029 A 
ATOM     24  C   UNL A   1      42.655  27.690  27.839  1.00  0.00     0.049 A 
ATOM     25  H   UNL A   1      44.712  27.977  27.645  1.00  0.00     0.167 HD
ATOM     26  C   UNL A   1      49.010  28.503  26.498  1.00  0.00     0.034 A 
ATOM     27  C   UNL A   1      42.144  28.848  28.309  1.00  0.00     0.034 A 
ATOM     28  C   UNL A   1      48.585  29.758  27.060  1.00  0.00     0.049 A 
ATOM     29  C   UNL A   1      43.097  30.004  28.505  1.00  0.00     0.074 A 
ATOM     30  C   UNL A   1      49.332  30.889  27.329  1.00  0.00     0.029 A 
ATOM     31  N   UNL A   1      47.281  30.033  27.464  1.00  0.00    -0.354 N 
ATOM     32  N   UNL A   1      44.379  30.075  28.217  1.00  0.00    -0.248 NA
ATOM     33  C   UNL A   1      42.540  31.231  29.083  1.00  0.00     0.031 C 
ATOM     34  C   UNL A   1      48.495  31.824  27.951  1.00  0.00     0.029 A 
ATOM     35  C   UNL A   1      47.208  31.307  28.003  1.00  0.00     0.049 A 
ATOM     36  H   UNL A   1      46.522  29.414  27.377  1.00  0.00     0.167 HD
ATOM     37  C   UNL A   1      44.776  31.363  28.563  1.00  0.00     0.074 A 
ATOM     38  C   UNL A   1      43.590  32.039  29.052  1.00  0.00     0.031 C 
ATOM     39  C   UNL A   1      46.005  31.939  28.493  1.00  0.00     0.034 A 
BRANCH  26  40
ATOM     40  C   UNL A   1      50.445  28.292  26.083  1.00  0.00     0.023 A 
ATOM     41  C   UNL A   1      50.866  28.490  24.754  1.00  0.00     0.031 A 
ATOM     42  C   UNL A   1      51.367  27.749  26.993  1.00  0.00     0.131 A 
ATOM     43  C   UNL A   1      52.143  28.062  24.355  1.00  0.00     0.055 A 
ATOM     44  C   UNL A   1      52.662  27.400  26.608  1.00  0.00     0.041 A 
ATOM     45  F   UNL A   1      51.008  27.503  28.263  1.00  0.00    -0.206 F 
ATOM     46  C   UNL A   1      53.051  27.537  25.278  1.00  0.00     0.022 A 
BRANCH  43  47
ATOM     47  S   UNL A   1      52.536  28.030  22.582  1.00  0.00     0.124 S 
ATOM     48  O   UNL A   1      51.557  28.974  22.046  1.00  0.00    -0.237 OA
ATOM     49  O   UNL A   1      53.926  28.469  22.559  1.00  0.00    -0.237 OA
ATOM     50  O   UNL A   1      52.314  26.636  22.207  1.00  0.00    -0.744 OA
ENDBRANCH  43  47
ENDBRANCH  26  40
BRANCH  27  51
ATOM     51  C   UNL A   1      40.694  28.967  28.653  1.00  0.00     0.023 A 
ATOM     52  C   UNL A   1      40.236  28.873  29.978  1.00  0.00     0.031 A 
ATOM     53  C   UNL A   1      39.727  29.129  27.641  1.00  0.00     0.131 A 
ATOM     54  C   UNL A   1      38.856  28.900  30.250  1.00  0.00     0.055 A 
ATOM     55  C   UNL A   1      38.362  29.209  27.921  1.00  0.00     0.041 A 
ATOM     56  F   UNL A   1      40.100  29.220  26.354  1.00  0.00    -0.206 F 
ATOM     57  C   UNL A   1      37.918  29.081  29.232  1.00  0.00     0.022 A 
BRANCH  54  58
ATOM     58  S   UNL A   1      38.291  28.604  31.951  1.00  0.00     0.124 S 
ATOM     59  O   UNL A   1      36.923  29.108  31.903  1.00  0.00    -0.237 OA
ATOM     60  O   UNL A   1      38.440  27.158  32.069  1.00  0.00    -0.237 OA
ATOM     61  O   UNL A   1      39.218  29.393  32.759  1.00  0.00    -0.744 OA
ENDBRANCH  54  58
ENDBRANCH  27  51
BRANCH  39  62
ATOM     62  C   UNL A   1      46.099  33.378  28.932  1.00  0.00     0.023 A 
ATOM     63  C   UNL A   1      45.894  34.436  28.030  1.00  0.00     0.031 A 
ATOM     64  C   UNL A   1      46.411  33.690  30.266  1.00  0.00     0.131 A 
ATOM     65  C   UNL A   1      46.070  35.758  28.459  1.00  0.00     0.055 A 
ATOM     66  C   UNL A   1      46.525  35.010  30.701  1.00  0.00     0.041 A 
ATOM     67  F   UNL A   1      46.614  32.715  31.166  1.00  0.00    -0.206 F 
ATOM     68  C   UNL A   1      46.368  36.054  29.792  1.00  0.00     0.022 A 
BRANCH  65  69
ATOM     69  S   UNL A   1      46.003  37.085  27.225  1.00  0.00     0.124 S 
ATOM     70  O   UNL A   1      46.662  38.183  27.924  1.00  0.00    -0.237 OA
ATOM     71  O   UNL A   1      46.743  36.508  26.106  1.00  0.00    -0.237 OA
ATOM     72  O   UNL A   1      44.571  37.266  26.993  1.00  0.00    -0.744 OA
ENDBRANCH  65  69
ENDBRANCH  39  62
ENDBRANCH  13  14
ENDBRANCH   6   8
ENDBRANCH   5   6
ENDBRANCH   4   5
ENDBRANCH   3   4
ENDBRANCH   2   3
ENDBRANCH   1   2
BRANCH   1  73
ATOM     73  C   UNL A   1      38.230  22.014  25.348  1.00  0.00     0.188 C 
BRANCH  73  74
ATOM     74  O   UNL A   1      36.954  21.750  25.920  1.00  0.00    -0.376 OA
BRANCH  74  75
ATOM     75  C   UNL A   1      36.047  22.841  26.042  1.00  0.00     0.202 C 
BRANCH  75  76
ATOM     76  C   UNL A   1      36.019  23.836  24.881  1.00  0.00     0.261 C 
BRANCH  76  77
ATOM     77  O   UNL A   1      34.680  24.188  24.498  1.00  0.00    -0.463 OA
BRANCH  77  78
ATOM     78  C   UNL A   1      34.114  23.410  23.534  1.00  0.00     0.317 C 
ATOM     79  O   UNL A   1      34.484  23.397  22.372  1.00  0.00    -0.251 OA
BRANCH  78  80
ATOM     80  C   UNL A   1      32.945  22.553  24.066  1.00  0.00     0.117 C 
ATOM     81  C   UNL A   1      31.734  22.735  23.116  1.00  0.00     0.030 C 
ATOM     82  C   UNL A   1      32.514  23.058  25.469  1.00  0.00     0.279 C 
ATOM     83  C   UNL A   1      31.152  24.152  23.182  1.00  0.00     0.063 C 
ATOM     84  N   UNL A   1      32.025  24.435  25.460  1.00  0.00    -0.345 N 
ATOM     85  C   UNL A   1      30.843  24.576  24.613  1.00  0.00     0.260 C 
ATOM     86  H   UNL A   1      31.784  24.709  26.412  1.00  0.00     0.346 HD
ATOM     87  H   UNL A   1      32.761  25.034  25.086  1.00  0.00     0.346 HD
BRANCH  80  88
ATOM     88  C   UNL A   1      33.324  21.044  24.209  1.00  0.00     0.029 C 
BRANCH  88  89
ATOM     89  C   UNL A   1      32.225  20.026  24.566  1.00  0.00     0.038 C 
BRANCH  89  90
ATOM     90  C   UNL A   1      32.686  18.597  24.543  1.00  0.00    -0.030 A 
ATOM     91  C   UNL A   1      33.159  18.003  23.374  1.00  0.00     0.007 A 
ATOM     92  C   UNL A   1      32.700  17.822  25.702  1.00  0.00     0.114 A 
ATOM     93  C   UNL A   1      33.689  16.717  23.413  1.00  0.00     0.020 A 
ATOM     94  N   UNL A   1      33.185  16.561  25.765  1.00  0.00    -0.264 NA
ATOM     95  C   UNL A   1      33.686  16.045  24.622  1.00  0.00     0.111 A 
ENDBRANCH  89  90
ENDBRANCH  88  89
ENDBRANCH  80  88
ENDBRANCH  78  80
ENDBRANCH  77  78
ENDBRANCH  76  77
ENDBRANCH  75  76
ENDBRANCH  74  75
ENDBRANCH  73  74
ENDBRANCH   1  73
TORSDOF 23
ENDMDL
