MODEL 1
REMARK VINA RESULT:      -9.2      0.000      0.000
REMARK SMILES Cc1c(NC(=O)[C@@H]2CC=CC[C@@H]2C(=O)OCCOCCOCCOC(=O)c2ccc(-c3c4nc(c(-c5cc(S(=O)(=O)[O-])ccc5F)c5ccc([nH]5)c(-c5cc(S(=O)(=O)[O-])ccc5F)c5nc(c(-c6cc(S(=O)(=O)[O-])ccc6F)c6ccc3[nH]6)C=C5)C=C4)cc2)cccc1C(=O)N1CCOCC1
REMARK SMILES IDX 19 1 18 2 17 3 16 4 15 5 13 6 14 7 12 8 7 9 8 10 9 11 11 12
REMARK SMILES IDX 10 13 5 14 4 15 6 17 3 18 1 19 2 20 93 21 90 22 92 23 91 24
REMARK SMILES IDX 94 25 95 26 96 27 97 28 101 29 98 30 100 31 99 32 20 33
REMARK SMILES IDX 21 34 22 35 23 36 24 37 25 38 26 39 27 40 28 41 89 42 29 43
REMARK SMILES IDX 88 44 30 45 31 46 32 47 82 48 33 49 87 50 81 51 83 52 34 53
REMARK SMILES IDX 86 54 80 55 79 56 35 58 67 59 47 60 66 61 48 62 51 63 65 64
REMARK SMILES IDX 84 65 49 66 50 67 64 69 85 70 52 71 36 72 37 73 45 74 38 75
REMARK SMILES IDX 44 76 46 77 43 78 39 79 40 80 41 81 42 82 68 83 69 84 77 85
REMARK SMILES IDX 70 86 76 87 78 88 75 89 71 90 72 91 73 92 74 93 53 94 54 95
REMARK SMILES IDX 62 96 55 97 61 98 63 99 60 100 56 101 57 102 58 103 59 104
REMARK H PARENT 4 16 83 57 51 68
REMARK Flexibility Score: inf
ROOT
ATOM      1  C   UNL A   1      43.974  23.560  31.213  1.00  0.00     0.188 C 
ENDROOT
BRANCH   1   2
ATOM      2  O   UNL A   1      43.583  23.035  32.501  1.00  0.00    -0.376 OA
BRANCH   2   3
ATOM      3  C   UNL A   1      44.226  23.372  33.748  1.00  0.00     0.202 C 
BRANCH   3   4
ATOM      4  C   UNL A   1      43.499  24.281  34.905  1.00  0.00     0.261 C 
BRANCH   4   5
ATOM      5  O   UNL A   1      43.924  25.785  35.759  1.00  0.00    -0.463 OA
BRANCH   5   6
ATOM      6  C   UNL A   1      43.355  26.932  36.427  1.00  0.00     0.310 C 
ATOM      7  O   UNL A   1      42.609  26.970  37.409  1.00  0.00    -0.252 OA
BRANCH   6   8
ATOM      8  C   UNL A   1      43.645  28.380  36.072  1.00  0.00     0.116 C 
ATOM      9  C   UNL A   1      43.014  28.925  34.835  1.00  0.00     0.097 C 
ATOM     10  C   UNL A   1      43.808  28.522  33.617  1.00  0.00     0.041 C 
ATOM     11  C   UNL A   1      45.248  28.950  33.798  1.00  0.00    -0.030 C 
ATOM     12  C   UNL A   1      45.090  28.857  36.289  1.00  0.00     0.043 C 
ATOM     13  C   UNL A   1      45.815  29.123  35.005  1.00  0.00    -0.030 C 
BRANCH   9  14
ATOM     14  C   UNL A   1      41.583  28.503  34.984  1.00  0.00     0.228 C 
ATOM     15  N   UNL A   1      40.933  29.215  35.999  1.00  0.00    -0.326 N 
ATOM     16  H   UNL A   1      40.867  28.890  36.926  1.00  0.00     0.169 HD
ATOM     17  O   UNL A   1      41.080  27.542  34.418  1.00  0.00    -0.274 OA
BRANCH  15  18
ATOM     18  C   UNL A   1      40.380  30.440  35.573  1.00  0.00     0.044 A 
ATOM     19  C   UNL A   1      41.932  31.464  37.241  1.00  0.00     0.047 C 
ATOM     20  C   UNL A   1      40.785  31.585  36.270  1.00  0.00    -0.015 A 
ATOM     21  C   UNL A   1      40.029  32.753  36.089  1.00  0.00     0.045 A 
ATOM     22  C   UNL A   1      39.291  30.453  34.696  1.00  0.00     0.026 A 
ATOM     23  C   UNL A   1      38.848  32.725  35.324  1.00  0.00     0.014 A 
ATOM     24  C   UNL A   1      38.490  31.582  34.611  1.00  0.00     0.003 A 
BRANCH  21  25
ATOM     25  C   UNL A   1      40.317  33.987  36.853  1.00  0.00     0.254 C 
ATOM     26  O   UNL A   1      39.876  34.061  38.000  1.00  0.00    -0.269 OA
ATOM     27  N   UNL A   1      41.125  34.964  36.289  1.00  0.00    -0.334 N 
ATOM     28  C   UNL A   1      41.298  35.252  34.853  1.00  0.00     0.148 C 
ATOM     29  C   UNL A   1      41.810  35.889  37.184  1.00  0.00     0.148 C 
ATOM     30  C   UNL A   1      42.758  35.596  34.492  1.00  0.00     0.181 C 
ATOM     31  C   UNL A   1      43.270  36.040  36.755  1.00  0.00     0.181 C 
ATOM     32  O   UNL A   1      43.334  36.540  35.409  1.00  0.00    -0.378 OA
ENDBRANCH  21  25
ENDBRANCH  15  18
ENDBRANCH   9  14
ENDBRANCH   6   8
ENDBRANCH   5   6
ENDBRANCH   4   5
ENDBRANCH   3   4
ENDBRANCH   2   3
ENDBRANCH   1   2
BRANCH   1  33
ATOM     33  C   UNL A   1      43.423  22.974  29.916  1.00  0.00     0.188 C 
BRANCH  33  34
ATOM     34  O   UNL A   1      44.455  22.953  28.950  1.00  0.00    -0.376 OA
BRANCH  34  35
ATOM     35  C   UNL A   1      44.077  22.891  27.598  1.00  0.00     0.202 C 
BRANCH  35  36
ATOM     36  C   UNL A   1      42.733  22.177  27.392  1.00  0.00     0.261 C 
BRANCH  36  37
ATOM     37  O   UNL A   1      41.714  23.009  26.776  1.00  0.00    -0.460 OA
BRANCH  37  38
ATOM     38  C   UNL A   1      42.107  24.156  26.089  1.00  0.00     0.338 C 
ATOM     39  O   UNL A   1      42.663  24.121  25.034  1.00  0.00    -0.246 OA
BRANCH  38  40
ATOM     40  C   UNL A   1      41.454  25.382  26.670  1.00  0.00     0.060 A 
ATOM     41  C   UNL A   1      41.199  26.636  26.102  1.00  0.00     0.016 A 
ATOM     42  C   UNL A   1      41.064  25.259  27.948  1.00  0.00     0.016 A 
ATOM     43  C   UNL A   1      40.769  27.804  26.897  1.00  0.00     0.010 A 
ATOM     44  C   UNL A   1      40.818  26.416  28.673  1.00  0.00     0.010 A 
ATOM     45  C   UNL A   1      40.644  27.783  28.293  1.00  0.00    -0.014 A 
BRANCH  45  46
ATOM     46  C   UNL A   1      40.431  29.163  29.327  1.00  0.00     0.031 A 
ATOM     47  C   UNL A   1      39.163  30.394  29.471  1.00  0.00     0.074 A 
ATOM     48  C   UNL A   1      41.504  29.479  30.078  1.00  0.00     0.049 A 
ATOM     49  N   UNL A   1      39.311  31.687  29.231  1.00  0.00    -0.248 NA
ATOM     50  C   UNL A   1      37.665  30.219  29.715  1.00  0.00     0.031 C 
ATOM     51  C   UNL A   1      41.641  30.551  31.053  1.00  0.00     0.029 A 
ATOM     52  N   UNL A   1      42.788  28.952  29.960  1.00  0.00    -0.354 N 
ATOM     53  C   UNL A   1      38.054  32.319  29.407  1.00  0.00     0.074 A 
ATOM     54  C   UNL A   1      37.053  31.332  29.368  1.00  0.00     0.031 C 
ATOM     55  C   UNL A   1      42.954  30.800  31.216  1.00  0.00     0.029 A 
ATOM     56  C   UNL A   1      43.674  29.991  30.241  1.00  0.00     0.049 A 
ATOM     57  H   UNL A   1      43.024  28.025  29.725  1.00  0.00     0.167 HD
ATOM     58  C   UNL A   1      37.850  33.519  30.021  1.00  0.00     0.034 A 
ATOM     59  C   UNL A   1      44.521  30.438  29.271  1.00  0.00     0.034 A 
ATOM     60  C   UNL A   1      39.115  34.010  30.468  1.00  0.00     0.049 A 
ATOM     61  C   UNL A   1      44.310  31.911  29.001  1.00  0.00     0.074 A 
ATOM     62  C   UNL A   1      39.778  33.897  31.675  1.00  0.00     0.029 A 
ATOM     63  N   UNL A   1      40.054  34.298  29.504  1.00  0.00    -0.354 N 
ATOM     64  N   UNL A   1      43.207  32.558  29.274  1.00  0.00    -0.248 NA
ATOM     65  C   UNL A   1      45.343  32.782  28.459  1.00  0.00     0.031 C 
ATOM     66  C   UNL A   1      41.157  34.102  31.418  1.00  0.00     0.029 A 
ATOM     67  C   UNL A   1      41.301  34.376  30.070  1.00  0.00     0.049 A 
ATOM     68  H   UNL A   1      39.861  34.429  28.549  1.00  0.00     0.167 HD
ATOM     69  C   UNL A   1      43.375  33.893  29.003  1.00  0.00     0.074 A 
ATOM     70  C   UNL A   1      44.729  33.977  28.492  1.00  0.00     0.031 C 
ATOM     71  C   UNL A   1      42.393  34.816  29.237  1.00  0.00     0.034 A 
BRANCH  58  72
ATOM     72  C   UNL A   1      36.488  33.921  30.591  1.00  0.00     0.023 A 
ATOM     73  C   UNL A   1      35.521  34.505  29.751  1.00  0.00     0.031 A 
ATOM     74  C   UNL A   1      36.133  33.837  31.960  1.00  0.00     0.131 A 
ATOM     75  C   UNL A   1      34.332  35.060  30.268  1.00  0.00     0.055 A 
ATOM     76  C   UNL A   1      34.968  34.427  32.483  1.00  0.00     0.041 A 
ATOM     77  F   UNL A   1      36.939  33.230  32.850  1.00  0.00    -0.206 F 
ATOM     78  C   UNL A   1      34.065  35.055  31.636  1.00  0.00     0.022 A 
BRANCH  75  79
ATOM     79  S   UNL A   1      33.134  35.794  29.118  1.00  0.00     0.124 S 
ATOM     80  O   UNL A   1      32.205  36.459  30.025  1.00  0.00    -0.237 OA
ATOM     81  O   UNL A   1      33.978  36.664  28.306  1.00  0.00    -0.237 OA
ATOM     82  O   UNL A   1      32.585  34.636  28.412  1.00  0.00    -0.744 OA
ENDBRANCH  75  79
ENDBRANCH  58  72
BRANCH  59  83
ATOM     83  C   UNL A   1      44.999  29.392  28.297  1.00  0.00     0.023 A 
ATOM     84  C   UNL A   1      46.097  28.574  28.679  1.00  0.00     0.031 A 
ATOM     85  C   UNL A   1      44.280  28.991  27.162  1.00  0.00     0.131 A 
ATOM     86  C   UNL A   1      46.357  27.351  28.041  1.00  0.00     0.055 A 
ATOM     87  C   UNL A   1      44.587  27.798  26.478  1.00  0.00     0.041 A 
ATOM     88  F   UNL A   1      43.198  29.671  26.761  1.00  0.00    -0.206 F 
ATOM     89  C   UNL A   1      45.616  26.964  26.927  1.00  0.00     0.022 A 
BRANCH  86  90
ATOM     90  S   UNL A   1      47.482  26.141  28.817  1.00  0.00     0.124 S 
ATOM     91  O   UNL A   1      46.598  25.003  29.043  1.00  0.00    -0.237 OA
ATOM     92  O   UNL A   1      48.527  25.944  27.814  1.00  0.00    -0.237 OA
ATOM     93  O   UNL A   1      47.938  26.834  30.020  1.00  0.00    -0.744 OA
ENDBRANCH  86  90
ENDBRANCH  59  83
BRANCH  71  94
ATOM     94  C   UNL A   1      42.327  36.249  28.748  1.00  0.00     0.023 A 
ATOM     95  C   UNL A   1      42.945  37.302  29.416  1.00  0.00     0.031 A 
ATOM     96  C   UNL A   1      41.711  36.590  27.508  1.00  0.00     0.131 A 
ATOM     97  C   UNL A   1      42.869  38.613  28.922  1.00  0.00     0.055 A 
ATOM     98  C   UNL A   1      41.745  37.872  26.958  1.00  0.00     0.041 A 
ATOM     99  F   UNL A   1      41.046  35.698  26.760  1.00  0.00    -0.206 F 
ATOM    100  C   UNL A   1      42.309  38.904  27.680  1.00  0.00     0.022 A 
BRANCH  97 101
ATOM    101  S   UNL A   1      43.412  39.943  30.015  1.00  0.00     0.124 S 
ATOM    102  O   UNL A   1      43.401  39.279  31.317  1.00  0.00    -0.237 OA
ATOM    103  O   UNL A   1      44.730  40.266  29.480  1.00  0.00    -0.237 OA
ATOM    104  O   UNL A   1      42.393  40.973  29.835  1.00  0.00    -0.744 OA
ENDBRANCH  97 101
ENDBRANCH  71  94
ENDBRANCH  45  46
ENDBRANCH  38  40
ENDBRANCH  37  38
ENDBRANCH  36  37
ENDBRANCH  35  36
ENDBRANCH  34  35
ENDBRANCH  33  34
ENDBRANCH   1  33
TORSDOF 23
ENDMDL
MODEL 2
REMARK VINA RESULT:      -8.5      6.009     12.364
REMARK SMILES Cc1c(NC(=O)[C@@H]2CC=CC[C@@H]2C(=O)OCCOCCOCCOC(=O)c2ccc(-c3c4nc(c(-c5cc(S(=O)(=O)[O-])ccc5F)c5ccc([nH]5)c(-c5cc(S(=O)(=O)[O-])ccc5F)c5nc(c(-c6cc(S(=O)(=O)[O-])ccc6F)c6ccc3[nH]6)C=C5)C=C4)cc2)cccc1C(=O)N1CCOCC1
REMARK SMILES IDX 19 1 18 2 17 3 16 4 15 5 13 6 14 7 12 8 7 9 8 10 9 11 11 12
REMARK SMILES IDX 10 13 5 14 4 15 6 17 3 18 1 19 2 20 93 21 90 22 92 23 91 24
REMARK SMILES IDX 94 25 95 26 96 27 97 28 101 29 98 30 100 31 99 32 20 33
REMARK SMILES IDX 21 34 22 35 23 36 24 37 25 38 26 39 27 40 28 41 89 42 29 43
REMARK SMILES IDX 88 44 30 45 31 46 32 47 82 48 33 49 87 50 81 51 83 52 34 53
REMARK SMILES IDX 86 54 80 55 79 56 35 58 67 59 47 60 66 61 48 62 51 63 65 64
REMARK SMILES IDX 84 65 49 66 50 67 64 69 85 70 52 71 36 72 37 73 45 74 38 75
REMARK SMILES IDX 44 76 46 77 43 78 39 79 40 80 41 81 42 82 68 83 69 84 77 85
REMARK SMILES IDX 70 86 76 87 78 88 75 89 71 90 72 91 73 92 74 93 53 94 54 95
REMARK SMILES IDX 62 96 55 97 61 98 63 99 60 100 56 101 57 102 58 103 59 104
REMARK H PARENT 4 16 83 57 51 68
REMARK Flexibility Score: inf
ROOT
ATOM      1  C   UNL A   1      36.406  32.319  28.389  1.00  0.00     0.188 C 
ENDROOT
BRANCH   1   2
ATOM      2  O   UNL A   1      36.441  30.921  28.025  1.00  0.00    -0.376 OA
BRANCH   2   3
ATOM      3  C   UNL A   1      35.547  30.304  27.076  1.00  0.00     0.202 C 
BRANCH   3   4
ATOM      4  C   UNL A   1      34.605  29.013  27.453  1.00  0.00     0.261 C 
BRANCH   4   5
ATOM      5  O   UNL A   1      32.849  28.742  27.565  1.00  0.00    -0.463 OA
BRANCH   5   6
ATOM      6  C   UNL A   1      31.746  28.047  26.942  1.00  0.00     0.310 C 
ATOM      7  O   UNL A   1      30.734  27.569  27.462  1.00  0.00    -0.252 OA
BRANCH   6   8
ATOM      8  C   UNL A   1      31.586  27.833  25.447  1.00  0.00     0.116 C 
ATOM      9  C   UNL A   1      32.379  26.737  24.820  1.00  0.00     0.097 C 
ATOM     10  C   UNL A   1      33.791  27.197  24.549  1.00  0.00     0.041 C 
ATOM     11  C   UNL A   1      33.750  28.463  23.721  1.00  0.00    -0.030 C 
ATOM     12  C   UNL A   1      31.496  29.101  24.583  1.00  0.00     0.043 C 
ATOM     13  C   UNL A   1      32.703  29.306  23.721  1.00  0.00    -0.030 C 
BRANCH   9  14
ATOM     14  C   UNL A   1      32.120  25.578  25.735  1.00  0.00     0.228 C 
ATOM     15  N   UNL A   1      31.053  24.790  25.289  1.00  0.00    -0.326 N 
ATOM     16  H   UNL A   1      30.125  24.919  25.593  1.00  0.00     0.169 HD
ATOM     17  O   UNL A   1      32.650  25.424  26.828  1.00  0.00    -0.274 OA
BRANCH  15  18
ATOM     18  C   UNL A   1      31.427  23.794  24.365  1.00  0.00     0.044 A 
ATOM     19  C   UNL A   1      31.245  22.236  26.309  1.00  0.00     0.047 C 
ATOM     20  C   UNL A   1      31.646  22.510  24.882  1.00  0.00    -0.015 A 
ATOM     21  C   UNL A   1      32.317  21.589  24.063  1.00  0.00     0.045 A 
ATOM     22  C   UNL A   1      31.819  24.148  23.069  1.00  0.00     0.026 A 
ATOM     23  C   UNL A   1      32.841  21.993  22.820  1.00  0.00     0.014 A 
ATOM     24  C   UNL A   1      32.576  23.264  22.314  1.00  0.00     0.003 A 
BRANCH  21  25
ATOM     25  C   UNL A   1      32.681  20.242  24.551  1.00  0.00     0.254 C 
ATOM     26  O   UNL A   1      31.820  19.365  24.495  1.00  0.00    -0.269 OA
ATOM     27  N   UNL A   1      33.981  19.998  24.973  1.00  0.00    -0.334 N 
ATOM     28  C   UNL A   1      34.924  20.974  25.548  1.00  0.00     0.148 C 
ATOM     29  C   UNL A   1      34.461  18.622  24.955  1.00  0.00     0.148 C 
ATOM     30  C   UNL A   1      36.369  20.763  25.050  1.00  0.00     0.181 C 
ATOM     31  C   UNL A   1      35.860  18.569  24.338  1.00  0.00     0.181 C 
ATOM     32  O   UNL A   1      36.763  19.382  25.104  1.00  0.00    -0.378 OA
ENDBRANCH  21  25
ENDBRANCH  15  18
ENDBRANCH   9  14
ENDBRANCH   6   8
ENDBRANCH   5   6
ENDBRANCH   4   5
ENDBRANCH   3   4
ENDBRANCH   2   3
ENDBRANCH   1   2
BRANCH   1  33
ATOM     33  C   UNL A   1      35.348  33.260  27.824  1.00  0.00     0.188 C 
BRANCH  33  34
ATOM     34  O   UNL A   1      35.106  34.292  28.760  1.00  0.00    -0.376 OA
BRANCH  34  35
ATOM     35  C   UNL A   1      34.012  34.137  29.629  1.00  0.00     0.202 C 
BRANCH  35  36
ATOM     36  C   UNL A   1      34.425  34.144  31.107  1.00  0.00     0.261 C 
BRANCH  36  37
ATOM     37  O   UNL A   1      34.116  32.913  31.811  1.00  0.00    -0.460 OA
BRANCH  37  38
ATOM     38  C   UNL A   1      35.127  31.971  31.995  1.00  0.00     0.338 C 
ATOM     39  O   UNL A   1      35.432  31.177  31.159  1.00  0.00    -0.246 OA
BRANCH  38  40
ATOM     40  C   UNL A   1      35.963  32.307  33.201  1.00  0.00     0.060 A 
ATOM     41  C   UNL A   1      35.797  33.295  34.179  1.00  0.00     0.016 A 
ATOM     42  C   UNL A   1      37.056  31.544  33.357  1.00  0.00     0.016 A 
ATOM     43  C   UNL A   1      36.849  33.640  35.157  1.00  0.00     0.010 A 
ATOM     44  C   UNL A   1      38.067  32.011  34.185  1.00  0.00     0.010 A 
ATOM     45  C   UNL A   1      38.127  33.062  35.151  1.00  0.00    -0.014 A 
BRANCH  45  46
ATOM     46  C   UNL A   1      39.504  33.604  36.061  1.00  0.00     0.031 A 
ATOM     47  C   UNL A   1      39.727  34.837  37.316  1.00  0.00     0.074 A 
ATOM     48  C   UNL A   1      40.688  33.117  35.642  1.00  0.00     0.049 A 
ATOM     49  N   UNL A   1      40.465  35.930  37.202  1.00  0.00    -0.248 NA
ATOM     50  C   UNL A   1      39.018  34.992  38.660  1.00  0.00     0.031 C 
ATOM     51  C   UNL A   1      42.012  33.353  36.198  1.00  0.00     0.029 A 
ATOM     52  N   UNL A   1      40.928  32.409  34.466  1.00  0.00    -0.354 N 
ATOM     53  C   UNL A   1      40.338  36.678  38.400  1.00  0.00     0.074 A 
ATOM     54  C   UNL A   1      39.199  36.223  39.088  1.00  0.00     0.031 C 
ATOM     55  C   UNL A   1      42.920  33.078  35.244  1.00  0.00     0.029 A 
ATOM     56  C   UNL A   1      42.188  32.799  34.015  1.00  0.00     0.049 A 
ATOM     57  H   UNL A   1      40.325  31.758  34.038  1.00  0.00     0.167 HD
ATOM     58  C   UNL A   1      41.355  37.316  39.047  1.00  0.00     0.034 A 
ATOM     59  C   UNL A   1      42.307  33.452  32.825  1.00  0.00     0.034 A 
ATOM     60  C   UNL A   1      42.561  37.081  38.318  1.00  0.00     0.049 A 
ATOM     61  C   UNL A   1      42.960  34.804  33.008  1.00  0.00     0.074 A 
ATOM     62  C   UNL A   1      43.546  36.120  38.444  1.00  0.00     0.029 A 
ATOM     63  N   UNL A   1      42.631  37.581  37.038  1.00  0.00    -0.354 N 
ATOM     64  N   UNL A   1      42.978  35.464  34.136  1.00  0.00    -0.248 NA
ATOM     65  C   UNL A   1      43.694  35.489  31.953  1.00  0.00     0.031 C 
ATOM     66  C   UNL A   1      44.207  36.030  37.194  1.00  0.00     0.029 A 
ATOM     67  C   UNL A   1      43.642  36.964  36.345  1.00  0.00     0.049 A 
ATOM     68  H   UNL A   1      42.042  38.278  36.671  1.00  0.00     0.167 HD
ATOM     69  C   UNL A   1      43.733  36.602  33.993  1.00  0.00     0.074 A 
ATOM     70  C   UNL A   1      44.154  36.569  32.606  1.00  0.00     0.031 C 
ATOM     71  C   UNL A   1      43.961  37.464  35.030  1.00  0.00     0.034 A 
BRANCH  58  72
ATOM     72  C   UNL A   1      41.270  37.694  40.527  1.00  0.00     0.023 A 
ATOM     73  C   UNL A   1      40.716  38.932  40.904  1.00  0.00     0.031 A 
ATOM     74  C   UNL A   1      41.799  36.916  41.587  1.00  0.00     0.131 A 
ATOM     75  C   UNL A   1      40.789  39.399  42.233  1.00  0.00     0.055 A 
ATOM     76  C   UNL A   1      41.910  37.398  42.904  1.00  0.00     0.041 A 
ATOM     77  F   UNL A   1      42.284  35.682  41.366  1.00  0.00    -0.206 F 
ATOM     78  C   UNL A   1      41.414  38.653  43.230  1.00  0.00     0.022 A 
BRANCH  75  79
ATOM     79  S   UNL A   1      40.051  41.007  42.639  1.00  0.00     0.124 S 
ATOM     80  O   UNL A   1      38.932  40.624  43.494  1.00  0.00    -0.237 OA
ATOM     81  O   UNL A   1      41.156  41.698  43.295  1.00  0.00    -0.237 OA
ATOM     82  O   UNL A   1      39.673  41.549  41.334  1.00  0.00    -0.744 OA
ENDBRANCH  75  79
ENDBRANCH  58  72
BRANCH  59  83
ATOM     83  C   UNL A   1      41.307  33.058  31.768  1.00  0.00     0.023 A 
ATOM     84  C   UNL A   1      41.518  31.840  31.067  1.00  0.00     0.031 A 
ATOM     85  C   UNL A   1      40.053  33.667  31.610  1.00  0.00     0.131 A 
ATOM     86  C   UNL A   1      40.477  31.203  30.372  1.00  0.00     0.055 A 
ATOM     87  C   UNL A   1      39.030  33.061  30.853  1.00  0.00     0.041 A 
ATOM     88  F   UNL A   1      39.747  34.789  32.275  1.00  0.00    -0.206 F 
ATOM     89  C   UNL A   1      39.233  31.818  30.246  1.00  0.00     0.022 A 
BRANCH  86  90
ATOM     90  S   UNL A   1      40.657  29.461  29.859  1.00  0.00     0.124 S 
ATOM     91  O   UNL A   1      39.482  29.267  29.018  1.00  0.00    -0.237 OA
ATOM     92  O   UNL A   1      41.944  29.434  29.168  1.00  0.00    -0.237 OA
ATOM     93  O   UNL A   1      40.652  28.738  31.129  1.00  0.00    -0.744 OA
ENDBRANCH  86  90
ENDBRANCH  59  83
BRANCH  71  94
ATOM     94  C   UNL A   1      44.529  38.867  34.967  1.00  0.00     0.023 A 
ATOM     95  C   UNL A   1      43.746  39.985  34.695  1.00  0.00     0.031 A 
ATOM     96  C   UNL A   1      45.892  39.140  35.286  1.00  0.00     0.131 A 
ATOM     97  C   UNL A   1      44.310  41.269  34.657  1.00  0.00     0.055 A 
ATOM     98  C   UNL A   1      46.420  40.428  35.369  1.00  0.00     0.041 A 
ATOM     99  F   UNL A   1      46.784  38.171  35.538  1.00  0.00    -0.206 F 
ATOM    100  C   UNL A   1      45.631  41.508  35.030  1.00  0.00     0.022 A 
BRANCH  97 101
ATOM    101  S   UNL A   1      43.294  42.600  33.982  1.00  0.00     0.124 S 
ATOM    102  O   UNL A   1      43.263  43.543  35.097  1.00  0.00    -0.237 OA
ATOM    103  O   UNL A   1      44.067  43.021  32.818  1.00  0.00    -0.237 OA
ATOM    104  O   UNL A   1      42.023  41.944  33.686  1.00  0.00    -0.744 OA
ENDBRANCH  97 101
ENDBRANCH  71  94
ENDBRANCH  45  46
ENDBRANCH  38  40
ENDBRANCH  37  38
ENDBRANCH  36  37
ENDBRANCH  35  36
ENDBRANCH  34  35
ENDBRANCH  33  34
ENDBRANCH   1  33
TORSDOF 23
ENDMDL
MODEL 3
REMARK VINA RESULT:      -8.1      4.336     11.492
REMARK SMILES Cc1c(NC(=O)[C@@H]2CC=CC[C@@H]2C(=O)OCCOCCOCCOC(=O)c2ccc(-c3c4nc(c(-c5cc(S(=O)(=O)[O-])ccc5F)c5ccc([nH]5)c(-c5cc(S(=O)(=O)[O-])ccc5F)c5nc(c(-c6cc(S(=O)(=O)[O-])ccc6F)c6ccc3[nH]6)C=C5)C=C4)cc2)cccc1C(=O)N1CCOCC1
REMARK SMILES IDX 19 1 18 2 17 3 16 4 15 5 13 6 14 7 12 8 7 9 8 10 9 11 11 12
REMARK SMILES IDX 10 13 5 14 4 15 6 17 3 18 1 19 2 20 93 21 90 22 92 23 91 24
REMARK SMILES IDX 94 25 95 26 96 27 97 28 101 29 98 30 100 31 99 32 20 33
REMARK SMILES IDX 21 34 22 35 23 36 24 37 25 38 26 39 27 40 28 41 89 42 29 43
REMARK SMILES IDX 88 44 30 45 31 46 32 47 82 48 33 49 87 50 81 51 83 52 34 53
REMARK SMILES IDX 86 54 80 55 79 56 35 58 67 59 47 60 66 61 48 62 51 63 65 64
REMARK SMILES IDX 84 65 49 66 50 67 64 69 85 70 52 71 36 72 37 73 45 74 38 75
REMARK SMILES IDX 44 76 46 77 43 78 39 79 40 80 41 81 42 82 68 83 69 84 77 85
REMARK SMILES IDX 70 86 76 87 78 88 75 89 71 90 72 91 73 92 74 93 53 94 54 95
REMARK SMILES IDX 62 96 55 97 61 98 63 99 60 100 56 101 57 102 58 103 59 104
REMARK H PARENT 4 16 83 57 51 68
REMARK Flexibility Score: inf
ROOT
ATOM      1  C   UNL A   1      37.469  28.394  28.918  1.00  0.00     0.188 C 
ENDROOT
BRANCH   1   2
ATOM      2  O   UNL A   1      38.656  28.518  28.103  1.00  0.00    -0.376 OA
BRANCH   2   3
ATOM      3  C   UNL A   1      39.823  27.680  28.229  1.00  0.00     0.202 C 
BRANCH   3   4
ATOM      4  C   UNL A   1      39.735  26.043  28.323  1.00  0.00     0.261 C 
BRANCH   4   5
ATOM      5  O   UNL A   1      40.939  24.733  28.403  1.00  0.00    -0.463 OA
BRANCH   5   6
ATOM      6  C   UNL A   1      42.002  24.096  27.662  1.00  0.00     0.310 C 
ATOM      7  O   UNL A   1      43.149  23.822  28.027  1.00  0.00    -0.252 OA
BRANCH   6   8
ATOM      8  C   UNL A   1      41.876  23.552  26.250  1.00  0.00     0.116 C 
ATOM      9  C   UNL A   1      41.697  22.080  26.093  1.00  0.00     0.097 C 
ATOM     10  C   UNL A   1      43.027  21.374  26.189  1.00  0.00     0.041 C 
ATOM     11  C   UNL A   1      43.983  21.976  25.183  1.00  0.00    -0.030 C 
ATOM     12  C   UNL A   1      42.803  24.177  25.195  1.00  0.00     0.043 C 
ATOM     13  C   UNL A   1      43.864  23.233  24.719  1.00  0.00    -0.030 C 
BRANCH   9  14
ATOM     14  C   UNL A   1      40.602  21.776  27.071  1.00  0.00     0.228 C 
ATOM     15  N   UNL A   1      39.468  22.566  26.847  1.00  0.00    -0.326 N 
ATOM     16  H   UNL A   1      39.307  23.420  27.310  1.00  0.00     0.169 HD
ATOM     17  O   UNL A   1      40.729  21.058  28.054  1.00  0.00    -0.274 OA
BRANCH  15  18
ATOM     18  C   UNL A   1      38.576  22.027  25.898  1.00  0.00     0.044 A 
ATOM     19  C   UNL A   1      37.485  24.272  25.977  1.00  0.00     0.047 C 
ATOM     20  C   UNL A   1      37.492  22.833  25.529  1.00  0.00    -0.015 A 
ATOM     21  C   UNL A   1      36.432  22.217  24.845  1.00  0.00     0.045 A 
ATOM     22  C   UNL A   1      38.635  20.667  25.570  1.00  0.00     0.026 A 
ATOM     23  C   UNL A   1      36.426  20.823  24.649  1.00  0.00     0.014 A 
ATOM     24  C   UNL A   1      37.535  20.052  24.992  1.00  0.00     0.003 A 
BRANCH  21  25
ATOM     25  C   UNL A   1      35.201  22.960  24.498  1.00  0.00     0.254 C 
ATOM     26  O   UNL A   1      35.109  23.403  23.353  1.00  0.00    -0.269 OA
ATOM     27  N   UNL A   1      34.179  23.059  25.431  1.00  0.00    -0.334 N 
ATOM     28  C   UNL A   1      34.313  23.038  26.899  1.00  0.00     0.148 C 
ATOM     29  C   UNL A   1      32.828  23.314  24.945  1.00  0.00     0.148 C 
ATOM     30  C   UNL A   1      33.180  22.247  27.585  1.00  0.00     0.181 C 
ATOM     31  C   UNL A   1      31.840  22.380  25.644  1.00  0.00     0.181 C 
ATOM     32  O   UNL A   1      31.887  22.593  27.064  1.00  0.00    -0.378 OA
ENDBRANCH  21  25
ENDBRANCH  15  18
ENDBRANCH   9  14
ENDBRANCH   6   8
ENDBRANCH   5   6
ENDBRANCH   4   5
ENDBRANCH   3   4
ENDBRANCH   2   3
ENDBRANCH   1   2
BRANCH   1  33
ATOM     33  C   UNL A   1      36.519  29.569  29.122  1.00  0.00     0.188 C 
BRANCH  33  34
ATOM     34  O   UNL A   1      35.924  29.896  27.881  1.00  0.00    -0.376 OA
BRANCH  34  35
ATOM     35  C   UNL A   1      34.794  30.732  27.903  1.00  0.00     0.202 C 
BRANCH  35  36
ATOM     36  C   UNL A   1      35.156  32.218  27.773  1.00  0.00     0.261 C 
BRANCH  36  37
ATOM     37  O   UNL A   1      34.656  33.042  28.859  1.00  0.00    -0.460 OA
BRANCH  37  38
ATOM     38  C   UNL A   1      35.290  32.980  30.098  1.00  0.00     0.338 C 
ATOM     39  O   UNL A   1      34.727  32.654  31.098  1.00  0.00    -0.246 OA
BRANCH  38  40
ATOM     40  C   UNL A   1      36.786  33.043  29.942  1.00  0.00     0.060 A 
ATOM     41  C   UNL A   1      37.774  32.097  30.240  1.00  0.00     0.016 A 
ATOM     42  C   UNL A   1      37.252  34.200  29.447  1.00  0.00     0.016 A 
ATOM     43  C   UNL A   1      39.216  32.420  30.250  1.00  0.00     0.010 A 
ATOM     44  C   UNL A   1      38.596  34.496  29.626  1.00  0.00     0.010 A 
ATOM     45  C   UNL A   1      39.719  33.710  30.031  1.00  0.00    -0.014 A 
BRANCH  45  46
ATOM     46  C   UNL A   1      41.351  34.238  30.307  1.00  0.00     0.031 A 
ATOM     47  C   UNL A   1      42.807  34.276  29.295  1.00  0.00     0.074 A 
ATOM     48  C   UNL A   1      41.640  34.539  31.587  1.00  0.00     0.049 A 
ATOM     49  N   UNL A   1      43.916  33.587  29.511  1.00  0.00    -0.248 NA
ATOM     50  C   UNL A   1      43.026  34.937  27.935  1.00  0.00     0.031 C 
ATOM     51  C   UNL A   1      42.894  35.029  32.140  1.00  0.00     0.029 A 
ATOM     52  N   UNL A   1      40.846  34.284  32.703  1.00  0.00    -0.354 N 
ATOM     53  C   UNL A   1      44.819  33.852  28.450  1.00  0.00     0.074 A 
ATOM     54  C   UNL A   1      44.093  34.403  27.379  1.00  0.00     0.031 C 
ATOM     55  C   UNL A   1      42.900  34.759  33.459  1.00  0.00     0.029 A 
ATOM     56  C   UNL A   1      41.714  33.964  33.746  1.00  0.00     0.049 A 
ATOM     57  H   UNL A   1      39.862  34.322  32.746  1.00  0.00     0.167 HD
ATOM     58  C   UNL A   1      46.160  34.058  28.585  1.00  0.00     0.034 A 
ATOM     59  C   UNL A   1      41.676  32.719  34.299  1.00  0.00     0.034 A 
ATOM     60  C   UNL A   1      46.484  33.977  29.974  1.00  0.00     0.049 A 
ATOM     61  C   UNL A   1      43.019  32.033  34.187  1.00  0.00     0.074 A 
ATOM     62  C   UNL A   1      46.588  34.941  30.958  1.00  0.00     0.029 A 
ATOM     63  N   UNL A   1      46.280  32.767  30.598  1.00  0.00    -0.354 N 
ATOM     64  N   UNL A   1      43.931  32.343  33.304  1.00  0.00    -0.248 NA
ATOM     65  C   UNL A   1      43.461  30.986  35.097  1.00  0.00     0.031 C 
ATOM     66  C   UNL A   1      46.419  34.289  32.205  1.00  0.00     0.029 A 
ATOM     67  C   UNL A   1      46.257  32.938  31.959  1.00  0.00     0.049 A 
ATOM     68  H   UNL A   1      46.167  31.906  30.137  1.00  0.00     0.167 HD
ATOM     69  C   UNL A   1      45.066  31.605  33.533  1.00  0.00     0.074 A 
ATOM     70  C   UNL A   1      44.716  30.770  34.666  1.00  0.00     0.031 C 
ATOM     71  C   UNL A   1      46.201  31.756  32.785  1.00  0.00     0.034 A 
BRANCH  58  72
ATOM     72  C   UNL A   1      46.984  34.786  27.520  1.00  0.00     0.023 A 
ATOM     73  C   UNL A   1      46.932  36.190  27.432  1.00  0.00     0.031 A 
ATOM     74  C   UNL A   1      47.754  34.141  26.521  1.00  0.00     0.131 A 
ATOM     75  C   UNL A   1      47.522  36.883  26.355  1.00  0.00     0.055 A 
ATOM     76  C   UNL A   1      48.307  34.827  25.424  1.00  0.00     0.041 A 
ATOM     77  F   UNL A   1      47.944  32.810  26.543  1.00  0.00    -0.206 F 
ATOM     78  C   UNL A   1      48.181  36.207  25.330  1.00  0.00     0.022 A 
BRANCH  75  79
ATOM     79  S   UNL A   1      47.413  38.695  26.314  1.00  0.00     0.124 S 
ATOM     80  O   UNL A   1      47.219  38.959  24.892  1.00  0.00    -0.237 OA
ATOM     81  O   UNL A   1      46.268  38.956  27.180  1.00  0.00    -0.237 OA
ATOM     82  O   UNL A   1      48.703  39.127  26.852  1.00  0.00    -0.744 OA
ENDBRANCH  75  79
ENDBRANCH  58  72
BRANCH  59  83
ATOM     83  C   UNL A   1      40.318  32.066  34.331  1.00  0.00     0.023 A 
ATOM     84  C   UNL A   1      39.235  32.799  34.889  1.00  0.00     0.031 A 
ATOM     85  C   UNL A   1      39.990  30.904  33.618  1.00  0.00     0.131 A 
ATOM     86  C   UNL A   1      37.900  32.459  34.615  1.00  0.00     0.055 A 
ATOM     87  C   UNL A   1      38.650  30.524  33.403  1.00  0.00     0.041 A 
ATOM     88  F   UNL A   1      40.941  30.181  33.012  1.00  0.00    -0.206 F 
ATOM     89  C   UNL A   1      37.600  31.311  33.886  1.00  0.00     0.022 A 
BRANCH  86  90
ATOM     90  S   UNL A   1      36.565  33.649  34.979  1.00  0.00     0.124 S 
ATOM     91  O   UNL A   1      35.434  33.067  34.265  1.00  0.00    -0.237 OA
ATOM     92  O   UNL A   1      36.473  33.632  36.437  1.00  0.00    -0.237 OA
ATOM     93  O   UNL A   1      37.079  34.903  34.433  1.00  0.00    -0.744 OA
ENDBRANCH  86  90
ENDBRANCH  59  83
BRANCH  71  94
ATOM     94  C   UNL A   1      47.412  30.848  32.738  1.00  0.00     0.023 A 
ATOM     95  C   UNL A   1      48.682  31.265  33.125  1.00  0.00     0.031 A 
ATOM     96  C   UNL A   1      47.303  29.469  32.389  1.00  0.00     0.131 A 
ATOM     97  C   UNL A   1      49.776  30.387  33.077  1.00  0.00     0.055 A 
ATOM     98  C   UNL A   1      48.367  28.570  32.462  1.00  0.00     0.041 A 
ATOM     99  F   UNL A   1      46.157  28.919  31.962  1.00  0.00    -0.206 F 
ATOM    100  C   UNL A   1      49.625  29.033  32.787  1.00  0.00     0.022 A 
BRANCH  97 101
ATOM    101  S   UNL A   1      51.421  31.102  33.281  1.00  0.00     0.124 S 
ATOM    102  O   UNL A   1      52.278  29.940  33.063  1.00  0.00    -0.237 OA
ATOM    103  O   UNL A   1      51.451  32.117  32.234  1.00  0.00    -0.237 OA
ATOM    104  O   UNL A   1      51.404  31.614  34.649  1.00  0.00    -0.744 OA
ENDBRANCH  97 101
ENDBRANCH  71  94
ENDBRANCH  45  46
ENDBRANCH  38  40
ENDBRANCH  37  38
ENDBRANCH  36  37
ENDBRANCH  35  36
ENDBRANCH  34  35
ENDBRANCH  33  34
ENDBRANCH   1  33
TORSDOF 23
ENDMDL
