MODEL 1
REMARK VINA RESULT:      -7.7      0.000      0.000
REMARK SMILES CC(=O)Oc1ccccc1SCCCCCC(=O)OCCOCCOCCOC(=O)c1ccc(-c2c3nc(c(-c4cc(S(=O)(=O)[O-])ccc4F)c4ccc([nH]4)c(-c4cc(S(=O)(=O)[O-])ccc4F)c4nc(c(-c5cc(S(=O)(=O)[O-])ccc5F)c5ccc2[nH]5)C=C4)C=C3)cc1
REMARK SMILES IDX 21 1 20 2 19 3 17 4 18 5 16 6 15 7 14 8 13 9 12 10 11 11
REMARK SMILES IDX 10 12 5 13 6 14 7 15 9 16 8 17 4 18 2 19 1 20 3 21 22 22
REMARK SMILES IDX 23 23 24 24 25 25 26 26 27 27 28 28 29 29 30 30 31 31 32 32
REMARK SMILES IDX 93 33 33 34 92 35 34 36 35 37 36 38 86 39 37 40 91 41 85 42
REMARK SMILES IDX 87 43 38 44 90 45 84 46 83 47 39 49 71 50 51 51 70 52 52 53
REMARK SMILES IDX 55 54 69 55 88 56 53 57 54 58 68 60 89 61 56 62 40 63 41 64
REMARK SMILES IDX 49 65 42 66 48 67 50 68 47 69 43 70 44 71 45 72 46 73 72 74
REMARK SMILES IDX 73 75 81 76 74 77 80 78 82 79 79 80 75 81 76 82 77 83 78 84
REMARK SMILES IDX 57 85 58 86 66 87 59 88 65 89 67 90 64 91 60 92 61 93 62 94
REMARK SMILES IDX 63 95
REMARK H PARENT 87 48 55 59
REMARK Flexibility Score: inf
ROOT
ATOM      1  C   UNL A   1      40.737  20.751  27.200  1.00  0.00     0.202 C 
ENDROOT
BRANCH   1   2
ATOM      2  C   UNL A   1      41.322  22.132  26.885  1.00  0.00     0.261 C 
BRANCH   2   3
ATOM      3  O   UNL A   1      40.545  23.192  27.450  1.00  0.00    -0.463 OA
BRANCH   3   4
ATOM      4  C   UNL A   1      40.345  24.297  26.685  1.00  0.00     0.305 C 
ATOM      5  O   UNL A   1      41.228  25.015  26.235  1.00  0.00    -0.252 OA
BRANCH   4   6
ATOM      6  C   UNL A   1      38.873  24.501  26.385  1.00  0.00     0.123 C 
BRANCH   6   7
ATOM      7  C   UNL A   1      38.023  23.228  26.496  1.00  0.00     0.012 C 
BRANCH   7   8
ATOM      8  C   UNL A   1      37.800  22.325  25.249  1.00  0.00     0.001 C 
BRANCH   8   9
ATOM      9  C   UNL A   1      36.512  21.531  24.927  1.00  0.00     0.011 C 
BRANCH   9  10
ATOM     10  C   UNL A   1      35.060  22.085  24.794  1.00  0.00     0.075 C 
BRANCH  10  11
ATOM     11  S   UNL A   1      34.337  23.706  25.358  1.00  0.00    -0.122 SA
BRANCH  11  12
ATOM     12  C   UNL A   1      33.202  24.347  24.134  1.00  0.00     0.050 A 
ATOM     13  C   UNL A   1      31.798  24.408  24.157  1.00  0.00     0.144 A 
ATOM     14  C   UNL A   1      31.100  25.141  23.179  1.00  0.00     0.048 A 
ATOM     15  C   UNL A   1      31.783  25.696  22.094  1.00  0.00     0.004 A 
ATOM     16  C   UNL A   1      33.836  24.769  22.948  1.00  0.00     0.019 A 
ATOM     17  C   UNL A   1      33.138  25.437  21.938  1.00  0.00     0.001 A 
BRANCH  13  18
ATOM     18  O   UNL A   1      31.007  23.662  25.058  1.00  0.00    -0.426 OA
BRANCH  18  19
ATOM     19  C   UNL A   1      30.756  24.399  26.168  1.00  0.00     0.308 C 
ATOM     20  C   UNL A   1      29.652  25.377  26.096  1.00  0.00     0.139 C 
ATOM     21  O   UNL A   1      31.354  24.268  27.226  1.00  0.00    -0.252 OA
ENDBRANCH  18  19
ENDBRANCH  13  18
ENDBRANCH  11  12
ENDBRANCH  10  11
ENDBRANCH   9  10
ENDBRANCH   8   9
ENDBRANCH   7   8
ENDBRANCH   6   7
ENDBRANCH   4   6
ENDBRANCH   3   4
ENDBRANCH   2   3
ENDBRANCH   1   2
BRANCH   1  22
ATOM     22  O   UNL A   1      41.666  19.673  27.290  1.00  0.00    -0.376 OA
BRANCH  22  23
ATOM     23  C   UNL A   1      42.207  19.181  26.069  1.00  0.00     0.188 C 
BRANCH  23  24
ATOM     24  C   UNL A   1      43.623  19.649  25.727  1.00  0.00     0.188 C 
BRANCH  24  25
ATOM     25  O   UNL A   1      43.915  19.842  24.349  1.00  0.00    -0.376 OA
BRANCH  25  26
ATOM     26  C   UNL A   1      44.983  20.753  24.063  1.00  0.00     0.202 C 
BRANCH  26  27
ATOM     27  C   UNL A   1      44.627  22.241  23.834  1.00  0.00     0.261 C 
BRANCH  27  28
ATOM     28  O   UNL A   1      44.285  23.019  25.004  1.00  0.00    -0.460 OA
BRANCH  28  29
ATOM     29  C   UNL A   1      45.197  23.136  26.001  1.00  0.00     0.338 C 
ATOM     30  O   UNL A   1      46.110  22.359  26.225  1.00  0.00    -0.246 OA
BRANCH  29  31
ATOM     31  C   UNL A   1      45.075  24.503  26.601  1.00  0.00     0.060 A 
ATOM     32  C   UNL A   1      44.766  25.579  25.754  1.00  0.00     0.016 A 
ATOM     33  C   UNL A   1      45.167  24.728  27.979  1.00  0.00     0.016 A 
ATOM     34  C   UNL A   1      44.566  26.868  26.272  1.00  0.00     0.010 A 
ATOM     35  C   UNL A   1      44.985  26.024  28.494  1.00  0.00     0.010 A 
ATOM     36  C   UNL A   1      44.699  27.110  27.645  1.00  0.00    -0.014 A 
BRANCH  36  37
ATOM     37  C   UNL A   1      44.686  28.503  28.189  1.00  0.00     0.031 A 
ATOM     38  C   UNL A   1      43.394  29.056  28.733  1.00  0.00     0.074 A 
ATOM     39  C   UNL A   1      45.784  29.285  28.196  1.00  0.00     0.049 A 
ATOM     40  N   UNL A   1      43.101  30.270  29.126  1.00  0.00    -0.248 NA
ATOM     41  C   UNL A   1      42.283  28.101  28.841  1.00  0.00     0.031 C 
ATOM     42  C   UNL A   1      47.117  28.874  27.765  1.00  0.00     0.029 A 
ATOM     43  N   UNL A   1      45.943  30.604  28.562  1.00  0.00    -0.354 N 
ATOM     44  C   UNL A   1      41.764  30.232  29.511  1.00  0.00     0.074 A 
ATOM     45  C   UNL A   1      41.304  28.878  29.279  1.00  0.00     0.031 C 
ATOM     46  C   UNL A   1      47.950  29.926  27.862  1.00  0.00     0.029 A 
ATOM     47  C   UNL A   1      47.202  31.103  28.307  1.00  0.00     0.049 A 
ATOM     48  H   UNL A   1      45.223  31.142  28.967  1.00  0.00     0.167 HD
ATOM     49  C   UNL A   1      40.991  31.232  30.007  1.00  0.00     0.034 A 
ATOM     50  C   UNL A   1      47.685  32.364  28.371  1.00  0.00     0.034 A 
ATOM     51  C   UNL A   1      41.453  32.583  30.222  1.00  0.00     0.049 A 
ATOM     52  C   UNL A   1      46.777  33.492  28.811  1.00  0.00     0.074 A 
ATOM     53  C   UNL A   1      40.755  33.656  30.750  1.00  0.00     0.029 A 
ATOM     54  N   UNL A   1      42.717  33.057  29.897  1.00  0.00    -0.354 N 
ATOM     55  N   UNL A   1      45.518  33.444  29.183  1.00  0.00    -0.248 NA
ATOM     56  C   UNL A   1      47.353  34.846  28.836  1.00  0.00     0.031 C 
ATOM     57  C   UNL A   1      41.560  34.796  30.652  1.00  0.00     0.029 A 
ATOM     58  C   UNL A   1      42.798  34.418  30.157  1.00  0.00     0.049 A 
ATOM     59  H   UNL A   1      43.449  32.508  29.534  1.00  0.00     0.167 HD
ATOM     60  C   UNL A   1      45.162  34.754  29.503  1.00  0.00     0.074 A 
ATOM     61  C   UNL A   1      46.341  35.567  29.298  1.00  0.00     0.031 C 
ATOM     62  C   UNL A   1      43.968  35.237  29.934  1.00  0.00     0.034 A 
BRANCH  49  63
ATOM     63  C   UNL A   1      39.539  30.914  30.279  1.00  0.00     0.023 A 
ATOM     64  C   UNL A   1      38.509  31.332  29.418  1.00  0.00     0.031 A 
ATOM     65  C   UNL A   1      39.175  30.212  31.443  1.00  0.00     0.131 A 
ATOM     66  C   UNL A   1      37.169  31.125  29.778  1.00  0.00     0.055 A 
ATOM     67  C   UNL A   1      37.843  29.926  31.748  1.00  0.00     0.041 A 
ATOM     68  F   UNL A   1      40.110  29.805  32.315  1.00  0.00    -0.206 F 
ATOM     69  C   UNL A   1      36.829  30.401  30.923  1.00  0.00     0.022 A 
BRANCH  66  70
ATOM     70  S   UNL A   1      35.878  31.972  28.825  1.00  0.00     0.124 S 
ATOM     71  O   UNL A   1      34.700  31.747  29.658  1.00  0.00    -0.237 OA
ATOM     72  O   UNL A   1      36.373  33.343  28.775  1.00  0.00    -0.237 OA
ATOM     73  O   UNL A   1      35.872  31.261  27.548  1.00  0.00    -0.744 OA
ENDBRANCH  66  70
ENDBRANCH  49  63
BRANCH  50  74
ATOM     74  C   UNL A   1      49.079  32.657  27.917  1.00  0.00     0.023 A 
ATOM     75  C   UNL A   1      50.190  32.437  28.749  1.00  0.00     0.031 A 
ATOM     76  C   UNL A   1      49.312  33.221  26.648  1.00  0.00     0.131 A 
ATOM     77  C   UNL A   1      51.475  32.803  28.313  1.00  0.00     0.055 A 
ATOM     78  C   UNL A   1      50.597  33.528  26.197  1.00  0.00     0.041 A 
ATOM     79  F   UNL A   1      48.286  33.474  25.820  1.00  0.00    -0.206 F 
ATOM     80  C   UNL A   1      51.688  33.328  27.035  1.00  0.00     0.022 A 
BRANCH  77  81
ATOM     81  S   UNL A   1      52.866  32.662  29.471  1.00  0.00     0.124 S 
ATOM     82  O   UNL A   1      52.374  31.655  30.404  1.00  0.00    -0.237 OA
ATOM     83  O   UNL A   1      53.953  32.246  28.591  1.00  0.00    -0.237 OA
ATOM     84  O   UNL A   1      52.993  34.012  30.019  1.00  0.00    -0.744 OA
ENDBRANCH  77  81
ENDBRANCH  50  74
BRANCH  62  85
ATOM     85  C   UNL A   1      43.876  36.714  30.248  1.00  0.00     0.023 A 
ATOM     86  C   UNL A   1      43.469  37.657  29.287  1.00  0.00     0.031 A 
ATOM     87  C   UNL A   1      44.178  37.183  31.540  1.00  0.00     0.131 A 
ATOM     88  C   UNL A   1      43.412  39.021  29.621  1.00  0.00     0.055 A 
ATOM     89  C   UNL A   1      44.061  38.531  31.883  1.00  0.00     0.041 A 
ATOM     90  F   UNL A   1      44.578  36.333  32.499  1.00  0.00    -0.206 F 
ATOM     91  C   UNL A   1      43.685  39.461  30.919  1.00  0.00     0.022 A 
BRANCH  88  92
ATOM     92  S   UNL A   1      43.053  40.229  28.316  1.00  0.00     0.124 S 
ATOM     93  O   UNL A   1      43.365  39.472  27.108  1.00  0.00    -0.237 OA
ATOM     94  O   UNL A   1      41.641  40.520  28.539  1.00  0.00    -0.237 OA
ATOM     95  O   UNL A   1      43.965  41.333  28.609  1.00  0.00    -0.744 OA
ENDBRANCH  88  92
ENDBRANCH  62  85
ENDBRANCH  36  37
ENDBRANCH  29  31
ENDBRANCH  28  29
ENDBRANCH  27  28
ENDBRANCH  26  27
ENDBRANCH  25  26
ENDBRANCH  24  25
ENDBRANCH  23  24
ENDBRANCH  22  23
ENDBRANCH   1  22
TORSDOF 28
ENDMDL
MODEL 2
REMARK VINA RESULT:      -7.6      7.055     11.343
REMARK SMILES CC(=O)Oc1ccccc1SCCCCCC(=O)OCCOCCOCCOC(=O)c1ccc(-c2c3nc(c(-c4cc(S(=O)(=O)[O-])ccc4F)c4ccc([nH]4)c(-c4cc(S(=O)(=O)[O-])ccc4F)c4nc(c(-c5cc(S(=O)(=O)[O-])ccc5F)c5ccc2[nH]5)C=C4)C=C3)cc1
REMARK SMILES IDX 21 1 20 2 19 3 17 4 18 5 16 6 15 7 14 8 13 9 12 10 11 11
REMARK SMILES IDX 10 12 5 13 6 14 7 15 9 16 8 17 4 18 2 19 1 20 3 21 22 22
REMARK SMILES IDX 23 23 24 24 25 25 26 26 27 27 28 28 29 29 30 30 31 31 32 32
REMARK SMILES IDX 93 33 33 34 92 35 34 36 35 37 36 38 86 39 37 40 91 41 85 42
REMARK SMILES IDX 87 43 38 44 90 45 84 46 83 47 39 49 71 50 51 51 70 52 52 53
REMARK SMILES IDX 55 54 69 55 88 56 53 57 54 58 68 60 89 61 56 62 40 63 41 64
REMARK SMILES IDX 49 65 42 66 48 67 50 68 47 69 43 70 44 71 45 72 46 73 72 74
REMARK SMILES IDX 73 75 81 76 74 77 80 78 82 79 79 80 75 81 76 82 77 83 78 84
REMARK SMILES IDX 57 85 58 86 66 87 59 88 65 89 67 90 64 91 60 92 61 93 62 94
REMARK SMILES IDX 63 95
REMARK H PARENT 87 48 55 59
REMARK Flexibility Score: inf
ROOT
ATOM      1  C   UNL A   1      36.304  21.065  25.097  1.00  0.00     0.202 C 
ENDROOT
BRANCH   1   2
ATOM      2  C   UNL A   1      35.096  21.689  25.803  1.00  0.00     0.261 C 
BRANCH   2   3
ATOM      3  O   UNL A   1      34.001  20.775  25.916  1.00  0.00    -0.463 OA
BRANCH   3   4
ATOM      4  C   UNL A   1      32.924  20.988  25.118  1.00  0.00     0.305 C 
ATOM      5  O   UNL A   1      31.781  20.619  25.358  1.00  0.00    -0.252 OA
BRANCH   4   6
ATOM      6  C   UNL A   1      33.292  21.816  23.903  1.00  0.00     0.123 C 
BRANCH   6   7
ATOM      7  C   UNL A   1      32.159  21.976  22.880  1.00  0.00     0.012 C 
BRANCH   7   8
ATOM      8  C   UNL A   1      30.986  22.959  23.160  1.00  0.00     0.001 C 
BRANCH   8   9
ATOM      9  C   UNL A   1      31.104  24.497  23.272  1.00  0.00     0.011 C 
BRANCH   9  10
ATOM     10  C   UNL A   1      30.184  25.468  24.075  1.00  0.00     0.075 C 
BRANCH  10  11
ATOM     11  S   UNL A   1      29.999  27.317  23.960  1.00  0.00    -0.122 SA
BRANCH  11  12
ATOM     12  C   UNL A   1      31.599  28.098  23.786  1.00  0.00     0.050 A 
ATOM     13  C   UNL A   1      32.255  28.999  24.642  1.00  0.00     0.144 A 
ATOM     14  C   UNL A   1      33.603  29.338  24.422  1.00  0.00     0.048 A 
ATOM     15  C   UNL A   1      34.261  28.897  23.272  1.00  0.00     0.004 A 
ATOM     16  C   UNL A   1      32.233  27.811  22.560  1.00  0.00     0.019 A 
ATOM     17  C   UNL A   1      33.549  28.204  22.302  1.00  0.00     0.001 A 
BRANCH  13  18
ATOM     18  O   UNL A   1      31.597  29.702  25.675  1.00  0.00    -0.426 OA
BRANCH  18  19
ATOM     19  C   UNL A   1      32.032  29.260  26.881  1.00  0.00     0.308 C 
ATOM     20  C   UNL A   1      31.333  28.100  27.470  1.00  0.00     0.139 C 
ATOM     21  O   UNL A   1      32.988  29.731  27.478  1.00  0.00    -0.252 OA
ENDBRANCH  18  19
ENDBRANCH  13  18
ENDBRANCH  11  12
ENDBRANCH  10  11
ENDBRANCH   9  10
ENDBRANCH   8   9
ENDBRANCH   7   8
ENDBRANCH   6   7
ENDBRANCH   4   6
ENDBRANCH   3   4
ENDBRANCH   2   3
ENDBRANCH   1   2
BRANCH   1  22
ATOM     22  O   UNL A   1      37.463  21.887  24.976  1.00  0.00    -0.376 OA
BRANCH  22  23
ATOM     23  C   UNL A   1      37.855  22.628  26.125  1.00  0.00     0.188 C 
BRANCH  23  24
ATOM     24  C   UNL A   1      38.452  24.011  25.858  1.00  0.00     0.188 C 
BRANCH  24  25
ATOM     25  O   UNL A   1      38.790  24.791  26.998  1.00  0.00    -0.376 OA
BRANCH  25  26
ATOM     26  C   UNL A   1      39.786  24.229  27.861  1.00  0.00     0.202 C 
BRANCH  26  27
ATOM     27  C   UNL A   1      40.889  23.352  27.223  1.00  0.00     0.261 C 
BRANCH  27  28
ATOM     28  O   UNL A   1      41.862  24.028  26.393  1.00  0.00    -0.460 OA
BRANCH  28  29
ATOM     29  C   UNL A   1      42.797  23.287  25.748  1.00  0.00     0.338 C 
ATOM     30  O   UNL A   1      42.571  22.374  24.973  1.00  0.00    -0.246 OA
BRANCH  29  31
ATOM     31  C   UNL A   1      44.132  23.944  25.926  1.00  0.00     0.060 A 
ATOM     32  C   UNL A   1      45.281  23.241  25.530  1.00  0.00     0.016 A 
ATOM     33  C   UNL A   1      44.265  25.260  26.383  1.00  0.00     0.016 A 
ATOM     34  C   UNL A   1      46.550  23.836  25.604  1.00  0.00     0.010 A 
ATOM     35  C   UNL A   1      45.539  25.848  26.474  1.00  0.00     0.010 A 
ATOM     36  C   UNL A   1      46.696  25.138  26.102  1.00  0.00    -0.014 A 
BRANCH  36  37
ATOM     37  C   UNL A   1      48.049  25.713  26.373  1.00  0.00     0.031 A 
ATOM     38  C   UNL A   1      48.859  26.236  25.215  1.00  0.00     0.074 A 
ATOM     39  C   UNL A   1      48.575  25.768  27.613  1.00  0.00     0.049 A 
ATOM     40  N   UNL A   1      50.100  26.650  25.178  1.00  0.00    -0.248 NA
ATOM     41  C   UNL A   1      48.166  26.292  23.921  1.00  0.00     0.031 C 
ATOM     42  C   UNL A   1      47.892  25.363  28.839  1.00  0.00     0.029 A 
ATOM     43  N   UNL A   1      49.822  26.169  28.041  1.00  0.00    -0.354 N 
ATOM     44  C   UNL A   1      50.346  26.999  23.854  1.00  0.00     0.074 A 
ATOM     45  C   UNL A   1      49.128  26.722  23.119  1.00  0.00     0.031 C 
ATOM     46  C   UNL A   1      48.737  25.506  29.875  1.00  0.00     0.029 A 
ATOM     47  C   UNL A   1      50.040  25.959  29.386  1.00  0.00     0.049 A 
ATOM     48  H   UNL A   1      50.495  26.568  27.443  1.00  0.00     0.167 HD
ATOM     49  C   UNL A   1      51.481  27.498  23.299  1.00  0.00     0.034 A 
ATOM     50  C   UNL A   1      51.166  26.065  30.127  1.00  0.00     0.034 A 
ATOM     51  C   UNL A   1      52.696  27.757  24.035  1.00  0.00     0.049 A 
ATOM     52  C   UNL A   1      52.456  26.508  29.471  1.00  0.00     0.074 A 
ATOM     53  C   UNL A   1      53.885  28.292  23.570  1.00  0.00     0.029 A 
ATOM     54  N   UNL A   1      52.891  27.476  25.382  1.00  0.00    -0.354 N 
ATOM     55  N   UNL A   1      52.675  26.845  28.221  1.00  0.00    -0.248 NA
ATOM     56  C   UNL A   1      53.652  26.580  30.325  1.00  0.00     0.031 C 
ATOM     57  C   UNL A   1      54.825  28.242  24.605  1.00  0.00     0.029 A 
ATOM     58  C   UNL A   1      54.198  27.770  25.746  1.00  0.00     0.049 A 
ATOM     59  H   UNL A   1      52.203  27.119  25.989  1.00  0.00     0.167 HD
ATOM     60  C   UNL A   1      54.025  27.187  28.146  1.00  0.00     0.074 A 
ATOM     61  C   UNL A   1      54.567  27.032  29.478  1.00  0.00     0.031 C 
ATOM     62  C   UNL A   1      54.748  27.597  27.071  1.00  0.00     0.034 A 
BRANCH  49  63
ATOM     63  C   UNL A   1      51.480  27.724  21.805  1.00  0.00     0.023 A 
ATOM     64  C   UNL A   1      51.538  26.659  20.889  1.00  0.00     0.031 A 
ATOM     65  C   UNL A   1      51.460  29.032  21.289  1.00  0.00     0.131 A 
ATOM     66  C   UNL A   1      51.665  26.923  19.517  1.00  0.00     0.055 A 
ATOM     67  C   UNL A   1      51.491  29.286  19.916  1.00  0.00     0.041 A 
ATOM     68  F   UNL A   1      51.427  30.092  22.113  1.00  0.00    -0.206 F 
ATOM     69  C   UNL A   1      51.614  28.228  19.022  1.00  0.00     0.022 A 
BRANCH  66  70
ATOM     70  S   UNL A   1      52.079  25.548  18.408  1.00  0.00     0.124 S 
ATOM     71  O   UNL A   1      53.505  25.768  18.184  1.00  0.00    -0.237 OA
ATOM     72  O   UNL A   1      51.730  24.381  19.210  1.00  0.00    -0.237 OA
ATOM     73  O   UNL A   1      51.230  25.782  17.241  1.00  0.00    -0.744 OA
ENDBRANCH  66  70
ENDBRANCH  49  63
BRANCH  50  74
ATOM     74  C   UNL A   1      51.158  25.656  31.566  1.00  0.00     0.023 A 
ATOM     75  C   UNL A   1      51.325  24.316  31.955  1.00  0.00     0.031 A 
ATOM     76  C   UNL A   1      50.925  26.608  32.577  1.00  0.00     0.131 A 
ATOM     77  C   UNL A   1      51.229  23.964  33.312  1.00  0.00     0.055 A 
ATOM     78  C   UNL A   1      50.890  26.261  33.928  1.00  0.00     0.041 A 
ATOM     79  F   UNL A   1      50.736  27.899  32.261  1.00  0.00    -0.206 F 
ATOM     80  C   UNL A   1      51.033  24.930  34.302  1.00  0.00     0.022 A 
BRANCH  77  81
ATOM     81  S   UNL A   1      51.282  22.207  33.766  1.00  0.00     0.124 S 
ATOM     82  O   UNL A   1      52.302  22.200  34.808  1.00  0.00    -0.237 OA
ATOM     83  O   UNL A   1      49.912  21.966  34.208  1.00  0.00    -0.237 OA
ATOM     84  O   UNL A   1      51.658  21.542  32.519  1.00  0.00    -0.744 OA
ENDBRANCH  77  81
ENDBRANCH  50  74
BRANCH  62  85
ATOM     85  C   UNL A   1      56.204  27.944  27.291  1.00  0.00     0.023 A 
ATOM     86  C   UNL A   1      56.615  29.241  27.650  1.00  0.00     0.031 A 
ATOM     87  C   UNL A   1      57.195  26.954  27.160  1.00  0.00     0.131 A 
ATOM     88  C   UNL A   1      57.980  29.520  27.829  1.00  0.00     0.055 A 
ATOM     89  C   UNL A   1      58.544  27.223  27.399  1.00  0.00     0.041 A 
ATOM     90  F   UNL A   1      56.866  25.700  26.813  1.00  0.00    -0.206 F 
ATOM     91  C   UNL A   1      58.945  28.514  27.727  1.00  0.00     0.022 A 
BRANCH  88  92
ATOM     92  S   UNL A   1      58.494  31.235  28.122  1.00  0.00     0.124 S 
ATOM     93  O   UNL A   1      59.302  31.107  29.331  1.00  0.00    -0.237 OA
ATOM     94  O   UNL A   1      59.222  31.557  26.899  1.00  0.00    -0.237 OA
ATOM     95  O   UNL A   1      57.230  31.949  28.294  1.00  0.00    -0.744 OA
ENDBRANCH  88  92
ENDBRANCH  62  85
ENDBRANCH  36  37
ENDBRANCH  29  31
ENDBRANCH  28  29
ENDBRANCH  27  28
ENDBRANCH  26  27
ENDBRANCH  25  26
ENDBRANCH  24  25
ENDBRANCH  23  24
ENDBRANCH  22  23
ENDBRANCH   1  22
TORSDOF 28
ENDMDL
MODEL 3
REMARK VINA RESULT:      -7.6      5.912     11.411
REMARK SMILES CC(=O)Oc1ccccc1SCCCCCC(=O)OCCOCCOCCOC(=O)c1ccc(-c2c3nc(c(-c4cc(S(=O)(=O)[O-])ccc4F)c4ccc([nH]4)c(-c4cc(S(=O)(=O)[O-])ccc4F)c4nc(c(-c5cc(S(=O)(=O)[O-])ccc5F)c5ccc2[nH]5)C=C4)C=C3)cc1
REMARK SMILES IDX 21 1 20 2 19 3 17 4 18 5 16 6 15 7 14 8 13 9 12 10 11 11
REMARK SMILES IDX 10 12 5 13 6 14 7 15 9 16 8 17 4 18 2 19 1 20 3 21 22 22
REMARK SMILES IDX 23 23 24 24 25 25 26 26 27 27 28 28 29 29 30 30 31 31 32 32
REMARK SMILES IDX 93 33 33 34 92 35 34 36 35 37 36 38 86 39 37 40 91 41 85 42
REMARK SMILES IDX 87 43 38 44 90 45 84 46 83 47 39 49 71 50 51 51 70 52 52 53
REMARK SMILES IDX 55 54 69 55 88 56 53 57 54 58 68 60 89 61 56 62 40 63 41 64
REMARK SMILES IDX 49 65 42 66 48 67 50 68 47 69 43 70 44 71 45 72 46 73 72 74
REMARK SMILES IDX 73 75 81 76 74 77 80 78 82 79 79 80 75 81 76 82 77 83 78 84
REMARK SMILES IDX 57 85 58 86 66 87 59 88 65 89 67 90 64 91 60 92 61 93 62 94
REMARK SMILES IDX 63 95
REMARK H PARENT 87 48 55 59
REMARK Flexibility Score: inf
ROOT
ATOM      1  C   UNL A   1      32.740  26.181  25.095  1.00  0.00     0.202 C 
ENDROOT
BRANCH   1   2
ATOM      2  C   UNL A   1      33.919  25.264  25.438  1.00  0.00     0.261 C 
BRANCH   2   3
ATOM      3  O   UNL A   1      34.660  24.875  24.277  1.00  0.00    -0.463 OA
BRANCH   3   4
ATOM      4  C   UNL A   1      34.237  23.775  23.604  1.00  0.00     0.305 C 
ATOM      5  O   UNL A   1      34.455  23.540  22.422  1.00  0.00    -0.252 OA
BRANCH   4   6
ATOM      6  C   UNL A   1      33.508  22.812  24.522  1.00  0.00     0.123 C 
BRANCH   6   7
ATOM      7  C   UNL A   1      34.144  21.418  24.609  1.00  0.00     0.012 C 
BRANCH   7   8
ATOM      8  C   UNL A   1      35.589  21.251  25.160  1.00  0.00     0.001 C 
BRANCH   8   9
ATOM      9  C   UNL A   1      36.380  22.315  25.957  1.00  0.00     0.011 C 
BRANCH   9  10
ATOM     10  C   UNL A   1      37.897  22.660  25.840  1.00  0.00     0.075 C 
BRANCH  10  11
ATOM     11  S   UNL A   1      39.390  21.551  25.918  1.00  0.00    -0.122 SA
BRANCH  11  12
ATOM     12  C   UNL A   1      40.745  22.380  26.742  1.00  0.00     0.050 A 
ATOM     13  C   UNL A   1      40.719  23.428  27.678  1.00  0.00     0.144 A 
ATOM     14  C   UNL A   1      41.890  23.800  28.363  1.00  0.00     0.048 A 
ATOM     15  C   UNL A   1      43.118  23.231  28.019  1.00  0.00     0.004 A 
ATOM     16  C   UNL A   1      42.014  21.951  26.304  1.00  0.00     0.019 A 
ATOM     17  C   UNL A   1      43.190  22.369  26.933  1.00  0.00     0.001 A 
BRANCH  13  18
ATOM     18  O   UNL A   1      39.583  24.238  27.900  1.00  0.00    -0.426 OA
BRANCH  18  19
ATOM     19  C   UNL A   1      39.717  25.410  27.232  1.00  0.00     0.308 C 
ATOM     20  C   UNL A   1      39.400  26.650  27.968  1.00  0.00     0.139 C 
ATOM     21  O   UNL A   1      40.127  25.500  26.084  1.00  0.00    -0.252 OA
ENDBRANCH  18  19
ENDBRANCH  13  18
ENDBRANCH  11  12
ENDBRANCH  10  11
ENDBRANCH   9  10
ENDBRANCH   8   9
ENDBRANCH   7   8
ENDBRANCH   6   7
ENDBRANCH   4   6
ENDBRANCH   3   4
ENDBRANCH   2   3
ENDBRANCH   1   2
BRANCH   1  22
ATOM     22  O   UNL A   1      33.030  27.572  24.980  1.00  0.00    -0.376 OA
BRANCH  22  23
ATOM     23  C   UNL A   1      31.923  28.458  24.863  1.00  0.00     0.188 C 
BRANCH  23  24
ATOM     24  C   UNL A   1      31.672  29.379  26.057  1.00  0.00     0.188 C 
BRANCH  24  25
ATOM     25  O   UNL A   1      31.827  30.775  25.830  1.00  0.00    -0.376 OA
BRANCH  25  26
ATOM     26  C   UNL A   1      32.140  31.561  26.986  1.00  0.00     0.202 C 
BRANCH  26  27
ATOM     27  C   UNL A   1      33.547  31.405  27.610  1.00  0.00     0.261 C 
BRANCH  27  28
ATOM     28  O   UNL A   1      34.354  32.601  27.708  1.00  0.00    -0.460 OA
BRANCH  28  29
ATOM     29  C   UNL A   1      34.318  33.322  28.856  1.00  0.00     0.338 C 
ATOM     30  O   UNL A   1      33.341  33.894  29.307  1.00  0.00    -0.246 OA
BRANCH  29  31
ATOM     31  C   UNL A   1      35.584  33.070  29.616  1.00  0.00     0.060 A 
ATOM     32  C   UNL A   1      35.647  31.947  30.456  1.00  0.00     0.016 A 
ATOM     33  C   UNL A   1      36.729  33.858  29.450  1.00  0.00     0.016 A 
ATOM     34  C   UNL A   1      36.832  31.621  31.135  1.00  0.00     0.010 A 
ATOM     35  C   UNL A   1      37.909  33.541  30.145  1.00  0.00     0.010 A 
ATOM     36  C   UNL A   1      37.969  32.429  31.007  1.00  0.00    -0.014 A 
BRANCH  36  37
ATOM     37  C   UNL A   1      39.171  32.214  31.870  1.00  0.00     0.031 A 
ATOM     38  C   UNL A   1      40.330  31.427  31.313  1.00  0.00     0.074 A 
ATOM     39  C   UNL A   1      39.249  32.685  33.131  1.00  0.00     0.049 A 
ATOM     40  N   UNL A   1      41.412  30.994  31.908  1.00  0.00    -0.248 NA
ATOM     41  C   UNL A   1      40.246  31.082  29.887  1.00  0.00     0.031 C 
ATOM     42  C   UNL A   1      38.242  33.515  33.786  1.00  0.00     0.029 A 
ATOM     43  N   UNL A   1      40.218  32.510  34.094  1.00  0.00    -0.354 N 
ATOM     44  C   UNL A   1      42.132  30.306  30.936  1.00  0.00     0.074 A 
ATOM     45  C   UNL A   1      41.345  30.364  29.720  1.00  0.00     0.031 C 
ATOM     46  C   UNL A   1      38.629  33.751  35.052  1.00  0.00     0.029 A 
ATOM     47  C   UNL A   1      39.883  33.045  35.320  1.00  0.00     0.049 A 
ATOM     48  H   UNL A   1      41.070  32.046  33.925  1.00  0.00     0.167 HD
ATOM     49  C   UNL A   1      43.332  29.682  31.045  1.00  0.00     0.034 A 
ATOM     50  C   UNL A   1      40.483  32.937  36.527  1.00  0.00     0.034 A 
ATOM     51  C   UNL A   1      44.104  29.616  32.263  1.00  0.00     0.049 A 
ATOM     52  C   UNL A   1      41.760  32.135  36.660  1.00  0.00     0.074 A 
ATOM     53  C   UNL A   1      45.344  29.035  32.465  1.00  0.00     0.029 A 
ATOM     54  N   UNL A   1      43.700  30.121  33.493  1.00  0.00    -0.354 N 
ATOM     55  N   UNL A   1      42.437  31.498  35.732  1.00  0.00    -0.248 NA
ATOM     56  C   UNL A   1      42.351  32.033  38.003  1.00  0.00     0.031 C 
ATOM     57  C   UNL A   1      45.644  29.101  33.830  1.00  0.00     0.029 A 
ATOM     58  C   UNL A   1      44.640  29.811  34.467  1.00  0.00     0.049 A 
ATOM     59  H   UNL A   1      42.869  30.623  33.652  1.00  0.00     0.167 HD
ATOM     60  C   UNL A   1      43.540  30.940  36.377  1.00  0.00     0.074 A 
ATOM     61  C   UNL A   1      43.449  31.327  37.768  1.00  0.00     0.031 C 
ATOM     62  C   UNL A   1      44.541  30.179  35.861  1.00  0.00     0.034 A 
BRANCH  49  63
ATOM     63  C   UNL A   1      43.847  28.953  29.825  1.00  0.00     0.023 A 
ATOM     64  C   UNL A   1      44.756  29.545  28.930  1.00  0.00     0.031 A 
ATOM     65  C   UNL A   1      43.388  27.656  29.531  1.00  0.00     0.131 A 
ATOM     66  C   UNL A   1      45.105  28.879  27.745  1.00  0.00     0.055 A 
ATOM     67  C   UNL A   1      43.814  26.961  28.397  1.00  0.00     0.041 A 
ATOM     68  F   UNL A   1      42.503  27.046  30.334  1.00  0.00    -0.206 F 
ATOM     69  C   UNL A   1      44.662  27.580  27.486  1.00  0.00     0.022 A 
BRANCH  66  70
ATOM     70  S   UNL A   1      45.998  29.805  26.465  1.00  0.00     0.124 S 
ATOM     71  O   UNL A   1      47.269  30.077  27.131  1.00  0.00    -0.237 OA
ATOM     72  O   UNL A   1      46.045  28.852  25.363  1.00  0.00    -0.237 OA
ATOM     73  O   UNL A   1      45.157  30.980  26.243  1.00  0.00    -0.744 OA
ENDBRANCH  66  70
ENDBRANCH  49  63
BRANCH  50  74
ATOM     74  C   UNL A   1      39.837  33.525  37.741  1.00  0.00     0.023 A 
ATOM     75  C   UNL A   1      39.053  32.749  38.612  1.00  0.00     0.031 A 
ATOM     76  C   UNL A   1      39.955  34.901  38.015  1.00  0.00     0.131 A 
ATOM     77  C   UNL A   1      38.398  33.359  39.695  1.00  0.00     0.055 A 
ATOM     78  C   UNL A   1      39.350  35.491  39.126  1.00  0.00     0.041 A 
ATOM     79  F   UNL A   1      40.673  35.695  37.204  1.00  0.00    -0.206 F 
ATOM     80  C   UNL A   1      38.557  34.721  39.969  1.00  0.00     0.022 A 
BRANCH  77  81
ATOM     81  S   UNL A   1      37.260  32.366  40.702  1.00  0.00     0.124 S 
ATOM     82  O   UNL A   1      35.962  32.878  40.275  1.00  0.00    -0.237 OA
ATOM     83  O   UNL A   1      37.584  31.008  40.276  1.00  0.00    -0.237 OA
ATOM     84  O   UNL A   1      37.641  32.694  42.074  1.00  0.00    -0.744 OA
ENDBRANCH  77  81
ENDBRANCH  50  74
BRANCH  62  85
ATOM     85  C   UNL A   1      45.646  29.738  36.796  1.00  0.00     0.023 A 
ATOM     86  C   UNL A   1      45.507  28.619  37.637  1.00  0.00     0.031 A 
ATOM     87  C   UNL A   1      46.867  30.436  36.828  1.00  0.00     0.131 A 
ATOM     88  C   UNL A   1      46.555  28.255  38.500  1.00  0.00     0.055 A 
ATOM     89  C   UNL A   1      47.927  30.033  37.643  1.00  0.00     0.041 A 
ATOM     90  F   UNL A   1      47.057  31.516  36.054  1.00  0.00    -0.206 F 
ATOM     91  C   UNL A   1      47.772  28.943  38.492  1.00  0.00     0.022 A 
BRANCH  88  92
ATOM     92  S   UNL A   1      46.284  26.916  39.694  1.00  0.00     0.124 S 
ATOM     93  O   UNL A   1      44.906  26.529  39.407  1.00  0.00    -0.237 OA
ATOM     94  O   UNL A   1      47.309  25.949  39.318  1.00  0.00    -0.237 OA
ATOM     95  O   UNL A   1      46.489  27.562  40.989  1.00  0.00    -0.744 OA
ENDBRANCH  88  92
ENDBRANCH  62  85
ENDBRANCH  36  37
ENDBRANCH  29  31
ENDBRANCH  28  29
ENDBRANCH  27  28
ENDBRANCH  26  27
ENDBRANCH  25  26
ENDBRANCH  24  25
ENDBRANCH  23  24
ENDBRANCH  22  23
ENDBRANCH   1  22
TORSDOF 28
ENDMDL
