MODEL 1
REMARK VINA RESULT:      -8.1      0.000      0.000
REMARK SMILES O=C(OCCOCCOCCOC(=O)[C@H]1CCCN(C(=O)C2CC[NH+](Cc3ccco3)CC2)C1)c1ccc(-c2c3nc(c(-c4cc(S(=O)(=O)[O-])ccc4F)c4ccc([nH]4)c(-c4cc(S(=O)(=O)[O-])ccc4F)c4nc(c(-c5cc(S(=O)(=O)[O-])ccc5F)c5ccc2[nH]5)C=C4)C=C3)cc1
REMARK SMILES IDX 8 1 7 2 6 3 5 4 4 5 3 6 2 7 1 8 35 9 36 10 97 11 37 12 96 13
REMARK SMILES IDX 38 14 39 15 40 16 90 17 41 18 95 19 89 20 91 21 42 22 94 23
REMARK SMILES IDX 88 24 87 25 43 27 75 28 55 29 74 30 56 31 59 32 73 33 92 34
REMARK SMILES IDX 57 35 58 36 72 38 93 39 60 40 44 41 45 42 53 43 46 44 52 45
REMARK SMILES IDX 54 46 51 47 47 48 48 49 49 50 50 51 76 52 77 53 85 54 78 55
REMARK SMILES IDX 84 56 86 57 83 58 79 59 80 60 81 61 82 62 61 63 62 64 70 65
REMARK SMILES IDX 63 66 69 67 71 68 68 69 64 70 65 71 66 72 67 73 9 74 10 75
REMARK SMILES IDX 11 76 12 77 13 78 14 79 15 80 16 81 34 82 17 83 19 84 18 85
REMARK SMILES IDX 20 86 21 87 22 88 23 89 33 90 24 91 32 92 25 93 26 95 27 96
REMARK SMILES IDX 28 97 31 98 29 99 30 100
REMARK H PARENT 91 26 59 37 25 94
REMARK Flexibility Score: inf
ROOT
ATOM      1  C   UNL A   1      42.597  24.096  27.705  1.00  0.00     0.188 C 
ENDROOT
BRANCH   1   2
ATOM      2  C   UNL A   1      42.198  22.684  27.271  1.00  0.00     0.188 C 
BRANCH   2   3
ATOM      3  O   UNL A   1      43.141  22.054  26.394  1.00  0.00    -0.376 OA
BRANCH   3   4
ATOM      4  C   UNL A   1      43.218  22.687  25.114  1.00  0.00     0.202 C 
BRANCH   4   5
ATOM      5  C   UNL A   1      44.617  23.148  24.666  1.00  0.00     0.261 C 
BRANCH   5   6
ATOM      6  O   UNL A   1      44.789  24.571  24.591  1.00  0.00    -0.460 OA
BRANCH   6   7
ATOM      7  C   UNL A   1      45.789  25.366  25.041  1.00  0.00     0.338 C 
ATOM      8  O   UNL A   1      46.881  25.264  24.478  1.00  0.00    -0.246 OA
BRANCH   7   9
ATOM      9  C   UNL A   1      45.671  26.351  26.170  1.00  0.00     0.060 A 
ATOM     10  C   UNL A   1      46.641  26.630  27.137  1.00  0.00     0.016 A 
ATOM     11  C   UNL A   1      44.458  27.051  26.267  1.00  0.00     0.016 A 
ATOM     12  C   UNL A   1      46.405  27.504  28.207  1.00  0.00     0.010 A 
ATOM     13  C   UNL A   1      44.222  27.949  27.320  1.00  0.00     0.010 A 
ATOM     14  C   UNL A   1      45.182  28.147  28.334  1.00  0.00    -0.014 A 
BRANCH  14  15
ATOM     15  C   UNL A   1      44.749  28.776  29.608  1.00  0.00     0.031 A 
ATOM     16  C   UNL A   1      44.382  27.841  30.714  1.00  0.00     0.074 A 
ATOM     17  C   UNL A   1      44.882  30.065  29.991  1.00  0.00     0.049 A 
ATOM     18  N   UNL A   1      43.865  28.130  31.872  1.00  0.00    -0.248 NA
ATOM     19  C   UNL A   1      44.774  26.429  30.555  1.00  0.00     0.031 C 
ATOM     20  C   UNL A   1      45.779  31.072  29.464  1.00  0.00     0.029 A 
ATOM     21  N   UNL A   1      44.098  30.793  30.863  1.00  0.00    -0.354 N 
ATOM     22  C   UNL A   1      44.017  26.987  32.631  1.00  0.00     0.074 A 
ATOM     23  C   UNL A   1      44.504  25.944  31.756  1.00  0.00     0.031 C 
ATOM     24  C   UNL A   1      45.319  32.298  29.781  1.00  0.00     0.029 A 
ATOM     25  C   UNL A   1      44.111  32.149  30.550  1.00  0.00     0.049 A 
ATOM     26  H   UNL A   1      43.593  30.403  31.612  1.00  0.00     0.167 HD
ATOM     27  C   UNL A   1      43.860  26.887  33.969  1.00  0.00     0.034 A 
ATOM     28  C   UNL A   1      43.139  33.058  30.774  1.00  0.00     0.034 A 
ATOM     29  C   UNL A   1      43.346  27.974  34.765  1.00  0.00     0.049 A 
ATOM     30  C   UNL A   1      42.347  32.762  31.999  1.00  0.00     0.074 A 
ATOM     31  C   UNL A   1      43.105  28.020  36.123  1.00  0.00     0.029 A 
ATOM     32  N   UNL A   1      42.955  29.210  34.250  1.00  0.00    -0.354 N 
ATOM     33  N   UNL A   1      42.346  31.660  32.705  1.00  0.00    -0.248 NA
ATOM     34  C   UNL A   1      41.619  33.887  32.584  1.00  0.00     0.031 C 
ATOM     35  C   UNL A   1      42.463  29.233  36.407  1.00  0.00     0.029 A 
ATOM     36  C   UNL A   1      42.378  29.982  35.244  1.00  0.00     0.049 A 
ATOM     37  H   UNL A   1      43.072  29.493  33.314  1.00  0.00     0.167 HD
ATOM     38  C   UNL A   1      41.796  32.014  33.916  1.00  0.00     0.074 A 
ATOM     39  C   UNL A   1      41.325  33.385  33.774  1.00  0.00     0.031 C 
ATOM     40  C   UNL A   1      41.824  31.306  35.071  1.00  0.00     0.034 A 
BRANCH  27  41
ATOM     41  C   UNL A   1      44.173  25.549  34.573  1.00  0.00     0.023 A 
ATOM     42  C   UNL A   1      45.498  25.115  34.779  1.00  0.00     0.031 A 
ATOM     43  C   UNL A   1      43.132  24.641  34.816  1.00  0.00     0.131 A 
ATOM     44  C   UNL A   1      45.747  23.776  35.115  1.00  0.00     0.055 A 
ATOM     45  C   UNL A   1      43.384  23.335  35.234  1.00  0.00     0.041 A 
ATOM     46  F   UNL A   1      41.856  24.993  34.598  1.00  0.00    -0.206 F 
ATOM     47  C   UNL A   1      44.697  22.890  35.366  1.00  0.00     0.022 A 
BRANCH  44  48
ATOM     48  S   UNL A   1      47.452  23.156  35.026  1.00  0.00     0.124 S 
ATOM     49  O   UNL A   1      47.927  23.391  36.387  1.00  0.00    -0.237 OA
ATOM     50  O   UNL A   1      47.264  21.760  34.648  1.00  0.00    -0.237 OA
ATOM     51  O   UNL A   1      48.071  24.001  34.006  1.00  0.00    -0.744 OA
ENDBRANCH  44  48
ENDBRANCH  27  41
BRANCH  28  52
ATOM     52  C   UNL A   1      42.807  34.275  29.970  1.00  0.00     0.023 A 
ATOM     53  C   UNL A   1      43.613  35.407  29.829  1.00  0.00     0.031 A 
ATOM     54  C   UNL A   1      41.506  34.330  29.404  1.00  0.00     0.131 A 
ATOM     55  C   UNL A   1      43.108  36.542  29.151  1.00  0.00     0.055 A 
ATOM     56  C   UNL A   1      41.024  35.438  28.706  1.00  0.00     0.041 A 
ATOM     57  F   UNL A   1      40.678  33.279  29.525  1.00  0.00    -0.206 F 
ATOM     58  C   UNL A   1      41.832  36.556  28.572  1.00  0.00     0.022 A 
BRANCH  55  59
ATOM     59  S   UNL A   1      44.115  38.049  29.055  1.00  0.00     0.124 S 
ATOM     60  O   UNL A   1      43.161  39.004  28.504  1.00  0.00    -0.237 OA
ATOM     61  O   UNL A   1      44.502  38.253  30.448  1.00  0.00    -0.237 OA
ATOM     62  O   UNL A   1      45.209  37.668  28.162  1.00  0.00    -0.744 OA
ENDBRANCH  55  59
ENDBRANCH  28  52
BRANCH  40  63
ATOM     63  C   UNL A   1      41.347  32.050  36.275  1.00  0.00     0.023 A 
ATOM     64  C   UNL A   1      40.033  31.901  36.737  1.00  0.00     0.031 A 
ATOM     65  C   UNL A   1      42.181  32.995  36.894  1.00  0.00     0.131 A 
ATOM     66  C   UNL A   1      39.558  32.758  37.731  1.00  0.00     0.055 A 
ATOM     67  C   UNL A   1      41.730  33.777  37.953  1.00  0.00     0.041 A 
ATOM     68  F   UNL A   1      43.437  33.192  36.460  1.00  0.00    -0.206 F 
ATOM     69  C   UNL A   1      40.403  33.674  38.365  1.00  0.00     0.022 A 
BRANCH  66  70
ATOM     70  S   UNL A   1      37.781  32.757  38.067  1.00  0.00     0.124 S 
ATOM     71  O   UNL A   1      37.296  33.717  37.079  1.00  0.00    -0.237 OA
ATOM     72  O   UNL A   1      37.415  31.365  37.834  1.00  0.00    -0.237 OA
ATOM     73  O   UNL A   1      37.700  33.198  39.458  1.00  0.00    -0.744 OA
ENDBRANCH  66  70
ENDBRANCH  40  63
ENDBRANCH  14  15
ENDBRANCH   7   9
ENDBRANCH   6   7
ENDBRANCH   5   6
ENDBRANCH   4   5
ENDBRANCH   3   4
ENDBRANCH   2   3
ENDBRANCH   1   2
BRANCH   1  74
ATOM     74  O   UNL A   1      41.698  25.169  27.428  1.00  0.00    -0.376 OA
BRANCH  74  75
ATOM     75  C   UNL A   1      40.915  25.672  28.505  1.00  0.00     0.202 C 
BRANCH  75  76
ATOM     76  C   UNL A   1      41.213  27.074  29.067  1.00  0.00     0.261 C 
BRANCH  76  77
ATOM     77  O   UNL A   1      40.203  28.043  28.783  1.00  0.00    -0.463 OA
BRANCH  77  78
ATOM     78  C   UNL A   1      40.459  29.338  29.140  1.00  0.00     0.310 C 
ATOM     79  O   UNL A   1      41.541  29.884  29.025  1.00  0.00    -0.252 OA
BRANCH  78  80
ATOM     80  C   UNL A   1      39.190  30.056  29.613  1.00  0.00     0.119 C 
ATOM     81  C   UNL A   1      37.912  29.321  29.166  1.00  0.00     0.019 C 
ATOM     82  C   UNL A   1      39.310  30.335  31.131  1.00  0.00     0.134 C 
ATOM     83  C   UNL A   1      36.692  29.761  29.915  1.00  0.00     0.022 C 
ATOM     84  N   UNL A   1      38.032  30.565  31.831  1.00  0.00    -0.342 N 
ATOM     85  C   UNL A   1      36.989  29.701  31.380  1.00  0.00     0.119 C 
BRANCH  84  86
ATOM     86  C   UNL A   1      38.026  31.195  33.073  1.00  0.00     0.226 C 
ATOM     87  O   UNL A   1      38.249  30.517  34.089  1.00  0.00    -0.275 OA
BRANCH  86  88
ATOM     88  C   UNL A   1      37.659  32.709  33.304  1.00  0.00     0.090 C 
ATOM     89  C   UNL A   1      36.233  32.879  33.842  1.00  0.00     0.075 C 
ATOM     90  C   UNL A   1      37.917  33.797  32.247  1.00  0.00     0.075 C 
ATOM     91  C   UNL A   1      35.214  32.661  32.739  1.00  0.00     0.263 C 
ATOM     92  C   UNL A   1      36.664  34.225  31.429  1.00  0.00     0.263 C 
ATOM     93  N   UNL A   1      35.625  33.216  31.466  1.00  0.00    -0.329 N 
ATOM     94  H   UNL A   1      36.251  32.443  31.245  1.00  0.00     0.348 HD
BRANCH  93  95
ATOM     95  C   UNL A   1      34.755  33.053  30.305  1.00  0.00     0.338 C 
BRANCH  95  96
ATOM     96  C   UNL A   1      34.022  34.319  29.951  1.00  0.00     0.157 A 
ATOM     97  C   UNL A   1      33.940  35.111  28.819  1.00  0.00     0.052 A 
ATOM     98  O   UNL A   1      33.267  34.885  30.947  1.00  0.00    -0.463 OA
ATOM     99  C   UNL A   1      33.111  36.211  29.143  1.00  0.00     0.042 A 
ATOM    100  C   UNL A   1      32.720  36.024  30.444  1.00  0.00     0.195 A 
ENDBRANCH  95  96
ENDBRANCH  93  95
ENDBRANCH  86  88
ENDBRANCH  84  86
ENDBRANCH  78  80
ENDBRANCH  77  78
ENDBRANCH  76  77
ENDBRANCH  75  76
ENDBRANCH  74  75
ENDBRANCH   1  74
TORSDOF 24
ENDMDL
MODEL 2
REMARK VINA RESULT:      -8.1      4.858      6.819
REMARK SMILES O=C(OCCOCCOCCOC(=O)[C@H]1CCCN(C(=O)C2CC[NH+](Cc3ccco3)CC2)C1)c1ccc(-c2c3nc(c(-c4cc(S(=O)(=O)[O-])ccc4F)c4ccc([nH]4)c(-c4cc(S(=O)(=O)[O-])ccc4F)c4nc(c(-c5cc(S(=O)(=O)[O-])ccc5F)c5ccc2[nH]5)C=C4)C=C3)cc1
REMARK SMILES IDX 8 1 7 2 6 3 5 4 4 5 3 6 2 7 1 8 35 9 36 10 97 11 37 12 96 13
REMARK SMILES IDX 38 14 39 15 40 16 90 17 41 18 95 19 89 20 91 21 42 22 94 23
REMARK SMILES IDX 88 24 87 25 43 27 75 28 55 29 74 30 56 31 59 32 73 33 92 34
REMARK SMILES IDX 57 35 58 36 72 38 93 39 60 40 44 41 45 42 53 43 46 44 52 45
REMARK SMILES IDX 54 46 51 47 47 48 48 49 49 50 50 51 76 52 77 53 85 54 78 55
REMARK SMILES IDX 84 56 86 57 83 58 79 59 80 60 81 61 82 62 61 63 62 64 70 65
REMARK SMILES IDX 63 66 69 67 71 68 68 69 64 70 65 71 66 72 67 73 9 74 10 75
REMARK SMILES IDX 11 76 12 77 13 78 14 79 15 80 16 81 34 82 17 83 19 84 18 85
REMARK SMILES IDX 20 86 21 87 22 88 23 89 33 90 24 91 32 92 25 93 26 95 27 96
REMARK SMILES IDX 28 97 31 98 29 99 30 100
REMARK H PARENT 91 26 59 37 25 94
REMARK Flexibility Score: inf
ROOT
ATOM      1  C   UNL A   1      41.076  25.894  26.668  1.00  0.00     0.188 C 
ENDROOT
BRANCH   1   2
ATOM      2  C   UNL A   1      41.495  27.169  25.932  1.00  0.00     0.188 C 
BRANCH   2   3
ATOM      3  O   UNL A   1      42.533  26.970  24.964  1.00  0.00    -0.376 OA
BRANCH   3   4
ATOM      4  C   UNL A   1      43.165  25.693  25.081  1.00  0.00     0.202 C 
BRANCH   4   5
ATOM      5  C   UNL A   1      44.701  25.682  24.987  1.00  0.00     0.261 C 
BRANCH   5   6
ATOM      6  O   UNL A   1      45.331  24.507  25.519  1.00  0.00    -0.460 OA
BRANCH   6   7
ATOM      7  C   UNL A   1      45.519  24.106  26.799  1.00  0.00     0.338 C 
ATOM      8  O   UNL A   1      46.190  23.087  26.973  1.00  0.00    -0.246 OA
BRANCH   7   9
ATOM      9  C   UNL A   1      44.970  24.801  28.013  1.00  0.00     0.060 A 
ATOM     10  C   UNL A   1      43.773  24.507  28.672  1.00  0.00     0.016 A 
ATOM     11  C   UNL A   1      45.734  25.860  28.529  1.00  0.00     0.016 A 
ATOM     12  C   UNL A   1      43.301  25.271  29.748  1.00  0.00     0.010 A 
ATOM     13  C   UNL A   1      45.283  26.614  29.623  1.00  0.00     0.010 A 
ATOM     14  C   UNL A   1      44.030  26.355  30.215  1.00  0.00    -0.014 A 
BRANCH  14  15
ATOM     15  C   UNL A   1      43.424  27.399  31.081  1.00  0.00     0.031 A 
ATOM     16  C   UNL A   1      43.851  27.398  32.514  1.00  0.00     0.074 A 
ATOM     17  C   UNL A   1      42.739  28.502  30.706  1.00  0.00     0.049 A 
ATOM     18  N   UNL A   1      43.387  28.119  33.491  1.00  0.00    -0.248 NA
ATOM     19  C   UNL A   1      45.036  26.593  32.857  1.00  0.00     0.031 C 
ATOM     20  C   UNL A   1      42.729  29.158  29.416  1.00  0.00     0.029 A 
ATOM     21  N   UNL A   1      41.763  29.190  31.397  1.00  0.00    -0.354 N 
ATOM     22  C   UNL A   1      44.309  27.984  34.509  1.00  0.00     0.074 A 
ATOM     23  C   UNL A   1      45.259  26.972  34.105  1.00  0.00     0.031 C 
ATOM     24  C   UNL A   1      41.626  29.924  29.307  1.00  0.00     0.029 A 
ATOM     25  C   UNL A   1      40.876  29.823  30.532  1.00  0.00     0.049 A 
ATOM     26  H   UNL A   1      41.701  29.229  32.379  1.00  0.00     0.167 HD
ATOM     27  C   UNL A   1      44.385  28.739  35.626  1.00  0.00     0.034 A 
ATOM     28  C   UNL A   1      39.576  30.113  30.748  1.00  0.00     0.034 A 
ATOM     29  C   UNL A   1      43.378  29.714  35.964  1.00  0.00     0.049 A 
ATOM     30  C   UNL A   1      39.282  30.401  32.179  1.00  0.00     0.074 A 
ATOM     31  C   UNL A   1      43.299  30.537  37.069  1.00  0.00     0.029 A 
ATOM     32  N   UNL A   1      42.239  29.966  35.199  1.00  0.00    -0.354 N 
ATOM     33  N   UNL A   1      40.055  30.190  33.213  1.00  0.00    -0.248 NA
ATOM     34  C   UNL A   1      38.066  31.168  32.446  1.00  0.00     0.031 C 
ATOM     35  C   UNL A   1      42.063  31.196  37.031  1.00  0.00     0.029 A 
ATOM     36  C   UNL A   1      41.404  30.851  35.861  1.00  0.00     0.049 A 
ATOM     37  H   UNL A   1      42.055  29.571  34.316  1.00  0.00     0.167 HD
ATOM     38  C   UNL A   1      39.530  30.973  34.216  1.00  0.00     0.074 A 
ATOM     39  C   UNL A   1      38.281  31.520  33.706  1.00  0.00     0.031 C 
ATOM     40  C   UNL A   1      40.118  31.313  35.389  1.00  0.00     0.034 A 
BRANCH  27  41
ATOM     41  C   UNL A   1      45.539  28.450  36.542  1.00  0.00     0.023 A 
ATOM     42  C   UNL A   1      45.415  27.582  37.646  1.00  0.00     0.031 A 
ATOM     43  C   UNL A   1      46.736  29.164  36.391  1.00  0.00     0.131 A 
ATOM     44  C   UNL A   1      46.436  27.531  38.607  1.00  0.00     0.055 A 
ATOM     45  C   UNL A   1      47.781  29.042  37.305  1.00  0.00     0.041 A 
ATOM     46  F   UNL A   1      46.888  30.033  35.379  1.00  0.00    -0.206 F 
ATOM     47  C   UNL A   1      47.627  28.238  38.431  1.00  0.00     0.022 A 
BRANCH  44  48
ATOM     48  S   UNL A   1      46.108  26.688  40.184  1.00  0.00     0.124 S 
ATOM     49  O   UNL A   1      46.612  25.344  39.914  1.00  0.00    -0.237 OA
ATOM     50  O   UNL A   1      46.880  27.480  41.134  1.00  0.00    -0.237 OA
ATOM     51  O   UNL A   1      44.656  26.783  40.327  1.00  0.00    -0.744 OA
ENDBRANCH  44  48
ENDBRANCH  27  41
BRANCH  28  52
ATOM     52  C   UNL A   1      38.465  30.188  29.750  1.00  0.00     0.023 A 
ATOM     53  C   UNL A   1      37.621  31.283  29.545  1.00  0.00     0.031 A 
ATOM     54  C   UNL A   1      38.167  28.997  29.036  1.00  0.00     0.131 A 
ATOM     55  C   UNL A   1      36.523  31.160  28.661  1.00  0.00     0.055 A 
ATOM     56  C   UNL A   1      37.104  28.891  28.138  1.00  0.00     0.041 A 
ATOM     57  F   UNL A   1      38.932  27.905  29.207  1.00  0.00    -0.206 F 
ATOM     58  C   UNL A   1      36.273  29.983  27.944  1.00  0.00     0.022 A 
BRANCH  55  59
ATOM     59  S   UNL A   1      35.368  32.548  28.471  1.00  0.00     0.124 S 
ATOM     60  O   UNL A   1      34.225  31.893  27.846  1.00  0.00    -0.237 OA
ATOM     61  O   UNL A   1      35.184  32.989  29.851  1.00  0.00    -0.237 OA
ATOM     62  O   UNL A   1      36.100  33.483  27.619  1.00  0.00    -0.744 OA
ENDBRANCH  55  59
ENDBRANCH  28  52
BRANCH  40  63
ATOM     63  C   UNL A   1      39.398  32.363  36.171  1.00  0.00     0.023 A 
ATOM     64  C   UNL A   1      39.853  33.687  36.184  1.00  0.00     0.031 A 
ATOM     65  C   UNL A   1      38.316  32.008  36.993  1.00  0.00     0.131 A 
ATOM     66  C   UNL A   1      39.287  34.594  37.080  1.00  0.00     0.055 A 
ATOM     67  C   UNL A   1      37.690  32.944  37.810  1.00  0.00     0.041 A 
ATOM     68  F   UNL A   1      37.870  30.742  37.034  1.00  0.00    -0.206 F 
ATOM     69  C   UNL A   1      38.189  34.244  37.872  1.00  0.00     0.022 A 
BRANCH  66  70
ATOM     70  S   UNL A   1      40.111  36.189  37.301  1.00  0.00     0.124 S 
ATOM     71  O   UNL A   1      40.199  36.666  35.924  1.00  0.00    -0.237 OA
ATOM     72  O   UNL A   1      39.183  36.908  38.166  1.00  0.00    -0.237 OA
ATOM     73  O   UNL A   1      41.385  35.828  37.919  1.00  0.00    -0.744 OA
ENDBRANCH  66  70
ENDBRANCH  40  63
ENDBRANCH  14  15
ENDBRANCH   7   9
ENDBRANCH   6   7
ENDBRANCH   5   6
ENDBRANCH   4   5
ENDBRANCH   3   4
ENDBRANCH   2   3
ENDBRANCH   1   2
BRANCH   1  74
ATOM     74  O   UNL A   1      39.683  25.626  26.818  1.00  0.00    -0.376 OA
BRANCH  74  75
ATOM     75  C   UNL A   1      39.221  24.317  26.502  1.00  0.00     0.202 C 
BRANCH  75  76
ATOM     76  C   UNL A   1      37.718  24.081  26.272  1.00  0.00     0.261 C 
BRANCH  76  77
ATOM     77  O   UNL A   1      37.414  23.399  25.054  1.00  0.00    -0.463 OA
BRANCH  77  78
ATOM     78  C   UNL A   1      37.104  22.070  25.139  1.00  0.00     0.310 C 
ATOM     79  O   UNL A   1      37.806  21.230  25.671  1.00  0.00    -0.252 OA
BRANCH  78  80
ATOM     80  C   UNL A   1      35.711  21.777  24.569  1.00  0.00     0.119 C 
ATOM     81  C   UNL A   1      35.225  20.363  24.939  1.00  0.00     0.019 C 
ATOM     82  C   UNL A   1      34.760  22.937  24.950  1.00  0.00     0.134 C 
ATOM     83  C   UNL A   1      33.751  20.180  24.739  1.00  0.00     0.022 C 
ATOM     84  N   UNL A   1      33.322  22.609  24.915  1.00  0.00    -0.342 N 
ATOM     85  C   UNL A   1      33.039  21.304  25.421  1.00  0.00     0.119 C 
BRANCH  84  86
ATOM     86  C   UNL A   1      32.379  23.631  24.853  1.00  0.00     0.226 C 
ATOM     87  O   UNL A   1      32.030  24.189  25.905  1.00  0.00    -0.275 OA
BRANCH  86  88
ATOM     88  C   UNL A   1      31.637  24.083  23.539  1.00  0.00     0.090 C 
ATOM     89  C   UNL A   1      32.618  24.407  22.407  1.00  0.00     0.075 C 
ATOM     90  C   UNL A   1      30.519  25.141  23.538  1.00  0.00     0.075 C 
ATOM     91  C   UNL A   1      33.291  25.746  22.647  1.00  0.00     0.263 C 
ATOM     92  C   UNL A   1      30.963  26.560  23.076  1.00  0.00     0.263 C 
ATOM     93  N   UNL A   1      32.395  26.743  23.195  1.00  0.00    -0.329 N 
ATOM     94  H   UNL A   1      32.447  26.377  24.145  1.00  0.00     0.348 HD
BRANCH  93  95
ATOM     95  C   UNL A   1      32.915  28.071  23.507  1.00  0.00     0.338 C 
BRANCH  95  96
ATOM     96  C   UNL A   1      32.773  28.418  24.965  1.00  0.00     0.157 A 
ATOM     97  C   UNL A   1      33.288  27.902  26.142  1.00  0.00     0.052 A 
ATOM     98  O   UNL A   1      31.928  29.457  25.265  1.00  0.00    -0.463 OA
ATOM     99  C   UNL A   1      32.724  28.650  27.203  1.00  0.00     0.042 A 
ATOM    100  C   UNL A   1      31.911  29.587  26.619  1.00  0.00     0.195 A 
ENDBRANCH  95  96
ENDBRANCH  93  95
ENDBRANCH  86  88
ENDBRANCH  84  86
ENDBRANCH  78  80
ENDBRANCH  77  78
ENDBRANCH  76  77
ENDBRANCH  75  76
ENDBRANCH  74  75
ENDBRANCH   1  74
TORSDOF 24
ENDMDL
MODEL 3
REMARK VINA RESULT:      -7.2      4.608      7.021
REMARK SMILES O=C(OCCOCCOCCOC(=O)[C@H]1CCCN(C(=O)C2CC[NH+](Cc3ccco3)CC2)C1)c1ccc(-c2c3nc(c(-c4cc(S(=O)(=O)[O-])ccc4F)c4ccc([nH]4)c(-c4cc(S(=O)(=O)[O-])ccc4F)c4nc(c(-c5cc(S(=O)(=O)[O-])ccc5F)c5ccc2[nH]5)C=C4)C=C3)cc1
REMARK SMILES IDX 8 1 7 2 6 3 5 4 4 5 3 6 2 7 1 8 35 9 36 10 97 11 37 12 96 13
REMARK SMILES IDX 38 14 39 15 40 16 90 17 41 18 95 19 89 20 91 21 42 22 94 23
REMARK SMILES IDX 88 24 87 25 43 27 75 28 55 29 74 30 56 31 59 32 73 33 92 34
REMARK SMILES IDX 57 35 58 36 72 38 93 39 60 40 44 41 45 42 53 43 46 44 52 45
REMARK SMILES IDX 54 46 51 47 47 48 48 49 49 50 50 51 76 52 77 53 85 54 78 55
REMARK SMILES IDX 84 56 86 57 83 58 79 59 80 60 81 61 82 62 61 63 62 64 70 65
REMARK SMILES IDX 63 66 69 67 71 68 68 69 64 70 65 71 66 72 67 73 9 74 10 75
REMARK SMILES IDX 11 76 12 77 13 78 14 79 15 80 16 81 34 82 17 83 19 84 18 85
REMARK SMILES IDX 20 86 21 87 22 88 23 89 33 90 24 91 32 92 25 93 26 95 27 96
REMARK SMILES IDX 28 97 31 98 29 99 30 100
REMARK H PARENT 91 26 59 37 25 94
REMARK Flexibility Score: inf
ROOT
ATOM      1  C   UNL A   1      41.077  25.079  26.159  1.00  0.00     0.188 C 
ENDROOT
BRANCH   1   2
ATOM      2  C   UNL A   1      40.847  26.585  26.307  1.00  0.00     0.188 C 
BRANCH   2   3
ATOM      3  O   UNL A   1      41.593  27.383  25.380  1.00  0.00    -0.376 OA
BRANCH   3   4
ATOM      4  C   UNL A   1      42.998  27.122  25.426  1.00  0.00     0.202 C 
BRANCH   4   5
ATOM      5  C   UNL A   1      43.855  28.142  26.197  1.00  0.00     0.261 C 
BRANCH   5   6
ATOM      6  O   UNL A   1      44.516  27.620  27.359  1.00  0.00    -0.460 OA
BRANCH   6   7
ATOM      7  C   UNL A   1      44.023  26.974  28.442  1.00  0.00     0.338 C 
ATOM      8  O   UNL A   1      43.737  25.783  28.300  1.00  0.00    -0.246 OA
BRANCH   7   9
ATOM      9  C   UNL A   1      43.793  27.594  29.792  1.00  0.00     0.060 A 
ATOM     10  C   UNL A   1      43.126  27.013  30.873  1.00  0.00     0.016 A 
ATOM     11  C   UNL A   1      44.290  28.894  29.977  1.00  0.00     0.016 A 
ATOM     12  C   UNL A   1      42.884  27.707  32.067  1.00  0.00     0.010 A 
ATOM     13  C   UNL A   1      44.077  29.588  31.178  1.00  0.00     0.010 A 
ATOM     14  C   UNL A   1      43.323  29.013  32.223  1.00  0.00    -0.014 A 
BRANCH  14  15
ATOM     15  C   UNL A   1      42.790  29.904  33.286  1.00  0.00     0.031 A 
ATOM     16  C   UNL A   1      43.429  29.781  34.632  1.00  0.00     0.074 A 
ATOM     17  C   UNL A   1      41.987  30.981  33.149  1.00  0.00     0.049 A 
ATOM     18  N   UNL A   1      43.073  30.351  35.745  1.00  0.00    -0.248 NA
ATOM     19  C   UNL A   1      44.703  29.043  34.703  1.00  0.00     0.031 C 
ATOM     20  C   UNL A   1      41.738  31.771  31.961  1.00  0.00     0.029 A 
ATOM     21  N   UNL A   1      41.084  31.507  34.051  1.00  0.00    -0.354 N 
ATOM     22  C   UNL A   1      44.146  30.181  36.597  1.00  0.00     0.074 A 
ATOM     23  C   UNL A   1      45.088  29.301  35.942  1.00  0.00     0.031 C 
ATOM     24  C   UNL A   1      40.584  32.452  32.105  1.00  0.00     0.029 A 
ATOM     25  C   UNL A   1      40.037  32.156  33.404  1.00  0.00     0.049 A 
ATOM     26  H   UNL A   1      41.170  31.433  35.028  1.00  0.00     0.167 HD
ATOM     27  C   UNL A   1      44.342  30.814  37.774  1.00  0.00     0.034 A 
ATOM     28  C   UNL A   1      38.769  32.314  33.838  1.00  0.00     0.034 A 
ATOM     29  C   UNL A   1      43.337  31.660  38.368  1.00  0.00     0.049 A 
ATOM     30  C   UNL A   1      38.678  32.418  35.320  1.00  0.00     0.074 A 
ATOM     31  C   UNL A   1      43.374  32.349  39.563  1.00  0.00     0.029 A 
ATOM     32  N   UNL A   1      42.082  31.900  37.810  1.00  0.00    -0.354 N 
ATOM     33  N   UNL A   1      39.611  32.160  36.200  1.00  0.00    -0.248 NA
ATOM     34  C   UNL A   1      37.470  33.050  35.849  1.00  0.00     0.031 C 
ATOM     35  C   UNL A   1      42.107  32.904  39.782  1.00  0.00     0.029 A 
ATOM     36  C   UNL A   1      41.301  32.636  38.686  1.00  0.00     0.049 A 
ATOM     37  H   UNL A   1      41.791  31.590  36.922  1.00  0.00     0.167 HD
ATOM     38  C   UNL A   1      39.195  32.783  37.354  1.00  0.00     0.074 A 
ATOM     39  C   UNL A   1      37.850  33.279  37.098  1.00  0.00     0.031 C 
ATOM     40  C   UNL A   1      39.932  33.040  38.462  1.00  0.00     0.034 A 
BRANCH  27  41
ATOM     41  C   UNL A   1      45.638  30.523  38.474  1.00  0.00     0.023 A 
ATOM     42  C   UNL A   1      45.763  29.472  39.405  1.00  0.00     0.031 A 
ATOM     43  C   UNL A   1      46.722  31.397  38.311  1.00  0.00     0.131 A 
ATOM     44  C   UNL A   1      46.910  29.388  40.209  1.00  0.00     0.055 A 
ATOM     45  C   UNL A   1      47.894  31.255  39.053  1.00  0.00     0.041 A 
ATOM     46  F   UNL A   1      46.639  32.436  37.466  1.00  0.00    -0.206 F 
ATOM     47  C   UNL A   1      47.985  30.259  40.022  1.00  0.00     0.022 A 
BRANCH  44  48
ATOM     48  S   UNL A   1      46.898  28.256  41.631  1.00  0.00     0.124 S 
ATOM     49  O   UNL A   1      45.852  27.310  41.250  1.00  0.00    -0.237 OA
ATOM     50  O   UNL A   1      48.260  27.735  41.633  1.00  0.00    -0.237 OA
ATOM     51  O   UNL A   1      46.560  29.126  42.757  1.00  0.00    -0.744 OA
ENDBRANCH  44  48
ENDBRANCH  27  41
BRANCH  28  52
ATOM     52  C   UNL A   1      37.516  32.405  33.025  1.00  0.00     0.023 A 
ATOM     53  C   UNL A   1      36.704  33.535  32.900  1.00  0.00     0.031 A 
ATOM     54  C   UNL A   1      37.052  31.203  32.431  1.00  0.00     0.131 A 
ATOM     55  C   UNL A   1      35.473  33.434  32.209  1.00  0.00     0.055 A 
ATOM     56  C   UNL A   1      35.854  31.116  31.720  1.00  0.00     0.041 A 
ATOM     57  F   UNL A   1      37.781  30.079  32.535  1.00  0.00    -0.206 F 
ATOM     58  C   UNL A   1      35.055  32.243  31.602  1.00  0.00     0.022 A 
BRANCH  55  59
ATOM     59  S   UNL A   1      34.370  34.874  32.133  1.00  0.00     0.124 S 
ATOM     60  O   UNL A   1      34.227  35.057  30.693  1.00  0.00    -0.237 OA
ATOM     61  O   UNL A   1      33.187  34.396  32.842  1.00  0.00    -0.237 OA
ATOM     62  O   UNL A   1      35.124  35.916  32.827  1.00  0.00    -0.744 OA
ENDBRANCH  55  59
ENDBRANCH  28  52
BRANCH  40  63
ATOM     63  C   UNL A   1      39.272  33.936  39.460  1.00  0.00     0.023 A 
ATOM     64  C   UNL A   1      39.361  35.328  39.343  1.00  0.00     0.031 A 
ATOM     65  C   UNL A   1      38.647  33.387  40.592  1.00  0.00     0.131 A 
ATOM     66  C   UNL A   1      38.915  36.131  40.394  1.00  0.00     0.055 A 
ATOM     67  C   UNL A   1      38.114  34.198  41.589  1.00  0.00     0.041 A 
ATOM     68  F   UNL A   1      38.571  32.057  40.758  1.00  0.00    -0.206 F 
ATOM     69  C   UNL A   1      38.264  35.580  41.503  1.00  0.00     0.022 A 
BRANCH  66  70
ATOM     70  S   UNL A   1      39.340  37.888  40.354  1.00  0.00     0.124 S 
ATOM     71  O   UNL A   1      39.344  38.221  41.775  1.00  0.00    -0.237 OA
ATOM     72  O   UNL A   1      40.643  37.884  39.698  1.00  0.00    -0.237 OA
ATOM     73  O   UNL A   1      38.254  38.481  39.576  1.00  0.00    -0.744 OA
ENDBRANCH  66  70
ENDBRANCH  40  63
ENDBRANCH  14  15
ENDBRANCH   7   9
ENDBRANCH   6   7
ENDBRANCH   5   6
ENDBRANCH   4   5
ENDBRANCH   3   4
ENDBRANCH   2   3
ENDBRANCH   1   2
BRANCH   1  74
ATOM     74  O   UNL A   1      40.442  24.202  27.088  1.00  0.00    -0.376 OA
BRANCH  74  75
ATOM     75  C   UNL A   1      39.367  23.399  26.613  1.00  0.00     0.202 C 
BRANCH  75  76
ATOM     76  C   UNL A   1      37.998  24.050  26.345  1.00  0.00     0.261 C 
BRANCH  76  77
ATOM     77  O   UNL A   1      37.471  23.786  25.043  1.00  0.00    -0.463 OA
BRANCH  77  78
ATOM     78  C   UNL A   1      36.674  22.684  24.901  1.00  0.00     0.310 C 
ATOM     79  O   UNL A   1      36.981  21.560  25.251  1.00  0.00    -0.252 OA
BRANCH  78  80
ATOM     80  C   UNL A   1      35.298  23.052  24.333  1.00  0.00     0.119 C 
ATOM     81  C   UNL A   1      34.346  21.841  24.304  1.00  0.00     0.019 C 
ATOM     82  C   UNL A   1      34.770  24.305  25.072  1.00  0.00     0.134 C 
ATOM     83  C   UNL A   1      32.910  22.230  24.125  1.00  0.00     0.022 C 
ATOM     84  N   UNL A   1      33.310  24.504  25.009  1.00  0.00    -0.342 N 
ATOM     85  C   UNL A   1      32.578  23.284  25.132  1.00  0.00     0.119 C 
BRANCH  84  86
ATOM     86  C   UNL A   1      32.769  25.757  25.285  1.00  0.00     0.226 C 
ATOM     87  O   UNL A   1      32.436  26.022  26.451  1.00  0.00    -0.275 OA
BRANCH  86  88
ATOM     88  C   UNL A   1      32.453  26.852  24.197  1.00  0.00     0.090 C 
ATOM     89  C   UNL A   1      33.656  27.764  23.935  1.00  0.00     0.075 C 
ATOM     90  C   UNL A   1      31.180  27.716  24.234  1.00  0.00     0.075 C 
ATOM     91  C   UNL A   1      33.838  28.753  25.072  1.00  0.00     0.263 C 
ATOM     92  C   UNL A   1      31.385  29.158  24.784  1.00  0.00     0.263 C 
ATOM     93  N   UNL A   1      32.585  29.265  25.588  1.00  0.00    -0.329 N 
ATOM     94  H   UNL A   1      32.387  28.433  26.143  1.00  0.00     0.348 HD
BRANCH  93  95
ATOM     95  C   UNL A   1      32.607  30.202  26.707  1.00  0.00     0.338 C 
BRANCH  95  96
ATOM     96  C   UNL A   1      33.973  30.330  27.326  1.00  0.00     0.157 A 
ATOM     97  C   UNL A   1      34.827  31.388  27.586  1.00  0.00     0.052 A 
ATOM     98  O   UNL A   1      34.578  29.162  27.716  1.00  0.00    -0.463 OA
ATOM     99  C   UNL A   1      36.006  30.839  28.147  1.00  0.00     0.042 A 
ATOM    100  C   UNL A   1      35.802  29.485  28.211  1.00  0.00     0.195 A 
ENDBRANCH  95  96
ENDBRANCH  93  95
ENDBRANCH  86  88
ENDBRANCH  84  86
ENDBRANCH  78  80
ENDBRANCH  77  78
ENDBRANCH  76  77
ENDBRANCH  75  76
ENDBRANCH  74  75
ENDBRANCH   1  74
TORSDOF 24
ENDMDL
