MODEL 1
REMARK VINA RESULT:     -11.2      0.000      0.000
REMARK SMILES COc1cccc([C@@H]2[NH2+][C@@](C)(C(=O)OCCOCCOCCOC(=O)c3ccc(-c4c5nc(c(-c6cc(S(=O)(=O)[O-])ccc6F)c6ccc([nH]6)c(-c6cc(S(=O)(=O)[O-])ccc6F)c6nc(c(-c7cc(S(=O)(=O)[O-])ccc7F)c7ccc4[nH]7)C=C6)C=C5)cc3)[C@@H]3C(=O)N(C)C(=O)[C@@H]32)c1O
REMARK SMILES IDX 19 1 18 2 17 3 16 4 15 5 14 6 12 7 13 8 10 9 8 10 9 11 96 12
REMARK SMILES IDX 89 15 94 16 11 17 90 18 92 19 95 20 91 21 93 22 7 23 3 24
REMARK SMILES IDX 4 25 97 26 5 27 6 28 2 29 1 30 98 31 20 33 21 34 22 35 23 36
REMARK SMILES IDX 24 37 25 38 26 39 27 40 88 41 28 42 87 43 29 44 30 45 31 46
REMARK SMILES IDX 81 47 32 48 86 49 80 50 82 51 33 52 85 53 79 54 78 55 34 57
REMARK SMILES IDX 66 58 46 59 65 60 47 61 50 62 64 63 83 64 48 65 49 66 63 68
REMARK SMILES IDX 84 69 51 70 35 71 36 72 44 73 37 74 43 75 45 76 42 77 38 78
REMARK SMILES IDX 39 79 40 80 41 81 67 82 68 83 76 84 69 85 75 86 77 87 74 88
REMARK SMILES IDX 70 89 71 90 72 91 73 92 52 93 53 94 61 95 54 96 60 97 62 98
REMARK SMILES IDX 59 99 55 100 56 101 57 102 58 103
REMARK H PARENT 9 13 9 14 98 32 82 56 50 67
REMARK Flexibility Score: inf
ROOT
ATOM      1  C   UNL A   1      34.963  29.456  27.576  1.00  0.00     0.188 C 
ENDROOT
BRANCH   1   2
ATOM      2  C   UNL A   1      33.736  28.648  27.107  1.00  0.00     0.188 C 
BRANCH   2   3
ATOM      3  O   UNL A   1      33.818  27.815  25.956  1.00  0.00    -0.376 OA
BRANCH   3   4
ATOM      4  C   UNL A   1      32.867  27.958  24.915  1.00  0.00     0.202 C 
BRANCH   4   5
ATOM      5  C   UNL A   1      31.377  27.798  25.249  1.00  0.00     0.261 C 
BRANCH   5   6
ATOM      6  O   UNL A   1      30.754  26.554  24.868  1.00  0.00    -0.459 OA
BRANCH   6   7
ATOM      7  C   UNL A   1      31.166  25.464  25.567  1.00  0.00     0.368 C 
ATOM      8  O   UNL A   1      31.243  25.452  26.795  1.00  0.00    -0.245 OA
BRANCH   7   9
ATOM      9  C   UNL A   1      31.620  24.236  24.716  1.00  0.00     0.204 C 
ATOM     10  C   UNL A   1      32.154  22.019  25.618  1.00  0.00     0.232 C 
ATOM     11  N   UNL A   1      31.054  22.908  25.143  1.00  0.00    -0.325 N 
ATOM     12  C   UNL A   1      33.342  22.945  25.863  1.00  0.00     0.161 C 
ATOM     13  H   UNL A   1      30.385  23.052  25.898  1.00  0.00     0.347 HD
ATOM     14  H   UNL A   1      30.587  22.469  24.348  1.00  0.00     0.347 HD
ATOM     15  C   UNL A   1      33.129  24.135  24.941  1.00  0.00     0.170 C 
ATOM     16  C   UNL A   1      34.697  22.440  25.457  1.00  0.00     0.239 C 
ATOM     17  C   UNL A   1      31.095  24.629  23.326  1.00  0.00     0.093 C 
ATOM     18  C   UNL A   1      34.060  23.852  23.794  1.00  0.00     0.240 C 
ATOM     19  N   UNL A   1      35.043  23.028  24.275  1.00  0.00    -0.285 N 
ATOM     20  O   UNL A   1      35.330  21.594  26.065  1.00  0.00    -0.274 OA
ATOM     21  O   UNL A   1      33.974  24.309  22.665  1.00  0.00    -0.274 OA
ATOM     22  C   UNL A   1      36.259  22.687  23.579  1.00  0.00     0.156 C 
BRANCH  10  23
ATOM     23  C   UNL A   1      32.490  20.788  24.775  1.00  0.00     0.056 A 
ATOM     24  C   UNL A   1      32.703  18.357  24.572  1.00  0.00     0.161 A 
ATOM     25  C   UNL A   1      32.460  18.425  23.206  1.00  0.00     0.050 A 
ATOM     26  C   UNL A   1      32.782  19.535  25.323  1.00  0.00     0.166 A 
ATOM     27  C   UNL A   1      32.272  19.671  22.606  1.00  0.00     0.005 A 
ATOM     28  C   UNL A   1      32.276  20.838  23.383  1.00  0.00     0.014 A 
BRANCH  24  29
ATOM     29  O   UNL A   1      32.964  17.139  25.145  1.00  0.00    -0.493 OA
ATOM     30  C   UNL A   1      33.854  16.339  24.360  1.00  0.00     0.278 C 
ENDBRANCH  24  29
BRANCH  26  31
ATOM     31  O   UNL A   1      33.137  19.477  26.635  1.00  0.00    -0.504 OA
ATOM     32  H   UNL A   1      33.111  18.659  27.091  1.00  0.00     0.293 HD
ENDBRANCH  26  31
ENDBRANCH  10  23
ENDBRANCH   7   9
ENDBRANCH   6   7
ENDBRANCH   5   6
ENDBRANCH   4   5
ENDBRANCH   3   4
ENDBRANCH   2   3
ENDBRANCH   1   2
BRANCH   1  33
ATOM     33  O   UNL A   1      34.628  30.771  27.966  1.00  0.00    -0.376 OA
BRANCH  33  34
ATOM     34  C   UNL A   1      33.347  31.241  27.611  1.00  0.00     0.202 C 
BRANCH  34  35
ATOM     35  C   UNL A   1      33.242  32.730  27.249  1.00  0.00     0.261 C 
BRANCH  35  36
ATOM     36  O   UNL A   1      32.670  33.601  28.241  1.00  0.00    -0.460 OA
BRANCH  36  37
ATOM     37  C   UNL A   1      33.455  34.606  28.706  1.00  0.00     0.338 C 
ATOM     38  O   UNL A   1      33.226  35.793  28.619  1.00  0.00    -0.246 OA
BRANCH  37  39
ATOM     39  C   UNL A   1      34.546  34.009  29.521  1.00  0.00     0.060 A 
ATOM     40  C   UNL A   1      35.871  34.223  29.127  1.00  0.00     0.016 A 
ATOM     41  C   UNL A   1      34.274  33.229  30.649  1.00  0.00     0.016 A 
ATOM     42  C   UNL A   1      36.921  33.646  29.849  1.00  0.00     0.010 A 
ATOM     43  C   UNL A   1      35.333  32.637  31.361  1.00  0.00     0.010 A 
ATOM     44  C   UNL A   1      36.665  32.831  30.957  1.00  0.00    -0.014 A 
BRANCH  44  45
ATOM     45  C   UNL A   1      37.774  32.032  31.553  1.00  0.00     0.031 A 
ATOM     46  C   UNL A   1      38.235  32.380  32.943  1.00  0.00     0.074 A 
ATOM     47  C   UNL A   1      38.332  30.984  30.916  1.00  0.00     0.049 A 
ATOM     48  N   UNL A   1      39.240  31.908  33.634  1.00  0.00    -0.248 NA
ATOM     49  C   UNL A   1      37.445  33.402  33.647  1.00  0.00     0.031 C 
ATOM     50  C   UNL A   1      37.913  30.463  29.616  1.00  0.00     0.029 A 
ATOM     51  N   UNL A   1      39.381  30.171  31.278  1.00  0.00    -0.354 N 
ATOM     52  C   UNL A   1      39.210  32.579  34.852  1.00  0.00     0.074 A 
ATOM     53  C   UNL A   1      38.101  33.507  34.791  1.00  0.00     0.031 C 
ATOM     54  C   UNL A   1      38.709  29.429  29.285  1.00  0.00     0.029 A 
ATOM     55  C   UNL A   1      39.729  29.248  30.318  1.00  0.00     0.049 A 
ATOM     56  H   UNL A   1      39.842  30.243  32.146  1.00  0.00     0.167 HD
ATOM     57  C   UNL A   1      40.032  32.438  35.921  1.00  0.00     0.034 A 
ATOM     58  C   UNL A   1      40.772  28.389  30.260  1.00  0.00     0.034 A 
ATOM     59  C   UNL A   1      41.146  31.522  35.967  1.00  0.00     0.049 A 
ATOM     60  C   UNL A   1      41.764  28.350  31.404  1.00  0.00     0.074 A 
ATOM     61  C   UNL A   1      42.052  31.321  36.995  1.00  0.00     0.029 A 
ATOM     62  N   UNL A   1      41.517  30.664  34.941  1.00  0.00    -0.354 N 
ATOM     63  N   UNL A   1      41.755  29.021  32.535  1.00  0.00    -0.248 NA
ATOM     64  C   UNL A   1      42.910  27.439  31.264  1.00  0.00     0.031 C 
ATOM     65  C   UNL A   1      43.016  30.406  36.558  1.00  0.00     0.029 A 
ATOM     66  C   UNL A   1      42.660  29.962  35.296  1.00  0.00     0.049 A 
ATOM     67  H   UNL A   1      41.039  30.568  34.086  1.00  0.00     0.167 HD
ATOM     68  C   UNL A   1      42.869  28.581  33.250  1.00  0.00     0.074 A 
ATOM     69  C   UNL A   1      43.521  27.582  32.431  1.00  0.00     0.031 C 
ATOM     70  C   UNL A   1      43.309  28.965  34.475  1.00  0.00     0.034 A 
BRANCH  57  71
ATOM     71  C   UNL A   1      39.801  33.355  37.097  1.00  0.00     0.023 A 
ATOM     72  C   UNL A   1      40.553  34.526  37.289  1.00  0.00     0.031 A 
ATOM     73  C   UNL A   1      38.830  33.030  38.061  1.00  0.00     0.131 A 
ATOM     74  C   UNL A   1      40.370  35.291  38.452  1.00  0.00     0.055 A 
ATOM     75  C   UNL A   1      38.593  33.841  39.171  1.00  0.00     0.041 A 
ATOM     76  F   UNL A   1      38.100  31.909  37.945  1.00  0.00    -0.206 F 
ATOM     77  C   UNL A   1      39.376  34.972  39.379  1.00  0.00     0.022 A 
BRANCH  74  78
ATOM     78  S   UNL A   1      41.549  36.622  38.809  1.00  0.00     0.124 S 
ATOM     79  O   UNL A   1      42.171  36.825  37.502  1.00  0.00    -0.237 OA
ATOM     80  O   UNL A   1      40.682  37.697  39.277  1.00  0.00    -0.237 OA
ATOM     81  O   UNL A   1      42.426  36.041  39.822  1.00  0.00    -0.744 OA
ENDBRANCH  74  78
ENDBRANCH  57  71
BRANCH  58  82
ATOM     82  C   UNL A   1      41.000  27.540  29.050  1.00  0.00     0.023 A 
ATOM     83  C   UNL A   1      42.003  27.851  28.114  1.00  0.00     0.031 A 
ATOM     84  C   UNL A   1      40.150  26.457  28.760  1.00  0.00     0.131 A 
ATOM     85  C   UNL A   1      42.093  27.125  26.915  1.00  0.00     0.055 A 
ATOM     86  C   UNL A   1      40.285  25.698  27.596  1.00  0.00     0.041 A 
ATOM     87  F   UNL A   1      39.163  26.123  29.607  1.00  0.00    -0.206 F 
ATOM     88  C   UNL A   1      41.252  26.040  26.657  1.00  0.00     0.022 A 
BRANCH  85  89
ATOM     89  S   UNL A   1      43.256  27.689  25.641  1.00  0.00     0.124 S 
ATOM     90  O   UNL A   1      43.798  28.898  26.250  1.00  0.00    -0.237 OA
ATOM     91  O   UNL A   1      44.169  26.555  25.542  1.00  0.00    -0.237 OA
ATOM     92  O   UNL A   1      42.404  27.905  24.473  1.00  0.00    -0.744 OA
ENDBRANCH  85  89
ENDBRANCH  58  82
BRANCH  70  93
ATOM     93  C   UNL A   1      44.520  28.256  35.041  1.00  0.00     0.023 A 
ATOM     94  C   UNL A   1      44.415  27.059  35.772  1.00  0.00     0.031 A 
ATOM     95  C   UNL A   1      45.806  28.791  34.840  1.00  0.00     0.131 A 
ATOM     96  C   UNL A   1      45.566  26.467  36.316  1.00  0.00     0.055 A 
ATOM     97  C   UNL A   1      46.954  28.162  35.326  1.00  0.00     0.041 A 
ATOM     98  F   UNL A   1      45.972  29.934  34.156  1.00  0.00    -0.206 F 
ATOM     99  C   UNL A   1      46.836  26.999  36.081  1.00  0.00     0.022 A 
BRANCH  96 100
ATOM    100  S   UNL A   1      45.377  25.040  37.422  1.00  0.00     0.124 S 
ATOM    101  O   UNL A   1      45.213  23.942  36.474  1.00  0.00    -0.237 OA
ATOM    102  O   UNL A   1      46.631  25.054  38.169  1.00  0.00    -0.237 OA
ATOM    103  O   UNL A   1      44.186  25.366  38.204  1.00  0.00    -0.744 OA
ENDBRANCH  96 100
ENDBRANCH  70  93
ENDBRANCH  44  45
ENDBRANCH  37  39
ENDBRANCH  36  37
ENDBRANCH  35  36
ENDBRANCH  34  35
ENDBRANCH  33  34
ENDBRANCH   1  33
TORSDOF 23
ENDMDL
MODEL 2
REMARK VINA RESULT:     -11.0      2.766      3.926
REMARK SMILES COc1cccc([C@@H]2[NH2+][C@@](C)(C(=O)OCCOCCOCCOC(=O)c3ccc(-c4c5nc(c(-c6cc(S(=O)(=O)[O-])ccc6F)c6ccc([nH]6)c(-c6cc(S(=O)(=O)[O-])ccc6F)c6nc(c(-c7cc(S(=O)(=O)[O-])ccc7F)c7ccc4[nH]7)C=C6)C=C5)cc3)[C@@H]3C(=O)N(C)C(=O)[C@@H]32)c1O
REMARK SMILES IDX 19 1 18 2 17 3 16 4 15 5 14 6 12 7 13 8 10 9 8 10 9 11 96 12
REMARK SMILES IDX 89 15 94 16 11 17 90 18 92 19 95 20 91 21 93 22 7 23 3 24
REMARK SMILES IDX 4 25 97 26 5 27 6 28 2 29 1 30 98 31 20 33 21 34 22 35 23 36
REMARK SMILES IDX 24 37 25 38 26 39 27 40 88 41 28 42 87 43 29 44 30 45 31 46
REMARK SMILES IDX 81 47 32 48 86 49 80 50 82 51 33 52 85 53 79 54 78 55 34 57
REMARK SMILES IDX 66 58 46 59 65 60 47 61 50 62 64 63 83 64 48 65 49 66 63 68
REMARK SMILES IDX 84 69 51 70 35 71 36 72 44 73 37 74 43 75 45 76 42 77 38 78
REMARK SMILES IDX 39 79 40 80 41 81 67 82 68 83 76 84 69 85 75 86 77 87 74 88
REMARK SMILES IDX 70 89 71 90 72 91 73 92 52 93 53 94 61 95 54 96 60 97 62 98
REMARK SMILES IDX 59 99 55 100 56 101 57 102 58 103
REMARK H PARENT 9 13 9 14 98 32 82 56 50 67
REMARK Flexibility Score: inf
ROOT
ATOM      1  C   UNL A   1      30.117  31.345  24.512  1.00  0.00     0.188 C 
ENDROOT
BRANCH   1   2
ATOM      2  C   UNL A   1      28.887  31.780  23.691  1.00  0.00     0.188 C 
BRANCH   2   3
ATOM      3  O   UNL A   1      27.751  30.927  23.586  1.00  0.00    -0.376 OA
BRANCH   3   4
ATOM      4  C   UNL A   1      27.669  29.994  22.524  1.00  0.00     0.202 C 
BRANCH   4   5
ATOM      5  C   UNL A   1      28.018  28.524  22.803  1.00  0.00     0.261 C 
BRANCH   5   6
ATOM      6  O   UNL A   1      29.115  28.275  23.704  1.00  0.00    -0.459 OA
BRANCH   6   7
ATOM      7  C   UNL A   1      30.279  27.904  23.109  1.00  0.00     0.368 C 
ATOM      8  O   UNL A   1      30.528  28.144  21.927  1.00  0.00    -0.245 OA
BRANCH   7   9
ATOM      9  C   UNL A   1      31.265  27.075  23.991  1.00  0.00     0.204 C 
ATOM     10  C   UNL A   1      32.838  25.395  23.143  1.00  0.00     0.232 C 
ATOM     11  N   UNL A   1      32.631  26.850  23.399  1.00  0.00    -0.325 N 
ATOM     12  C   UNL A   1      31.446  24.773  23.203  1.00  0.00     0.161 C 
ATOM     13  H   UNL A   1      32.707  27.362  22.521  1.00  0.00     0.347 HD
ATOM     14  H   UNL A   1      33.341  27.181  24.053  1.00  0.00     0.347 HD
ATOM     15  C   UNL A   1      30.628  25.689  24.101  1.00  0.00     0.170 C 
ATOM     16  C   UNL A   1      31.321  23.438  23.878  1.00  0.00     0.239 C 
ATOM     17  C   UNL A   1      31.355  27.959  25.244  1.00  0.00     0.093 C 
ATOM     18  C   UNL A   1      30.608  24.954  25.413  1.00  0.00     0.240 C 
ATOM     19  N   UNL A   1      30.811  23.630  25.129  1.00  0.00    -0.285 N 
ATOM     20  O   UNL A   1      31.688  22.381  23.393  1.00  0.00    -0.274 OA
ATOM     21  O   UNL A   1      30.403  25.445  26.512  1.00  0.00    -0.274 OA
ATOM     22  C   UNL A   1      30.647  22.543  26.062  1.00  0.00     0.156 C 
BRANCH  10  23
ATOM     23  C   UNL A   1      33.880  24.664  23.992  1.00  0.00     0.056 A 
ATOM     24  C   UNL A   1      35.943  23.353  24.142  1.00  0.00     0.161 A 
ATOM     25  C   UNL A   1      36.184  23.834  25.423  1.00  0.00     0.050 A 
ATOM     26  C   UNL A   1      34.769  23.718  23.473  1.00  0.00     0.166 A 
ATOM     27  C   UNL A   1      35.261  24.697  26.015  1.00  0.00     0.005 A 
ATOM     28  C   UNL A   1      34.128  25.117  25.303  1.00  0.00     0.014 A 
BRANCH  24  29
ATOM     29  O   UNL A   1      36.812  22.445  23.593  1.00  0.00    -0.493 OA
ATOM     30  C   UNL A   1      37.389  21.574  24.572  1.00  0.00     0.278 C 
ENDBRANCH  24  29
BRANCH  26  31
ATOM     31  O   UNL A   1      34.475  23.155  22.270  1.00  0.00    -0.504 OA
ATOM     32  H   UNL A   1      34.778  23.555  21.479  1.00  0.00     0.293 HD
ENDBRANCH  26  31
ENDBRANCH  10  23
ENDBRANCH   7   9
ENDBRANCH   6   7
ENDBRANCH   5   6
ENDBRANCH   4   5
ENDBRANCH   3   4
ENDBRANCH   2   3
ENDBRANCH   1   2
BRANCH   1  33
ATOM     33  O   UNL A   1      30.248  32.073  25.716  1.00  0.00    -0.376 OA
BRANCH  33  34
ATOM     34  C   UNL A   1      31.466  31.947  26.414  1.00  0.00     0.202 C 
BRANCH  34  35
ATOM     35  C   UNL A   1      32.120  33.253  26.888  1.00  0.00     0.261 C 
BRANCH  35  36
ATOM     36  O   UNL A   1      32.972  33.171  28.045  1.00  0.00    -0.460 OA
BRANCH  36  37
ATOM     37  C   UNL A   1      34.077  33.959  28.053  1.00  0.00     0.338 C 
ATOM     38  O   UNL A   1      34.099  35.165  27.936  1.00  0.00    -0.246 OA
BRANCH  37  39
ATOM     39  C   UNL A   1      35.246  33.123  28.435  1.00  0.00     0.060 A 
ATOM     40  C   UNL A   1      35.022  31.798  28.824  1.00  0.00     0.016 A 
ATOM     41  C   UNL A   1      36.546  33.637  28.433  1.00  0.00     0.016 A 
ATOM     42  C   UNL A   1      36.094  30.993  29.226  1.00  0.00     0.010 A 
ATOM     43  C   UNL A   1      37.617  32.829  28.854  1.00  0.00     0.010 A 
ATOM     44  C   UNL A   1      37.397  31.503  29.266  1.00  0.00    -0.014 A 
BRANCH  44  45
ATOM     45  C   UNL A   1      38.474  30.714  29.929  1.00  0.00     0.031 A 
ATOM     46  C   UNL A   1      38.847  31.067  31.344  1.00  0.00     0.074 A 
ATOM     47  C   UNL A   1      39.079  29.671  29.328  1.00  0.00     0.049 A 
ATOM     48  N   UNL A   1      39.812  30.604  32.096  1.00  0.00    -0.248 NA
ATOM     49  C   UNL A   1      38.007  32.082  31.998  1.00  0.00     0.031 C 
ATOM     50  C   UNL A   1      38.745  29.145  28.006  1.00  0.00     0.029 A 
ATOM     51  N   UNL A   1      40.112  28.868  29.755  1.00  0.00    -0.354 N 
ATOM     52  C   UNL A   1      39.702  31.276  33.309  1.00  0.00     0.074 A 
ATOM     53  C   UNL A   1      38.590  32.194  33.180  1.00  0.00     0.031 C 
ATOM     54  C   UNL A   1      39.569  28.119  27.725  1.00  0.00     0.029 A 
ATOM     55  C   UNL A   1      40.526  27.947  28.818  1.00  0.00     0.049 A 
ATOM     56  H   UNL A   1      40.518  28.944  30.649  1.00  0.00     0.167 HD
ATOM     57  C   UNL A   1      40.459  31.143  34.427  1.00  0.00     0.034 A 
ATOM     58  C   UNL A   1      41.578  27.098  28.825  1.00  0.00     0.034 A 
ATOM     59  C   UNL A   1      41.576  30.237  34.541  1.00  0.00     0.049 A 
ATOM     60  C   UNL A   1      42.499  27.069  30.028  1.00  0.00     0.074 A 
ATOM     61  C   UNL A   1      42.419  30.045  35.622  1.00  0.00     0.029 A 
ATOM     62  N   UNL A   1      42.017  29.382  33.540  1.00  0.00    -0.354 N 
ATOM     63  N   UNL A   1      42.415  27.740  31.155  1.00  0.00    -0.248 NA
ATOM     64  C   UNL A   1      43.659  26.168  29.958  1.00  0.00     0.031 C 
ATOM     65  C   UNL A   1      43.416  29.139  35.246  1.00  0.00     0.029 A 
ATOM     66  C   UNL A   1      43.141  28.690  33.965  1.00  0.00     0.049 A 
ATOM     67  H   UNL A   1      41.592  29.281  32.658  1.00  0.00     0.167 HD
ATOM     68  C   UNL A   1      43.488  27.311  31.937  1.00  0.00     0.074 A 
ATOM     69  C   UNL A   1      44.197  26.317  31.160  1.00  0.00     0.031 C 
ATOM     70  C   UNL A   1      43.849  27.699  33.187  1.00  0.00     0.034 A 
BRANCH  57  71
ATOM     71  C   UNL A   1      40.147  32.058  35.585  1.00  0.00     0.023 A 
ATOM     72  C   UNL A   1      39.118  31.779  36.500  1.00  0.00     0.031 A 
ATOM     73  C   UNL A   1      40.874  33.250  35.753  1.00  0.00     0.131 A 
ATOM     74  C   UNL A   1      38.800  32.712  37.500  1.00  0.00     0.055 A 
ATOM     75  C   UNL A   1      40.609  34.134  36.801  1.00  0.00     0.041 A 
ATOM     76  F   UNL A   1      41.849  33.584  34.893  1.00  0.00    -0.206 F 
ATOM     77  C   UNL A   1      39.557  33.874  37.673  1.00  0.00     0.022 A 
BRANCH  74  78
ATOM     78  S   UNL A   1      37.292  32.460  38.473  1.00  0.00     0.124 S 
ATOM     79  O   UNL A   1      36.280  33.078  37.618  1.00  0.00    -0.237 OA
ATOM     80  O   UNL A   1      37.228  31.008  38.589  1.00  0.00    -0.237 OA
ATOM     81  O   UNL A   1      37.563  33.175  39.718  1.00  0.00    -0.744 OA
ENDBRANCH  74  78
ENDBRANCH  57  71
BRANCH  58  82
ATOM     82  C   UNL A   1      41.887  26.250  27.632  1.00  0.00     0.023 A 
ATOM     83  C   UNL A   1      41.517  24.895  27.579  1.00  0.00     0.031 A 
ATOM     84  C   UNL A   1      42.647  26.762  26.563  1.00  0.00     0.131 A 
ATOM     85  C   UNL A   1      41.954  24.089  26.515  1.00  0.00     0.055 A 
ATOM     86  C   UNL A   1      43.023  25.972  25.475  1.00  0.00     0.041 A 
ATOM     87  F   UNL A   1      43.045  28.044  26.565  1.00  0.00    -0.206 F 
ATOM     88  C   UNL A   1      42.689  24.622  25.454  1.00  0.00     0.022 A 
BRANCH  85  89
ATOM     89  S   UNL A   1      41.640  22.303  26.589  1.00  0.00     0.124 S 
ATOM     90  O   UNL A   1      40.182  22.258  26.591  1.00  0.00    -0.237 OA
ATOM     91  O   UNL A   1      42.294  21.830  25.374  1.00  0.00    -0.237 OA
ATOM     92  O   UNL A   1      42.280  21.895  27.838  1.00  0.00    -0.744 OA
ENDBRANCH  85  89
ENDBRANCH  58  82
BRANCH  70  93
ATOM     93  C   UNL A   1      45.029  27.002  33.826  1.00  0.00     0.023 A 
ATOM     94  C   UNL A   1      44.892  25.798  34.541  1.00  0.00     0.031 A 
ATOM     95  C   UNL A   1      46.319  27.554  33.711  1.00  0.00     0.131 A 
ATOM     96  C   UNL A   1      46.013  25.217  35.156  1.00  0.00     0.055 A 
ATOM     97  C   UNL A   1      47.440  26.935  34.268  1.00  0.00     0.041 A 
ATOM     98  F   UNL A   1      46.514  28.703  33.046  1.00  0.00    -0.206 F 
ATOM     99  C   UNL A   1      47.288  25.766  35.007  1.00  0.00     0.022 A 
BRANCH  96 100
ATOM    100  S   UNL A   1      45.770  23.781  36.239  1.00  0.00     0.124 S 
ATOM    101  O   UNL A   1      45.793  24.393  37.564  1.00  0.00    -0.237 OA
ATOM    102  O   UNL A   1      44.477  23.269  35.796  1.00  0.00    -0.237 OA
ATOM    103  O   UNL A   1      46.913  22.922  35.934  1.00  0.00    -0.744 OA
ENDBRANCH  96 100
ENDBRANCH  70  93
ENDBRANCH  44  45
ENDBRANCH  37  39
ENDBRANCH  36  37
ENDBRANCH  35  36
ENDBRANCH  34  35
ENDBRANCH  33  34
ENDBRANCH   1  33
TORSDOF 23
ENDMDL
MODEL 3
REMARK VINA RESULT:     -10.8      1.279      7.251
REMARK SMILES COc1cccc([C@@H]2[NH2+][C@@](C)(C(=O)OCCOCCOCCOC(=O)c3ccc(-c4c5nc(c(-c6cc(S(=O)(=O)[O-])ccc6F)c6ccc([nH]6)c(-c6cc(S(=O)(=O)[O-])ccc6F)c6nc(c(-c7cc(S(=O)(=O)[O-])ccc7F)c7ccc4[nH]7)C=C6)C=C5)cc3)[C@@H]3C(=O)N(C)C(=O)[C@@H]32)c1O
REMARK SMILES IDX 19 1 18 2 17 3 16 4 15 5 14 6 12 7 13 8 10 9 8 10 9 11 96 12
REMARK SMILES IDX 89 15 94 16 11 17 90 18 92 19 95 20 91 21 93 22 7 23 3 24
REMARK SMILES IDX 4 25 97 26 5 27 6 28 2 29 1 30 98 31 20 33 21 34 22 35 23 36
REMARK SMILES IDX 24 37 25 38 26 39 27 40 88 41 28 42 87 43 29 44 30 45 31 46
REMARK SMILES IDX 81 47 32 48 86 49 80 50 82 51 33 52 85 53 79 54 78 55 34 57
REMARK SMILES IDX 66 58 46 59 65 60 47 61 50 62 64 63 83 64 48 65 49 66 63 68
REMARK SMILES IDX 84 69 51 70 35 71 36 72 44 73 37 74 43 75 45 76 42 77 38 78
REMARK SMILES IDX 39 79 40 80 41 81 67 82 68 83 76 84 69 85 75 86 77 87 74 88
REMARK SMILES IDX 70 89 71 90 72 91 73 92 52 93 53 94 61 95 54 96 60 97 62 98
REMARK SMILES IDX 59 99 55 100 56 101 57 102 58 103
REMARK H PARENT 9 13 9 14 98 32 82 56 50 67
REMARK Flexibility Score: inf
ROOT
ATOM      1  C   UNL A   1      35.405  29.335  27.283  1.00  0.00     0.188 C 
ENDROOT
BRANCH   1   2
ATOM      2  C   UNL A   1      34.111  28.501  27.197  1.00  0.00     0.188 C 
BRANCH   2   3
ATOM      3  O   UNL A   1      33.834  27.717  26.042  1.00  0.00    -0.376 OA
BRANCH   3   4
ATOM      4  C   UNL A   1      32.867  28.162  25.106  1.00  0.00     0.202 C 
BRANCH   4   5
ATOM      5  C   UNL A   1      31.388  27.837  25.360  1.00  0.00     0.261 C 
BRANCH   5   6
ATOM      6  O   UNL A   1      30.871  26.639  24.747  1.00  0.00    -0.459 OA
BRANCH   6   7
ATOM      7  C   UNL A   1      31.116  25.489  25.428  1.00  0.00     0.368 C 
ATOM      8  O   UNL A   1      31.055  25.416  26.655  1.00  0.00    -0.245 OA
BRANCH   7   9
ATOM      9  C   UNL A   1      31.566  24.266  24.567  1.00  0.00     0.204 C 
ATOM     10  C   UNL A   1      32.021  22.021  25.443  1.00  0.00     0.232 C 
ATOM     11  N   UNL A   1      30.957  22.944  24.953  1.00  0.00    -0.325 N 
ATOM     12  C   UNL A   1      33.223  22.913  25.740  1.00  0.00     0.161 C 
ATOM     13  H   UNL A   1      30.270  23.091  25.691  1.00  0.00     0.347 HD
ATOM     14  H   UNL A   1      30.504  22.531  24.137  1.00  0.00     0.347 HD
ATOM     15  C   UNL A   1      33.065  24.125  24.834  1.00  0.00     0.170 C 
ATOM     16  C   UNL A   1      34.577  22.384  25.363  1.00  0.00     0.239 C 
ATOM     17  C   UNL A   1      31.091  24.697  23.171  1.00  0.00     0.093 C 
ATOM     18  C   UNL A   1      34.022  23.840  23.709  1.00  0.00     0.240 C 
ATOM     19  N   UNL A   1      34.971  22.985  24.202  1.00  0.00    -0.285 N 
ATOM     20  O   UNL A   1      35.172  21.511  25.973  1.00  0.00    -0.274 OA
ATOM     21  O   UNL A   1      33.981  24.320  22.587  1.00  0.00    -0.274 OA
ATOM     22  C   UNL A   1      36.199  22.627  23.536  1.00  0.00     0.156 C 
BRANCH  10  23
ATOM     23  C   UNL A   1      32.353  20.798  24.587  1.00  0.00     0.056 A 
ATOM     24  C   UNL A   1      32.536  18.367  24.352  1.00  0.00     0.161 A 
ATOM     25  C   UNL A   1      32.314  18.458  22.983  1.00  0.00     0.050 A 
ATOM     26  C   UNL A   1      32.620  19.533  25.121  1.00  0.00     0.166 A 
ATOM     27  C   UNL A   1      32.151  19.715  22.399  1.00  0.00     0.005 A 
ATOM     28  C   UNL A   1      32.159  20.871  23.192  1.00  0.00     0.014 A 
BRANCH  24  29
ATOM     29  O   UNL A   1      32.772  17.137  24.911  1.00  0.00    -0.493 OA
ATOM     30  C   UNL A   1      33.989  16.544  24.444  1.00  0.00     0.278 C 
ENDBRANCH  24  29
BRANCH  26  31
ATOM     31  O   UNL A   1      32.955  19.452  26.436  1.00  0.00    -0.504 OA
ATOM     32  H   UNL A   1      32.534  18.823  26.988  1.00  0.00     0.293 HD
ENDBRANCH  26  31
ENDBRANCH  10  23
ENDBRANCH   7   9
ENDBRANCH   6   7
ENDBRANCH   5   6
ENDBRANCH   4   5
ENDBRANCH   3   4
ENDBRANCH   2   3
ENDBRANCH   1   2
BRANCH   1  33
ATOM     33  O   UNL A   1      35.163  30.674  27.662  1.00  0.00    -0.376 OA
BRANCH  33  34
ATOM     34  C   UNL A   1      33.818  31.091  27.724  1.00  0.00     0.202 C 
BRANCH  34  35
ATOM     35  C   UNL A   1      33.526  32.523  27.250  1.00  0.00     0.261 C 
BRANCH  35  36
ATOM     36  O   UNL A   1      32.716  33.340  28.113  1.00  0.00    -0.460 OA
BRANCH  36  37
ATOM     37  C   UNL A   1      33.278  34.482  28.587  1.00  0.00     0.338 C 
ATOM     38  O   UNL A   1      32.842  35.605  28.453  1.00  0.00    -0.246 OA
BRANCH  37  39
ATOM     39  C   UNL A   1      34.412  34.111  29.475  1.00  0.00     0.060 A 
ATOM     40  C   UNL A   1      35.716  34.348  29.029  1.00  0.00     0.016 A 
ATOM     41  C   UNL A   1      34.200  33.519  30.724  1.00  0.00     0.016 A 
ATOM     42  C   UNL A   1      36.808  33.978  29.823  1.00  0.00     0.010 A 
ATOM     43  C   UNL A   1      35.301  33.134  31.510  1.00  0.00     0.010 A 
ATOM     44  C   UNL A   1      36.615  33.349  31.058  1.00  0.00    -0.014 A 
BRANCH  44  45
ATOM     45  C   UNL A   1      37.780  32.744  31.764  1.00  0.00     0.031 A 
ATOM     46  C   UNL A   1      38.476  31.577  31.117  1.00  0.00     0.074 A 
ATOM     47  C   UNL A   1      38.258  33.238  32.923  1.00  0.00     0.049 A 
ATOM     48  N   UNL A   1      39.438  30.818  31.575  1.00  0.00    -0.248 NA
ATOM     49  C   UNL A   1      38.021  31.224  29.764  1.00  0.00     0.031 C 
ATOM     50  C   UNL A   1      37.757  34.429  33.607  1.00  0.00     0.029 A 
ATOM     51  N   UNL A   1      39.276  32.792  33.734  1.00  0.00    -0.354 N 
ATOM     52  C   UNL A   1      39.700  29.892  30.570  1.00  0.00     0.074 A 
ATOM     53  C   UNL A   1      38.777  30.173  29.491  1.00  0.00     0.031 C 
ATOM     54  C   UNL A   1      38.459  34.607  34.741  1.00  0.00     0.029 A 
ATOM     55  C   UNL A   1      39.421  33.515  34.897  1.00  0.00     0.049 A 
ATOM     56  H   UNL A   1      39.849  32.024  33.505  1.00  0.00     0.167 HD
ATOM     57  C   UNL A   1      40.621  28.897  30.549  1.00  0.00     0.034 A 
ATOM     58  C   UNL A   1      40.205  33.297  35.977  1.00  0.00     0.034 A 
ATOM     59  C   UNL A   1      41.527  28.613  31.636  1.00  0.00     0.049 A 
ATOM     60  C   UNL A   1      41.125  32.094  35.994  1.00  0.00     0.074 A 
ATOM     61  C   UNL A   1      42.481  27.614  31.721  1.00  0.00     0.029 A 
ATOM     62  N   UNL A   1      41.584  29.316  32.832  1.00  0.00    -0.354 N 
ATOM     63  N   UNL A   1      41.336  31.196  35.057  1.00  0.00    -0.248 NA
ATOM     64  C   UNL A   1      41.914  31.873  37.215  1.00  0.00     0.031 C 
ATOM     65  C   UNL A   1      43.053  27.661  32.996  1.00  0.00     0.029 A 
ATOM     66  C   UNL A   1      42.529  28.748  33.674  1.00  0.00     0.049 A 
ATOM     67  H   UNL A   1      41.034  30.103  33.051  1.00  0.00     0.167 HD
ATOM     68  C   UNL A   1      42.306  30.333  35.565  1.00  0.00     0.074 A 
ATOM     69  C   UNL A   1      42.648  30.822  36.883  1.00  0.00     0.031 C 
ATOM     70  C   UNL A   1      42.867  29.238  34.991  1.00  0.00     0.034 A 
BRANCH  57  71
ATOM     71  C   UNL A   1      40.637  27.996  29.340  1.00  0.00     0.023 A 
ATOM     72  C   UNL A   1      41.557  28.170  28.291  1.00  0.00     0.031 A 
ATOM     73  C   UNL A   1      39.690  26.963  29.220  1.00  0.00     0.131 A 
ATOM     74  C   UNL A   1      41.465  27.371  27.141  1.00  0.00     0.055 A 
ATOM     75  C   UNL A   1      39.658  26.116  28.112  1.00  0.00     0.041 A 
ATOM     76  F   UNL A   1      38.768  26.767  30.177  1.00  0.00    -0.206 F 
ATOM     77  C   UNL A   1      40.541  26.327  27.057  1.00  0.00     0.022 A 
BRANCH  74  78
ATOM     78  S   UNL A   1      42.469  27.810  25.697  1.00  0.00     0.124 S 
ATOM     79  O   UNL A   1      41.721  28.940  25.149  1.00  0.00    -0.237 OA
ATOM     80  O   UNL A   1      43.760  28.130  26.294  1.00  0.00    -0.237 OA
ATOM     81  O   UNL A   1      42.442  26.600  24.878  1.00  0.00    -0.744 OA
ENDBRANCH  74  78
ENDBRANCH  57  71
BRANCH  58  82
ATOM     82  C   UNL A   1      40.115  34.181  37.181  1.00  0.00     0.023 A 
ATOM     83  C   UNL A   1      41.064  35.190  37.422  1.00  0.00     0.031 A 
ATOM     84  C   UNL A   1      39.131  33.962  38.162  1.00  0.00     0.131 A 
ATOM     85  C   UNL A   1      41.040  35.901  38.633  1.00  0.00     0.055 A 
ATOM     86  C   UNL A   1      39.072  34.715  39.336  1.00  0.00     0.041 A 
ATOM     87  F   UNL A   1      38.208  33.001  37.996  1.00  0.00    -0.206 F 
ATOM     88  C   UNL A   1      40.041  35.682  39.584  1.00  0.00     0.022 A 
BRANCH  85  89
ATOM     89  S   UNL A   1      42.402  37.043  39.001  1.00  0.00     0.124 S 
ATOM     90  O   UNL A   1      43.241  36.231  39.874  1.00  0.00    -0.237 OA
ATOM     91  O   UNL A   1      42.935  37.315  37.671  1.00  0.00    -0.237 OA
ATOM     92  O   UNL A   1      41.736  38.172  39.646  1.00  0.00    -0.744 OA
ENDBRANCH  85  89
ENDBRANCH  58  82
BRANCH  70  93
ATOM     93  C   UNL A   1      43.962  28.527  35.755  1.00  0.00     0.023 A 
ATOM     94  C   UNL A   1      45.316  28.887  35.636  1.00  0.00     0.031 A 
ATOM     95  C   UNL A   1      43.640  27.468  36.624  1.00  0.00     0.131 A 
ATOM     96  C   UNL A   1      46.299  28.163  36.331  1.00  0.00     0.055 A 
ATOM     97  C   UNL A   1      44.614  26.796  37.365  1.00  0.00     0.041 A 
ATOM     98  F   UNL A   1      42.366  27.073  36.778  1.00  0.00    -0.206 F 
ATOM     99  C   UNL A   1      45.955  27.134  37.210  1.00  0.00     0.022 A 
BRANCH  96 100
ATOM    100  S   UNL A   1      48.048  28.519  35.999  1.00  0.00     0.124 S 
ATOM    101  O   UNL A   1      48.151  29.921  36.390  1.00  0.00    -0.237 OA
ATOM    102  O   UNL A   1      48.731  27.564  36.865  1.00  0.00    -0.237 OA
ATOM    103  O   UNL A   1      48.185  28.264  34.566  1.00  0.00    -0.744 OA
ENDBRANCH  96 100
ENDBRANCH  70  93
ENDBRANCH  44  45
ENDBRANCH  37  39
ENDBRANCH  36  37
ENDBRANCH  35  36
ENDBRANCH  34  35
ENDBRANCH  33  34
ENDBRANCH   1  33
TORSDOF 23
ENDMDL
