MODEL 1
REMARK VINA RESULT:     -10.3      0.000      0.000
REMARK SMILES O=C(OCCOCCOCCOC(=O)c1ccc(Cn2ccc3ccc(Br)cc32)nc1)c1ccc(-c2c3nc(c(-c4cc(S(=O)(=O)[O-])ccc4F)c4ccc([nH]4)c(-c4cc(S(=O)(=O)[O-])ccc4F)c4nc(c(-c5cc(S(=O)(=O)[O-])ccc5F)c5ccc2[nH]5)C=C4)C=C3)cc1
REMARK SMILES IDX 7 1 6 2 5 3 4 4 3 5 2 6 1 7 32 8 33 9 94 10 34 11 93 12
REMARK SMILES IDX 35 13 36 14 37 15 87 16 38 17 92 18 86 19 88 20 39 21 91 22
REMARK SMILES IDX 85 23 84 24 40 26 72 27 52 28 71 29 53 30 56 31 70 32 89 33
REMARK SMILES IDX 54 34 55 35 69 37 90 38 57 39 41 40 42 41 50 42 43 43 49 44
REMARK SMILES IDX 51 45 48 46 44 47 45 48 46 49 47 50 73 51 74 52 82 53 75 54
REMARK SMILES IDX 81 55 83 56 80 57 76 58 77 59 78 60 79 61 58 62 59 63 67 64
REMARK SMILES IDX 60 65 66 66 68 67 65 68 61 69 62 70 63 71 64 72 8 73 9 74
REMARK SMILES IDX 10 75 11 76 12 77 13 78 14 79 15 80 16 81 31 82 17 83 30 84
REMARK SMILES IDX 18 85 19 86 20 87 21 88 29 89 22 90 23 91 28 92 24 93 26 94
REMARK SMILES IDX 25 95 27 96
REMARK H PARENT 88 25 56 36
REMARK Flexibility Score: inf
ROOT
ATOM      1  C   UNL A   1      40.849  19.540  27.088  1.00  0.00     0.188 C 
ENDROOT
BRANCH   1   2
ATOM      2  O   UNL A   1      42.261  19.586  27.146  1.00  0.00    -0.376 OA
BRANCH   2   3
ATOM      3  C   UNL A   1      42.903  19.869  25.914  1.00  0.00     0.202 C 
BRANCH   3   4
ATOM      4  C   UNL A   1      43.358  21.324  25.755  1.00  0.00     0.261 C 
BRANCH   4   5
ATOM      5  O   UNL A   1      42.808  22.329  26.648  1.00  0.00    -0.460 OA
BRANCH   5   6
ATOM      6  C   UNL A   1      41.606  22.965  26.597  1.00  0.00     0.338 C 
ATOM      7  O   UNL A   1      40.771  22.654  25.753  1.00  0.00    -0.246 OA
BRANCH   6   8
ATOM      8  C   UNL A   1      41.374  24.124  27.486  1.00  0.00     0.060 A 
ATOM      9  C   UNL A   1      40.217  24.880  27.280  1.00  0.00     0.016 A 
ATOM     10  C   UNL A   1      42.346  24.562  28.388  1.00  0.00     0.016 A 
ATOM     11  C   UNL A   1      40.149  26.159  27.821  1.00  0.00     0.010 A 
ATOM     12  C   UNL A   1      42.304  25.872  28.863  1.00  0.00     0.010 A 
ATOM     13  C   UNL A   1      41.237  26.705  28.525  1.00  0.00    -0.014 A 
BRANCH  13  14
ATOM     14  C   UNL A   1      41.026  27.995  29.205  1.00  0.00     0.031 A 
ATOM     15  C   UNL A   1      42.018  28.978  28.702  1.00  0.00     0.074 A 
ATOM     16  C   UNL A   1      40.032  28.403  30.022  1.00  0.00     0.049 A 
ATOM     17  N   UNL A   1      43.133  29.357  29.239  1.00  0.00    -0.248 NA
ATOM     18  C   UNL A   1      41.862  29.342  27.282  1.00  0.00     0.031 C 
ATOM     19  C   UNL A   1      38.757  27.743  30.309  1.00  0.00     0.029 A 
ATOM     20  N   UNL A   1      39.947  29.552  30.768  1.00  0.00    -0.354 N 
ATOM     21  C   UNL A   1      43.710  30.172  28.267  1.00  0.00     0.074 A 
ATOM     22  C   UNL A   1      43.069  29.832  27.026  1.00  0.00     0.031 C 
ATOM     23  C   UNL A   1      37.988  28.548  31.074  1.00  0.00     0.029 A 
ATOM     24  C   UNL A   1      38.696  29.790  31.326  1.00  0.00     0.049 A 
ATOM     25  H   UNL A   1      40.712  30.159  30.897  1.00  0.00     0.167 HD
ATOM     26  C   UNL A   1      44.403  31.303  28.576  1.00  0.00     0.034 A 
ATOM     27  C   UNL A   1      38.201  30.962  31.817  1.00  0.00     0.034 A 
ATOM     28  C   UNL A   1      44.788  31.328  29.957  1.00  0.00     0.049 A 
ATOM     29  C   UNL A   1      39.338  31.879  32.071  1.00  0.00     0.074 A 
ATOM     30  C   UNL A   1      45.603  30.559  30.762  1.00  0.00     0.029 A 
ATOM     31  N   UNL A   1      44.009  32.069  30.810  1.00  0.00    -0.354 N 
ATOM     32  N   UNL A   1      40.238  31.678  32.993  1.00  0.00    -0.248 NA
ATOM     33  C   UNL A   1      39.750  32.728  30.963  1.00  0.00     0.031 C 
ATOM     34  C   UNL A   1      44.961  30.544  32.033  1.00  0.00     0.029 A 
ATOM     35  C   UNL A   1      43.814  31.337  31.951  1.00  0.00     0.049 A 
ATOM     36  H   UNL A   1      43.652  32.969  30.632  1.00  0.00     0.167 HD
ATOM     37  C   UNL A   1      41.442  31.976  32.371  1.00  0.00     0.074 A 
ATOM     38  C   UNL A   1      41.073  32.658  31.132  1.00  0.00     0.031 C 
ATOM     39  C   UNL A   1      42.615  31.400  32.766  1.00  0.00     0.034 A 
BRANCH  26  40
ATOM     40  C   UNL A   1      44.363  32.538  27.702  1.00  0.00     0.023 A 
ATOM     41  C   UNL A   1      43.700  33.726  28.076  1.00  0.00     0.031 A 
ATOM     42  C   UNL A   1      45.159  32.631  26.550  1.00  0.00     0.131 A 
ATOM     43  C   UNL A   1      43.766  34.896  27.317  1.00  0.00     0.055 A 
ATOM     44  C   UNL A   1      45.302  33.828  25.833  1.00  0.00     0.041 A 
ATOM     45  F   UNL A   1      45.865  31.575  26.115  1.00  0.00    -0.206 F 
ATOM     46  C   UNL A   1      44.594  34.968  26.207  1.00  0.00     0.022 A 
BRANCH  43  47
ATOM     47  S   UNL A   1      42.757  36.334  27.778  1.00  0.00     0.124 S 
ATOM     48  O   UNL A   1      42.614  37.022  26.500  1.00  0.00    -0.237 OA
ATOM     49  O   UNL A   1      41.551  35.693  28.294  1.00  0.00    -0.237 OA
ATOM     50  O   UNL A   1      43.569  37.016  28.782  1.00  0.00    -0.744 OA
ENDBRANCH  43  47
ENDBRANCH  26  40
BRANCH  27  51
ATOM     51  C   UNL A   1      36.826  31.453  31.506  1.00  0.00     0.023 A 
ATOM     52  C   UNL A   1      36.432  31.542  30.157  1.00  0.00     0.031 A 
ATOM     53  C   UNL A   1      35.971  32.048  32.446  1.00  0.00     0.131 A 
ATOM     54  C   UNL A   1      35.247  32.174  29.770  1.00  0.00     0.055 A 
ATOM     55  C   UNL A   1      34.776  32.687  32.062  1.00  0.00     0.041 A 
ATOM     56  F   UNL A   1      36.295  32.069  33.749  1.00  0.00    -0.206 F 
ATOM     57  C   UNL A   1      34.409  32.750  30.717  1.00  0.00     0.022 A 
BRANCH  54  58
ATOM     58  S   UNL A   1      34.836  32.263  28.007  1.00  0.00     0.124 S 
ATOM     59  O   UNL A   1      35.372  31.004  27.495  1.00  0.00    -0.237 OA
ATOM     60  O   UNL A   1      33.382  32.362  28.048  1.00  0.00    -0.237 OA
ATOM     61  O   UNL A   1      35.543  33.459  27.553  1.00  0.00    -0.744 OA
ENDBRANCH  54  58
ENDBRANCH  27  51
BRANCH  39  62
ATOM     62  C   UNL A   1      42.639  30.574  34.034  1.00  0.00     0.023 A 
ATOM     63  C   UNL A   1      43.189  31.185  35.172  1.00  0.00     0.031 A 
ATOM     64  C   UNL A   1      42.413  29.184  34.083  1.00  0.00     0.131 A 
ATOM     65  C   UNL A   1      43.575  30.415  36.274  1.00  0.00     0.055 A 
ATOM     66  C   UNL A   1      42.720  28.430  35.222  1.00  0.00     0.041 A 
ATOM     67  F   UNL A   1      41.993  28.507  33.004  1.00  0.00    -0.206 F 
ATOM     68  C   UNL A   1      43.330  29.040  36.315  1.00  0.00     0.022 A 
BRANCH  65  69
ATOM     69  S   UNL A   1      44.590  31.159  37.577  1.00  0.00     0.124 S 
ATOM     70  O   UNL A   1      45.945  30.841  37.136  1.00  0.00    -0.237 OA
ATOM     71  O   UNL A   1      44.214  32.568  37.495  1.00  0.00    -0.237 OA
ATOM     72  O   UNL A   1      44.153  30.481  38.794  1.00  0.00    -0.744 OA
ENDBRANCH  65  69
ENDBRANCH  39  62
ENDBRANCH  13  14
ENDBRANCH   6   8
ENDBRANCH   5   6
ENDBRANCH   4   5
ENDBRANCH   3   4
ENDBRANCH   2   3
ENDBRANCH   1   2
BRANCH   1  73
ATOM     73  C   UNL A   1      40.338  19.295  25.664  1.00  0.00     0.188 C 
BRANCH  73  74
ATOM     74  O   UNL A   1      38.931  19.124  25.500  1.00  0.00    -0.376 OA
BRANCH  74  75
ATOM     75  C   UNL A   1      38.189  20.250  25.022  1.00  0.00     0.202 C 
BRANCH  75  76
ATOM     76  C   UNL A   1      36.662  20.161  25.005  1.00  0.00     0.261 C 
BRANCH  76  77
ATOM     77  O   UNL A   1      35.986  21.314  24.517  1.00  0.00    -0.460 OA
BRANCH  77  78
ATOM     78  C   UNL A   1      34.707  21.400  24.937  1.00  0.00     0.339 C 
ATOM     79  O   UNL A   1      34.160  20.749  25.820  1.00  0.00    -0.246 OA
BRANCH  78  80
ATOM     80  C   UNL A   1      34.013  22.381  24.122  1.00  0.00     0.078 A 
ATOM     81  C   UNL A   1      32.739  22.820  24.470  1.00  0.00     0.019 A 
ATOM     82  C   UNL A   1      34.639  22.928  23.024  1.00  0.00     0.127 A 
ATOM     83  C   UNL A   1      32.188  23.892  23.774  1.00  0.00     0.026 A 
ATOM     84  N   UNL A   1      34.101  23.931  22.304  1.00  0.00    -0.258 NA
ATOM     85  C   UNL A   1      32.936  24.473  22.750  1.00  0.00     0.060 A 
BRANCH  85  86
ATOM     86  C   UNL A   1      32.582  25.836  22.205  1.00  0.00     0.178 C 
BRANCH  86  87
ATOM     87  N   UNL A   1      32.615  26.833  23.282  1.00  0.00    -0.341 N 
ATOM     88  C   UNL A   1      33.660  26.986  24.163  1.00  0.00     0.087 A 
ATOM     89  C   UNL A   1      31.660  27.813  23.519  1.00  0.00     0.049 A 
ATOM     90  C   UNL A   1      33.404  28.091  24.943  1.00  0.00     0.028 A 
ATOM     91  C   UNL A   1      32.160  28.639  24.529  1.00  0.00    -0.000 A 
ATOM     92  C   UNL A   1      30.431  28.084  22.889  1.00  0.00     0.042 A 
ATOM     93  C   UNL A   1      31.424  29.780  24.910  1.00  0.00     0.011 A 
ATOM     94  C   UNL A   1      29.744  29.243  23.256  1.00  0.00     0.020 A 
ATOM     95  C   UNL A   1      30.223  30.082  24.255  1.00  0.00     0.016 A 
ATOM     96  Br  UNL A   1      28.147  29.699  22.345  1.00  0.00    -0.051 Br
ENDBRANCH  86  87
ENDBRANCH  85  86
ENDBRANCH  78  80
ENDBRANCH  77  78
ENDBRANCH  76  77
ENDBRANCH  75  76
ENDBRANCH  74  75
ENDBRANCH  73  74
ENDBRANCH   1  73
TORSDOF 22
ENDMDL
MODEL 2
REMARK VINA RESULT:     -10.2      2.047      2.757
REMARK SMILES O=C(OCCOCCOCCOC(=O)c1ccc(Cn2ccc3ccc(Br)cc32)nc1)c1ccc(-c2c3nc(c(-c4cc(S(=O)(=O)[O-])ccc4F)c4ccc([nH]4)c(-c4cc(S(=O)(=O)[O-])ccc4F)c4nc(c(-c5cc(S(=O)(=O)[O-])ccc5F)c5ccc2[nH]5)C=C4)C=C3)cc1
REMARK SMILES IDX 7 1 6 2 5 3 4 4 3 5 2 6 1 7 32 8 33 9 94 10 34 11 93 12
REMARK SMILES IDX 35 13 36 14 37 15 87 16 38 17 92 18 86 19 88 20 39 21 91 22
REMARK SMILES IDX 85 23 84 24 40 26 72 27 52 28 71 29 53 30 56 31 70 32 89 33
REMARK SMILES IDX 54 34 55 35 69 37 90 38 57 39 41 40 42 41 50 42 43 43 49 44
REMARK SMILES IDX 51 45 48 46 44 47 45 48 46 49 47 50 73 51 74 52 82 53 75 54
REMARK SMILES IDX 81 55 83 56 80 57 76 58 77 59 78 60 79 61 58 62 59 63 67 64
REMARK SMILES IDX 60 65 66 66 68 67 65 68 61 69 62 70 63 71 64 72 8 73 9 74
REMARK SMILES IDX 10 75 11 76 12 77 13 78 14 79 15 80 16 81 31 82 17 83 30 84
REMARK SMILES IDX 18 85 19 86 20 87 21 88 29 89 22 90 23 91 28 92 24 93 26 94
REMARK SMILES IDX 25 95 27 96
REMARK H PARENT 88 25 56 36
REMARK Flexibility Score: inf
ROOT
ATOM      1  C   UNL A   1      43.982  20.178  24.868  1.00  0.00     0.188 C 
ENDROOT
BRANCH   1   2
ATOM      2  O   UNL A   1      44.998  20.852  25.583  1.00  0.00    -0.376 OA
BRANCH   2   3
ATOM      3  C   UNL A   1      44.868  22.263  25.623  1.00  0.00     0.202 C 
BRANCH   3   4
ATOM      4  C   UNL A   1      43.825  22.832  24.654  1.00  0.00     0.261 C 
BRANCH   4   5
ATOM      5  O   UNL A   1      42.674  23.530  25.200  1.00  0.00    -0.460 OA
BRANCH   5   6
ATOM      6  C   UNL A   1      42.352  23.783  26.497  1.00  0.00     0.338 C 
ATOM      7  O   UNL A   1      42.044  22.868  27.253  1.00  0.00    -0.246 OA
BRANCH   6   8
ATOM      8  C   UNL A   1      42.251  25.189  26.945  1.00  0.00     0.060 A 
ATOM      9  C   UNL A   1      42.882  25.536  28.142  1.00  0.00     0.016 A 
ATOM     10  C   UNL A   1      41.418  26.106  26.300  1.00  0.00     0.016 A 
ATOM     11  C   UNL A   1      42.507  26.714  28.778  1.00  0.00     0.010 A 
ATOM     12  C   UNL A   1      40.991  27.245  26.980  1.00  0.00     0.010 A 
ATOM     13  C   UNL A   1      41.481  27.523  28.257  1.00  0.00    -0.014 A 
BRANCH  13  14
ATOM     14  C   UNL A   1      41.257  28.830  28.897  1.00  0.00     0.031 A 
ATOM     15  C   UNL A   1      42.427  29.706  28.639  1.00  0.00     0.074 A 
ATOM     16  C   UNL A   1      40.153  29.340  29.485  1.00  0.00     0.049 A 
ATOM     17  N   UNL A   1      43.430  29.973  29.412  1.00  0.00    -0.248 NA
ATOM     18  C   UNL A   1      42.621  30.078  27.226  1.00  0.00     0.031 C 
ATOM     19  C   UNL A   1      38.788  28.813  29.476  1.00  0.00     0.029 A 
ATOM     20  N   UNL A   1      40.023  30.495  30.215  1.00  0.00    -0.354 N 
ATOM     21  C   UNL A   1      44.283  30.722  28.605  1.00  0.00     0.074 A 
ATOM     22  C   UNL A   1      43.898  30.443  27.248  1.00  0.00     0.031 C 
ATOM     23  C   UNL A   1      37.954  29.695  30.070  1.00  0.00     0.029 A 
ATOM     24  C   UNL A   1      38.710  30.860  30.492  1.00  0.00     0.049 A 
ATOM     25  H   UNL A   1      40.797  31.022  30.519  1.00  0.00     0.167 HD
ATOM     26  C   UNL A   1      45.000  31.779  29.077  1.00  0.00     0.034 A 
ATOM     27  C   UNL A   1      38.238  32.078  30.884  1.00  0.00     0.034 A 
ATOM     28  C   UNL A   1      45.075  31.771  30.509  1.00  0.00     0.049 A 
ATOM     29  C   UNL A   1      39.378  32.877  31.396  1.00  0.00     0.074 A 
ATOM     30  C   UNL A   1      45.614  30.927  31.458  1.00  0.00     0.029 A 
ATOM     31  N   UNL A   1      44.206  32.591  31.185  1.00  0.00    -0.354 N 
ATOM     32  N   UNL A   1      40.030  32.590  32.489  1.00  0.00    -0.248 NA
ATOM     33  C   UNL A   1      40.104  33.675  30.420  1.00  0.00     0.031 C 
ATOM     34  C   UNL A   1      44.713  30.982  32.559  1.00  0.00     0.029 A 
ATOM     35  C   UNL A   1      43.696  31.886  32.243  1.00  0.00     0.049 A 
ATOM     36  H   UNL A   1      43.988  33.521  30.950  1.00  0.00     0.167 HD
ATOM     37  C   UNL A   1      41.364  32.762  32.149  1.00  0.00     0.074 A 
ATOM     38  C   UNL A   1      41.344  33.473  30.871  1.00  0.00     0.031 C 
ATOM     39  C   UNL A   1      42.360  32.073  32.779  1.00  0.00     0.034 A 
BRANCH  26  40
ATOM     40  C   UNL A   1      45.274  33.008  28.238  1.00  0.00     0.023 A 
ATOM     41  C   UNL A   1      44.430  34.138  28.226  1.00  0.00     0.031 A 
ATOM     42  C   UNL A   1      46.500  33.167  27.572  1.00  0.00     0.131 A 
ATOM     43  C   UNL A   1      44.751  35.311  27.539  1.00  0.00     0.055 A 
ATOM     44  C   UNL A   1      46.868  34.372  26.957  1.00  0.00     0.041 A 
ATOM     45  F   UNL A   1      47.401  32.172  27.545  1.00  0.00    -0.206 F 
ATOM     46  C   UNL A   1      45.987  35.450  26.927  1.00  0.00     0.022 A 
BRANCH  43  47
ATOM     47  S   UNL A   1      43.541  36.661  27.438  1.00  0.00     0.124 S 
ATOM     48  O   UNL A   1      42.831  36.523  28.704  1.00  0.00    -0.237 OA
ATOM     49  O   UNL A   1      44.412  37.828  27.320  1.00  0.00    -0.237 OA
ATOM     50  O   UNL A   1      42.772  36.344  26.238  1.00  0.00    -0.744 OA
ENDBRANCH  43  47
ENDBRANCH  26  40
BRANCH  27  51
ATOM     51  C   UNL A   1      37.020  32.703  30.291  1.00  0.00     0.023 A 
ATOM     52  C   UNL A   1      36.129  33.383  31.143  1.00  0.00     0.031 A 
ATOM     53  C   UNL A   1      36.576  32.473  28.979  1.00  0.00     0.131 A 
ATOM     54  C   UNL A   1      34.875  33.821  30.709  1.00  0.00     0.055 A 
ATOM     55  C   UNL A   1      35.313  32.911  28.536  1.00  0.00     0.041 A 
ATOM     56  F   UNL A   1      37.330  31.777  28.114  1.00  0.00    -0.206 F 
ATOM     57  C   UNL A   1      34.456  33.591  29.403  1.00  0.00     0.022 A 
BRANCH  54  58
ATOM     58  S   UNL A   1      33.785  34.665  31.885  1.00  0.00     0.124 S 
ATOM     59  O   UNL A   1      34.604  35.793  32.320  1.00  0.00    -0.237 OA
ATOM     60  O   UNL A   1      32.643  35.000  31.042  1.00  0.00    -0.237 OA
ATOM     61  O   UNL A   1      33.542  33.653  32.910  1.00  0.00    -0.744 OA
ENDBRANCH  54  58
ENDBRANCH  27  51
BRANCH  39  62
ATOM     62  C   UNL A   1      42.025  31.254  34.006  1.00  0.00     0.023 A 
ATOM     63  C   UNL A   1      42.421  31.785  35.244  1.00  0.00     0.031 A 
ATOM     64  C   UNL A   1      41.606  29.909  33.976  1.00  0.00     0.131 A 
ATOM     65  C   UNL A   1      42.477  30.972  36.380  1.00  0.00     0.055 A 
ATOM     66  C   UNL A   1      41.581  29.122  35.134  1.00  0.00     0.041 A 
ATOM     67  F   UNL A   1      41.315  29.295  32.821  1.00  0.00    -0.206 F 
ATOM     68  C   UNL A   1      42.044  29.644  36.339  1.00  0.00     0.022 A 
BRANCH  65  69
ATOM     69  S   UNL A   1      43.312  31.570  37.872  1.00  0.00     0.124 S 
ATOM     70  O   UNL A   1      42.232  31.576  38.853  1.00  0.00    -0.237 OA
ATOM     71  O   UNL A   1      44.346  30.557  38.076  1.00  0.00    -0.237 OA
ATOM     72  O   UNL A   1      43.817  32.887  37.489  1.00  0.00    -0.744 OA
ENDBRANCH  65  69
ENDBRANCH  39  62
ENDBRANCH  13  14
ENDBRANCH   6   8
ENDBRANCH   5   6
ENDBRANCH   4   5
ENDBRANCH   3   4
ENDBRANCH   2   3
ENDBRANCH   1   2
BRANCH   1  73
ATOM     73  C   UNL A   1      43.311  19.087  25.709  1.00  0.00     0.188 C 
BRANCH  73  74
ATOM     74  O   UNL A   1      41.885  19.069  25.731  1.00  0.00    -0.376 OA
BRANCH  74  75
ATOM     75  C   UNL A   1      41.217  20.335  25.734  1.00  0.00     0.202 C 
BRANCH  75  76
ATOM     76  C   UNL A   1      39.821  20.420  26.351  1.00  0.00     0.261 C 
BRANCH  76  77
ATOM     77  O   UNL A   1      38.955  21.393  25.777  1.00  0.00    -0.460 OA
BRANCH  77  78
ATOM     78  C   UNL A   1      37.851  20.858  25.217  1.00  0.00     0.339 C 
ATOM     79  O   UNL A   1      37.774  19.861  24.507  1.00  0.00    -0.246 OA
BRANCH  78  80
ATOM     80  C   UNL A   1      36.710  21.697  25.540  1.00  0.00     0.078 A 
ATOM     81  C   UNL A   1      36.859  23.072  25.695  1.00  0.00     0.019 A 
ATOM     82  C   UNL A   1      35.455  21.139  25.640  1.00  0.00     0.127 A 
ATOM     83  C   UNL A   1      35.718  23.859  25.817  1.00  0.00     0.026 A 
ATOM     84  N   UNL A   1      34.342  21.877  25.811  1.00  0.00    -0.258 NA
ATOM     85  C   UNL A   1      34.472  23.231  25.789  1.00  0.00     0.060 A 
BRANCH  85  86
ATOM     86  C   UNL A   1      33.208  24.020  25.550  1.00  0.00     0.178 C 
BRANCH  86  87
ATOM     87  N   UNL A   1      33.403  24.958  24.437  1.00  0.00    -0.341 N 
ATOM     88  C   UNL A   1      33.333  24.607  23.109  1.00  0.00     0.087 A 
ATOM     89  C   UNL A   1      33.596  26.329  24.547  1.00  0.00     0.049 A 
ATOM     90  C   UNL A   1      33.436  25.756  22.357  1.00  0.00     0.028 A 
ATOM     91  C   UNL A   1      33.573  26.851  23.250  1.00  0.00    -0.000 A 
ATOM     92  C   UNL A   1      33.721  27.163  25.674  1.00  0.00     0.042 A 
ATOM     93  C   UNL A   1      33.659  28.248  23.073  1.00  0.00     0.011 A 
ATOM     94  C   UNL A   1      33.761  28.543  25.471  1.00  0.00     0.020 A 
ATOM     95  C   UNL A   1      33.736  29.087  24.192  1.00  0.00     0.016 A 
ATOM     96  Br  UNL A   1      33.810  29.697  26.972  1.00  0.00    -0.051 Br
ENDBRANCH  86  87
ENDBRANCH  85  86
ENDBRANCH  78  80
ENDBRANCH  77  78
ENDBRANCH  76  77
ENDBRANCH  75  76
ENDBRANCH  74  75
ENDBRANCH  73  74
ENDBRANCH   1  73
TORSDOF 22
ENDMDL
MODEL 3
REMARK VINA RESULT:     -10.2      1.977      2.292
REMARK SMILES O=C(OCCOCCOCCOC(=O)c1ccc(Cn2ccc3ccc(Br)cc32)nc1)c1ccc(-c2c3nc(c(-c4cc(S(=O)(=O)[O-])ccc4F)c4ccc([nH]4)c(-c4cc(S(=O)(=O)[O-])ccc4F)c4nc(c(-c5cc(S(=O)(=O)[O-])ccc5F)c5ccc2[nH]5)C=C4)C=C3)cc1
REMARK SMILES IDX 7 1 6 2 5 3 4 4 3 5 2 6 1 7 32 8 33 9 94 10 34 11 93 12
REMARK SMILES IDX 35 13 36 14 37 15 87 16 38 17 92 18 86 19 88 20 39 21 91 22
REMARK SMILES IDX 85 23 84 24 40 26 72 27 52 28 71 29 53 30 56 31 70 32 89 33
REMARK SMILES IDX 54 34 55 35 69 37 90 38 57 39 41 40 42 41 50 42 43 43 49 44
REMARK SMILES IDX 51 45 48 46 44 47 45 48 46 49 47 50 73 51 74 52 82 53 75 54
REMARK SMILES IDX 81 55 83 56 80 57 76 58 77 59 78 60 79 61 58 62 59 63 67 64
REMARK SMILES IDX 60 65 66 66 68 67 65 68 61 69 62 70 63 71 64 72 8 73 9 74
REMARK SMILES IDX 10 75 11 76 12 77 13 78 14 79 15 80 16 81 31 82 17 83 30 84
REMARK SMILES IDX 18 85 19 86 20 87 21 88 29 89 22 90 23 91 28 92 24 93 26 94
REMARK SMILES IDX 25 95 27 96
REMARK H PARENT 88 25 56 36
REMARK Flexibility Score: inf
ROOT
ATOM      1  C   UNL A   1      40.987  19.946  27.180  1.00  0.00     0.188 C 
ENDROOT
BRANCH   1   2
ATOM      2  O   UNL A   1      42.334  20.371  27.240  1.00  0.00    -0.376 OA
BRANCH   2   3
ATOM      3  C   UNL A   1      42.874  20.829  26.012  1.00  0.00     0.202 C 
BRANCH   3   4
ATOM      4  C   UNL A   1      42.471  22.259  25.635  1.00  0.00     0.261 C 
BRANCH   4   5
ATOM      5  O   UNL A   1      42.073  23.173  26.691  1.00  0.00    -0.460 OA
BRANCH   5   6
ATOM      6  C   UNL A   1      40.841  23.671  26.983  1.00  0.00     0.338 C 
ATOM      7  O   UNL A   1      39.833  23.163  26.504  1.00  0.00    -0.246 OA
BRANCH   6   8
ATOM      8  C   UNL A   1      40.746  24.914  27.780  1.00  0.00     0.060 A 
ATOM      9  C   UNL A   1      39.651  25.750  27.549  1.00  0.00     0.016 A 
ATOM     10  C   UNL A   1      41.786  25.335  28.610  1.00  0.00     0.016 A 
ATOM     11  C   UNL A   1      39.714  27.070  27.983  1.00  0.00     0.010 A 
ATOM     12  C   UNL A   1      41.876  26.677  28.975  1.00  0.00     0.010 A 
ATOM     13  C   UNL A   1      40.872  27.572  28.603  1.00  0.00    -0.014 A 
BRANCH  13  14
ATOM     14  C   UNL A   1      40.800  28.926  29.179  1.00  0.00     0.031 A 
ATOM     15  C   UNL A   1      42.005  29.692  28.775  1.00  0.00     0.074 A 
ATOM     16  C   UNL A   1      39.791  29.553  29.822  1.00  0.00     0.049 A 
ATOM     17  N   UNL A   1      43.087  29.920  29.447  1.00  0.00    -0.248 NA
ATOM     18  C   UNL A   1      42.106  29.970  27.331  1.00  0.00     0.031 C 
ATOM     19  C   UNL A   1      38.395  29.136  29.956  1.00  0.00     0.029 A 
ATOM     20  N   UNL A   1      39.809  30.752  30.489  1.00  0.00    -0.354 N 
ATOM     21  C   UNL A   1      43.922  30.554  28.529  1.00  0.00     0.074 A 
ATOM     22  C   UNL A   1      43.403  30.234  27.228  1.00  0.00     0.031 C 
ATOM     23  C   UNL A   1      37.682  30.111  30.560  1.00  0.00     0.029 A 
ATOM     24  C   UNL A   1      38.555  31.234  30.848  1.00  0.00     0.049 A 
ATOM     25  H   UNL A   1      40.643  31.232  30.696  1.00  0.00     0.167 HD
ATOM     26  C   UNL A   1      44.753  31.576  28.877  1.00  0.00     0.034 A 
ATOM     27  C   UNL A   1      38.210  32.505  31.202  1.00  0.00     0.034 A 
ATOM     28  C   UNL A   1      44.949  31.639  30.296  1.00  0.00     0.049 A 
ATOM     29  C   UNL A   1      39.445  33.239  31.571  1.00  0.00     0.074 A 
ATOM     30  C   UNL A   1      45.503  30.808  31.249  1.00  0.00     0.029 A 
ATOM     31  N   UNL A   1      44.204  32.561  30.989  1.00  0.00    -0.354 N 
ATOM     32  N   UNL A   1      40.165  32.961  32.623  1.00  0.00    -0.248 NA
ATOM     33  C   UNL A   1      40.143  33.922  30.493  1.00  0.00     0.031 C 
ATOM     34  C   UNL A   1      44.705  30.994  32.413  1.00  0.00     0.029 A 
ATOM     35  C   UNL A   1      43.734  31.958  32.126  1.00  0.00     0.049 A 
ATOM     36  H   UNL A   1      44.036  33.491  30.717  1.00  0.00     0.167 HD
ATOM     37  C   UNL A   1      41.475  33.009  32.167  1.00  0.00     0.074 A 
ATOM     38  C   UNL A   1      41.398  33.648  30.854  1.00  0.00     0.031 C 
ATOM     39  C   UNL A   1      42.466  32.278  32.755  1.00  0.00     0.034 A 
BRANCH  26  40
ATOM     40  C   UNL A   1      45.045  32.732  27.946  1.00  0.00     0.023 A 
ATOM     41  C   UNL A   1      44.429  33.995  28.066  1.00  0.00     0.031 A 
ATOM     42  C   UNL A   1      46.103  32.665  27.025  1.00  0.00     0.131 A 
ATOM     43  C   UNL A   1      44.790  35.088  27.276  1.00  0.00     0.055 A 
ATOM     44  C   UNL A   1      46.530  33.782  26.293  1.00  0.00     0.041 A 
ATOM     45  F   UNL A   1      46.789  31.525  26.848  1.00  0.00    -0.206 F 
ATOM     46  C   UNL A   1      45.866  35.001  26.406  1.00  0.00     0.022 A 
BRANCH  43  47
ATOM     47  S   UNL A   1      43.841  36.633  27.379  1.00  0.00     0.124 S 
ATOM     48  O   UNL A   1      44.867  37.633  27.109  1.00  0.00    -0.237 OA
ATOM     49  O   UNL A   1      42.848  36.439  26.326  1.00  0.00    -0.237 OA
ATOM     50  O   UNL A   1      43.308  36.618  28.738  1.00  0.00    -0.744 OA
ENDBRANCH  43  47
ENDBRANCH  26  40
BRANCH  27  51
ATOM     51  C   UNL A   1      36.996  33.191  30.672  1.00  0.00     0.023 A 
ATOM     52  C   UNL A   1      36.055  33.699  31.588  1.00  0.00     0.031 A 
ATOM     53  C   UNL A   1      36.605  33.171  29.324  1.00  0.00     0.131 A 
ATOM     54  C   UNL A   1      34.805  34.174  31.183  1.00  0.00     0.055 A 
ATOM     55  C   UNL A   1      35.346  33.647  28.909  1.00  0.00     0.041 A 
ATOM     56  F   UNL A   1      37.410  32.647  28.386  1.00  0.00    -0.206 F 
ATOM     57  C   UNL A   1      34.439  34.154  29.842  1.00  0.00     0.022 A 
BRANCH  54  58
ATOM     58  S   UNL A   1      33.649  34.785  32.438  1.00  0.00     0.124 S 
ATOM     59  O   UNL A   1      32.570  35.343  31.626  1.00  0.00    -0.237 OA
ATOM     60  O   UNL A   1      33.327  33.562  33.164  1.00  0.00    -0.237 OA
ATOM     61  O   UNL A   1      34.435  35.773  33.173  1.00  0.00    -0.744 OA
ENDBRANCH  54  58
ENDBRANCH  27  51
BRANCH  39  62
ATOM     62  C   UNL A   1      42.177  31.556  34.053  1.00  0.00     0.023 A 
ATOM     63  C   UNL A   1      42.673  32.148  35.226  1.00  0.00     0.031 A 
ATOM     64  C   UNL A   1      41.702  30.232  34.139  1.00  0.00     0.131 A 
ATOM     65  C   UNL A   1      42.768  31.407  36.409  1.00  0.00     0.055 A 
ATOM     66  C   UNL A   1      41.719  29.524  35.347  1.00  0.00     0.041 A 
ATOM     67  F   UNL A   1      41.313  29.559  33.048  1.00  0.00    -0.206 F 
ATOM     68  C   UNL A   1      42.279  30.101  36.483  1.00  0.00     0.022 A 
BRANCH  65  69
ATOM     69  S   UNL A   1      43.721  32.063  37.803  1.00  0.00     0.124 S 
ATOM     70  O   UNL A   1      43.767  33.491  37.506  1.00  0.00    -0.237 OA
ATOM     71  O   UNL A   1      42.896  31.682  38.948  1.00  0.00    -0.237 OA
ATOM     72  O   UNL A   1      45.000  31.364  37.715  1.00  0.00    -0.744 OA
ENDBRANCH  65  69
ENDBRANCH  39  62
ENDBRANCH  13  14
ENDBRANCH   6   8
ENDBRANCH   5   6
ENDBRANCH   4   5
ENDBRANCH   3   4
ENDBRANCH   2   3
ENDBRANCH   1   2
BRANCH   1  73
ATOM     73  C   UNL A   1      40.724  19.029  25.981  1.00  0.00     0.188 C 
BRANCH  73  74
ATOM     74  O   UNL A   1      39.414  19.057  25.417  1.00  0.00    -0.376 OA
BRANCH  74  75
ATOM     75  C   UNL A   1      38.645  20.247  25.614  1.00  0.00     0.202 C 
BRANCH  75  76
ATOM     76  C   UNL A   1      37.300  20.371  24.896  1.00  0.00     0.261 C 
BRANCH  76  77
ATOM     77  O   UNL A   1      36.755  21.685  24.839  1.00  0.00    -0.460 OA
BRANCH  77  78
ATOM     78  C   UNL A   1      35.447  21.733  25.160  1.00  0.00     0.339 C 
ATOM     79  O   UNL A   1      34.847  21.043  25.978  1.00  0.00    -0.246 OA
BRANCH  78  80
ATOM     80  C   UNL A   1      34.797  22.729  24.327  1.00  0.00     0.078 A 
ATOM     81  C   UNL A   1      33.688  22.397  23.554  1.00  0.00     0.019 A 
ATOM     82  C   UNL A   1      35.244  24.032  24.340  1.00  0.00     0.127 A 
ATOM     83  C   UNL A   1      32.985  23.417  22.920  1.00  0.00     0.026 A 
ATOM     84  N   UNL A   1      34.609  25.026  23.690  1.00  0.00    -0.258 NA
ATOM     85  C   UNL A   1      33.430  24.729  23.079  1.00  0.00     0.060 A 
BRANCH  85  86
ATOM     86  C   UNL A   1      32.540  25.899  22.741  1.00  0.00     0.178 C 
BRANCH  86  87
ATOM     87  N   UNL A   1      31.680  26.226  23.887  1.00  0.00    -0.341 N 
ATOM     88  C   UNL A   1      30.410  25.733  24.065  1.00  0.00     0.087 A 
ATOM     89  C   UNL A   1      32.040  26.993  24.986  1.00  0.00     0.049 A 
ATOM     90  C   UNL A   1      29.960  26.144  25.300  1.00  0.00     0.028 A 
ATOM     91  C   UNL A   1      30.989  26.916  25.903  1.00  0.00    -0.000 A 
ATOM     92  C   UNL A   1      33.224  27.694  25.283  1.00  0.00     0.042 A 
ATOM     93  C   UNL A   1      31.128  27.538  27.162  1.00  0.00     0.011 A 
ATOM     94  C   UNL A   1      33.352  28.265  26.551  1.00  0.00     0.020 A 
ATOM     95  C   UNL A   1      32.322  28.197  27.481  1.00  0.00     0.016 A 
ATOM     96  Br  UNL A   1      34.978  29.113  27.024  1.00  0.00    -0.051 Br
ENDBRANCH  86  87
ENDBRANCH  85  86
ENDBRANCH  78  80
ENDBRANCH  77  78
ENDBRANCH  76  77
ENDBRANCH  75  76
ENDBRANCH  74  75
ENDBRANCH  73  74
ENDBRANCH   1  73
TORSDOF 22
ENDMDL
