MODEL 1
REMARK VINA RESULT:      -9.7      0.000      0.000
REMARK SMILES CC(C)[C@@H]1CCCN1C(=O)N1CCO[C@H](CC(=O)OCCOCCOCCOC(=O)c2ccc(-c3c4nc(c(-c5cc(S(=O)(=O)[O-])ccc5F)c5ccc([nH]5)c(-c5cc(S(=O)(=O)[O-])ccc5F)c5nc(c(-c6cc(S(=O)(=O)[O-])ccc6F)c6ccc3[nH]6)C=C5)C=C4)cc2)C1
REMARK SMILES IDX 23 1 22 2 21 3 20 4 19 5 17 6 18 7 16 8 15 9 11 10 12 11
REMARK SMILES IDX 94 12 13 13 14 14 9 15 10 16 8 17 4 18 5 19 6 20 7 21 2 22
REMARK SMILES IDX 1 23 3 24 24 25 25 26 26 27 27 28 28 29 29 30 30 31 31 32
REMARK SMILES IDX 32 33 93 34 33 35 92 36 34 37 35 38 36 39 86 40 37 41 91 42
REMARK SMILES IDX 85 43 87 44 38 45 90 46 84 47 83 48 39 50 71 51 51 52 70 53
REMARK SMILES IDX 52 54 55 55 69 56 88 57 53 58 54 59 68 61 89 62 56 63 40 64
REMARK SMILES IDX 41 65 49 66 42 67 48 68 50 69 47 70 43 71 44 72 45 73 46 74
REMARK SMILES IDX 72 75 73 76 81 77 74 78 80 79 82 80 79 81 75 82 76 83 77 84
REMARK SMILES IDX 78 85 57 86 58 87 66 88 59 89 65 90 67 91 64 92 60 93 61 94
REMARK SMILES IDX 62 95 63 96
REMARK H PARENT 87 49 55 60
REMARK Flexibility Score: inf
ROOT
ATOM      1  C   UNL A   1      40.053  21.254  26.771  1.00  0.00     0.188 C 
ENDROOT
BRANCH   1   2
ATOM      2  O   UNL A   1      39.380  21.988  25.753  1.00  0.00    -0.376 OA
BRANCH   2   3
ATOM      3  C   UNL A   1      38.110  22.554  26.047  1.00  0.00     0.202 C 
BRANCH   3   4
ATOM      4  C   UNL A   1      36.875  21.719  25.686  1.00  0.00     0.261 C 
BRANCH   4   5
ATOM      5  O   UNL A   1      35.635  22.333  26.095  1.00  0.00    -0.463 OA
BRANCH   5   6
ATOM      6  C   UNL A   1      35.102  23.244  25.243  1.00  0.00     0.308 C 
ATOM      7  O   UNL A   1      35.080  24.449  25.469  1.00  0.00    -0.252 OA
BRANCH   6   8
ATOM      8  C   UNL A   1      34.776  22.675  23.875  1.00  0.00     0.156 C 
BRANCH   8   9
ATOM      9  C   UNL A   1      33.362  22.498  23.318  1.00  0.00     0.149 C 
ATOM     10  N   UNL A   1      32.155  24.643  23.165  1.00  0.00    -0.320 N 
ATOM     11  C   UNL A   1      30.986  24.018  23.775  1.00  0.00     0.150 C 
ATOM     12  C   UNL A   1      32.903  23.646  22.425  1.00  0.00     0.154 C 
ATOM     13  C   UNL A   1      31.436  22.930  24.756  1.00  0.00     0.182 C 
ATOM     14  O   UNL A   1      32.352  21.978  24.196  1.00  0.00    -0.374 OA
BRANCH  10  15
ATOM     15  C   UNL A   1      32.009  25.843  22.497  1.00  0.00     0.320 C 
ATOM     16  O   UNL A   1      32.362  25.960  21.323  1.00  0.00    -0.248 OA
BRANCH  15  17
ATOM     17  N   UNL A   1      31.640  26.926  23.274  1.00  0.00    -0.321 N 
ATOM     18  C   UNL A   1      32.444  27.805  24.143  1.00  0.00     0.089 C 
ATOM     19  C   UNL A   1      31.419  28.854  24.622  1.00  0.00     0.027 C 
ATOM     20  C   UNL A   1      30.451  28.973  23.468  1.00  0.00     0.024 C 
ATOM     21  C   UNL A   1      30.362  27.545  22.954  1.00  0.00     0.122 C 
BRANCH  18  22
ATOM     22  C   UNL A   1      33.136  27.231  25.414  1.00  0.00     0.005 C 
ATOM     23  C   UNL A   1      33.934  28.221  26.233  1.00  0.00     0.009 C 
ATOM     24  C   UNL A   1      32.083  26.582  26.332  1.00  0.00     0.009 C 
ENDBRANCH  18  22
ENDBRANCH  15  17
ENDBRANCH  10  15
ENDBRANCH   8   9
ENDBRANCH   6   8
ENDBRANCH   5   6
ENDBRANCH   4   5
ENDBRANCH   3   4
ENDBRANCH   2   3
ENDBRANCH   1   2
BRANCH   1  25
ATOM     25  C   UNL A   1      41.140  20.234  26.375  1.00  0.00     0.188 C 
BRANCH  25  26
ATOM     26  O   UNL A   1      41.913  19.762  27.466  1.00  0.00    -0.376 OA
BRANCH  26  27
ATOM     27  C   UNL A   1      42.579  18.532  27.239  1.00  0.00     0.202 C 
BRANCH  27  28
ATOM     28  C   UNL A   1      43.079  18.396  25.797  1.00  0.00     0.261 C 
BRANCH  28  29
ATOM     29  O   UNL A   1      44.484  18.643  25.615  1.00  0.00    -0.460 OA
BRANCH  29  30
ATOM     30  C   UNL A   1      44.868  19.314  24.503  1.00  0.00     0.338 C 
ATOM     31  O   UNL A   1      45.077  18.837  23.400  1.00  0.00    -0.246 OA
BRANCH  30  32
ATOM     32  C   UNL A   1      44.750  20.759  24.809  1.00  0.00     0.060 A 
ATOM     33  C   UNL A   1      44.449  21.668  23.783  1.00  0.00     0.016 A 
ATOM     34  C   UNL A   1      44.868  21.202  26.128  1.00  0.00     0.016 A 
ATOM     35  C   UNL A   1      44.282  23.027  24.074  1.00  0.00     0.010 A 
ATOM     36  C   UNL A   1      44.726  22.559  26.414  1.00  0.00     0.010 A 
ATOM     37  C   UNL A   1      44.459  23.483  25.388  1.00  0.00    -0.014 A 
BRANCH  37  38
ATOM     38  C   UNL A   1      44.636  24.926  25.689  1.00  0.00     0.031 A 
ATOM     39  C   UNL A   1      46.029  25.483  25.582  1.00  0.00     0.074 A 
ATOM     40  C   UNL A   1      43.628  25.702  26.122  1.00  0.00     0.049 A 
ATOM     41  N   UNL A   1      46.506  26.628  25.988  1.00  0.00    -0.248 NA
ATOM     42  C   UNL A   1      47.021  24.603  24.944  1.00  0.00     0.031 C 
ATOM     43  C   UNL A   1      42.225  25.303  26.209  1.00  0.00     0.029 A 
ATOM     44  N   UNL A   1      43.642  26.991  26.596  1.00  0.00    -0.354 N 
ATOM     45  C   UNL A   1      47.860  26.604  25.666  1.00  0.00     0.074 A 
ATOM     46  C   UNL A   1      48.128  25.316  25.065  1.00  0.00     0.031 C 
ATOM     47  C   UNL A   1      41.515  26.323  26.725  1.00  0.00     0.029 A 
ATOM     48  C   UNL A   1      42.420  27.424  27.059  1.00  0.00     0.049 A 
ATOM     49  H   UNL A   1      44.450  27.553  26.604  1.00  0.00     0.167 HD
ATOM     50  C   UNL A   1      48.794  27.567  25.857  1.00  0.00     0.034 A 
ATOM     51  C   UNL A   1      42.088  28.556  27.715  1.00  0.00     0.034 A 
ATOM     52  C   UNL A   1      48.518  28.830  26.492  1.00  0.00     0.049 A 
ATOM     53  C   UNL A   1      43.170  29.563  28.044  1.00  0.00     0.074 A 
ATOM     54  C   UNL A   1      49.385  29.877  26.749  1.00  0.00     0.029 A 
ATOM     55  N   UNL A   1      47.278  29.210  26.990  1.00  0.00    -0.354 N 
ATOM     56  N   UNL A   1      44.451  29.527  27.753  1.00  0.00    -0.248 NA
ATOM     57  C   UNL A   1      42.763  30.757  28.800  1.00  0.00     0.031 C 
ATOM     58  C   UNL A   1      48.689  30.855  27.465  1.00  0.00     0.029 A 
ATOM     59  C   UNL A   1      47.365  30.459  27.583  1.00  0.00     0.049 A 
ATOM     60  H   UNL A   1      46.457  28.671  26.932  1.00  0.00     0.167 HD
ATOM     61  C   UNL A   1      44.988  30.714  28.251  1.00  0.00     0.074 A 
ATOM     62  C   UNL A   1      43.898  31.439  28.867  1.00  0.00     0.031 C 
ATOM     63  C   UNL A   1      46.266  31.171  28.189  1.00  0.00     0.034 A 
BRANCH  50  64
ATOM     64  C   UNL A   1      50.203  27.242  25.429  1.00  0.00     0.023 A 
ATOM     65  C   UNL A   1      50.689  27.606  24.161  1.00  0.00     0.031 A 
ATOM     66  C   UNL A   1      51.046  26.491  26.266  1.00  0.00     0.131 A 
ATOM     67  C   UNL A   1      51.938  27.136  23.729  1.00  0.00     0.055 A 
ATOM     68  C   UNL A   1      52.327  26.105  25.866  1.00  0.00     0.041 A 
ATOM     69  F   UNL A   1      50.627  26.091  27.477  1.00  0.00    -0.206 F 
ATOM     70  C   UNL A   1      52.772  26.409  24.583  1.00  0.00     0.022 A 
BRANCH  67  71
ATOM     71  S   UNL A   1      52.373  27.328  21.978  1.00  0.00     0.124 S 
ATOM     72  O   UNL A   1      53.536  28.208  22.058  1.00  0.00    -0.237 OA
ATOM     73  O   UNL A   1      52.639  25.954  21.569  1.00  0.00    -0.237 OA
ATOM     74  O   UNL A   1      51.180  27.935  21.393  1.00  0.00    -0.744 OA
ENDBRANCH  67  71
ENDBRANCH  50  64
BRANCH  51  75
ATOM     75  C   UNL A   1      40.683  28.797  28.157  1.00  0.00     0.023 A 
ATOM     76  C   UNL A   1      40.309  28.615  29.498  1.00  0.00     0.031 A 
ATOM     77  C   UNL A   1      39.679  29.151  27.237  1.00  0.00     0.131 A 
ATOM     78  C   UNL A   1      38.963  28.745  29.876  1.00  0.00     0.055 A 
ATOM     79  C   UNL A   1      38.350  29.329  27.626  1.00  0.00     0.041 A 
ATOM     80  F   UNL A   1      39.978  29.328  25.941  1.00  0.00    -0.206 F 
ATOM     81  C   UNL A   1      37.983  29.114  28.951  1.00  0.00     0.022 A 
BRANCH  78  82
ATOM     82  S   UNL A   1      38.495  28.341  31.582  1.00  0.00     0.124 S 
ATOM     83  O   UNL A   1      37.174  28.953  31.679  1.00  0.00    -0.237 OA
ATOM     84  O   UNL A   1      38.528  26.883  31.567  1.00  0.00    -0.237 OA
ATOM     85  O   UNL A   1      39.539  28.979  32.381  1.00  0.00    -0.744 OA
ENDBRANCH  78  82
ENDBRANCH  51  75
BRANCH  63  86
ATOM     86  C   UNL A   1      46.542  32.553  28.732  1.00  0.00     0.023 A 
ATOM     87  C   UNL A   1      46.407  33.708  27.944  1.00  0.00     0.031 A 
ATOM     88  C   UNL A   1      46.909  32.708  30.081  1.00  0.00     0.131 A 
ATOM     89  C   UNL A   1      46.665  34.968  28.508  1.00  0.00     0.055 A 
ATOM     90  C   UNL A   1      47.116  33.966  30.649  1.00  0.00     0.041 A 
ATOM     91  F   UNL A   1      47.051  31.635  30.878  1.00  0.00    -0.206 F 
ATOM     92  C   UNL A   1      47.001  35.105  29.858  1.00  0.00     0.022 A 
BRANCH  89  93
ATOM     93  S   UNL A   1      46.604  36.435  27.442  1.00  0.00     0.124 S 
ATOM     94  O   UNL A   1      46.204  35.863  26.160  1.00  0.00    -0.237 OA
ATOM     95  O   UNL A   1      45.607  37.267  28.108  1.00  0.00    -0.237 OA
ATOM     96  O   UNL A   1      47.972  36.953  27.489  1.00  0.00    -0.744 OA
ENDBRANCH  89  93
ENDBRANCH  63  86
ENDBRANCH  37  38
ENDBRANCH  30  32
ENDBRANCH  29  30
ENDBRANCH  28  29
ENDBRANCH  27  28
ENDBRANCH  26  27
ENDBRANCH  25  26
ENDBRANCH   1  25
TORSDOF 24
ENDMDL
MODEL 2
REMARK VINA RESULT:      -9.5      1.835      2.316
REMARK SMILES CC(C)[C@@H]1CCCN1C(=O)N1CCO[C@H](CC(=O)OCCOCCOCCOC(=O)c2ccc(-c3c4nc(c(-c5cc(S(=O)(=O)[O-])ccc5F)c5ccc([nH]5)c(-c5cc(S(=O)(=O)[O-])ccc5F)c5nc(c(-c6cc(S(=O)(=O)[O-])ccc6F)c6ccc3[nH]6)C=C5)C=C4)cc2)C1
REMARK SMILES IDX 23 1 22 2 21 3 20 4 19 5 17 6 18 7 16 8 15 9 11 10 12 11
REMARK SMILES IDX 94 12 13 13 14 14 9 15 10 16 8 17 4 18 5 19 6 20 7 21 2 22
REMARK SMILES IDX 1 23 3 24 24 25 25 26 26 27 27 28 28 29 29 30 30 31 31 32
REMARK SMILES IDX 32 33 93 34 33 35 92 36 34 37 35 38 36 39 86 40 37 41 91 42
REMARK SMILES IDX 85 43 87 44 38 45 90 46 84 47 83 48 39 50 71 51 51 52 70 53
REMARK SMILES IDX 52 54 55 55 69 56 88 57 53 58 54 59 68 61 89 62 56 63 40 64
REMARK SMILES IDX 41 65 49 66 42 67 48 68 50 69 47 70 43 71 44 72 45 73 46 74
REMARK SMILES IDX 72 75 73 76 81 77 74 78 80 79 82 80 79 81 75 82 76 83 77 84
REMARK SMILES IDX 78 85 57 86 58 87 66 88 59 89 65 90 67 91 64 92 60 93 61 94
REMARK SMILES IDX 62 95 63 96
REMARK H PARENT 87 49 55 60
REMARK Flexibility Score: inf
ROOT
ATOM      1  C   UNL A   1      39.775  23.207  26.502  1.00  0.00     0.188 C 
ENDROOT
BRANCH   1   2
ATOM      2  O   UNL A   1      38.413  23.320  26.101  1.00  0.00    -0.376 OA
BRANCH   2   3
ATOM      3  C   UNL A   1      37.719  22.145  25.709  1.00  0.00     0.202 C 
BRANCH   3   4
ATOM      4  C   UNL A   1      37.168  22.105  24.278  1.00  0.00     0.261 C 
BRANCH   4   5
ATOM      5  O   UNL A   1      36.652  23.377  23.832  1.00  0.00    -0.463 OA
BRANCH   5   6
ATOM      6  C   UNL A   1      35.456  23.757  24.348  1.00  0.00     0.308 C 
ATOM      7  O   UNL A   1      35.292  24.797  24.978  1.00  0.00    -0.252 OA
BRANCH   6   8
ATOM      8  C   UNL A   1      34.290  22.923  23.853  1.00  0.00     0.156 C 
BRANCH   8   9
ATOM      9  C   UNL A   1      33.413  22.038  24.741  1.00  0.00     0.149 C 
ATOM     10  N   UNL A   1      32.097  23.361  26.352  1.00  0.00    -0.320 N 
ATOM     11  C   UNL A   1      32.481  22.435  27.412  1.00  0.00     0.150 C 
ATOM     12  C   UNL A   1      32.062  22.656  25.086  1.00  0.00     0.154 C 
ATOM     13  C   UNL A   1      33.883  21.884  27.132  1.00  0.00     0.182 C 
ATOM     14  O   UNL A   1      34.043  21.328  25.818  1.00  0.00    -0.374 OA
BRANCH  10  15
ATOM     15  C   UNL A   1      31.024  24.209  26.550  1.00  0.00     0.320 C 
ATOM     16  O   UNL A   1      30.043  23.846  27.199  1.00  0.00    -0.248 OA
BRANCH  15  17
ATOM     17  N   UNL A   1      31.039  25.383  25.819  1.00  0.00    -0.321 N 
ATOM     18  C   UNL A   1      32.129  26.339  25.554  1.00  0.00     0.089 C 
ATOM     19  C   UNL A   1      31.477  27.355  24.593  1.00  0.00     0.027 C 
ATOM     20  C   UNL A   1      30.472  26.534  23.820  1.00  0.00     0.024 C 
ATOM     21  C   UNL A   1      29.951  25.564  24.867  1.00  0.00     0.122 C 
BRANCH  18  22
ATOM     22  C   UNL A   1      32.757  27.154  26.722  1.00  0.00     0.005 C 
ATOM     23  C   UNL A   1      33.997  27.949  26.378  1.00  0.00     0.009 C 
ATOM     24  C   UNL A   1      31.709  28.121  27.305  1.00  0.00     0.009 C 
ENDBRANCH  18  22
ENDBRANCH  15  17
ENDBRANCH  10  15
ENDBRANCH   8   9
ENDBRANCH   6   8
ENDBRANCH   5   6
ENDBRANCH   4   5
ENDBRANCH   3   4
ENDBRANCH   2   3
ENDBRANCH   1   2
BRANCH   1  25
ATOM     25  C   UNL A   1      40.268  21.894  27.143  1.00  0.00     0.188 C 
BRANCH  25  26
ATOM     26  O   UNL A   1      41.153  21.149  26.322  1.00  0.00    -0.376 OA
BRANCH  26  27
ATOM     27  C   UNL A   1      41.139  19.749  26.546  1.00  0.00     0.202 C 
BRANCH  27  28
ATOM     28  C   UNL A   1      42.421  19.067  26.057  1.00  0.00     0.261 C 
BRANCH  28  29
ATOM     29  O   UNL A   1      42.948  19.579  24.821  1.00  0.00    -0.460 OA
BRANCH  29  30
ATOM     30  C   UNL A   1      44.294  19.673  24.700  1.00  0.00     0.338 C 
ATOM     31  O   UNL A   1      45.047  18.821  24.257  1.00  0.00    -0.246 OA
BRANCH  30  32
ATOM     32  C   UNL A   1      44.655  21.084  24.972  1.00  0.00     0.060 A 
ATOM     33  C   UNL A   1      45.105  21.457  26.248  1.00  0.00     0.016 A 
ATOM     34  C   UNL A   1      44.616  22.023  23.939  1.00  0.00     0.016 A 
ATOM     35  C   UNL A   1      45.499  22.777  26.497  1.00  0.00     0.010 A 
ATOM     36  C   UNL A   1      44.986  23.343  24.193  1.00  0.00     0.010 A 
ATOM     37  C   UNL A   1      45.403  23.735  25.478  1.00  0.00    -0.014 A 
BRANCH  37  38
ATOM     38  C   UNL A   1      45.473  25.188  25.772  1.00  0.00     0.031 A 
ATOM     39  C   UNL A   1      46.834  25.828  25.745  1.00  0.00     0.074 A 
ATOM     40  C   UNL A   1      44.394  25.905  26.131  1.00  0.00     0.049 A 
ATOM     41  N   UNL A   1      47.213  27.004  26.166  1.00  0.00    -0.248 NA
ATOM     42  C   UNL A   1      47.915  25.006  25.181  1.00  0.00     0.031 C 
ATOM     43  C   UNL A   1      43.015  25.421  26.136  1.00  0.00     0.029 A 
ATOM     44  N   UNL A   1      44.300  27.196  26.590  1.00  0.00    -0.354 N 
ATOM     45  C   UNL A   1      48.583  27.061  25.930  1.00  0.00     0.074 A 
ATOM     46  C   UNL A   1      48.967  25.787  25.362  1.00  0.00     0.031 C 
ATOM     47  C   UNL A   1      42.214  26.400  26.594  1.00  0.00     0.029 A 
ATOM     48  C   UNL A   1      43.027  27.556  26.971  1.00  0.00     0.049 A 
ATOM     49  H   UNL A   1      45.070  27.806  26.641  1.00  0.00     0.167 HD
ATOM     50  C   UNL A   1      49.443  28.081  26.167  1.00  0.00     0.034 A 
ATOM     51  C   UNL A   1      42.586  28.671  27.590  1.00  0.00     0.034 A 
ATOM     52  C   UNL A   1      49.052  29.329  26.768  1.00  0.00     0.049 A 
ATOM     53  C   UNL A   1      43.582  29.746  27.974  1.00  0.00     0.074 A 
ATOM     54  C   UNL A   1      49.836  30.430  27.066  1.00  0.00     0.029 A 
ATOM     55  N   UNL A   1      47.762  29.637  27.184  1.00  0.00    -0.354 N 
ATOM     56  N   UNL A   1      44.878  29.786  27.764  1.00  0.00    -0.248 NA
ATOM     57  C   UNL A   1      43.056  30.918  28.688  1.00  0.00     0.031 C 
ATOM     58  C   UNL A   1      49.038  31.370  27.726  1.00  0.00     0.029 A 
ATOM     59  C   UNL A   1      47.736  30.894  27.765  1.00  0.00     0.049 A 
ATOM     60  H   UNL A   1      46.980  29.048  27.081  1.00  0.00     0.167 HD
ATOM     61  C   UNL A   1      45.310  31.008  28.280  1.00  0.00     0.074 A 
ATOM     62  C   UNL A   1      44.141  31.669  28.818  1.00  0.00     0.031 C 
ATOM     63  C   UNL A   1      46.559  31.542  28.293  1.00  0.00     0.034 A 
BRANCH  50  64
ATOM     64  C   UNL A   1      50.894  27.840  25.832  1.00  0.00     0.023 A 
ATOM     65  C   UNL A   1      51.827  27.477  26.820  1.00  0.00     0.031 A 
ATOM     66  C   UNL A   1      51.368  28.052  24.526  1.00  0.00     0.131 A 
ATOM     67  C   UNL A   1      53.193  27.436  26.510  1.00  0.00     0.055 A 
ATOM     68  C   UNL A   1      52.720  27.917  24.203  1.00  0.00     0.041 A 
ATOM     69  F   UNL A   1      50.530  28.427  23.546  1.00  0.00    -0.206 F 
ATOM     70  C   UNL A   1      53.645  27.627  25.201  1.00  0.00     0.022 A 
BRANCH  67  71
ATOM     71  S   UNL A   1      54.384  27.313  27.874  1.00  0.00     0.124 S 
ATOM     72  O   UNL A   1      55.656  27.430  27.166  1.00  0.00    -0.237 OA
ATOM     73  O   UNL A   1      54.014  28.444  28.716  1.00  0.00    -0.237 OA
ATOM     74  O   UNL A   1      54.116  25.995  28.444  1.00  0.00    -0.744 OA
ENDBRANCH  67  71
ENDBRANCH  50  64
BRANCH  51  75
ATOM     75  C   UNL A   1      41.144  28.830  27.941  1.00  0.00     0.023 A 
ATOM     76  C   UNL A   1      40.692  28.599  29.250  1.00  0.00     0.031 A 
ATOM     77  C   UNL A   1      40.186  29.151  26.962  1.00  0.00     0.131 A 
ATOM     78  C   UNL A   1      39.318  28.650  29.538  1.00  0.00     0.055 A 
ATOM     79  C   UNL A   1      38.827  29.251  27.264  1.00  0.00     0.041 A 
ATOM     80  F   UNL A   1      40.561  29.372  25.693  1.00  0.00    -0.206 F 
ATOM     81  C   UNL A   1      38.384  28.988  28.557  1.00  0.00     0.022 A 
BRANCH  78  82
ATOM     82  S   UNL A   1      38.760  28.185  31.201  1.00  0.00     0.124 S 
ATOM     83  O   UNL A   1      39.856  28.676  32.029  1.00  0.00    -0.237 OA
ATOM     84  O   UNL A   1      37.498  28.909  31.309  1.00  0.00    -0.237 OA
ATOM     85  O   UNL A   1      38.638  26.731  31.124  1.00  0.00    -0.744 OA
ENDBRANCH  78  82
ENDBRANCH  51  75
BRANCH  63  86
ATOM     86  C   UNL A   1      46.716  32.942  28.835  1.00  0.00     0.023 A 
ATOM     87  C   UNL A   1      46.551  34.081  28.029  1.00  0.00     0.031 A 
ATOM     88  C   UNL A   1      46.997  33.131  30.201  1.00  0.00     0.131 A 
ATOM     89  C   UNL A   1      46.697  35.359  28.592  1.00  0.00     0.055 A 
ATOM     90  C   UNL A   1      47.092  34.403  30.765  1.00  0.00     0.041 A 
ATOM     91  F   UNL A   1      47.163  32.075  31.015  1.00  0.00    -0.206 F 
ATOM     92  C   UNL A   1      46.948  35.527  29.957  1.00  0.00     0.022 A 
BRANCH  89  93
ATOM     93  S   UNL A   1      46.601  36.812  27.509  1.00  0.00     0.124 S 
ATOM     94  O   UNL A   1      46.561  36.201  26.184  1.00  0.00    -0.237 OA
ATOM     95  O   UNL A   1      45.368  37.453  27.952  1.00  0.00    -0.237 OA
ATOM     96  O   UNL A   1      47.826  37.550  27.814  1.00  0.00    -0.744 OA
ENDBRANCH  89  93
ENDBRANCH  63  86
ENDBRANCH  37  38
ENDBRANCH  30  32
ENDBRANCH  29  30
ENDBRANCH  28  29
ENDBRANCH  27  28
ENDBRANCH  26  27
ENDBRANCH  25  26
ENDBRANCH   1  25
TORSDOF 24
ENDMDL
MODEL 3
REMARK VINA RESULT:      -9.4      1.934      2.384
REMARK SMILES CC(C)[C@@H]1CCCN1C(=O)N1CCO[C@H](CC(=O)OCCOCCOCCOC(=O)c2ccc(-c3c4nc(c(-c5cc(S(=O)(=O)[O-])ccc5F)c5ccc([nH]5)c(-c5cc(S(=O)(=O)[O-])ccc5F)c5nc(c(-c6cc(S(=O)(=O)[O-])ccc6F)c6ccc3[nH]6)C=C5)C=C4)cc2)C1
REMARK SMILES IDX 23 1 22 2 21 3 20 4 19 5 17 6 18 7 16 8 15 9 11 10 12 11
REMARK SMILES IDX 94 12 13 13 14 14 9 15 10 16 8 17 4 18 5 19 6 20 7 21 2 22
REMARK SMILES IDX 1 23 3 24 24 25 25 26 26 27 27 28 28 29 29 30 30 31 31 32
REMARK SMILES IDX 32 33 93 34 33 35 92 36 34 37 35 38 36 39 86 40 37 41 91 42
REMARK SMILES IDX 85 43 87 44 38 45 90 46 84 47 83 48 39 50 71 51 51 52 70 53
REMARK SMILES IDX 52 54 55 55 69 56 88 57 53 58 54 59 68 61 89 62 56 63 40 64
REMARK SMILES IDX 41 65 49 66 42 67 48 68 50 69 47 70 43 71 44 72 45 73 46 74
REMARK SMILES IDX 72 75 73 76 81 77 74 78 80 79 82 80 79 81 75 82 76 83 77 84
REMARK SMILES IDX 78 85 57 86 58 87 66 88 59 89 65 90 67 91 64 92 60 93 61 94
REMARK SMILES IDX 62 95 63 96
REMARK H PARENT 87 49 55 60
REMARK Flexibility Score: inf
ROOT
ATOM      1  C   UNL A   1      41.048  21.640  26.432  1.00  0.00     0.188 C 
ENDROOT
BRANCH   1   2
ATOM      2  O   UNL A   1      39.715  21.961  26.817  1.00  0.00    -0.376 OA
BRANCH   2   3
ATOM      3  C   UNL A   1      39.323  23.326  26.840  1.00  0.00     0.202 C 
BRANCH   3   4
ATOM      4  C   UNL A   1      38.115  23.719  25.980  1.00  0.00     0.261 C 
BRANCH   4   5
ATOM      5  O   UNL A   1      37.189  22.633  25.769  1.00  0.00    -0.463 OA
BRANCH   5   6
ATOM      6  C   UNL A   1      36.476  22.663  24.615  1.00  0.00     0.308 C 
ATOM      7  O   UNL A   1      36.941  22.349  23.525  1.00  0.00    -0.252 OA
BRANCH   6   8
ATOM      8  C   UNL A   1      34.988  22.864  24.829  1.00  0.00     0.156 C 
BRANCH   8   9
ATOM      9  C   UNL A   1      33.916  22.646  23.759  1.00  0.00     0.149 C 
ATOM     10  N   UNL A   1      32.836  24.760  23.090  1.00  0.00    -0.320 N 
ATOM     11  C   UNL A   1      31.531  24.116  23.198  1.00  0.00     0.150 C 
ATOM     12  C   UNL A   1      33.833  23.771  22.731  1.00  0.00     0.154 C 
ATOM     13  C   UNL A   1      31.570  23.053  24.301  1.00  0.00     0.182 C 
ATOM     14  O   UNL A   1      32.648  22.115  24.173  1.00  0.00    -0.374 OA
BRANCH  10  15
ATOM     15  C   UNL A   1      32.949  25.947  22.393  1.00  0.00     0.320 C 
ATOM     16  O   UNL A   1      33.447  25.974  21.267  1.00  0.00    -0.248 OA
BRANCH  15  17
ATOM     17  N   UNL A   1      32.663  27.096  23.107  1.00  0.00    -0.321 N 
ATOM     18  C   UNL A   1      31.390  27.596  23.658  1.00  0.00     0.089 C 
ATOM     19  C   UNL A   1      31.813  28.872  24.414  1.00  0.00     0.027 C 
ATOM     20  C   UNL A   1      33.215  28.569  24.887  1.00  0.00     0.024 C 
ATOM     21  C   UNL A   1      33.794  27.765  23.734  1.00  0.00     0.122 C 
BRANCH  18  22
ATOM     22  C   UNL A   1      30.226  27.996  22.704  1.00  0.00     0.005 C 
ATOM     23  C   UNL A   1      28.834  27.897  23.287  1.00  0.00     0.009 C 
ATOM     24  C   UNL A   1      30.439  29.435  22.199  1.00  0.00     0.009 C 
ENDBRANCH  18  22
ENDBRANCH  15  17
ENDBRANCH  10  15
ENDBRANCH   8   9
ENDBRANCH   6   8
ENDBRANCH   5   6
ENDBRANCH   4   5
ENDBRANCH   3   4
ENDBRANCH   2   3
ENDBRANCH   1   2
BRANCH   1  25
ATOM     25  C   UNL A   1      41.430  20.165  26.190  1.00  0.00     0.188 C 
BRANCH  25  26
ATOM     26  O   UNL A   1      41.812  19.469  27.365  1.00  0.00    -0.376 OA
BRANCH  26  27
ATOM     27  C   UNL A   1      42.803  18.473  27.174  1.00  0.00     0.202 C 
BRANCH  27  28
ATOM     28  C   UNL A   1      43.264  18.380  25.716  1.00  0.00     0.261 C 
BRANCH  28  29
ATOM     29  O   UNL A   1      44.643  18.721  25.491  1.00  0.00    -0.460 OA
BRANCH  29  30
ATOM     30  C   UNL A   1      44.944  19.438  24.382  1.00  0.00     0.338 C 
ATOM     31  O   UNL A   1      45.077  19.005  23.249  1.00  0.00    -0.246 OA
BRANCH  30  32
ATOM     32  C   UNL A   1      44.838  20.869  24.751  1.00  0.00     0.060 A 
ATOM     33  C   UNL A   1      44.353  21.797  23.817  1.00  0.00     0.016 A 
ATOM     34  C   UNL A   1      45.153  21.277  26.049  1.00  0.00     0.016 A 
ATOM     35  C   UNL A   1      44.200  23.141  24.177  1.00  0.00     0.010 A 
ATOM     36  C   UNL A   1      45.022  22.620  26.399  1.00  0.00     0.010 A 
ATOM     37  C   UNL A   1      44.571  23.565  25.460  1.00  0.00    -0.014 A 
BRANCH  37  38
ATOM     38  C   UNL A   1      44.756  25.002  25.778  1.00  0.00     0.031 A 
ATOM     39  C   UNL A   1      46.143  25.566  25.625  1.00  0.00     0.074 A 
ATOM     40  C   UNL A   1      43.764  25.768  26.263  1.00  0.00     0.049 A 
ATOM     41  N   UNL A   1      46.632  26.706  26.031  1.00  0.00    -0.248 NA
ATOM     42  C   UNL A   1      47.110  24.700  24.934  1.00  0.00     0.031 C 
ATOM     43  C   UNL A   1      42.367  25.363  26.400  1.00  0.00     0.029 A 
ATOM     44  N   UNL A   1      43.793  27.049  26.758  1.00  0.00    -0.354 N 
ATOM     45  C   UNL A   1      47.972  26.692  25.656  1.00  0.00     0.074 A 
ATOM     46  C   UNL A   1      48.219  25.415  25.022  1.00  0.00     0.031 C 
ATOM     47  C   UNL A   1      41.675  26.372  26.960  1.00  0.00     0.029 A 
ATOM     48  C   UNL A   1      42.590  27.470  27.276  1.00  0.00     0.049 A 
ATOM     49  H   UNL A   1      44.599  27.614  26.743  1.00  0.00     0.167 HD
ATOM     50  C   UNL A   1      48.910  27.654  25.825  1.00  0.00     0.034 A 
ATOM     51  C   UNL A   1      42.280  28.590  27.963  1.00  0.00     0.034 A 
ATOM     52  C   UNL A   1      48.656  28.906  26.492  1.00  0.00     0.049 A 
ATOM     53  C   UNL A   1      43.372  29.595  28.265  1.00  0.00     0.074 A 
ATOM     54  C   UNL A   1      49.530  29.951  26.731  1.00  0.00     0.029 A 
ATOM     55  N   UNL A   1      47.436  29.274  27.045  1.00  0.00    -0.354 N 
ATOM     56  N   UNL A   1      44.640  29.569  27.924  1.00  0.00    -0.248 NA
ATOM     57  C   UNL A   1      42.992  30.775  29.057  1.00  0.00     0.031 C 
ATOM     58  C   UNL A   1      48.861  30.916  27.490  1.00  0.00     0.029 A 
ATOM     59  C   UNL A   1      47.544  30.513  27.654  1.00  0.00     0.049 A 
ATOM     60  H   UNL A   1      46.615  28.732  27.010  1.00  0.00     0.167 HD
ATOM     61  C   UNL A   1      45.194  30.749  28.419  1.00  0.00     0.074 A 
ATOM     62  C   UNL A   1      44.127  31.460  29.091  1.00  0.00     0.031 C 
ATOM     63  C   UNL A   1      46.467  31.211  28.315  1.00  0.00     0.034 A 
BRANCH  50  64
ATOM     64  C   UNL A   1      50.302  27.342  25.336  1.00  0.00     0.023 A 
ATOM     65  C   UNL A   1      51.314  26.922  26.218  1.00  0.00     0.031 A 
ATOM     66  C   UNL A   1      50.646  27.542  23.988  1.00  0.00     0.131 A 
ATOM     67  C   UNL A   1      52.636  26.813  25.764  1.00  0.00     0.055 A 
ATOM     68  C   UNL A   1      51.946  27.339  23.522  1.00  0.00     0.041 A 
ATOM     69  F   UNL A   1      49.729  27.968  23.105  1.00  0.00    -0.206 F 
ATOM     70  C   UNL A   1      52.955  26.993  24.415  1.00  0.00     0.022 A 
BRANCH  67  71
ATOM     71  S   UNL A   1      53.957  26.616  26.992  1.00  0.00     0.124 S 
ATOM     72  O   UNL A   1      53.203  26.199  28.171  1.00  0.00    -0.237 OA
ATOM     73  O   UNL A   1      54.804  25.598  26.382  1.00  0.00    -0.237 OA
ATOM     74  O   UNL A   1      54.546  27.950  27.079  1.00  0.00    -0.744 OA
ENDBRANCH  67  71
ENDBRANCH  50  64
BRANCH  51  75
ATOM     75  C   UNL A   1      40.894  28.820  28.465  1.00  0.00     0.023 A 
ATOM     76  C   UNL A   1      40.581  28.649  29.823  1.00  0.00     0.031 A 
ATOM     77  C   UNL A   1      39.845  29.149  27.586  1.00  0.00     0.131 A 
ATOM     78  C   UNL A   1      39.252  28.766  30.259  1.00  0.00     0.055 A 
ATOM     79  C   UNL A   1      38.533  29.316  28.032  1.00  0.00     0.041 A 
ATOM     80  F   UNL A   1      40.085  29.315  26.276  1.00  0.00    -0.206 F 
ATOM     81  C   UNL A   1      38.227  29.112  29.374  1.00  0.00     0.022 A 
BRANCH  78  82
ATOM     82  S   UNL A   1      38.865  28.377  31.988  1.00  0.00     0.124 S 
ATOM     83  O   UNL A   1      38.007  29.497  32.358  1.00  0.00    -0.237 OA
ATOM     84  O   UNL A   1      38.212  27.078  31.867  1.00  0.00    -0.237 OA
ATOM     85  O   UNL A   1      40.176  28.355  32.633  1.00  0.00    -0.744 OA
ENDBRANCH  78  82
ENDBRANCH  51  75
BRANCH  63  86
ATOM     86  C   UNL A   1      46.761  32.585  28.869  1.00  0.00     0.023 A 
ATOM     87  C   UNL A   1      47.268  32.777  30.165  1.00  0.00     0.031 A 
ATOM     88  C   UNL A   1      46.565  33.717  28.058  1.00  0.00     0.131 A 
ATOM     89  C   UNL A   1      47.534  34.078  30.622  1.00  0.00     0.055 A 
ATOM     90  C   UNL A   1      46.879  35.003  28.499  1.00  0.00     0.041 A 
ATOM     91  F   UNL A   1      46.084  33.588  26.810  1.00  0.00    -0.206 F 
ATOM     92  C   UNL A   1      47.360  35.189  29.791  1.00  0.00     0.022 A 
BRANCH  89  93
ATOM     93  S   UNL A   1      48.070  34.312  32.339  1.00  0.00     0.124 S 
ATOM     94  O   UNL A   1      47.624  33.073  32.969  1.00  0.00    -0.237 OA
ATOM     95  O   UNL A   1      49.514  34.471  32.199  1.00  0.00    -0.237 OA
ATOM     96  O   UNL A   1      47.355  35.515  32.763  1.00  0.00    -0.744 OA
ENDBRANCH  89  93
ENDBRANCH  63  86
ENDBRANCH  37  38
ENDBRANCH  30  32
ENDBRANCH  29  30
ENDBRANCH  28  29
ENDBRANCH  27  28
ENDBRANCH  26  27
ENDBRANCH  25  26
ENDBRANCH   1  25
TORSDOF 24
ENDMDL
