MODEL 1
REMARK VINA RESULT:      -9.9      0.000      0.000
REMARK SMILES C[C@H](C(=O)OCCOCCOCCOC(=O)c1ccc(-c2c3nc(c(-c4cc(S(=O)(=O)[O-])ccc4F)c4ccc([nH]4)c(-c4cc(S(=O)(=O)[O-])ccc4F)c4nc(c(-c5cc(S(=O)(=O)[O-])ccc5F)c5ccc2[nH]5)C=C4)C=C3)cc1)c1ccc2c(c1)[nH]c1ccc(Cl)cc12
REMARK SMILES IDX 10 1 9 2 8 3 7 4 6 5 5 6 3 7 4 8 2 9 1 10 80 11 81 12 85 13
REMARK SMILES IDX 82 14 84 15 83 16 86 17 93 18 87 19 92 21 88 22 90 23 89 24
REMARK SMILES IDX 91 25 11 26 12 27 13 28 14 29 15 30 16 31 17 32 18 33 79 34
REMARK SMILES IDX 19 35 78 36 20 37 21 38 22 39 72 40 23 41 77 42 71 43 73 44
REMARK SMILES IDX 24 45 76 46 70 47 69 48 25 50 57 51 37 52 56 53 38 54 41 55
REMARK SMILES IDX 55 56 74 57 39 58 40 59 54 61 75 62 42 63 26 64 27 65 35 66
REMARK SMILES IDX 28 67 34 68 36 69 33 70 29 71 30 72 31 73 32 74 58 75 59 76
REMARK SMILES IDX 67 77 60 78 66 79 68 80 65 81 61 82 62 83 63 84 64 85 43 86
REMARK SMILES IDX 44 87 52 88 45 89 51 90 53 91 50 92 46 93 47 94 48 95 49 96
REMARK H PARENT 86 20 73 49 41 60
REMARK Flexibility Score: inf
ROOT
ATOM      1  C   UNL A   1      45.293  22.136  40.504  1.00  0.00     0.188 C 
ENDROOT
BRANCH   1   2
ATOM      2  C   UNL A   1      44.968  20.844  41.273  1.00  0.00     0.188 C 
BRANCH   2   3
ATOM      3  O   UNL A   1      45.024  20.849  42.699  1.00  0.00    -0.376 OA
BRANCH   3   4
ATOM      4  C   UNL A   1      44.696  19.651  43.386  1.00  0.00     0.202 C 
BRANCH   4   5
ATOM      5  C   UNL A   1      45.519  19.361  44.641  1.00  0.00     0.261 C 
BRANCH   5   6
ATOM      6  O   UNL A   1      46.799  18.740  44.371  1.00  0.00    -0.463 OA
BRANCH   6   7
ATOM      7  C   UNL A   1      46.783  17.388  44.335  1.00  0.00     0.313 C 
ATOM      8  O   UNL A   1      46.752  16.708  45.361  1.00  0.00    -0.252 OA
BRANCH   7   9
ATOM      9  C   UNL A   1      46.863  16.728  42.955  1.00  0.00     0.126 C 
ATOM     10  C   UNL A   1      45.659  15.769  42.878  1.00  0.00     0.025 C 
BRANCH   9  11
ATOM     11  C   UNL A   1      47.027  17.542  41.655  1.00  0.00    -0.032 A 
ATOM     12  C   UNL A   1      48.205  18.273  41.417  1.00  0.00     0.005 A 
ATOM     13  C   UNL A   1      46.100  17.440  40.595  1.00  0.00     0.031 A 
ATOM     14  C   UNL A   1      48.464  18.901  40.174  1.00  0.00     0.011 A 
ATOM     15  C   UNL A   1      46.386  18.046  39.356  1.00  0.00     0.047 A 
ATOM     16  C   UNL A   1      47.530  18.800  39.121  1.00  0.00     0.007 A 
ATOM     17  N   UNL A   1      45.661  18.044  38.184  1.00  0.00    -0.355 N 
ATOM     18  C   UNL A   1      47.415  19.350  37.794  1.00  0.00     0.009 A 
ATOM     19  C   UNL A   1      46.178  18.949  37.290  1.00  0.00     0.047 A 
ATOM     20  H   UNL A   1      44.880  17.471  38.012  1.00  0.00     0.167 HD
ATOM     21  C   UNL A   1      48.210  20.194  36.986  1.00  0.00     0.031 A 
ATOM     22  C   UNL A   1      45.642  19.424  36.084  1.00  0.00     0.028 A 
ATOM     23  C   UNL A   1      47.697  20.655  35.763  1.00  0.00     0.041 A 
ATOM     24  C   UNL A   1      46.421  20.303  35.331  1.00  0.00     0.022 A 
ATOM     25  Cl  UNL A   1      48.668  21.690  34.782  1.00  0.00    -0.084 Cl
ENDBRANCH   9  11
ENDBRANCH   7   9
ENDBRANCH   6   7
ENDBRANCH   5   6
ENDBRANCH   4   5
ENDBRANCH   3   4
ENDBRANCH   2   3
ENDBRANCH   1   2
BRANCH   1  26
ATOM     26  O   UNL A   1      45.642  21.894  39.149  1.00  0.00    -0.376 OA
BRANCH  26  27
ATOM     27  C   UNL A   1      46.187  23.029  38.493  1.00  0.00     0.202 C 
BRANCH  27  28
ATOM     28  C   UNL A   1      45.520  23.195  37.128  1.00  0.00     0.261 C 
BRANCH  28  29
ATOM     29  O   UNL A   1      46.344  23.867  36.155  1.00  0.00    -0.460 OA
BRANCH  29  30
ATOM     30  C   UNL A   1      46.687  25.140  36.460  1.00  0.00     0.338 C 
ATOM     31  O   UNL A   1      47.702  25.504  37.020  1.00  0.00    -0.246 OA
BRANCH  30  32
ATOM     32  C   UNL A   1      45.679  26.047  35.871  1.00  0.00     0.060 A 
ATOM     33  C   UNL A   1      44.332  25.692  35.942  1.00  0.00     0.016 A 
ATOM     34  C   UNL A   1      46.056  27.204  35.196  1.00  0.00     0.016 A 
ATOM     35  C   UNL A   1      43.359  26.447  35.288  1.00  0.00     0.010 A 
ATOM     36  C   UNL A   1      45.078  27.965  34.538  1.00  0.00     0.010 A 
ATOM     37  C   UNL A   1      43.728  27.565  34.539  1.00  0.00    -0.014 A 
BRANCH  37  38
ATOM     38  C   UNL A   1      42.742  28.199  33.619  1.00  0.00     0.031 A 
ATOM     39  C   UNL A   1      41.827  29.265  34.167  1.00  0.00     0.074 A 
ATOM     40  C   UNL A   1      42.695  27.897  32.307  1.00  0.00     0.049 A 
ATOM     41  N   UNL A   1      40.801  29.852  33.606  1.00  0.00    -0.248 NA
ATOM     42  C   UNL A   1      42.119  29.734  35.529  1.00  0.00     0.031 C 
ATOM     43  C   UNL A   1      43.600  26.981  31.615  1.00  0.00     0.029 A 
ATOM     44  N   UNL A   1      41.836  28.326  31.322  1.00  0.00    -0.354 N 
ATOM     45  C   UNL A   1      40.305  30.738  34.557  1.00  0.00     0.074 A 
ATOM     46  C   UNL A   1      41.136  30.598  35.734  1.00  0.00     0.031 C 
ATOM     47  C   UNL A   1      43.239  26.904  30.323  1.00  0.00     0.029 A 
ATOM     48  C   UNL A   1      42.034  27.702  30.111  1.00  0.00     0.049 A 
ATOM     49  H   UNL A   1      41.147  29.014  31.469  1.00  0.00     0.167 HD
ATOM     50  C   UNL A   1      39.250  31.585  34.461  1.00  0.00     0.034 A 
ATOM     51  C   UNL A   1      41.294  27.722  28.982  1.00  0.00     0.034 A 
ATOM     52  C   UNL A   1      38.418  31.704  33.289  1.00  0.00     0.049 A 
ATOM     53  C   UNL A   1      40.034  28.555  28.944  1.00  0.00     0.074 A 
ATOM     54  C   UNL A   1      37.306  32.504  33.097  1.00  0.00     0.029 A 
ATOM     55  N   UNL A   1      38.602  30.992  32.110  1.00  0.00    -0.354 N 
ATOM     56  N   UNL A   1      39.533  29.340  29.871  1.00  0.00    -0.248 NA
ATOM     57  C   UNL A   1      39.236  28.496  27.712  1.00  0.00     0.031 C 
ATOM     58  C   UNL A   1      36.772  32.218  31.834  1.00  0.00     0.029 A 
ATOM     59  C   UNL A   1      37.601  31.304  31.204  1.00  0.00     0.049 A 
ATOM     60  H   UNL A   1      39.336  30.358  31.943  1.00  0.00     0.167 HD
ATOM     61  C   UNL A   1      38.376  29.888  29.321  1.00  0.00     0.074 A 
ATOM     62  C   UNL A   1      38.261  29.354  27.979  1.00  0.00     0.031 C 
ATOM     63  C   UNL A   1      37.489  30.757  29.872  1.00  0.00     0.034 A 
BRANCH  50  64
ATOM     64  C   UNL A   1      38.895  32.381  35.693  1.00  0.00     0.023 A 
ATOM     65  C   UNL A   1      39.324  33.708  35.870  1.00  0.00     0.031 A 
ATOM     66  C   UNL A   1      38.163  31.781  36.733  1.00  0.00     0.131 A 
ATOM     67  C   UNL A   1      39.086  34.362  37.088  1.00  0.00     0.055 A 
ATOM     68  C   UNL A   1      37.858  32.467  37.911  1.00  0.00     0.041 A 
ATOM     69  F   UNL A   1      37.750  30.508  36.632  1.00  0.00    -0.206 F 
ATOM     70  C   UNL A   1      38.335  33.760  38.100  1.00  0.00     0.022 A 
BRANCH  67  71
ATOM     71  S   UNL A   1      39.914  35.948  37.391  1.00  0.00     0.124 S 
ATOM     72  O   UNL A   1      39.745  36.619  36.104  1.00  0.00    -0.237 OA
ATOM     73  O   UNL A   1      39.145  36.496  38.502  1.00  0.00    -0.237 OA
ATOM     74  O   UNL A   1      41.286  35.561  37.709  1.00  0.00    -0.744 OA
ENDBRANCH  67  71
ENDBRANCH  50  64
BRANCH  51  75
ATOM     75  C   UNL A   1      41.661  26.858  27.821  1.00  0.00     0.023 A 
ATOM     76  C   UNL A   1      41.355  25.489  27.802  1.00  0.00     0.031 A 
ATOM     77  C   UNL A   1      42.386  27.385  26.735  1.00  0.00     0.131 A 
ATOM     78  C   UNL A   1      41.803  24.687  26.739  1.00  0.00     0.055 A 
ATOM     79  C   UNL A   1      42.781  26.595  25.656  1.00  0.00     0.041 A 
ATOM     80  F   UNL A   1      42.717  28.686  26.707  1.00  0.00    -0.206 F 
ATOM     81  C   UNL A   1      42.500  25.233  25.659  1.00  0.00     0.022 A 
BRANCH  78  82
ATOM     82  S   UNL A   1      41.536  22.895  26.830  1.00  0.00     0.124 S 
ATOM     83  O   UNL A   1      40.133  22.784  26.446  1.00  0.00    -0.237 OA
ATOM     84  O   UNL A   1      42.507  22.394  25.862  1.00  0.00    -0.237 OA
ATOM     85  O   UNL A   1      41.829  22.577  28.226  1.00  0.00    -0.744 OA
ENDBRANCH  78  82
ENDBRANCH  51  75
BRANCH  63  86
ATOM     86  C   UNL A   1      36.347  31.224  29.002  1.00  0.00     0.023 A 
ATOM     87  C   UNL A   1      35.399  30.328  28.475  1.00  0.00     0.031 A 
ATOM     88  C   UNL A   1      36.209  32.589  28.692  1.00  0.00     0.131 A 
ATOM     89  C   UNL A   1      34.387  30.801  27.625  1.00  0.00     0.055 A 
ATOM     90  C   UNL A   1      35.164  33.062  27.896  1.00  0.00     0.041 A 
ATOM     91  F   UNL A   1      37.085  33.489  29.166  1.00  0.00    -0.206 F 
ATOM     92  C   UNL A   1      34.254  32.164  27.347  1.00  0.00     0.022 A 
BRANCH  89  93
ATOM     93  S   UNL A   1      33.297  29.600  26.815  1.00  0.00     0.124 S 
ATOM     94  O   UNL A   1      32.707  28.907  27.957  1.00  0.00    -0.237 OA
ATOM     95  O   UNL A   1      32.394  30.459  26.056  1.00  0.00    -0.237 OA
ATOM     96  O   UNL A   1      34.212  28.796  26.007  1.00  0.00    -0.744 OA
ENDBRANCH  89  93
ENDBRANCH  63  86
ENDBRANCH  37  38
ENDBRANCH  30  32
ENDBRANCH  29  30
ENDBRANCH  28  29
ENDBRANCH  27  28
ENDBRANCH  26  27
ENDBRANCH   1  26
TORSDOF 21
ENDMDL
MODEL 2
REMARK VINA RESULT:      -9.9      5.186     15.454
REMARK SMILES C[C@H](C(=O)OCCOCCOCCOC(=O)c1ccc(-c2c3nc(c(-c4cc(S(=O)(=O)[O-])ccc4F)c4ccc([nH]4)c(-c4cc(S(=O)(=O)[O-])ccc4F)c4nc(c(-c5cc(S(=O)(=O)[O-])ccc5F)c5ccc2[nH]5)C=C4)C=C3)cc1)c1ccc2c(c1)[nH]c1ccc(Cl)cc12
REMARK SMILES IDX 10 1 9 2 8 3 7 4 6 5 5 6 3 7 4 8 2 9 1 10 80 11 81 12 85 13
REMARK SMILES IDX 82 14 84 15 83 16 86 17 93 18 87 19 92 21 88 22 90 23 89 24
REMARK SMILES IDX 91 25 11 26 12 27 13 28 14 29 15 30 16 31 17 32 18 33 79 34
REMARK SMILES IDX 19 35 78 36 20 37 21 38 22 39 72 40 23 41 77 42 71 43 73 44
REMARK SMILES IDX 24 45 76 46 70 47 69 48 25 50 57 51 37 52 56 53 38 54 41 55
REMARK SMILES IDX 55 56 74 57 39 58 40 59 54 61 75 62 42 63 26 64 27 65 35 66
REMARK SMILES IDX 28 67 34 68 36 69 33 70 29 71 30 72 31 73 32 74 58 75 59 76
REMARK SMILES IDX 67 77 60 78 66 79 68 80 65 81 61 82 62 83 63 84 64 85 43 86
REMARK SMILES IDX 44 87 52 88 45 89 51 90 53 91 50 92 46 93 47 94 48 95 49 96
REMARK H PARENT 86 20 73 49 41 60
REMARK Flexibility Score: inf
ROOT
ATOM      1  C   UNL A   1      35.640  33.451  28.443  1.00  0.00     0.188 C 
ENDROOT
BRANCH   1   2
ATOM      2  C   UNL A   1      34.756  32.208  28.644  1.00  0.00     0.188 C 
BRANCH   2   3
ATOM      3  O   UNL A   1      35.376  30.933  28.818  1.00  0.00    -0.376 OA
BRANCH   3   4
ATOM      4  C   UNL A   1      35.320  30.010  27.742  1.00  0.00     0.202 C 
BRANCH   4   5
ATOM      5  C   UNL A   1      33.933  29.777  27.141  1.00  0.00     0.261 C 
BRANCH   5   6
ATOM      6  O   UNL A   1      33.920  28.824  26.051  1.00  0.00    -0.463 OA
BRANCH   6   7
ATOM      7  C   UNL A   1      32.695  28.367  25.705  1.00  0.00     0.313 C 
ATOM      8  O   UNL A   1      31.699  28.583  26.395  1.00  0.00    -0.252 OA
BRANCH   7   9
ATOM      9  C   UNL A   1      32.604  27.513  24.435  1.00  0.00     0.126 C 
ATOM     10  C   UNL A   1      33.299  28.331  23.329  1.00  0.00     0.025 C 
BRANCH   9  11
ATOM     11  C   UNL A   1      33.031  26.032  24.402  1.00  0.00    -0.032 A 
ATOM     12  C   UNL A   1      34.376  25.674  24.607  1.00  0.00     0.005 A 
ATOM     13  C   UNL A   1      32.082  24.988  24.351  1.00  0.00     0.031 A 
ATOM     14  C   UNL A   1      34.784  24.324  24.745  1.00  0.00     0.011 A 
ATOM     15  C   UNL A   1      32.499  23.654  24.518  1.00  0.00     0.047 A 
ATOM     16  C   UNL A   1      33.830  23.286  24.686  1.00  0.00     0.007 A 
ATOM     17  N   UNL A   1      31.758  22.493  24.547  1.00  0.00    -0.355 N 
ATOM     18  C   UNL A   1      33.877  21.845  24.703  1.00  0.00     0.009 A 
ATOM     19  C   UNL A   1      32.575  21.390  24.495  1.00  0.00     0.047 A 
ATOM     20  H   UNL A   1      30.776  22.460  24.599  1.00  0.00     0.167 HD
ATOM     21  C   UNL A   1      34.899  20.877  24.820  1.00  0.00     0.031 A 
ATOM     22  C   UNL A   1      32.250  20.042  24.287  1.00  0.00     0.028 A 
ATOM     23  C   UNL A   1      34.583  19.521  24.642  1.00  0.00     0.041 A 
ATOM     24  C   UNL A   1      33.286  19.109  24.349  1.00  0.00     0.022 A 
ATOM     25  Cl  UNL A   1      35.835  18.342  24.780  1.00  0.00    -0.084 Cl
ENDBRANCH   9  11
ENDBRANCH   7   9
ENDBRANCH   6   7
ENDBRANCH   5   6
ENDBRANCH   4   5
ENDBRANCH   3   4
ENDBRANCH   2   3
ENDBRANCH   1   2
BRANCH   1  26
ATOM     26  O   UNL A   1      34.894  34.661  28.459  1.00  0.00    -0.376 OA
BRANCH  26  27
ATOM     27  C   UNL A   1      33.506  34.466  28.679  1.00  0.00     0.202 C 
BRANCH  27  28
ATOM     28  C   UNL A   1      33.028  35.416  29.777  1.00  0.00     0.261 C 
BRANCH  28  29
ATOM     29  O   UNL A   1      32.729  34.761  31.026  1.00  0.00    -0.460 OA
BRANCH  29  30
ATOM     30  C   UNL A   1      33.481  35.146  32.082  1.00  0.00     0.338 C 
ATOM     31  O   UNL A   1      33.134  35.870  32.995  1.00  0.00    -0.246 OA
BRANCH  30  32
ATOM     32  C   UNL A   1      34.769  34.424  32.025  1.00  0.00     0.060 A 
ATOM     33  C   UNL A   1      34.786  33.057  32.298  1.00  0.00     0.016 A 
ATOM     34  C   UNL A   1      35.962  35.095  31.772  1.00  0.00     0.016 A 
ATOM     35  C   UNL A   1      35.991  32.360  32.384  1.00  0.00     0.010 A 
ATOM     36  C   UNL A   1      37.175  34.396  31.859  1.00  0.00     0.010 A 
ATOM     37  C   UNL A   1      37.202  33.033  32.213  1.00  0.00    -0.014 A 
BRANCH  37  38
ATOM     38  C   UNL A   1      38.481  32.364  32.582  1.00  0.00     0.031 A 
ATOM     39  C   UNL A   1      39.080  31.372  31.617  1.00  0.00     0.074 A 
ATOM     40  C   UNL A   1      39.145  32.670  33.713  1.00  0.00     0.049 A 
ATOM     41  N   UNL A   1      40.096  30.564  31.775  1.00  0.00    -0.248 NA
ATOM     42  C   UNL A   1      38.448  31.294  30.291  1.00  0.00     0.031 C 
ATOM     43  C   UNL A   1      38.750  33.697  34.676  1.00  0.00     0.029 A 
ATOM     44  N   UNL A   1      40.293  32.133  34.248  1.00  0.00    -0.354 N 
ATOM     45  C   UNL A   1      40.207  29.857  30.582  1.00  0.00     0.074 A 
ATOM     46  C   UNL A   1      39.145  30.325  29.717  1.00  0.00     0.031 C 
ATOM     47  C   UNL A   1      39.632  33.704  35.691  1.00  0.00     0.029 A 
ATOM     48  C   UNL A   1      40.606  32.635  35.491  1.00  0.00     0.049 A 
ATOM     49  H   UNL A   1      40.838  31.456  33.786  1.00  0.00     0.167 HD
ATOM     50  C   UNL A   1      41.107  28.901  30.241  1.00  0.00     0.034 A 
ATOM     51  C   UNL A   1      41.531  32.236  36.391  1.00  0.00     0.034 A 
ATOM     52  C   UNL A   1      42.151  28.431  31.118  1.00  0.00     0.049 A 
ATOM     53  C   UNL A   1      42.427  31.068  36.055  1.00  0.00     0.074 A 
ATOM     54  C   UNL A   1      43.095  27.444  30.886  1.00  0.00     0.029 A 
ATOM     55  N   UNL A   1      42.383  28.907  32.402  1.00  0.00    -0.354 N 
ATOM     56  N   UNL A   1      42.484  30.359  34.950  1.00  0.00    -0.248 NA
ATOM     57  C   UNL A   1      43.376  30.639  37.091  1.00  0.00     0.031 C 
ATOM     58  C   UNL A   1      43.843  27.271  32.056  1.00  0.00     0.029 A 
ATOM     59  C   UNL A   1      43.427  28.207  32.989  1.00  0.00     0.049 A 
ATOM     60  H   UNL A   1      41.880  29.635  32.833  1.00  0.00     0.167 HD
ATOM     61  C   UNL A   1      43.493  29.420  35.151  1.00  0.00     0.074 A 
ATOM     62  C   UNL A   1      44.026  29.661  36.477  1.00  0.00     0.031 C 
ATOM     63  C   UNL A   1      43.943  28.448  34.316  1.00  0.00     0.034 A 
BRANCH  50  64
ATOM     64  C   UNL A   1      40.937  28.249  28.891  1.00  0.00     0.023 A 
ATOM     65  C   UNL A   1      40.285  27.013  28.739  1.00  0.00     0.031 A 
ATOM     66  C   UNL A   1      41.489  28.848  27.745  1.00  0.00     0.131 A 
ATOM     67  C   UNL A   1      40.270  26.380  27.487  1.00  0.00     0.055 A 
ATOM     68  C   UNL A   1      41.398  28.252  26.485  1.00  0.00     0.041 A 
ATOM     69  F   UNL A   1      42.146  30.015  27.833  1.00  0.00    -0.206 F 
ATOM     70  C   UNL A   1      40.800  27.003  26.354  1.00  0.00     0.022 A 
BRANCH  67  71
ATOM     71  S   UNL A   1      39.694  24.662  27.395  1.00  0.00     0.124 S 
ATOM     72  O   UNL A   1      38.750  24.608  28.509  1.00  0.00    -0.237 OA
ATOM     73  O   UNL A   1      39.111  24.598  26.060  1.00  0.00    -0.237 OA
ATOM     74  O   UNL A   1      40.916  23.883  27.583  1.00  0.00    -0.744 OA
ENDBRANCH  67  71
ENDBRANCH  50  64
BRANCH  51  75
ATOM     75  C   UNL A   1      41.602  32.879  37.737  1.00  0.00     0.023 A 
ATOM     76  C   UNL A   1      40.675  32.572  38.744  1.00  0.00     0.031 A 
ATOM     77  C   UNL A   1      42.570  33.863  38.012  1.00  0.00     0.131 A 
ATOM     78  C   UNL A   1      40.712  33.268  39.964  1.00  0.00     0.055 A 
ATOM     79  C   UNL A   1      42.637  34.512  39.245  1.00  0.00     0.041 A 
ATOM     80  F   UNL A   1      43.475  34.206  37.081  1.00  0.00    -0.206 F 
ATOM     81  C   UNL A   1      41.696  34.224  40.227  1.00  0.00     0.022 A 
BRANCH  78  82
ATOM     82  S   UNL A   1      39.397  32.965  41.177  1.00  0.00     0.124 S 
ATOM     83  O   UNL A   1      38.642  31.896  40.535  1.00  0.00    -0.237 OA
ATOM     84  O   UNL A   1      40.160  32.590  42.363  1.00  0.00    -0.237 OA
ATOM     85  O   UNL A   1      38.710  34.253  41.263  1.00  0.00    -0.744 OA
ENDBRANCH  78  82
ENDBRANCH  51  75
BRANCH  63  86
ATOM     86  C   UNL A   1      45.103  27.608  34.794  1.00  0.00     0.023 A 
ATOM     87  C   UNL A   1      44.913  26.356  35.403  1.00  0.00     0.031 A 
ATOM     88  C   UNL A   1      46.421  28.074  34.639  1.00  0.00     0.131 A 
ATOM     89  C   UNL A   1      46.019  25.636  35.883  1.00  0.00     0.055 A 
ATOM     90  C   UNL A   1      47.521  27.327  35.063  1.00  0.00     0.041 A 
ATOM     91  F   UNL A   1      46.662  29.264  34.066  1.00  0.00    -0.206 F 
ATOM     92  C   UNL A   1      47.323  26.106  35.700  1.00  0.00     0.022 A 
BRANCH  89  93
ATOM     93  S   UNL A   1      45.728  24.116  36.828  1.00  0.00     0.124 S 
ATOM     94  O   UNL A   1      45.955  24.563  38.199  1.00  0.00    -0.237 OA
ATOM     95  O   UNL A   1      44.347  23.793  36.484  1.00  0.00    -0.237 OA
ATOM     96  O   UNL A   1      46.730  23.189  36.304  1.00  0.00    -0.744 OA
ENDBRANCH  89  93
ENDBRANCH  63  86
ENDBRANCH  37  38
ENDBRANCH  30  32
ENDBRANCH  29  30
ENDBRANCH  28  29
ENDBRANCH  27  28
ENDBRANCH  26  27
ENDBRANCH   1  26
TORSDOF 21
ENDMDL
MODEL 3
REMARK VINA RESULT:      -9.8      5.152     12.960
REMARK SMILES C[C@H](C(=O)OCCOCCOCCOC(=O)c1ccc(-c2c3nc(c(-c4cc(S(=O)(=O)[O-])ccc4F)c4ccc([nH]4)c(-c4cc(S(=O)(=O)[O-])ccc4F)c4nc(c(-c5cc(S(=O)(=O)[O-])ccc5F)c5ccc2[nH]5)C=C4)C=C3)cc1)c1ccc2c(c1)[nH]c1ccc(Cl)cc12
REMARK SMILES IDX 10 1 9 2 8 3 7 4 6 5 5 6 3 7 4 8 2 9 1 10 80 11 81 12 85 13
REMARK SMILES IDX 82 14 84 15 83 16 86 17 93 18 87 19 92 21 88 22 90 23 89 24
REMARK SMILES IDX 91 25 11 26 12 27 13 28 14 29 15 30 16 31 17 32 18 33 79 34
REMARK SMILES IDX 19 35 78 36 20 37 21 38 22 39 72 40 23 41 77 42 71 43 73 44
REMARK SMILES IDX 24 45 76 46 70 47 69 48 25 50 57 51 37 52 56 53 38 54 41 55
REMARK SMILES IDX 55 56 74 57 39 58 40 59 54 61 75 62 42 63 26 64 27 65 35 66
REMARK SMILES IDX 28 67 34 68 36 69 33 70 29 71 30 72 31 73 32 74 58 75 59 76
REMARK SMILES IDX 67 77 60 78 66 79 68 80 65 81 61 82 62 83 63 84 64 85 43 86
REMARK SMILES IDX 44 87 52 88 45 89 51 90 53 91 50 92 46 93 47 94 48 95 49 96
REMARK H PARENT 86 20 73 49 41 60
REMARK Flexibility Score: inf
ROOT
ATOM      1  C   UNL A   1      35.099  33.301  30.841  1.00  0.00     0.188 C 
ENDROOT
BRANCH   1   2
ATOM      2  C   UNL A   1      34.700  33.560  29.378  1.00  0.00     0.188 C 
BRANCH   2   3
ATOM      3  O   UNL A   1      35.189  32.690  28.357  1.00  0.00    -0.376 OA
BRANCH   3   4
ATOM      4  C   UNL A   1      36.525  32.222  28.460  1.00  0.00     0.202 C 
BRANCH   4   5
ATOM      5  C   UNL A   1      36.709  30.710  28.326  1.00  0.00     0.261 C 
BRANCH   5   6
ATOM      6  O   UNL A   1      37.617  30.142  29.300  1.00  0.00    -0.463 OA
BRANCH   6   7
ATOM      7  C   UNL A   1      38.656  29.451  28.778  1.00  0.00     0.313 C 
ATOM      8  O   UNL A   1      38.932  29.493  27.579  1.00  0.00    -0.252 OA
BRANCH   7   9
ATOM      9  C   UNL A   1      39.452  28.562  29.739  1.00  0.00     0.126 C 
ATOM     10  C   UNL A   1      38.406  27.872  30.636  1.00  0.00     0.025 C 
BRANCH   9  11
ATOM     11  C   UNL A   1      40.528  27.570  29.251  1.00  0.00    -0.032 A 
ATOM     12  C   UNL A   1      40.156  26.388  28.585  1.00  0.00     0.005 A 
ATOM     13  C   UNL A   1      41.902  27.891  29.287  1.00  0.00     0.031 A 
ATOM     14  C   UNL A   1      41.108  25.533  27.979  1.00  0.00     0.011 A 
ATOM     15  C   UNL A   1      42.834  27.045  28.656  1.00  0.00     0.047 A 
ATOM     16  C   UNL A   1      42.481  25.856  28.025  1.00  0.00     0.007 A 
ATOM     17  N   UNL A   1      44.200  27.174  28.527  1.00  0.00    -0.355 N 
ATOM     18  C   UNL A   1      43.703  25.214  27.608  1.00  0.00     0.009 A 
ATOM     19  C   UNL A   1      44.757  26.015  28.047  1.00  0.00     0.047 A 
ATOM     20  H   UNL A   1      44.706  27.989  28.748  1.00  0.00     0.167 HD
ATOM     21  C   UNL A   1      44.026  24.006  26.951  1.00  0.00     0.031 A 
ATOM     22  C   UNL A   1      46.104  25.634  27.968  1.00  0.00     0.028 A 
ATOM     23  C   UNL A   1      45.373  23.625  26.840  1.00  0.00     0.041 A 
ATOM     24  C   UNL A   1      46.396  24.408  27.366  1.00  0.00     0.022 A 
ATOM     25  Cl  UNL A   1      45.763  22.147  26.042  1.00  0.00    -0.084 Cl
ENDBRANCH   9  11
ENDBRANCH   7   9
ENDBRANCH   6   7
ENDBRANCH   5   6
ENDBRANCH   4   5
ENDBRANCH   3   4
ENDBRANCH   2   3
ENDBRANCH   1   2
BRANCH   1  26
ATOM     26  O   UNL A   1      34.337  34.070  31.761  1.00  0.00    -0.376 OA
BRANCH  26  27
ATOM     27  C   UNL A   1      33.858  33.317  32.865  1.00  0.00     0.202 C 
BRANCH  27  28
ATOM     28  C   UNL A   1      34.800  33.507  34.054  1.00  0.00     0.261 C 
BRANCH  28  29
ATOM     29  O   UNL A   1      35.922  32.602  34.058  1.00  0.00    -0.460 OA
BRANCH  29  30
ATOM     30  C   UNL A   1      37.087  33.119  34.511  1.00  0.00     0.338 C 
ATOM     31  O   UNL A   1      37.217  34.049  35.282  1.00  0.00    -0.246 OA
BRANCH  30  32
ATOM     32  C   UNL A   1      38.194  32.271  34.021  1.00  0.00     0.060 A 
ATOM     33  C   UNL A   1      39.422  32.321  34.681  1.00  0.00     0.016 A 
ATOM     34  C   UNL A   1      38.052  31.484  32.882  1.00  0.00     0.016 A 
ATOM     35  C   UNL A   1      40.531  31.641  34.179  1.00  0.00     0.010 A 
ATOM     36  C   UNL A   1      39.167  30.800  32.376  1.00  0.00     0.010 A 
ATOM     37  C   UNL A   1      40.427  30.912  32.994  1.00  0.00    -0.014 A 
BRANCH  37  38
ATOM     38  C   UNL A   1      41.660  30.427  32.311  1.00  0.00     0.031 A 
ATOM     39  C   UNL A   1      42.312  29.164  32.813  1.00  0.00     0.074 A 
ATOM     40  C   UNL A   1      42.162  31.044  31.224  1.00  0.00     0.049 A 
ATOM     41  N   UNL A   1      43.459  28.629  32.481  1.00  0.00    -0.248 NA
ATOM     42  C   UNL A   1      41.560  28.400  33.820  1.00  0.00     0.031 C 
ATOM     43  C   UNL A   1      41.566  32.199  30.554  1.00  0.00     0.029 A 
ATOM     44  N   UNL A   1      43.300  30.787  30.497  1.00  0.00    -0.354 N 
ATOM     45  C   UNL A   1      43.582  27.483  33.259  1.00  0.00     0.074 A 
ATOM     46  C   UNL A   1      42.398  27.411  34.089  1.00  0.00     0.031 C 
ATOM     47  C   UNL A   1      42.352  32.560  29.525  1.00  0.00     0.029 A 
ATOM     48  C   UNL A   1      43.543  31.714  29.509  1.00  0.00     0.049 A 
ATOM     49  H   UNL A   1      43.885  30.013  30.666  1.00  0.00     0.167 HD
ATOM     50  C   UNL A   1      44.592  26.577  33.286  1.00  0.00     0.034 A 
ATOM     51  C   UNL A   1      44.627  31.900  28.726  1.00  0.00     0.034 A 
ATOM     52  C   UNL A   1      45.774  26.668  32.466  1.00  0.00     0.049 A 
ATOM     53  C   UNL A   1      45.808  30.970  28.875  1.00  0.00     0.074 A 
ATOM     54  C   UNL A   1      46.872  25.826  32.436  1.00  0.00     0.029 A 
ATOM     55  N   UNL A   1      46.020  27.671  31.536  1.00  0.00    -0.354 N 
ATOM     56  N   UNL A   1      45.946  29.926  29.661  1.00  0.00    -0.248 NA
ATOM     57  C   UNL A   1      46.984  31.251  28.039  1.00  0.00     0.031 C 
ATOM     58  C   UNL A   1      47.813  26.361  31.549  1.00  0.00     0.029 A 
ATOM     59  C   UNL A   1      47.267  27.490  30.959  1.00  0.00     0.049 A 
ATOM     60  H   UNL A   1      45.399  28.403  31.319  1.00  0.00     0.167 HD
ATOM     61  C   UNL A   1      47.213  29.412  29.392  1.00  0.00     0.074 A 
ATOM     62  C   UNL A   1      47.792  30.253  28.364  1.00  0.00     0.031 C 
ATOM     63  C   UNL A   1      47.841  28.340  29.942  1.00  0.00     0.034 A 
BRANCH  50  64
ATOM     64  C   UNL A   1      44.487  25.462  34.296  1.00  0.00     0.023 A 
ATOM     65  C   UNL A   1      44.895  25.627  35.632  1.00  0.00     0.031 A 
ATOM     66  C   UNL A   1      44.023  24.195  33.902  1.00  0.00     0.131 A 
ATOM     67  C   UNL A   1      44.907  24.525  36.500  1.00  0.00     0.055 A 
ATOM     68  C   UNL A   1      43.959  23.122  34.794  1.00  0.00     0.041 A 
ATOM     69  F   UNL A   1      43.644  23.970  32.633  1.00  0.00    -0.206 F 
ATOM     70  C   UNL A   1      44.418  23.280  36.098  1.00  0.00     0.022 A 
BRANCH  67  71
ATOM     71  S   UNL A   1      45.723  24.705  38.111  1.00  0.00     0.124 S 
ATOM     72  O   UNL A   1      44.576  24.853  39.006  1.00  0.00    -0.237 OA
ATOM     73  O   UNL A   1      46.465  23.455  38.226  1.00  0.00    -0.237 OA
ATOM     74  O   UNL A   1      46.538  25.906  37.947  1.00  0.00    -0.744 OA
ENDBRANCH  67  71
ENDBRANCH  50  64
BRANCH  51  75
ATOM     75  C   UNL A   1      44.696  33.064  27.794  1.00  0.00     0.023 A 
ATOM     76  C   UNL A   1      45.144  34.322  28.225  1.00  0.00     0.031 A 
ATOM     77  C   UNL A   1      44.252  32.946  26.463  1.00  0.00     0.131 A 
ATOM     78  C   UNL A   1      45.102  35.418  27.348  1.00  0.00     0.055 A 
ATOM     79  C   UNL A   1      44.265  34.025  25.579  1.00  0.00     0.041 A 
ATOM     80  F   UNL A   1      43.801  31.769  25.999  1.00  0.00    -0.206 F 
ATOM     81  C   UNL A   1      44.680  35.275  26.024  1.00  0.00     0.022 A 
BRANCH  78  82
ATOM     82  S   UNL A   1      45.528  37.061  27.989  1.00  0.00     0.124 S 
ATOM     83  O   UNL A   1      45.280  36.896  29.417  1.00  0.00    -0.237 OA
ATOM     84  O   UNL A   1      46.926  37.188  27.591  1.00  0.00    -0.237 OA
ATOM     85  O   UNL A   1      44.600  37.950  27.292  1.00  0.00    -0.744 OA
ENDBRANCH  78  82
ENDBRANCH  51  75
BRANCH  63  86
ATOM     86  C   UNL A   1      49.206  27.987  29.401  1.00  0.00     0.023 A 
ATOM     87  C   UNL A   1      49.378  27.030  28.386  1.00  0.00     0.031 A 
ATOM     88  C   UNL A   1      50.352  28.618  29.917  1.00  0.00     0.131 A 
ATOM     89  C   UNL A   1      50.672  26.693  27.955  1.00  0.00     0.055 A 
ATOM     90  C   UNL A   1      51.632  28.323  29.442  1.00  0.00     0.041 A 
ATOM     91  F   UNL A   1      50.247  29.538  30.889  1.00  0.00    -0.206 F 
ATOM     92  C   UNL A   1      51.797  27.347  28.464  1.00  0.00     0.022 A 
BRANCH  89  93
ATOM     93  S   UNL A   1      50.871  25.326  26.781  1.00  0.00     0.124 S 
ATOM     94  O   UNL A   1      52.323  25.173  26.737  1.00  0.00    -0.237 OA
ATOM     95  O   UNL A   1      50.136  24.245  27.431  1.00  0.00    -0.237 OA
ATOM     96  O   UNL A   1      50.264  25.837  25.553  1.00  0.00    -0.744 OA
ENDBRANCH  89  93
ENDBRANCH  63  86
ENDBRANCH  37  38
ENDBRANCH  30  32
ENDBRANCH  29  30
ENDBRANCH  28  29
ENDBRANCH  27  28
ENDBRANCH  26  27
ENDBRANCH   1  26
TORSDOF 21
ENDMDL
