MODEL 1
REMARK VINA RESULT:     -11.4      0.000      0.000
REMARK SMILES Cc1ccc2[nH]cc([C@@H](C(=O)OCCOCCOCCOC(=O)c3ccc(-c4c5nc(c(-c6cc(S(=O)(=O)[O-])ccc6F)c6ccc([nH]6)c(-c6cc(S(=O)(=O)[O-])ccc6F)c6nc(c(-c7cc(S(=O)(=O)[O-])ccc7F)c7ccc4[nH]7)C=C6)C=C5)cc3)[NH+]3CCN(c4cccc(Cl)c4)CC3)c2c1
REMARK SMILES IDX 17 1 16 2 15 3 14 4 13 5 12 6 10 7 11 8 9 9 8 10 1 11 2 12
REMARK SMILES IDX 3 13 101 14 4 15 100 16 5 17 6 18 7 19 87 21 88 22 99 23
REMARK SMILES IDX 89 25 98 26 90 27 91 28 92 29 97 30 93 31 95 32 94 33 96 34
REMARK SMILES IDX 18 35 19 36 20 37 21 38 22 39 23 40 24 41 25 42 86 43 26 44
REMARK SMILES IDX 85 45 27 46 28 47 29 48 79 49 30 50 84 51 78 52 80 53 31 54
REMARK SMILES IDX 83 55 77 56 76 57 32 59 64 60 44 61 63 62 45 63 48 64 62 65
REMARK SMILES IDX 81 66 46 67 47 68 61 70 82 71 49 72 33 73 34 74 42 75 35 76
REMARK SMILES IDX 41 77 43 78 40 79 36 80 37 81 38 82 39 83 65 84 66 85 74 86
REMARK SMILES IDX 67 87 73 88 75 89 72 90 68 91 69 92 70 93 71 94 50 95 51 96
REMARK SMILES IDX 59 97 52 98 58 99 60 100 57 101 53 102 54 103 55 104 56 105
REMARK H PARENT 6 20 87 24 80 58 48 69
REMARK Flexibility Score: inf
ROOT
ATOM      1  C   UNL A   1      40.040  21.506  26.538  1.00  0.00     0.188 C 
ENDROOT
BRANCH   1   2
ATOM      2  C   UNL A   1      38.839  22.125  25.830  1.00  0.00     0.188 C 
BRANCH   2   3
ATOM      3  O   UNL A   1      37.832  21.246  25.341  1.00  0.00    -0.376 OA
BRANCH   3   4
ATOM      4  C   UNL A   1      36.473  21.514  25.658  1.00  0.00     0.202 C 
BRANCH   4   5
ATOM      5  C   UNL A   1      35.601  22.031  24.510  1.00  0.00     0.261 C 
BRANCH   5   6
ATOM      6  O   UNL A   1      35.001  23.329  24.742  1.00  0.00    -0.459 OA
BRANCH   6   7
ATOM      7  C   UNL A   1      34.615  24.008  23.621  1.00  0.00     0.370 C 
ATOM      8  O   UNL A   1      34.852  23.591  22.489  1.00  0.00    -0.245 OA
BRANCH   7   9
ATOM      9  C   UNL A   1      33.991  25.402  23.899  1.00  0.00     0.328 C 
BRANCH   9  10
ATOM     10  C   UNL A   1      33.065  25.586  25.086  1.00  0.00     0.046 A 
ATOM     11  C   UNL A   1      34.518  30.093  27.055  1.00  0.00     0.044 C 
ATOM     12  C   UNL A   1      33.602  28.908  26.958  1.00  0.00    -0.050 A 
ATOM     13  C   UNL A   1      32.441  28.826  27.728  1.00  0.00     0.005 A 
ATOM     14  C   UNL A   1      33.917  27.872  26.062  1.00  0.00     0.014 A 
ATOM     15  C   UNL A   1      31.596  27.714  27.652  1.00  0.00     0.027 A 
ATOM     16  C   UNL A   1      33.078  26.743  25.953  1.00  0.00     0.009 A 
ATOM     17  C   UNL A   1      31.949  26.687  26.771  1.00  0.00     0.046 A 
ATOM     18  N   UNL A   1      31.316  25.502  26.495  1.00  0.00    -0.361 N 
ATOM     19  C   UNL A   1      31.987  24.826  25.508  1.00  0.00     0.094 A 
ATOM     20  H   UNL A   1      30.498  25.182  26.941  1.00  0.00     0.166 HD
ENDBRANCH   9  10
BRANCH   9  21
ATOM     21  N   UNL A   1      33.430  25.976  22.657  1.00  0.00    -0.316 N 
ATOM     22  C   UNL A   1      32.154  25.460  22.156  1.00  0.00     0.284 C 
ATOM     23  C   UNL A   1      33.553  27.425  22.461  1.00  0.00     0.284 C 
ATOM     24  H   UNL A   1      34.122  25.556  22.037  1.00  0.00     0.349 HD
ATOM     25  C   UNL A   1      30.899  26.298  22.460  1.00  0.00     0.178 C 
ATOM     26  C   UNL A   1      32.335  28.284  22.884  1.00  0.00     0.178 C 
ATOM     27  N   UNL A   1      31.101  27.737  22.324  1.00  0.00    -0.360 N 
BRANCH  27  28
ATOM     28  C   UNL A   1      29.936  28.494  22.461  1.00  0.00     0.038 A 
ATOM     29  C   UNL A   1      28.795  28.010  23.121  1.00  0.00     0.026 A 
ATOM     30  C   UNL A   1      29.866  29.745  21.840  1.00  0.00     0.046 A 
ATOM     31  C   UNL A   1      27.599  28.734  23.116  1.00  0.00     0.004 A 
ATOM     32  C   UNL A   1      28.673  30.471  21.844  1.00  0.00     0.043 A 
ATOM     33  C   UNL A   1      27.536  29.965  22.468  1.00  0.00     0.020 A 
ATOM     34  Cl  UNL A   1      28.606  31.998  21.053  1.00  0.00    -0.084 Cl
ENDBRANCH  27  28
ENDBRANCH   9  21
ENDBRANCH   7   9
ENDBRANCH   6   7
ENDBRANCH   5   6
ENDBRANCH   4   5
ENDBRANCH   3   4
ENDBRANCH   2   3
ENDBRANCH   1   2
BRANCH   1  35
ATOM     35  O   UNL A   1      40.353  20.218  26.020  1.00  0.00    -0.376 OA
BRANCH  35  36
ATOM     36  C   UNL A   1      41.101  19.414  26.926  1.00  0.00     0.202 C 
BRANCH  36  37
ATOM     37  C   UNL A   1      42.025  18.515  26.098  1.00  0.00     0.261 C 
BRANCH  37  38
ATOM     38  O   UNL A   1      42.595  19.190  24.960  1.00  0.00    -0.460 OA
BRANCH  38  39
ATOM     39  C   UNL A   1      43.846  19.661  25.132  1.00  0.00     0.338 C 
ATOM     40  O   UNL A   1      44.889  19.092  24.816  1.00  0.00    -0.246 OA
BRANCH  39  41
ATOM     41  C   UNL A   1      43.777  21.073  25.539  1.00  0.00     0.060 A 
ATOM     42  C   UNL A   1      43.736  22.038  24.528  1.00  0.00     0.016 A 
ATOM     43  C   UNL A   1      43.786  21.460  26.879  1.00  0.00     0.016 A 
ATOM     44  C   UNL A   1      43.727  23.392  24.852  1.00  0.00     0.010 A 
ATOM     45  C   UNL A   1      43.797  22.825  27.199  1.00  0.00     0.010 A 
ATOM     46  C   UNL A   1      43.786  23.799  26.186  1.00  0.00    -0.014 A 
BRANCH  46  47
ATOM     47  C   UNL A   1      44.044  25.230  26.490  1.00  0.00     0.031 A 
ATOM     48  C   UNL A   1      45.407  25.783  26.182  1.00  0.00     0.074 A 
ATOM     49  C   UNL A   1      43.077  26.055  26.935  1.00  0.00     0.049 A 
ATOM     50  N   UNL A   1      45.949  26.916  26.541  1.00  0.00    -0.248 NA
ATOM     51  C   UNL A   1      46.270  24.936  25.345  1.00  0.00     0.031 C 
ATOM     52  C   UNL A   1      41.670  25.698  27.106  1.00  0.00     0.029 A 
ATOM     53  N   UNL A   1      43.138  27.373  27.319  1.00  0.00    -0.354 N 
ATOM     54  C   UNL A   1      47.234  26.901  26.010  1.00  0.00     0.074 A 
ATOM     55  C   UNL A   1      47.388  25.645  25.308  1.00  0.00     0.031 C 
ATOM     56  C   UNL A   1      41.003  26.770  27.572  1.00  0.00     0.029 A 
ATOM     57  C   UNL A   1      41.948  27.859  27.812  1.00  0.00     0.049 A 
ATOM     58  H   UNL A   1      43.955  27.918  27.248  1.00  0.00     0.167 HD
ATOM     59  C   UNL A   1      48.199  27.848  26.113  1.00  0.00     0.034 A 
ATOM     60  C   UNL A   1      41.674  29.020  28.442  1.00  0.00     0.034 A 
ATOM     61  C   UNL A   1      48.017  29.099  26.806  1.00  0.00     0.049 A 
ATOM     62  C   UNL A   1      42.800  30.002  28.683  1.00  0.00     0.074 A 
ATOM     63  C   UNL A   1      48.939  30.106  27.034  1.00  0.00     0.029 A 
ATOM     64  N   UNL A   1      46.824  29.519  27.379  1.00  0.00    -0.354 N 
ATOM     65  N   UNL A   1      44.058  29.928  28.307  1.00  0.00    -0.248 NA
ATOM     66  C   UNL A   1      42.476  31.212  29.452  1.00  0.00     0.031 C 
ATOM     67  C   UNL A   1      48.320  31.103  27.796  1.00  0.00     0.029 A 
ATOM     68  C   UNL A   1      46.992  30.756  27.980  1.00  0.00     0.049 A 
ATOM     69  H   UNL A   1      45.980  29.012  27.362  1.00  0.00     0.167 HD
ATOM     70  C   UNL A   1      44.663  31.095  28.771  1.00  0.00     0.074 A 
ATOM     71  C   UNL A   1      43.633  31.857  29.445  1.00  0.00     0.031 C 
ATOM     72  C   UNL A   1      45.952  31.502  28.649  1.00  0.00     0.034 A 
BRANCH  59  73
ATOM     73  C   UNL A   1      49.554  27.510  25.543  1.00  0.00     0.023 A 
ATOM     74  C   UNL A   1      49.872  27.720  24.190  1.00  0.00     0.031 A 
ATOM     75  C   UNL A   1      50.523  26.902  26.363  1.00  0.00     0.131 A 
ATOM     76  C   UNL A   1      51.096  27.256  23.682  1.00  0.00     0.055 A 
ATOM     77  C   UNL A   1      51.771  26.521  25.869  1.00  0.00     0.041 A 
ATOM     78  F   UNL A   1      50.262  26.649  27.655  1.00  0.00    -0.206 F 
ATOM     79  C   UNL A   1      52.058  26.681  24.518  1.00  0.00     0.022 A 
BRANCH  76  80
ATOM     80  S   UNL A   1      51.353  27.269  21.885  1.00  0.00     0.124 S 
ATOM     81  O   UNL A   1      50.045  26.836  21.396  1.00  0.00    -0.237 OA
ATOM     82  O   UNL A   1      51.704  28.659  21.624  1.00  0.00    -0.237 OA
ATOM     83  O   UNL A   1      52.432  26.304  21.687  1.00  0.00    -0.744 OA
ENDBRANCH  76  80
ENDBRANCH  59  73
BRANCH  60  84
ATOM     84  C   UNL A   1      40.311  29.288  28.996  1.00  0.00     0.023 A 
ATOM     85  C   UNL A   1      40.049  29.198  30.372  1.00  0.00     0.031 A 
ATOM     86  C   UNL A   1      39.227  29.554  28.138  1.00  0.00     0.131 A 
ATOM     87  C   UNL A   1      38.732  29.325  30.844  1.00  0.00     0.055 A 
ATOM     88  C   UNL A   1      37.930  29.743  28.619  1.00  0.00     0.041 A 
ATOM     89  F   UNL A   1      39.412  29.633  26.810  1.00  0.00    -0.206 F 
ATOM     90  C   UNL A   1      37.674  29.614  29.979  1.00  0.00     0.022 A 
BRANCH  87  91
ATOM     91  S   UNL A   1      38.398  29.001  32.599  1.00  0.00     0.124 S 
ATOM     92  O   UNL A   1      39.216  27.817  32.842  1.00  0.00    -0.237 OA
ATOM     93  O   UNL A   1      38.852  30.235  33.229  1.00  0.00    -0.237 OA
ATOM     94  O   UNL A   1      36.954  28.779  32.636  1.00  0.00    -0.744 OA
ENDBRANCH  87  91
ENDBRANCH  60  84
BRANCH  72  95
ATOM     95  C   UNL A   1      46.303  32.859  29.207  1.00  0.00     0.023 A 
ATOM     96  C   UNL A   1      46.187  34.032  28.441  1.00  0.00     0.031 A 
ATOM     97  C   UNL A   1      46.752  32.976  30.536  1.00  0.00     0.131 A 
ATOM     98  C   UNL A   1      46.556  35.267  28.997  1.00  0.00     0.055 A 
ATOM     99  C   UNL A   1      47.069  34.213  31.098  1.00  0.00     0.041 A 
ATOM    100  F   UNL A   1      46.880  31.887  31.311  1.00  0.00    -0.206 F 
ATOM    101  C   UNL A   1      46.982  35.366  30.325  1.00  0.00     0.022 A 
BRANCH  98 102
ATOM    102  S   UNL A   1      46.536  36.742  27.942  1.00  0.00     0.124 S 
ATOM    103  O   UNL A   1      45.964  37.747  28.834  1.00  0.00    -0.237 OA
ATOM    104  O   UNL A   1      47.948  36.912  27.614  1.00  0.00    -0.237 OA
ATOM    105  O   UNL A   1      45.684  36.352  26.820  1.00  0.00    -0.744 OA
ENDBRANCH  98 102
ENDBRANCH  72  95
ENDBRANCH  46  47
ENDBRANCH  39  41
ENDBRANCH  38  39
ENDBRANCH  37  38
ENDBRANCH  36  37
ENDBRANCH  35  36
ENDBRANCH   1  35
TORSDOF 23
ENDMDL
MODEL 2
REMARK VINA RESULT:     -11.2      2.679      4.427
REMARK SMILES Cc1ccc2[nH]cc([C@@H](C(=O)OCCOCCOCCOC(=O)c3ccc(-c4c5nc(c(-c6cc(S(=O)(=O)[O-])ccc6F)c6ccc([nH]6)c(-c6cc(S(=O)(=O)[O-])ccc6F)c6nc(c(-c7cc(S(=O)(=O)[O-])ccc7F)c7ccc4[nH]7)C=C6)C=C5)cc3)[NH+]3CCN(c4cccc(Cl)c4)CC3)c2c1
REMARK SMILES IDX 17 1 16 2 15 3 14 4 13 5 12 6 10 7 11 8 9 9 8 10 1 11 2 12
REMARK SMILES IDX 3 13 101 14 4 15 100 16 5 17 6 18 7 19 87 21 88 22 99 23
REMARK SMILES IDX 89 25 98 26 90 27 91 28 92 29 97 30 93 31 95 32 94 33 96 34
REMARK SMILES IDX 18 35 19 36 20 37 21 38 22 39 23 40 24 41 25 42 86 43 26 44
REMARK SMILES IDX 85 45 27 46 28 47 29 48 79 49 30 50 84 51 78 52 80 53 31 54
REMARK SMILES IDX 83 55 77 56 76 57 32 59 64 60 44 61 63 62 45 63 48 64 62 65
REMARK SMILES IDX 81 66 46 67 47 68 61 70 82 71 49 72 33 73 34 74 42 75 35 76
REMARK SMILES IDX 41 77 43 78 40 79 36 80 37 81 38 82 39 83 65 84 66 85 74 86
REMARK SMILES IDX 67 87 73 88 75 89 72 90 68 91 69 92 70 93 71 94 50 95 51 96
REMARK SMILES IDX 59 97 52 98 58 99 60 100 57 101 53 102 54 103 55 104 56 105
REMARK H PARENT 6 20 87 24 80 58 48 69
REMARK Flexibility Score: inf
ROOT
ATOM      1  C   UNL A   1      37.280  21.808  25.837  1.00  0.00     0.188 C 
ENDROOT
BRANCH   1   2
ATOM      2  C   UNL A   1      36.605  23.176  25.801  1.00  0.00     0.188 C 
BRANCH   2   3
ATOM      3  O   UNL A   1      35.809  23.493  24.666  1.00  0.00    -0.376 OA
BRANCH   3   4
ATOM      4  C   UNL A   1      34.971  24.641  24.714  1.00  0.00     0.202 C 
BRANCH   4   5
ATOM      5  C   UNL A   1      34.345  25.076  23.386  1.00  0.00     0.261 C 
BRANCH   5   6
ATOM      6  O   UNL A   1      33.582  26.306  23.450  1.00  0.00    -0.459 OA
BRANCH   6   7
ATOM      7  C   UNL A   1      32.733  26.528  22.403  1.00  0.00     0.370 C 
ATOM      8  O   UNL A   1      33.093  26.413  21.233  1.00  0.00    -0.245 OA
BRANCH   7   9
ATOM      9  C   UNL A   1      31.339  27.075  22.812  1.00  0.00     0.328 C 
BRANCH   9  10
ATOM     10  C   UNL A   1      31.238  28.404  23.536  1.00  0.00     0.046 A 
ATOM     11  C   UNL A   1      27.805  31.021  20.768  1.00  0.00     0.044 C 
ATOM     12  C   UNL A   1      28.685  30.822  21.967  1.00  0.00    -0.050 A 
ATOM     13  C   UNL A   1      28.679  31.730  23.028  1.00  0.00     0.005 A 
ATOM     14  C   UNL A   1      29.517  29.692  22.024  1.00  0.00     0.014 A 
ATOM     15  C   UNL A   1      29.512  31.556  24.137  1.00  0.00     0.027 A 
ATOM     16  C   UNL A   1      30.361  29.481  23.135  1.00  0.00     0.009 A 
ATOM     17  C   UNL A   1      30.349  30.435  24.154  1.00  0.00     0.046 A 
ATOM     18  N   UNL A   1      31.252  30.019  25.099  1.00  0.00    -0.361 N 
ATOM     19  C   UNL A   1      31.806  28.820  24.728  1.00  0.00     0.094 A 
ATOM     20  H   UNL A   1      31.471  30.510  25.924  1.00  0.00     0.166 HD
ENDBRANCH   9  10
BRANCH   9  21
ATOM     21  N   UNL A   1      30.539  26.018  23.467  1.00  0.00    -0.316 N 
ATOM     22  C   UNL A   1      30.586  24.659  22.925  1.00  0.00     0.284 C 
ATOM     23  C   UNL A   1      30.474  26.024  24.933  1.00  0.00     0.284 C 
ATOM     24  H   UNL A   1      29.636  26.374  23.151  1.00  0.00     0.349 HD
ATOM     25  C   UNL A   1      31.498  23.654  23.651  1.00  0.00     0.178 C 
ATOM     26  C   UNL A   1      31.479  25.104  25.671  1.00  0.00     0.178 C 
ATOM     27  N   UNL A   1      31.452  23.756  25.105  1.00  0.00    -0.360 N 
BRANCH  27  28
ATOM     28  C   UNL A   1      32.166  22.759  25.773  1.00  0.00     0.038 A 
ATOM     29  C   UNL A   1      32.579  22.894  27.108  1.00  0.00     0.026 A 
ATOM     30  C   UNL A   1      32.567  21.623  25.063  1.00  0.00     0.046 A 
ATOM     31  C   UNL A   1      33.414  21.944  27.703  1.00  0.00     0.004 A 
ATOM     32  C   UNL A   1      33.393  20.670  25.661  1.00  0.00     0.043 A 
ATOM     33  C   UNL A   1      33.829  20.832  26.974  1.00  0.00     0.020 A 
ATOM     34  Cl  UNL A   1      33.890  19.292  24.759  1.00  0.00    -0.084 Cl
ENDBRANCH  27  28
ENDBRANCH   9  21
ENDBRANCH   7   9
ENDBRANCH   6   7
ENDBRANCH   5   6
ENDBRANCH   4   5
ENDBRANCH   3   4
ENDBRANCH   2   3
ENDBRANCH   1   2
BRANCH   1  35
ATOM     35  O   UNL A   1      37.076  21.087  24.627  1.00  0.00    -0.376 OA
BRANCH  35  36
ATOM     36  C   UNL A   1      37.816  19.872  24.565  1.00  0.00     0.202 C 
BRANCH  36  37
ATOM     37  C   UNL A   1      38.688  19.791  25.821  1.00  0.00     0.261 C 
BRANCH  37  38
ATOM     38  O   UNL A   1      39.989  20.386  25.643  1.00  0.00    -0.460 OA
BRANCH  38  39
ATOM     39  C   UNL A   1      40.765  20.421  26.745  1.00  0.00     0.338 C 
ATOM     40  O   UNL A   1      41.394  19.480  27.224  1.00  0.00    -0.246 OA
BRANCH  39  41
ATOM     41  C   UNL A   1      40.946  21.821  27.161  1.00  0.00     0.060 A 
ATOM     42  C   UNL A   1      40.324  22.811  26.395  1.00  0.00     0.016 A 
ATOM     43  C   UNL A   1      41.735  22.172  28.257  1.00  0.00     0.016 A 
ATOM     44  C   UNL A   1      40.506  24.156  26.708  1.00  0.00     0.010 A 
ATOM     45  C   UNL A   1      41.931  23.528  28.555  1.00  0.00     0.010 A 
ATOM     46  C   UNL A   1      41.332  24.528  27.769  1.00  0.00    -0.014 A 
BRANCH  46  47
ATOM     47  C   UNL A   1      41.719  25.956  27.912  1.00  0.00     0.031 A 
ATOM     48  C   UNL A   1      43.026  26.396  27.314  1.00  0.00     0.074 A 
ATOM     49  C   UNL A   1      40.901  26.869  28.467  1.00  0.00     0.049 A 
ATOM     50  N   UNL A   1      43.686  27.511  27.480  1.00  0.00    -0.248 NA
ATOM     51  C   UNL A   1      43.666  25.442  26.396  1.00  0.00     0.031 C 
ATOM     52  C   UNL A   1      39.535  26.619  28.925  1.00  0.00     0.029 A 
ATOM     53  N   UNL A   1      41.105  28.201  28.734  1.00  0.00    -0.354 N 
ATOM     54  C   UNL A   1      44.844  27.377  26.720  1.00  0.00     0.074 A 
ATOM     55  C   UNL A   1      44.792  26.071  26.097  1.00  0.00     0.031 C 
ATOM     56  C   UNL A   1      39.029  27.759  29.427  1.00  0.00     0.029 A 
ATOM     57  C   UNL A   1      40.059  28.796  29.404  1.00  0.00     0.049 A 
ATOM     58  H   UNL A   1      41.921  28.685  28.471  1.00  0.00     0.167 HD
ATOM     59  C   UNL A   1      45.859  28.262  26.569  1.00  0.00     0.034 A 
ATOM     60  C   UNL A   1      39.973  30.010  29.985  1.00  0.00     0.034 A 
ATOM     61  C   UNL A   1      45.881  29.563  27.190  1.00  0.00     0.049 A 
ATOM     62  C   UNL A   1      41.175  30.928  29.938  1.00  0.00     0.074 A 
ATOM     63  C   UNL A   1      46.882  30.518  27.165  1.00  0.00     0.029 A 
ATOM     64  N   UNL A   1      44.843  30.097  27.943  1.00  0.00    -0.354 N 
ATOM     65  N   UNL A   1      42.332  30.747  29.340  1.00  0.00    -0.248 NA
ATOM     66  C   UNL A   1      41.070  32.203  30.661  1.00  0.00     0.031 C 
ATOM     67  C   UNL A   1      46.475  31.601  27.953  1.00  0.00     0.029 A 
ATOM     68  C   UNL A   1      45.189  31.355  28.408  1.00  0.00     0.049 A 
ATOM     69  H   UNL A   1      43.986  29.647  28.122  1.00  0.00     0.167 HD
ATOM     70  C   UNL A   1      43.076  31.898  29.594  1.00  0.00     0.074 A 
ATOM     71  C   UNL A   1      42.237  32.768  30.389  1.00  0.00     0.031 C 
ATOM     72  C   UNL A   1      44.338  32.209  29.203  1.00  0.00     0.034 A 
BRANCH  59  73
ATOM     73  C   UNL A   1      47.061  27.799  25.783  1.00  0.00     0.023 A 
ATOM     74  C   UNL A   1      47.247  28.136  24.431  1.00  0.00     0.031 A 
ATOM     75  C   UNL A   1      48.002  26.946  26.387  1.00  0.00     0.131 A 
ATOM     76  C   UNL A   1      48.305  27.562  23.710  1.00  0.00     0.055 A 
ATOM     77  C   UNL A   1      49.100  26.446  25.685  1.00  0.00     0.041 A 
ATOM     78  F   UNL A   1      47.858  26.565  27.666  1.00  0.00    -0.206 F 
ATOM     79  C   UNL A   1      49.248  26.740  24.334  1.00  0.00     0.022 A 
BRANCH  76  80
ATOM     80  S   UNL A   1      48.345  27.775  21.908  1.00  0.00     0.124 S 
ATOM     81  O   UNL A   1      48.642  26.417  21.455  1.00  0.00    -0.237 OA
ATOM     82  O   UNL A   1      47.005  28.267  21.616  1.00  0.00    -0.237 OA
ATOM     83  O   UNL A   1      49.423  28.740  21.700  1.00  0.00    -0.744 OA
ENDBRANCH  76  80
ENDBRANCH  59  73
BRANCH  60  84
ATOM     84  C   UNL A   1      38.758  30.403  30.763  1.00  0.00     0.023 A 
ATOM     85  C   UNL A   1      37.676  31.058  30.152  1.00  0.00     0.031 A 
ATOM     86  C   UNL A   1      38.701  30.204  32.155  1.00  0.00     0.131 A 
ATOM     87  C   UNL A   1      36.610  31.530  30.936  1.00  0.00     0.055 A 
ATOM     88  C   UNL A   1      37.610  30.619  32.920  1.00  0.00     0.041 A 
ATOM     89  F   UNL A   1      39.715  29.601  32.799  1.00  0.00    -0.206 F 
ATOM     90  C   UNL A   1      36.562  31.300  32.313  1.00  0.00     0.022 A 
BRANCH  87  91
ATOM     91  S   UNL A   1      35.331  32.549  30.147  1.00  0.00     0.124 S 
ATOM     92  O   UNL A   1      36.123  33.643  29.594  1.00  0.00    -0.237 OA
ATOM     93  O   UNL A   1      34.756  31.621  29.180  1.00  0.00    -0.237 OA
ATOM     94  O   UNL A   1      34.452  32.913  31.256  1.00  0.00    -0.744 OA
ENDBRANCH  87  91
ENDBRANCH  60  84
BRANCH  72  95
ATOM     95  C   UNL A   1      44.861  33.572  29.583  1.00  0.00     0.023 A 
ATOM     96  C   UNL A   1      44.767  34.675  28.716  1.00  0.00     0.031 A 
ATOM     97  C   UNL A   1      45.456  33.769  30.843  1.00  0.00     0.131 A 
ATOM     98  C   UNL A   1      45.298  35.915  29.103  1.00  0.00     0.055 A 
ATOM     99  C   UNL A   1      45.936  35.016  31.243  1.00  0.00     0.041 A 
ATOM    100  F   UNL A   1      45.571  32.750  31.709  1.00  0.00    -0.206 F 
ATOM    101  C   UNL A   1      45.868  36.096  30.367  1.00  0.00     0.022 A 
BRANCH  98 102
ATOM    102  S   UNL A   1      45.294  37.281  27.910  1.00  0.00     0.124 S 
ATOM    103  O   UNL A   1      45.887  36.657  26.731  1.00  0.00    -0.237 OA
ATOM    104  O   UNL A   1      43.875  37.607  27.811  1.00  0.00    -0.237 OA
ATOM    105  O   UNL A   1      46.119  38.302  28.552  1.00  0.00    -0.744 OA
ENDBRANCH  98 102
ENDBRANCH  72  95
ENDBRANCH  46  47
ENDBRANCH  39  41
ENDBRANCH  38  39
ENDBRANCH  37  38
ENDBRANCH  36  37
ENDBRANCH  35  36
ENDBRANCH   1  35
TORSDOF 23
ENDMDL
MODEL 3
REMARK VINA RESULT:     -11.0      5.140     10.480
REMARK SMILES Cc1ccc2[nH]cc([C@@H](C(=O)OCCOCCOCCOC(=O)c3ccc(-c4c5nc(c(-c6cc(S(=O)(=O)[O-])ccc6F)c6ccc([nH]6)c(-c6cc(S(=O)(=O)[O-])ccc6F)c6nc(c(-c7cc(S(=O)(=O)[O-])ccc7F)c7ccc4[nH]7)C=C6)C=C5)cc3)[NH+]3CCN(c4cccc(Cl)c4)CC3)c2c1
REMARK SMILES IDX 17 1 16 2 15 3 14 4 13 5 12 6 10 7 11 8 9 9 8 10 1 11 2 12
REMARK SMILES IDX 3 13 101 14 4 15 100 16 5 17 6 18 7 19 87 21 88 22 99 23
REMARK SMILES IDX 89 25 98 26 90 27 91 28 92 29 97 30 93 31 95 32 94 33 96 34
REMARK SMILES IDX 18 35 19 36 20 37 21 38 22 39 23 40 24 41 25 42 86 43 26 44
REMARK SMILES IDX 85 45 27 46 28 47 29 48 79 49 30 50 84 51 78 52 80 53 31 54
REMARK SMILES IDX 83 55 77 56 76 57 32 59 64 60 44 61 63 62 45 63 48 64 62 65
REMARK SMILES IDX 81 66 46 67 47 68 61 70 82 71 49 72 33 73 34 74 42 75 35 76
REMARK SMILES IDX 41 77 43 78 40 79 36 80 37 81 38 82 39 83 65 84 66 85 74 86
REMARK SMILES IDX 67 87 73 88 75 89 72 90 68 91 69 92 70 93 71 94 50 95 51 96
REMARK SMILES IDX 59 97 52 98 58 99 60 100 57 101 53 102 54 103 55 104 56 105
REMARK H PARENT 6 20 87 24 80 58 48 69
REMARK Flexibility Score: inf
ROOT
ATOM      1  C   UNL A   1      31.915  27.963  26.443  1.00  0.00     0.188 C 
ENDROOT
BRANCH   1   2
ATOM      2  C   UNL A   1      30.824  26.901  26.543  1.00  0.00     0.188 C 
BRANCH   2   3
ATOM      3  O   UNL A   1      31.216  25.578  26.889  1.00  0.00    -0.376 OA
BRANCH   3   4
ATOM      4  C   UNL A   1      30.468  24.484  26.374  1.00  0.00     0.202 C 
BRANCH   4   5
ATOM      5  C   UNL A   1      31.068  23.092  26.592  1.00  0.00     0.261 C 
BRANCH   5   6
ATOM      6  O   UNL A   1      32.357  23.085  27.254  1.00  0.00    -0.459 OA
BRANCH   6   7
ATOM      7  C   UNL A   1      33.415  22.701  26.481  1.00  0.00     0.370 C 
ATOM      8  O   UNL A   1      34.580  22.853  26.843  1.00  0.00    -0.245 OA
BRANCH   7   9
ATOM      9  C   UNL A   1      33.026  22.201  25.064  1.00  0.00     0.328 C 
BRANCH   9  10
ATOM     10  C   UNL A   1      33.170  20.730  24.724  1.00  0.00     0.046 A 
ATOM     11  C   UNL A   1      38.222  19.912  25.035  1.00  0.00     0.044 C 
ATOM     12  C   UNL A   1      36.801  19.457  24.891  1.00  0.00    -0.050 A 
ATOM     13  C   UNL A   1      36.479  18.100  24.816  1.00  0.00     0.005 A 
ATOM     14  C   UNL A   1      35.776  20.418  24.846  1.00  0.00     0.014 A 
ATOM     15  C   UNL A   1      35.156  17.675  24.663  1.00  0.00     0.027 A 
ATOM     16  C   UNL A   1      34.430  20.020  24.705  1.00  0.00     0.009 A 
ATOM     17  C   UNL A   1      34.159  18.656  24.595  1.00  0.00     0.046 A 
ATOM     18  N   UNL A   1      32.802  18.529  24.453  1.00  0.00    -0.361 N 
ATOM     19  C   UNL A   1      32.204  19.762  24.503  1.00  0.00     0.094 A 
ATOM     20  H   UNL A   1      32.325  17.675  24.331  1.00  0.00     0.166 HD
ENDBRANCH   9  10
BRANCH   9  21
ATOM     21  N   UNL A   1      33.611  23.075  24.026  1.00  0.00    -0.316 N 
ATOM     22  C   UNL A   1      32.903  23.230  22.753  1.00  0.00     0.284 C 
ATOM     23  C   UNL A   1      34.235  24.329  24.464  1.00  0.00     0.284 C 
ATOM     24  H   UNL A   1      34.384  22.449  23.799  1.00  0.00     0.349 HD
ATOM     25  C   UNL A   1      32.062  24.508  22.578  1.00  0.00     0.178 C 
ATOM     26  C   UNL A   1      33.349  25.598  24.406  1.00  0.00     0.178 C 
ATOM     27  N   UNL A   1      32.699  25.712  23.101  1.00  0.00    -0.360 N 
BRANCH  27  28
ATOM     28  C   UNL A   1      32.009  26.893  22.822  1.00  0.00     0.038 A 
ATOM     29  C   UNL A   1      32.664  28.082  22.465  1.00  0.00     0.026 A 
ATOM     30  C   UNL A   1      30.622  26.922  22.993  1.00  0.00     0.046 A 
ATOM     31  C   UNL A   1      31.959  29.281  22.332  1.00  0.00     0.004 A 
ATOM     32  C   UNL A   1      29.917  28.118  22.851  1.00  0.00     0.043 A 
ATOM     33  C   UNL A   1      30.581  29.301  22.535  1.00  0.00     0.020 A 
ATOM     34  Cl  UNL A   1      28.212  28.133  23.088  1.00  0.00    -0.084 Cl
ENDBRANCH  27  28
ENDBRANCH   9  21
ENDBRANCH   7   9
ENDBRANCH   6   7
ENDBRANCH   5   6
ENDBRANCH   4   5
ENDBRANCH   3   4
ENDBRANCH   2   3
ENDBRANCH   1   2
BRANCH   1  35
ATOM     35  O   UNL A   1      31.409  29.195  25.944  1.00  0.00    -0.376 OA
BRANCH  35  36
ATOM     36  C   UNL A   1      32.417  30.184  25.758  1.00  0.00     0.202 C 
BRANCH  36  37
ATOM     37  C   UNL A   1      31.965  31.454  26.485  1.00  0.00     0.261 C 
BRANCH  37  38
ATOM     38  O   UNL A   1      32.664  31.669  27.728  1.00  0.00    -0.460 OA
BRANCH  38  39
ATOM     39  C   UNL A   1      33.602  32.636  27.704  1.00  0.00     0.338 C 
ATOM     40  O   UNL A   1      33.403  33.844  27.593  1.00  0.00    -0.246 OA
BRANCH  39  41
ATOM     41  C   UNL A   1      34.902  32.054  28.075  1.00  0.00     0.060 A 
ATOM     42  C   UNL A   1      34.962  30.670  28.263  1.00  0.00     0.016 A 
ATOM     43  C   UNL A   1      36.037  32.840  28.274  1.00  0.00     0.016 A 
ATOM     44  C   UNL A   1      36.151  30.070  28.670  1.00  0.00     0.010 A 
ATOM     45  C   UNL A   1      37.226  32.233  28.703  1.00  0.00     0.010 A 
ATOM     46  C   UNL A   1      37.284  30.846  28.922  1.00  0.00    -0.014 A 
BRANCH  46  47
ATOM     47  C   UNL A   1      38.446  30.221  29.605  1.00  0.00     0.031 A 
ATOM     48  C   UNL A   1      38.752  30.652  31.012  1.00  0.00     0.074 A 
ATOM     49  C   UNL A   1      39.159  29.227  29.044  1.00  0.00     0.049 A 
ATOM     50  N   UNL A   1      39.813  30.428  31.741  1.00  0.00    -0.248 NA
ATOM     51  C   UNL A   1      37.708  31.440  31.684  1.00  0.00     0.031 C 
ATOM     52  C   UNL A   1      38.863  28.588  27.763  1.00  0.00     0.029 A 
ATOM     53  N   UNL A   1      40.283  28.576  29.491  1.00  0.00    -0.354 N 
ATOM     54  C   UNL A   1      39.584  31.084  32.946  1.00  0.00     0.074 A 
ATOM     55  C   UNL A   1      38.285  31.714  32.845  1.00  0.00     0.031 C 
ATOM     56  C   UNL A   1      39.789  27.643  27.523  1.00  0.00     0.029 A 
ATOM     57  C   UNL A   1      40.790  27.669  28.589  1.00  0.00     0.049 A 
ATOM     58  H   UNL A   1      40.687  28.742  30.374  1.00  0.00     0.167 HD
ATOM     59  C   UNL A   1      40.393  31.159  34.031  1.00  0.00     0.034 A 
ATOM     60  C   UNL A   1      41.957  26.990  28.595  1.00  0.00     0.034 A 
ATOM     61  C   UNL A   1      41.679  30.510  34.113  1.00  0.00     0.049 A 
ATOM     62  C   UNL A   1      42.918  27.204  29.743  1.00  0.00     0.074 A 
ATOM     63  C   UNL A   1      42.615  30.568  35.130  1.00  0.00     0.029 A 
ATOM     64  N   UNL A   1      42.205  29.674  33.137  1.00  0.00    -0.354 N 
ATOM     65  N   UNL A   1      42.768  27.940  30.823  1.00  0.00    -0.248 NA
ATOM     66  C   UNL A   1      44.215  26.517  29.665  1.00  0.00     0.031 C 
ATOM     67  C   UNL A   1      43.731  29.817  34.742  1.00  0.00     0.029 A 
ATOM     68  C   UNL A   1      43.461  29.230  33.517  1.00  0.00     0.049 A 
ATOM     69  H   UNL A   1      41.753  29.432  32.297  1.00  0.00     0.167 HD
ATOM     70  C   UNL A   1      43.939  27.777  31.561  1.00  0.00     0.074 A 
ATOM     71  C   UNL A   1      44.780  26.870  30.810  1.00  0.00     0.031 C 
ATOM     72  C   UNL A   1      44.288  28.325  32.753  1.00  0.00     0.034 A 
BRANCH  59  73
ATOM     73  C   UNL A   1      39.944  32.052  35.161  1.00  0.00     0.023 A 
ATOM     74  C   UNL A   1      39.214  31.562  36.258  1.00  0.00     0.031 A 
ATOM     75  C   UNL A   1      40.196  33.435  35.099  1.00  0.00     0.131 A 
ATOM     76  C   UNL A   1      38.699  32.459  37.208  1.00  0.00     0.055 A 
ATOM     77  C   UNL A   1      39.753  34.310  36.091  1.00  0.00     0.041 A 
ATOM     78  F   UNL A   1      40.860  33.962  34.058  1.00  0.00    -0.206 F 
ATOM     79  C   UNL A   1      38.985  33.826  37.145  1.00  0.00     0.022 A 
BRANCH  76  80
ATOM     80  S   UNL A   1      37.517  31.839  38.437  1.00  0.00     0.124 S 
ATOM     81  O   UNL A   1      38.304  31.911  39.668  1.00  0.00    -0.237 OA
ATOM     82  O   UNL A   1      36.416  32.787  38.326  1.00  0.00    -0.237 OA
ATOM     83  O   UNL A   1      37.223  30.484  37.977  1.00  0.00    -0.744 OA
ENDBRANCH  76  80
ENDBRANCH  59  73
BRANCH  60  84
ATOM     84  C   UNL A   1      42.350  26.131  27.436  1.00  0.00     0.023 A 
ATOM     85  C   UNL A   1      41.997  24.773  27.377  1.00  0.00     0.031 A 
ATOM     86  C   UNL A   1      43.164  26.642  26.407  1.00  0.00     0.131 A 
ATOM     87  C   UNL A   1      42.494  23.965  26.341  1.00  0.00     0.055 A 
ATOM     88  C   UNL A   1      43.604  25.848  25.347  1.00  0.00     0.041 A 
ATOM     89  F   UNL A   1      43.551  27.928  26.420  1.00  0.00    -0.206 F 
ATOM     90  C   UNL A   1      43.281  24.496  25.317  1.00  0.00     0.022 A 
BRANCH  87  91
ATOM     91  S   UNL A   1      42.188  22.176  26.407  1.00  0.00     0.124 S 
ATOM     92  O   UNL A   1      42.490  21.875  27.802  1.00  0.00    -0.237 OA
ATOM     93  O   UNL A   1      40.784  22.093  26.021  1.00  0.00    -0.237 OA
ATOM     94  O   UNL A   1      43.133  21.633  25.433  1.00  0.00    -0.744 OA
ENDBRANCH  87  91
ENDBRANCH  60  84
BRANCH  72  95
ATOM     95  C   UNL A   1      45.613  27.908  33.342  1.00  0.00     0.023 A 
ATOM     96  C   UNL A   1      45.733  26.793  34.189  1.00  0.00     0.031 A 
ATOM     97  C   UNL A   1      46.776  28.640  33.039  1.00  0.00     0.131 A 
ATOM     98  C   UNL A   1      46.984  26.466  34.738  1.00  0.00     0.055 A 
ATOM     99  C   UNL A   1      48.024  28.279  33.547  1.00  0.00     0.041 A 
ATOM    100  F   UNL A   1      46.716  29.713  32.235  1.00  0.00    -0.206 F 
ATOM    101  C   UNL A   1      48.132  27.193  34.410  1.00  0.00     0.022 A 
BRANCH  98 102
ATOM    102  S   UNL A   1      47.084  25.113  35.942  1.00  0.00     0.124 S 
ATOM    103  O   UNL A   1      47.320  23.957  35.082  1.00  0.00    -0.237 OA
ATOM    104  O   UNL A   1      48.206  25.522  36.780  1.00  0.00    -0.237 OA
ATOM    105  O   UNL A   1      45.779  25.139  36.600  1.00  0.00    -0.744 OA
ENDBRANCH  98 102
ENDBRANCH  72  95
ENDBRANCH  46  47
ENDBRANCH  39  41
ENDBRANCH  38  39
ENDBRANCH  37  38
ENDBRANCH  36  37
ENDBRANCH  35  36
ENDBRANCH   1  35
TORSDOF 23
ENDMDL
