MODEL 1
REMARK VINA RESULT:      -9.8      0.000      0.000
REMARK SMILES Cc1cc([C@@H]([NH3+])C[C@H](C)CC(=O)OCCOCCOCCOC(=O)c2ccc(-c3c4nc(c(-c5cc(S(=O)(=O)[O-])ccc5F)c5ccc([nH]5)c(-c5cc(S(=O)(=O)[O-])ccc5F)c5nc(c(-c6cc(S(=O)(=O)[O-])ccc6F)c6ccc3[nH]6)C=C5)C=C4)cc2)ccc1F
REMARK SMILES IDX 17 1 16 2 15 3 14 4 13 5 11 6 12 7 10 8 8 9 9 10 7 11 5 12
REMARK SMILES IDX 4 13 1 14 2 15 3 16 90 17 89 18 91 19 88 20 6 21 18 25 19 26
REMARK SMILES IDX 20 27 21 28 22 29 23 30 24 31 25 32 26 33 87 34 27 35 86 36
REMARK SMILES IDX 28 37 29 38 30 39 80 40 31 41 85 42 79 43 81 44 32 45 84 46
REMARK SMILES IDX 78 47 77 48 33 50 65 51 45 52 64 53 46 54 49 55 63 56 82 57
REMARK SMILES IDX 47 58 48 59 62 61 83 62 50 63 34 64 35 65 43 66 36 67 42 68
REMARK SMILES IDX 44 69 41 70 37 71 38 72 39 73 40 74 66 75 67 76 75 77 68 78
REMARK SMILES IDX 74 79 76 80 73 81 69 82 70 83 71 84 72 85 51 86 52 87 60 88
REMARK SMILES IDX 53 89 59 90 61 91 58 92 54 93 55 94 56 95 57 96
REMARK H PARENT 6 22 6 23 6 24 81 49 49 60
REMARK Flexibility Score: inf
ROOT
ATOM      1  C   UNL A   1      32.433  29.451  25.789  1.00  0.00     0.188 C 
ENDROOT
BRANCH   1   2
ATOM      2  O   UNL A   1      33.644  28.711  25.592  1.00  0.00    -0.376 OA
BRANCH   2   3
ATOM      3  C   UNL A   1      33.542  27.586  24.728  1.00  0.00     0.202 C 
BRANCH   3   4
ATOM      4  C   UNL A   1      33.361  26.243  25.441  1.00  0.00     0.261 C 
BRANCH   4   5
ATOM      5  O   UNL A   1      34.064  25.166  24.799  1.00  0.00    -0.463 OA
BRANCH   5   6
ATOM      6  C   UNL A   1      33.529  24.681  23.646  1.00  0.00     0.306 C 
ATOM      7  O   UNL A   1      34.123  24.623  22.575  1.00  0.00    -0.252 OA
BRANCH   6   8
ATOM      8  C   UNL A   1      32.122  24.119  23.826  1.00  0.00     0.126 C 
BRANCH   8   9
ATOM      9  C   UNL A   1      32.000  22.601  24.076  1.00  0.00     0.003 C 
ATOM     10  C   UNL A   1      32.386  21.841  22.800  1.00  0.00     0.008 C 
BRANCH   9  11
ATOM     11  C   UNL A   1      32.851  22.186  25.306  1.00  0.00     0.074 C 
BRANCH  11  12
ATOM     12  C   UNL A   1      33.686  20.889  25.134  1.00  0.00     0.212 C 
BRANCH  12  13
ATOM     13  C   UNL A   1      35.189  21.115  25.142  1.00  0.00     0.010 A 
ATOM     14  C   UNL A   1      37.647  23.921  25.959  1.00  0.00     0.047 C 
ATOM     15  C   UNL A   1      37.090  22.591  25.560  1.00  0.00    -0.015 A 
ATOM     16  C   UNL A   1      35.708  22.389  25.441  1.00  0.00     0.016 A 
ATOM     17  C   UNL A   1      37.945  21.506  25.355  1.00  0.00     0.126 A 
ATOM     18  C   UNL A   1      37.456  20.249  25.020  1.00  0.00     0.040 A 
ATOM     19  F   UNL A   1      39.270  21.666  25.499  1.00  0.00    -0.207 F 
ATOM     20  C   UNL A   1      36.080  20.054  24.915  1.00  0.00     0.013 A 
ENDBRANCH  12  13
BRANCH  12  21
ATOM     21  N   UNL A   1      33.308  19.966  26.211  1.00  0.00    -0.351 N 
ATOM     22  H   UNL A   1      32.465  19.459  25.943  1.00  0.00     0.345 HD
ATOM     23  H   UNL A   1      33.131  20.493  27.065  1.00  0.00     0.345 HD
ATOM     24  H   UNL A   1      34.067  19.303  26.371  1.00  0.00     0.345 HD
ENDBRANCH  12  21
ENDBRANCH  11  12
ENDBRANCH   9  11
ENDBRANCH   8   9
ENDBRANCH   6   8
ENDBRANCH   5   6
ENDBRANCH   4   5
ENDBRANCH   3   4
ENDBRANCH   2   3
ENDBRANCH   1   2
BRANCH   1  25
ATOM     25  C   UNL A   1      32.340  30.192  27.123  1.00  0.00     0.188 C 
BRANCH  25  26
ATOM     26  O   UNL A   1      32.293  31.613  27.175  1.00  0.00    -0.376 OA
BRANCH  26  27
ATOM     27  C   UNL A   1      33.491  32.289  27.594  1.00  0.00     0.202 C 
BRANCH  27  28
ATOM     28  C   UNL A   1      34.810  31.577  27.981  1.00  0.00     0.261 C 
BRANCH  28  29
ATOM     29  O   UNL A   1      35.812  32.448  28.497  1.00  0.00    -0.460 OA
BRANCH  29  30
ATOM     30  C   UNL A   1      36.953  31.777  28.765  1.00  0.00     0.338 C 
ATOM     31  O   UNL A   1      37.923  32.214  29.385  1.00  0.00    -0.246 OA
BRANCH  30  32
ATOM     32  C   UNL A   1      36.825  30.359  28.363  1.00  0.00     0.060 A 
ATOM     33  C   UNL A   1      36.714  29.484  29.462  1.00  0.00     0.016 A 
ATOM     34  C   UNL A   1      37.585  30.054  27.244  1.00  0.00     0.016 A 
ATOM     35  C   UNL A   1      37.766  28.653  29.716  1.00  0.00     0.010 A 
ATOM     36  C   UNL A   1      38.633  29.215  27.487  1.00  0.00     0.010 A 
ATOM     37  C   UNL A   1      38.779  28.682  28.783  1.00  0.00    -0.014 A 
BRANCH  37  38
ATOM     38  C   UNL A   1      40.113  28.291  29.126  1.00  0.00     0.031 A 
ATOM     39  C   UNL A   1      40.482  26.907  28.873  1.00  0.00     0.074 A 
ATOM     40  C   UNL A   1      40.980  29.303  29.344  1.00  0.00     0.049 A 
ATOM     41  N   UNL A   1      41.623  26.408  29.167  1.00  0.00    -0.248 NA
ATOM     42  C   UNL A   1      39.543  25.954  28.289  1.00  0.00     0.031 C 
ATOM     43  C   UNL A   1      42.397  29.322  29.037  1.00  0.00     0.029 A 
ATOM     44  N   UNL A   1      40.755  30.509  30.023  1.00  0.00    -0.354 N 
ATOM     45  C   UNL A   1      41.700  25.214  28.492  1.00  0.00     0.074 A 
ATOM     46  C   UNL A   1      40.347  24.908  28.090  1.00  0.00     0.031 C 
ATOM     47  C   UNL A   1      42.968  30.336  29.706  1.00  0.00     0.029 A 
ATOM     48  C   UNL A   1      41.974  30.845  30.639  1.00  0.00     0.049 A 
ATOM     49  H   UNL A   1      39.913  31.019  30.059  1.00  0.00     0.167 HD
ATOM     50  C   UNL A   1      42.937  24.737  28.187  1.00  0.00     0.034 A 
ATOM     51  C   UNL A   1      42.143  30.893  31.997  1.00  0.00     0.034 A 
ATOM     52  C   UNL A   1      43.978  25.567  28.809  1.00  0.00     0.049 A 
ATOM     53  C   UNL A   1      43.122  29.848  32.517  1.00  0.00     0.074 A 
ATOM     54  C   UNL A   1      44.789  26.595  28.355  1.00  0.00     0.029 A 
ATOM     55  N   UNL A   1      44.019  25.641  30.194  1.00  0.00    -0.354 N 
ATOM     56  N   UNL A   1      43.726  28.966  31.770  1.00  0.00    -0.248 NA
ATOM     57  C   UNL A   1      43.394  29.646  33.941  1.00  0.00     0.031 C 
ATOM     58  C   UNL A   1      45.306  27.291  29.490  1.00  0.00     0.029 A 
ATOM     59  C   UNL A   1      44.824  26.678  30.632  1.00  0.00     0.049 A 
ATOM     60  H   UNL A   1      43.533  25.028  30.793  1.00  0.00     0.167 HD
ATOM     61  C   UNL A   1      44.348  28.043  32.563  1.00  0.00     0.074 A 
ATOM     62  C   UNL A   1      44.134  28.524  33.917  1.00  0.00     0.031 C 
ATOM     63  C   UNL A   1      44.941  26.920  32.064  1.00  0.00     0.034 A 
BRANCH  50  64
ATOM     64  C   UNL A   1      43.183  23.708  27.109  1.00  0.00     0.023 A 
ATOM     65  C   UNL A   1      42.959  22.321  27.265  1.00  0.00     0.031 A 
ATOM     66  C   UNL A   1      43.597  24.109  25.824  1.00  0.00     0.131 A 
ATOM     67  C   UNL A   1      43.035  21.431  26.179  1.00  0.00     0.055 A 
ATOM     68  C   UNL A   1      43.725  23.217  24.754  1.00  0.00     0.041 A 
ATOM     69  F   UNL A   1      43.863  25.391  25.538  1.00  0.00    -0.206 F 
ATOM     70  C   UNL A   1      43.421  21.874  24.920  1.00  0.00     0.022 A 
BRANCH  67  71
ATOM     71  S   UNL A   1      42.550  19.688  26.356  1.00  0.00     0.124 S 
ATOM     72  O   UNL A   1      42.006  19.653  27.711  1.00  0.00    -0.237 OA
ATOM     73  O   UNL A   1      41.571  19.526  25.287  1.00  0.00    -0.237 OA
ATOM     74  O   UNL A   1      43.802  18.955  26.181  1.00  0.00    -0.744 OA
ENDBRANCH  67  71
ENDBRANCH  50  64
BRANCH  51  75
ATOM     75  C   UNL A   1      40.919  31.283  32.744  1.00  0.00     0.023 A 
ATOM     76  C   UNL A   1      40.852  32.560  33.321  1.00  0.00     0.031 A 
ATOM     77  C   UNL A   1      40.042  30.283  33.207  1.00  0.00     0.131 A 
ATOM     78  C   UNL A   1      40.028  32.767  34.432  1.00  0.00     0.055 A 
ATOM     79  C   UNL A   1      39.202  30.503  34.298  1.00  0.00     0.041 A 
ATOM     80  F   UNL A   1      40.072  29.052  32.672  1.00  0.00    -0.206 F 
ATOM     81  C   UNL A   1      39.225  31.740  34.938  1.00  0.00     0.022 A 
BRANCH  78  82
ATOM     82  S   UNL A   1      40.142  34.327  35.343  1.00  0.00     0.124 S 
ATOM     83  O   UNL A   1      40.429  35.270  34.266  1.00  0.00    -0.237 OA
ATOM     84  O   UNL A   1      38.811  34.460  35.936  1.00  0.00    -0.237 OA
ATOM     85  O   UNL A   1      41.212  34.096  36.296  1.00  0.00    -0.744 OA
ENDBRANCH  78  82
ENDBRANCH  51  75
BRANCH  63  86
ATOM     86  C   UNL A   1      45.682  25.927  32.917  1.00  0.00     0.023 A 
ATOM     87  C   UNL A   1      44.972  25.016  33.728  1.00  0.00     0.031 A 
ATOM     88  C   UNL A   1      47.071  25.741  32.835  1.00  0.00     0.131 A 
ATOM     89  C   UNL A   1      45.626  23.993  34.420  1.00  0.00     0.055 A 
ATOM     90  C   UNL A   1      47.733  24.749  33.567  1.00  0.00     0.041 A 
ATOM     91  F   UNL A   1      47.821  26.480  32.002  1.00  0.00    -0.206 F 
ATOM     92  C   UNL A   1      47.010  23.866  34.361  1.00  0.00     0.022 A 
BRANCH  89  93
ATOM     93  S   UNL A   1      44.680  22.740  35.328  1.00  0.00     0.124 S 
ATOM     94  O   UNL A   1      44.757  21.593  34.425  1.00  0.00    -0.237 OA
ATOM     95  O   UNL A   1      45.454  22.618  36.560  1.00  0.00    -0.237 OA
ATOM     96  O   UNL A   1      43.357  23.336  35.471  1.00  0.00    -0.744 OA
ENDBRANCH  89  93
ENDBRANCH  63  86
ENDBRANCH  37  38
ENDBRANCH  30  32
ENDBRANCH  29  30
ENDBRANCH  28  29
ENDBRANCH  27  28
ENDBRANCH  26  27
ENDBRANCH  25  26
ENDBRANCH   1  25
TORSDOF 25
ENDMDL
MODEL 2
REMARK VINA RESULT:      -9.4      3.897      9.920
REMARK SMILES Cc1cc([C@@H]([NH3+])C[C@H](C)CC(=O)OCCOCCOCCOC(=O)c2ccc(-c3c4nc(c(-c5cc(S(=O)(=O)[O-])ccc5F)c5ccc([nH]5)c(-c5cc(S(=O)(=O)[O-])ccc5F)c5nc(c(-c6cc(S(=O)(=O)[O-])ccc6F)c6ccc3[nH]6)C=C5)C=C4)cc2)ccc1F
REMARK SMILES IDX 17 1 16 2 15 3 14 4 13 5 11 6 12 7 10 8 8 9 9 10 7 11 5 12
REMARK SMILES IDX 4 13 1 14 2 15 3 16 90 17 89 18 91 19 88 20 6 21 18 25 19 26
REMARK SMILES IDX 20 27 21 28 22 29 23 30 24 31 25 32 26 33 87 34 27 35 86 36
REMARK SMILES IDX 28 37 29 38 30 39 80 40 31 41 85 42 79 43 81 44 32 45 84 46
REMARK SMILES IDX 78 47 77 48 33 50 65 51 45 52 64 53 46 54 49 55 63 56 82 57
REMARK SMILES IDX 47 58 48 59 62 61 83 62 50 63 34 64 35 65 43 66 36 67 42 68
REMARK SMILES IDX 44 69 41 70 37 71 38 72 39 73 40 74 66 75 67 76 75 77 68 78
REMARK SMILES IDX 74 79 76 80 73 81 69 82 70 83 71 84 72 85 51 86 52 87 60 88
REMARK SMILES IDX 53 89 59 90 61 91 58 92 54 93 55 94 56 95 57 96
REMARK H PARENT 6 22 6 23 6 24 81 49 49 60
REMARK Flexibility Score: inf
ROOT
ATOM      1  C   UNL A   1      34.082  19.438  25.003  1.00  0.00     0.188 C 
ENDROOT
BRANCH   1   2
ATOM      2  O   UNL A   1      32.813  19.780  24.435  1.00  0.00    -0.376 OA
BRANCH   2   3
ATOM      3  C   UNL A   1      32.748  21.048  23.794  1.00  0.00     0.202 C 
BRANCH   3   4
ATOM      4  C   UNL A   1      31.768  22.039  24.429  1.00  0.00     0.261 C 
BRANCH   4   5
ATOM      5  O   UNL A   1      31.616  21.851  25.846  1.00  0.00    -0.463 OA
BRANCH   5   6
ATOM      6  C   UNL A   1      31.776  22.948  26.635  1.00  0.00     0.306 C 
ATOM      7  O   UNL A   1      30.873  23.487  27.267  1.00  0.00    -0.252 OA
BRANCH   6   8
ATOM      8  C   UNL A   1      33.227  23.408  26.739  1.00  0.00     0.126 C 
BRANCH   8   9
ATOM      9  C   UNL A   1      33.579  24.768  26.098  1.00  0.00     0.003 C 
ATOM     10  C   UNL A   1      34.910  24.648  25.344  1.00  0.00     0.008 C 
BRANCH   9  11
ATOM     11  C   UNL A   1      32.415  25.256  25.193  1.00  0.00     0.074 C 
BRANCH  11  12
ATOM     12  C   UNL A   1      31.783  26.615  25.593  1.00  0.00     0.212 C 
BRANCH  12  13
ATOM     13  C   UNL A   1      31.342  27.464  24.412  1.00  0.00     0.010 A 
ATOM     14  C   UNL A   1      28.088  28.741  22.875  1.00  0.00     0.047 C 
ATOM     15  C   UNL A   1      29.543  28.495  23.121  1.00  0.00    -0.015 A 
ATOM     16  C   UNL A   1      29.972  27.630  24.137  1.00  0.00     0.016 A 
ATOM     17  C   UNL A   1      30.505  29.176  22.372  1.00  0.00     0.126 A 
ATOM     18  C   UNL A   1      31.864  28.997  22.601  1.00  0.00     0.040 A 
ATOM     19  F   UNL A   1      30.118  30.037  21.418  1.00  0.00    -0.207 F 
ATOM     20  C   UNL A   1      32.281  28.144  23.619  1.00  0.00     0.013 A 
ENDBRANCH  12  13
BRANCH  12  21
ATOM     21  N   UNL A   1      30.640  26.338  26.471  1.00  0.00    -0.351 N 
ATOM     22  H   UNL A   1      29.935  27.065  26.350  1.00  0.00     0.345 HD
ATOM     23  H   UNL A   1      30.952  26.325  27.441  1.00  0.00     0.345 HD
ATOM     24  H   UNL A   1      30.239  25.432  26.230  1.00  0.00     0.345 HD
ENDBRANCH  12  21
ENDBRANCH  11  12
ENDBRANCH   9  11
ENDBRANCH   8   9
ENDBRANCH   6   8
ENDBRANCH   5   6
ENDBRANCH   4   5
ENDBRANCH   3   4
ENDBRANCH   2   3
ENDBRANCH   1   2
BRANCH   1  25
ATOM     25  C   UNL A   1      35.114  20.566  25.005  1.00  0.00     0.188 C 
BRANCH  25  26
ATOM     26  O   UNL A   1      36.509  20.289  24.986  1.00  0.00    -0.376 OA
BRANCH  26  27
ATOM     27  C   UNL A   1      37.388  21.392  24.705  1.00  0.00     0.202 C 
BRANCH  27  28
ATOM     28  C   UNL A   1      37.865  22.424  25.757  1.00  0.00     0.261 C 
BRANCH  28  29
ATOM     29  O   UNL A   1      39.141  22.135  26.319  1.00  0.00    -0.460 OA
BRANCH  29  30
ATOM     30  C   UNL A   1      39.643  23.206  26.971  1.00  0.00     0.338 C 
ATOM     31  O   UNL A   1      38.994  24.046  27.594  1.00  0.00    -0.246 OA
BRANCH  30  32
ATOM     32  C   UNL A   1      41.122  23.152  26.990  1.00  0.00     0.060 A 
ATOM     33  C   UNL A   1      41.653  23.096  28.294  1.00  0.00     0.016 A 
ATOM     34  C   UNL A   1      41.694  23.920  25.987  1.00  0.00     0.016 A 
ATOM     35  C   UNL A   1      42.323  24.193  28.751  1.00  0.00     0.010 A 
ATOM     36  C   UNL A   1      42.376  25.014  26.436  1.00  0.00     0.010 A 
ATOM     37  C   UNL A   1      42.510  25.197  27.826  1.00  0.00    -0.014 A 
BRANCH  37  38
ATOM     38  C   UNL A   1      42.721  26.553  28.237  1.00  0.00     0.031 A 
ATOM     39  C   UNL A   1      41.547  27.406  28.327  1.00  0.00     0.074 A 
ATOM     40  C   UNL A   1      43.920  26.810  28.801  1.00  0.00     0.049 A 
ATOM     41  N   UNL A   1      41.590  28.646  28.639  1.00  0.00    -0.248 NA
ATOM     42  C   UNL A   1      40.208  26.911  28.020  1.00  0.00     0.031 C 
ATOM     43  C   UNL A   1      44.200  27.757  29.863  1.00  0.00     0.029 A 
ATOM     44  N   UNL A   1      45.181  26.332  28.420  1.00  0.00    -0.354 N 
ATOM     45  C   UNL A   1      40.298  29.008  28.934  1.00  0.00     0.074 A 
ATOM     46  C   UNL A   1      39.468  27.955  28.398  1.00  0.00     0.031 C 
ATOM     47  C   UNL A   1      45.524  27.977  29.904  1.00  0.00     0.029 A 
ATOM     48  C   UNL A   1      46.097  27.358  28.718  1.00  0.00     0.049 A 
ATOM     49  H   UNL A   1      45.386  25.454  28.024  1.00  0.00     0.167 HD
ATOM     50  C   UNL A   1      40.111  30.060  29.776  1.00  0.00     0.034 A 
ATOM     51  C   UNL A   1      46.810  28.031  27.763  1.00  0.00     0.034 A 
ATOM     52  C   UNL A   1      41.393  30.710  30.082  1.00  0.00     0.049 A 
ATOM     53  C   UNL A   1      46.452  29.510  27.679  1.00  0.00     0.074 A 
ATOM     54  C   UNL A   1      42.280  30.637  31.144  1.00  0.00     0.029 A 
ATOM     55  N   UNL A   1      42.104  31.285  29.039  1.00  0.00    -0.354 N 
ATOM     56  N   UNL A   1      45.540  30.091  28.407  1.00  0.00    -0.248 NA
ATOM     57  C   UNL A   1      47.015  30.413  26.673  1.00  0.00     0.031 C 
ATOM     58  C   UNL A   1      43.535  31.166  30.716  1.00  0.00     0.029 A 
ATOM     59  C   UNL A   1      43.407  31.575  29.401  1.00  0.00     0.049 A 
ATOM     60  H   UNL A   1      41.725  31.464  28.147  1.00  0.00     0.167 HD
ATOM     61  C   UNL A   1      45.307  31.351  27.931  1.00  0.00     0.074 A 
ATOM     62  C   UNL A   1      46.273  31.518  26.859  1.00  0.00     0.031 C 
ATOM     63  C   UNL A   1      44.303  32.146  28.403  1.00  0.00     0.034 A 
BRANCH  50  64
ATOM     64  C   UNL A   1      38.820  30.301  30.523  1.00  0.00     0.023 A 
ATOM     65  C   UNL A   1      37.854  31.264  30.155  1.00  0.00     0.031 A 
ATOM     66  C   UNL A   1      38.476  29.495  31.625  1.00  0.00     0.131 A 
ATOM     67  C   UNL A   1      36.595  31.327  30.777  1.00  0.00     0.055 A 
ATOM     68  C   UNL A   1      37.243  29.591  32.280  1.00  0.00     0.041 A 
ATOM     69  F   UNL A   1      39.304  28.552  32.095  1.00  0.00    -0.206 F 
ATOM     70  C   UNL A   1      36.285  30.493  31.845  1.00  0.00     0.022 A 
BRANCH  67  71
ATOM     71  S   UNL A   1      35.294  32.437  30.160  1.00  0.00     0.124 S 
ATOM     72  O   UNL A   1      36.052  33.634  29.801  1.00  0.00    -0.237 OA
ATOM     73  O   UNL A   1      34.749  31.684  29.035  1.00  0.00    -0.237 OA
ATOM     74  O   UNL A   1      34.399  32.601  31.303  1.00  0.00    -0.744 OA
ENDBRANCH  67  71
ENDBRANCH  50  64
BRANCH  51  75
ATOM     75  C   UNL A   1      47.131  27.217  26.563  1.00  0.00     0.023 A 
ATOM     76  C   UNL A   1      46.287  26.150  26.220  1.00  0.00     0.031 A 
ATOM     77  C   UNL A   1      48.436  27.245  26.035  1.00  0.00     0.131 A 
ATOM     78  C   UNL A   1      46.804  25.076  25.488  1.00  0.00     0.055 A 
ATOM     79  C   UNL A   1      48.939  26.184  25.284  1.00  0.00     0.041 A 
ATOM     80  F   UNL A   1      49.269  28.255  26.337  1.00  0.00    -0.206 F 
ATOM     81  C   UNL A   1      48.130  25.076  25.043  1.00  0.00     0.022 A 
BRANCH  78  82
ATOM     82  S   UNL A   1      45.803  23.582  25.277  1.00  0.00     0.124 S 
ATOM     83  O   UNL A   1      45.266  23.402  26.622  1.00  0.00    -0.237 OA
ATOM     84  O   UNL A   1      44.818  23.985  24.272  1.00  0.00    -0.237 OA
ATOM     85  O   UNL A   1      46.757  22.586  24.827  1.00  0.00    -0.744 OA
ENDBRANCH  78  82
ENDBRANCH  51  75
BRANCH  63  86
ATOM     86  C   UNL A   1      44.074  33.555  27.932  1.00  0.00     0.023 A 
ATOM     87  C   UNL A   1      44.309  34.643  28.800  1.00  0.00     0.031 A 
ATOM     88  C   UNL A   1      43.784  33.872  26.595  1.00  0.00     0.131 A 
ATOM     89  C   UNL A   1      44.242  35.964  28.349  1.00  0.00     0.055 A 
ATOM     90  C   UNL A   1      43.666  35.195  26.154  1.00  0.00     0.041 A 
ATOM     91  F   UNL A   1      43.658  32.912  25.666  1.00  0.00    -0.206 F 
ATOM     92  C   UNL A   1      43.900  36.249  27.030  1.00  0.00     0.022 A 
BRANCH  89  93
ATOM     93  S   UNL A   1      44.702  37.338  29.439  1.00  0.00     0.124 S 
ATOM     94  O   UNL A   1      43.484  38.147  29.433  1.00  0.00    -0.237 OA
ATOM     95  O   UNL A   1      44.985  36.643  30.691  1.00  0.00    -0.237 OA
ATOM     96  O   UNL A   1      45.854  37.939  28.778  1.00  0.00    -0.744 OA
ENDBRANCH  89  93
ENDBRANCH  63  86
ENDBRANCH  37  38
ENDBRANCH  30  32
ENDBRANCH  29  30
ENDBRANCH  28  29
ENDBRANCH  27  28
ENDBRANCH  26  27
ENDBRANCH  25  26
ENDBRANCH   1  25
TORSDOF 25
ENDMDL
MODEL 3
REMARK VINA RESULT:      -9.3      1.899      2.540
REMARK SMILES Cc1cc([C@@H]([NH3+])C[C@H](C)CC(=O)OCCOCCOCCOC(=O)c2ccc(-c3c4nc(c(-c5cc(S(=O)(=O)[O-])ccc5F)c5ccc([nH]5)c(-c5cc(S(=O)(=O)[O-])ccc5F)c5nc(c(-c6cc(S(=O)(=O)[O-])ccc6F)c6ccc3[nH]6)C=C5)C=C4)cc2)ccc1F
REMARK SMILES IDX 17 1 16 2 15 3 14 4 13 5 11 6 12 7 10 8 8 9 9 10 7 11 5 12
REMARK SMILES IDX 4 13 1 14 2 15 3 16 90 17 89 18 91 19 88 20 6 21 18 25 19 26
REMARK SMILES IDX 20 27 21 28 22 29 23 30 24 31 25 32 26 33 87 34 27 35 86 36
REMARK SMILES IDX 28 37 29 38 30 39 80 40 31 41 85 42 79 43 81 44 32 45 84 46
REMARK SMILES IDX 78 47 77 48 33 50 65 51 45 52 64 53 46 54 49 55 63 56 82 57
REMARK SMILES IDX 47 58 48 59 62 61 83 62 50 63 34 64 35 65 43 66 36 67 42 68
REMARK SMILES IDX 44 69 41 70 37 71 38 72 39 73 40 74 66 75 67 76 75 77 68 78
REMARK SMILES IDX 74 79 76 80 73 81 69 82 70 83 71 84 72 85 51 86 52 87 60 88
REMARK SMILES IDX 53 89 59 90 61 91 58 92 54 93 55 94 56 95 57 96
REMARK H PARENT 6 22 6 23 6 24 81 49 49 60
REMARK Flexibility Score: inf
ROOT
ATOM      1  C   UNL A   1      32.382  29.639  25.312  1.00  0.00     0.188 C 
ENDROOT
BRANCH   1   2
ATOM      2  O   UNL A   1      33.505  28.874  24.860  1.00  0.00    -0.376 OA
BRANCH   2   3
ATOM      3  C   UNL A   1      33.202  27.800  23.979  1.00  0.00     0.202 C 
BRANCH   3   4
ATOM      4  C   UNL A   1      33.695  26.427  24.447  1.00  0.00     0.261 C 
BRANCH   4   5
ATOM      5  O   UNL A   1      32.757  25.372  24.179  1.00  0.00    -0.463 OA
BRANCH   5   6
ATOM      6  C   UNL A   1      31.605  25.370  24.904  1.00  0.00     0.306 C 
ATOM      7  O   UNL A   1      30.479  25.384  24.419  1.00  0.00    -0.252 OA
BRANCH   6   8
ATOM      8  C   UNL A   1      31.841  25.259  26.407  1.00  0.00     0.126 C 
BRANCH   8   9
ATOM      9  C   UNL A   1      32.017  23.838  26.985  1.00  0.00     0.003 C 
ATOM     10  C   UNL A   1      30.744  23.020  26.725  1.00  0.00     0.008 C 
BRANCH   9  11
ATOM     11  C   UNL A   1      33.292  23.171  26.402  1.00  0.00     0.074 C 
BRANCH  11  12
ATOM     12  C   UNL A   1      33.448  21.656  26.695  1.00  0.00     0.212 C 
BRANCH  12  13
ATOM     13  C   UNL A   1      32.998  20.755  25.556  1.00  0.00     0.010 A 
ATOM     14  C   UNL A   1      31.949  21.090  21.900  1.00  0.00     0.047 C 
ATOM     15  C   UNL A   1      32.290  20.502  23.232  1.00  0.00    -0.015 A 
ATOM     16  C   UNL A   1      32.603  21.318  24.328  1.00  0.00     0.016 A 
ATOM     17  C   UNL A   1      32.360  19.116  23.389  1.00  0.00     0.126 A 
ATOM     18  C   UNL A   1      32.710  18.539  24.604  1.00  0.00     0.040 A 
ATOM     19  F   UNL A   1      32.100  18.314  22.344  1.00  0.00    -0.207 F 
ATOM     20  C   UNL A   1      33.030  19.358  25.684  1.00  0.00     0.013 A 
ENDBRANCH  12  13
BRANCH  12  21
ATOM     21  N   UNL A   1      34.858  21.403  27.014  1.00  0.00    -0.351 N 
ATOM     22  H   UNL A   1      35.432  21.597  26.193  1.00  0.00     0.345 HD
ATOM     23  H   UNL A   1      34.975  20.428  27.288  1.00  0.00     0.345 HD
ATOM     24  H   UNL A   1      35.147  22.009  27.781  1.00  0.00     0.345 HD
ENDBRANCH  12  21
ENDBRANCH  11  12
ENDBRANCH   9  11
ENDBRANCH   8   9
ENDBRANCH   6   8
ENDBRANCH   5   6
ENDBRANCH   4   5
ENDBRANCH   3   4
ENDBRANCH   2   3
ENDBRANCH   1   2
BRANCH   1  25
ATOM     25  C   UNL A   1      32.530  30.238  26.710  1.00  0.00     0.188 C 
BRANCH  25  26
ATOM     26  O   UNL A   1      32.317  31.625  26.944  1.00  0.00    -0.376 OA
BRANCH  26  27
ATOM     27  C   UNL A   1      33.335  32.326  27.680  1.00  0.00     0.202 C 
BRANCH  27  28
ATOM     28  C   UNL A   1      34.581  31.655  28.308  1.00  0.00     0.261 C 
BRANCH  28  29
ATOM     29  O   UNL A   1      35.692  32.530  28.475  1.00  0.00    -0.460 OA
BRANCH  29  30
ATOM     30  C   UNL A   1      36.805  31.849  28.823  1.00  0.00     0.338 C 
ATOM     31  O   UNL A   1      37.748  32.287  29.482  1.00  0.00    -0.246 OA
BRANCH  30  32
ATOM     32  C   UNL A   1      36.674  30.422  28.452  1.00  0.00     0.060 A 
ATOM     33  C   UNL A   1      36.595  29.569  29.570  1.00  0.00     0.016 A 
ATOM     34  C   UNL A   1      37.407  30.098  27.320  1.00  0.00     0.016 A 
ATOM     35  C   UNL A   1      37.657  28.748  29.815  1.00  0.00     0.010 A 
ATOM     36  C   UNL A   1      38.465  29.269  27.554  1.00  0.00     0.010 A 
ATOM     37  C   UNL A   1      38.646  28.763  28.856  1.00  0.00    -0.014 A 
BRANCH  37  38
ATOM     38  C   UNL A   1      39.991  28.384  29.173  1.00  0.00     0.031 A 
ATOM     39  C   UNL A   1      40.373  27.009  28.896  1.00  0.00     0.074 A 
ATOM     40  C   UNL A   1      40.848  29.405  29.389  1.00  0.00     0.049 A 
ATOM     41  N   UNL A   1      41.524  26.521  29.166  1.00  0.00    -0.248 NA
ATOM     42  C   UNL A   1      39.436  26.050  28.317  1.00  0.00     0.031 C 
ATOM     43  C   UNL A   1      42.260  29.445  29.060  1.00  0.00     0.029 A 
ATOM     44  N   UNL A   1      40.618  30.600  30.086  1.00  0.00    -0.354 N 
ATOM     45  C   UNL A   1      41.605  25.336  28.476  1.00  0.00     0.074 A 
ATOM     46  C   UNL A   1      40.250  25.018  28.091  1.00  0.00     0.031 C 
ATOM     47  C   UNL A   1      42.828  30.459  29.732  1.00  0.00     0.029 A 
ATOM     48  C   UNL A   1      41.843  30.944  30.687  1.00  0.00     0.049 A 
ATOM     49  H   UNL A   1      39.772  31.099  30.143  1.00  0.00     0.167 HD
ATOM     50  C   UNL A   1      42.844  24.879  28.145  1.00  0.00     0.034 A 
ATOM     51  C   UNL A   1      42.033  30.977  32.043  1.00  0.00     0.034 A 
ATOM     52  C   UNL A   1      43.883  25.714  28.761  1.00  0.00     0.049 A 
ATOM     53  C   UNL A   1      43.034  29.939  32.534  1.00  0.00     0.074 A 
ATOM     54  C   UNL A   1      44.674  26.758  28.307  1.00  0.00     0.029 A 
ATOM     55  N   UNL A   1      43.946  25.772  30.145  1.00  0.00    -0.354 N 
ATOM     56  N   UNL A   1      43.636  29.074  31.767  1.00  0.00    -0.248 NA
ATOM     57  C   UNL A   1      43.331  29.723  33.951  1.00  0.00     0.031 C 
ATOM     58  C   UNL A   1      45.200  27.447  29.441  1.00  0.00     0.029 A 
ATOM     59  C   UNL A   1      44.744  26.814  30.583  1.00  0.00     0.049 A 
ATOM     60  H   UNL A   1      43.478  25.145  30.744  1.00  0.00     0.167 HD
ATOM     61  C   UNL A   1      44.283  28.149  32.538  1.00  0.00     0.074 A 
ATOM     62  C   UNL A   1      44.085  28.611  33.901  1.00  0.00     0.031 C 
ATOM     63  C   UNL A   1      44.882  27.040  32.016  1.00  0.00     0.034 A 
BRANCH  50  64
ATOM     64  C   UNL A   1      43.085  23.865  27.051  1.00  0.00     0.023 A 
ATOM     65  C   UNL A   1      42.879  22.475  27.192  1.00  0.00     0.031 A 
ATOM     66  C   UNL A   1      43.475  24.288  25.765  1.00  0.00     0.131 A 
ATOM     67  C   UNL A   1      42.949  21.599  26.094  1.00  0.00     0.055 A 
ATOM     68  C   UNL A   1      43.596  23.410  24.682  1.00  0.00     0.041 A 
ATOM     69  F   UNL A   1      43.721  25.576  25.491  1.00  0.00    -0.206 F 
ATOM     70  C   UNL A   1      43.311  22.062  24.835  1.00  0.00     0.022 A 
BRANCH  67  71
ATOM     71  S   UNL A   1      42.487  19.848  26.256  1.00  0.00     0.124 S 
ATOM     72  O   UNL A   1      43.683  19.166  25.766  1.00  0.00    -0.237 OA
ATOM     73  O   UNL A   1      42.240  19.721  27.689  1.00  0.00    -0.237 OA
ATOM     74  O   UNL A   1      41.312  19.714  25.399  1.00  0.00    -0.744 OA
ENDBRANCH  67  71
ENDBRANCH  50  64
BRANCH  51  75
ATOM     75  C   UNL A   1      40.817  31.343  32.813  1.00  0.00     0.023 A 
ATOM     76  C   UNL A   1      40.702  32.643  33.326  1.00  0.00     0.031 A 
ATOM     77  C   UNL A   1      40.011  30.325  33.360  1.00  0.00     0.131 A 
ATOM     78  C   UNL A   1      39.906  32.866  34.455  1.00  0.00     0.055 A 
ATOM     79  C   UNL A   1      39.200  30.559  34.470  1.00  0.00     0.041 A 
ATOM     80  F   UNL A   1      40.090  29.070  32.889  1.00  0.00    -0.206 F 
ATOM     81  C   UNL A   1      39.178  31.828  35.043  1.00  0.00     0.022 A 
BRANCH  78  82
ATOM     82  S   UNL A   1      39.968  34.477  35.279  1.00  0.00     0.124 S 
ATOM     83  O   UNL A   1      39.589  34.118  36.642  1.00  0.00    -0.237 OA
ATOM     84  O   UNL A   1      41.366  34.878  35.116  1.00  0.00    -0.237 OA
ATOM     85  O   UNL A   1      39.015  35.283  34.539  1.00  0.00    -0.744 OA
ENDBRANCH  78  82
ENDBRANCH  51  75
BRANCH  63  86
ATOM     86  C   UNL A   1      45.648  26.046  32.845  1.00  0.00     0.023 A 
ATOM     87  C   UNL A   1      47.037  26.205  33.042  1.00  0.00     0.031 A 
ATOM     88  C   UNL A   1      45.023  25.031  33.586  1.00  0.00     0.131 A 
ATOM     89  C   UNL A   1      47.747  25.383  33.920  1.00  0.00     0.055 A 
ATOM     90  C   UNL A   1      45.742  24.173  34.426  1.00  0.00     0.041 A 
ATOM     91  F   UNL A   1      43.690  24.873  33.559  1.00  0.00    -0.206 F 
ATOM     92  C   UNL A   1      47.110  24.349  34.601  1.00  0.00     0.022 A 
BRANCH  89  93
ATOM     93  S   UNL A   1      49.496  25.704  34.278  1.00  0.00     0.124 S 
ATOM     94  O   UNL A   1      49.992  24.362  34.581  1.00  0.00    -0.237 OA
ATOM     95  O   UNL A   1      49.959  26.271  33.015  1.00  0.00    -0.237 OA
ATOM     96  O   UNL A   1      49.458  26.626  35.407  1.00  0.00    -0.744 OA
ENDBRANCH  89  93
ENDBRANCH  63  86
ENDBRANCH  37  38
ENDBRANCH  30  32
ENDBRANCH  29  30
ENDBRANCH  28  29
ENDBRANCH  27  28
ENDBRANCH  26  27
ENDBRANCH  25  26
ENDBRANCH   1  25
TORSDOF 25
ENDMDL
