MODEL 1
REMARK VINA RESULT:     -11.7      0.000      0.000
REMARK SMILES Cc1cccc(CC(=O)N2CCCC[C@@H]2C(=O)OCCOCCOCCOC(=O)c2ccc(-c3c4nc(c(-c5cc(S(=O)(=O)[O-])ccc5F)c5ccc([nH]5)c(-c5cc(S(=O)(=O)[O-])ccc5F)c5nc(c(-c6cc(S(=O)(=O)[O-])ccc6F)c6ccc3[nH]6)C=C5)C=C4)cc2)c1
REMARK SMILES IDX 22 1 21 2 20 3 19 4 18 5 16 6 17 7 15 8 10 9 11 10 12 11
REMARK SMILES IDX 14 12 13 13 8 14 9 15 7 16 6 17 1 18 2 19 3 20 93 21 4 22
REMARK SMILES IDX 5 23 23 24 24 25 25 26 26 27 27 28 28 29 29 30 30 31 31 32
REMARK SMILES IDX 92 33 32 34 91 35 33 36 34 37 35 38 85 39 36 40 90 41 84 42
REMARK SMILES IDX 86 43 37 44 89 45 83 46 82 47 38 49 70 50 50 51 69 52 51 53
REMARK SMILES IDX 54 54 68 55 87 56 52 57 53 58 67 60 88 61 55 62 39 63 40 64
REMARK SMILES IDX 48 65 41 66 47 67 49 68 46 69 42 70 43 71 44 72 45 73 71 74
REMARK SMILES IDX 72 75 80 76 73 77 79 78 81 79 78 80 74 81 75 82 76 83 77 84
REMARK SMILES IDX 56 85 57 86 65 87 58 88 64 89 66 90 63 91 59 92 60 93 61 94
REMARK SMILES IDX 62 95
REMARK H PARENT 86 48 54 59
REMARK Flexibility Score: inf
ROOT
ATOM      1  C   UNL A   1      42.009  26.409  25.673  1.00  0.00     0.188 C 
ENDROOT
BRANCH   1   2
ATOM      2  O   UNL A   1      40.775  25.682  25.497  1.00  0.00    -0.376 OA
BRANCH   2   3
ATOM      3  C   UNL A   1      39.705  25.503  26.453  1.00  0.00     0.202 C 
BRANCH   3   4
ATOM      4  C   UNL A   1      38.468  24.319  26.512  1.00  0.00     0.261 C 
BRANCH   4   5
ATOM      5  O   UNL A   1      37.800  23.073  25.423  1.00  0.00    -0.462 OA
BRANCH   5   6
ATOM      6  C   UNL A   1      36.822  22.879  24.422  1.00  0.00     0.328 C 
ATOM      7  O   UNL A   1      36.885  23.253  23.262  1.00  0.00    -0.250 OA
BRANCH   6   8
ATOM      8  C   UNL A   1      35.549  22.129  24.314  1.00  0.00     0.195 C 
ATOM      9  N   UNL A   1      34.345  23.081  24.694  1.00  0.00    -0.329 N 
ATOM     10  C   UNL A   1      33.124  22.363  25.111  1.00  0.00     0.120 C 
ATOM     11  C   UNL A   1      33.309  20.966  25.712  1.00  0.00     0.022 C 
ATOM     12  C   UNL A   1      35.637  20.786  24.982  1.00  0.00     0.037 C 
ATOM     13  C   UNL A   1      34.286  20.111  24.926  1.00  0.00     0.005 C 
BRANCH   9  14
ATOM     14  C   UNL A   1      34.081  24.512  24.412  1.00  0.00     0.227 C 
ATOM     15  O   UNL A   1      34.260  25.255  25.417  1.00  0.00    -0.275 OA
BRANCH  14  16
ATOM     16  C   UNL A   1      33.332  25.349  23.167  1.00  0.00     0.135 C 
BRANCH  16  17
ATOM     17  C   UNL A   1      31.818  25.825  22.887  1.00  0.00    -0.038 A 
ATOM     18  C   UNL A   1      30.065  29.906  21.827  1.00  0.00     0.044 C 
ATOM     19  C   UNL A   1      30.183  28.603  22.557  1.00  0.00    -0.051 A 
ATOM     20  C   UNL A   1      28.730  27.861  23.427  1.00  0.00     0.003 A 
ATOM     21  C   UNL A   1      31.718  27.544  22.270  1.00  0.00     0.007 A 
ATOM     22  C   UNL A   1      28.777  26.118  24.001  1.00  0.00     0.001 A 
ATOM     23  C   UNL A   1      30.273  25.076  23.611  1.00  0.00     0.004 A 
ENDBRANCH  16  17
ENDBRANCH  14  16
ENDBRANCH   9  14
ENDBRANCH   6   8
ENDBRANCH   5   6
ENDBRANCH   4   5
ENDBRANCH   3   4
ENDBRANCH   2   3
ENDBRANCH   1   2
BRANCH   1  24
ATOM     24  C   UNL A   1      43.187  25.565  25.284  1.00  0.00     0.188 C 
BRANCH  24  25
ATOM     25  O   UNL A   1      42.657  24.272  25.056  1.00  0.00    -0.376 OA
BRANCH  25  26
ATOM     26  C   UNL A   1      43.569  23.219  25.134  1.00  0.00     0.202 C 
BRANCH  26  27
ATOM     27  C   UNL A   1      42.796  21.966  25.547  1.00  0.00     0.261 C 
BRANCH  27  28
ATOM     28  O   UNL A   1      41.504  22.359  26.099  1.00  0.00    -0.460 OA
BRANCH  28  29
ATOM     29  C   UNL A   1      41.206  21.915  27.368  1.00  0.00     0.338 C 
ATOM     30  O   UNL A   1      40.428  21.006  27.597  1.00  0.00    -0.246 OA
BRANCH  29  31
ATOM     31  C   UNL A   1      41.825  22.812  28.422  1.00  0.00     0.060 A 
ATOM     32  C   UNL A   1      41.699  24.182  28.489  1.00  0.00     0.016 A 
ATOM     33  C   UNL A   1      42.906  22.354  29.099  1.00  0.00     0.016 A 
ATOM     34  C   UNL A   1      42.784  25.003  29.044  1.00  0.00     0.010 A 
ATOM     35  C   UNL A   1      44.051  23.232  29.160  1.00  0.00     0.010 A 
ATOM     36  C   UNL A   1      44.197  24.621  29.259  1.00  0.00    -0.014 A 
BRANCH  36  37
ATOM     37  C   UNL A   1      45.779  25.711  29.609  1.00  0.00     0.031 A 
ATOM     38  C   UNL A   1      47.162  25.462  28.190  1.00  0.00     0.074 A 
ATOM     39  C   UNL A   1      46.178  26.575  31.242  1.00  0.00     0.049 A 
ATOM     40  N   UNL A   1      48.451  25.037  28.458  1.00  0.00    -0.248 NA
ATOM     41  C   UNL A   1      47.296  25.412  26.667  1.00  0.00     0.031 C 
ATOM     42  C   UNL A   1      47.363  27.680  31.865  1.00  0.00     0.029 A 
ATOM     43  N   UNL A   1      45.475  26.753  32.650  1.00  0.00    -0.354 N 
ATOM     44  C   UNL A   1      49.359  25.200  27.430  1.00  0.00     0.074 A 
ATOM     45  C   UNL A   1      48.552  25.163  26.297  1.00  0.00     0.031 C 
ATOM     46  C   UNL A   1      47.358  27.761  33.203  1.00  0.00     0.029 A 
ATOM     47  C   UNL A   1      46.372  26.854  33.690  1.00  0.00     0.049 A 
ATOM     48  H   UNL A   1      44.498  26.787  32.770  1.00  0.00     0.167 HD
ATOM     49  C   UNL A   1      50.669  25.582  27.541  1.00  0.00     0.034 A 
ATOM     50  C   UNL A   1      46.565  25.768  34.476  1.00  0.00     0.034 A 
ATOM     51  C   UNL A   1      51.002  25.999  28.902  1.00  0.00     0.049 A 
ATOM     52  C   UNL A   1      48.005  25.299  34.262  1.00  0.00     0.074 A 
ATOM     53  C   UNL A   1      51.149  27.257  29.471  1.00  0.00     0.029 A 
ATOM     54  N   UNL A   1      50.934  25.098  29.964  1.00  0.00    -0.354 N 
ATOM     55  N   UNL A   1      48.716  25.431  33.159  1.00  0.00    -0.248 NA
ATOM     56  C   UNL A   1      48.799  24.826  35.381  1.00  0.00     0.031 C 
ATOM     57  C   UNL A   1      51.066  27.114  30.888  1.00  0.00     0.029 A 
ATOM     58  C   UNL A   1      50.926  25.764  31.191  1.00  0.00     0.049 A 
ATOM     59  H   UNL A   1      50.897  24.120  29.861  1.00  0.00     0.167 HD
ATOM     60  C   UNL A   1      50.022  25.077  33.391  1.00  0.00     0.074 A 
ATOM     61  C   UNL A   1      50.019  24.783  34.825  1.00  0.00     0.031 C 
ATOM     62  C   UNL A   1      51.035  25.028  32.453  1.00  0.00     0.034 A 
BRANCH  49  63
ATOM     63  C   UNL A   1      51.493  25.965  26.293  1.00  0.00     0.023 A 
ATOM     64  C   UNL A   1      50.925  26.719  25.244  1.00  0.00     0.031 A 
ATOM     65  C   UNL A   1      52.840  25.584  26.075  1.00  0.00     0.131 A 
ATOM     66  C   UNL A   1      51.616  26.943  24.029  1.00  0.00     0.055 A 
ATOM     67  C   UNL A   1      53.500  25.736  24.841  1.00  0.00     0.041 A 
ATOM     68  F   UNL A   1      53.590  25.073  27.065  1.00  0.00    -0.206 F 
ATOM     69  C   UNL A   1      52.879  26.407  23.801  1.00  0.00     0.022 A 
BRANCH  66  70
ATOM     70  S   UNL A   1      50.857  27.982  22.744  1.00  0.00     0.124 S 
ATOM     71  O   UNL A   1      51.190  27.256  21.522  1.00  0.00    -0.237 OA
ATOM     72  O   UNL A   1      49.452  27.983  23.135  1.00  0.00    -0.237 OA
ATOM     73  O   UNL A   1      51.535  29.270  22.898  1.00  0.00    -0.744 OA
ENDBRANCH  66  70
ENDBRANCH  49  63
BRANCH  50  74
ATOM     74  C   UNL A   1      45.301  24.968  34.785  1.00  0.00     0.023 A 
ATOM     75  C   UNL A   1      44.383  25.453  35.779  1.00  0.00     0.031 A 
ATOM     76  C   UNL A   1      44.835  23.905  34.002  1.00  0.00     0.131 A 
ATOM     77  C   UNL A   1      43.047  24.992  35.861  1.00  0.00     0.055 A 
ATOM     78  C   UNL A   1      43.509  23.428  34.099  1.00  0.00     0.041 A 
ATOM     79  F   UNL A   1      45.603  23.389  33.031  1.00  0.00    -0.206 F 
ATOM     80  C   UNL A   1      42.602  23.986  35.005  1.00  0.00     0.022 A 
BRANCH  77  81
ATOM     81  S   UNL A   1      41.772  25.934  36.803  1.00  0.00     0.124 S 
ATOM     82  O   UNL A   1      42.537  26.467  37.925  1.00  0.00    -0.237 OA
ATOM     83  O   UNL A   1      41.289  26.922  35.842  1.00  0.00    -0.237 OA
ATOM     84  O   UNL A   1      40.796  24.901  37.152  1.00  0.00    -0.744 OA
ENDBRANCH  77  81
ENDBRANCH  50  74
BRANCH  62  85
ATOM     85  C   UNL A   1      52.356  24.326  32.718  1.00  0.00     0.023 A 
ATOM     86  C   UNL A   1      52.427  22.941  32.868  1.00  0.00     0.031 A 
ATOM     87  C   UNL A   1      53.597  25.005  32.779  1.00  0.00     0.131 A 
ATOM     88  C   UNL A   1      53.598  22.314  33.295  1.00  0.00     0.055 A 
ATOM     89  C   UNL A   1      54.805  24.348  33.032  1.00  0.00     0.041 A 
ATOM     90  F   UNL A   1      53.702  26.328  32.597  1.00  0.00    -0.206 F 
ATOM     91  C   UNL A   1      54.806  22.998  33.345  1.00  0.00     0.022 A 
BRANCH  88  92
ATOM     92  S   UNL A   1      53.427  20.645  33.963  1.00  0.00     0.124 S 
ATOM     93  O   UNL A   1      54.473  20.627  34.985  1.00  0.00    -0.237 OA
ATOM     94  O   UNL A   1      52.057  20.640  34.467  1.00  0.00    -0.237 OA
ATOM     95  O   UNL A   1      53.673  19.785  32.807  1.00  0.00    -0.744 OA
ENDBRANCH  88  92
ENDBRANCH  62  85
ENDBRANCH  36  37
ENDBRANCH  29  31
ENDBRANCH  28  29
ENDBRANCH  27  28
ENDBRANCH  26  27
ENDBRANCH  25  26
ENDBRANCH  24  25
ENDBRANCH   1  24
TORSDOF 23
ENDMDL
MODEL 2
REMARK VINA RESULT:     -11.5      7.130     12.035
REMARK SMILES Cc1cccc(CC(=O)N2CCCC[C@@H]2C(=O)OCCOCCOCCOC(=O)c2ccc(-c3c4nc(c(-c5cc(S(=O)(=O)[O-])ccc5F)c5ccc([nH]5)c(-c5cc(S(=O)(=O)[O-])ccc5F)c5nc(c(-c6cc(S(=O)(=O)[O-])ccc6F)c6ccc3[nH]6)C=C5)C=C4)cc2)c1
REMARK SMILES IDX 22 1 21 2 20 3 19 4 18 5 16 6 17 7 15 8 10 9 11 10 12 11
REMARK SMILES IDX 14 12 13 13 8 14 9 15 7 16 6 17 1 18 2 19 3 20 93 21 4 22
REMARK SMILES IDX 5 23 23 24 24 25 25 26 26 27 27 28 28 29 29 30 30 31 31 32
REMARK SMILES IDX 92 33 32 34 91 35 33 36 34 37 35 38 85 39 36 40 90 41 84 42
REMARK SMILES IDX 86 43 37 44 89 45 83 46 82 47 38 49 70 50 50 51 69 52 51 53
REMARK SMILES IDX 54 54 68 55 87 56 52 57 53 58 67 60 88 61 55 62 39 63 40 64
REMARK SMILES IDX 48 65 41 66 47 67 49 68 46 69 42 70 43 71 44 72 45 73 71 74
REMARK SMILES IDX 72 75 80 76 73 77 79 78 81 79 78 80 74 81 75 82 76 83 77 84
REMARK SMILES IDX 56 85 57 86 65 87 58 88 64 89 66 90 63 91 59 92 60 93 61 94
REMARK SMILES IDX 62 95
REMARK H PARENT 86 48 54 59
REMARK Flexibility Score: inf
ROOT
ATOM      1  C   UNL A   1      38.155  21.422  25.483  1.00  0.00     0.188 C 
ENDROOT
BRANCH   1   2
ATOM      2  O   UNL A   1      37.295  21.581  24.335  1.00  0.00    -0.376 OA
BRANCH   2   3
ATOM      3  C   UNL A   1      35.910  21.994  24.311  1.00  0.00     0.202 C 
BRANCH   3   4
ATOM      4  C   UNL A   1      35.112  23.111  23.286  1.00  0.00     0.261 C 
BRANCH   4   5
ATOM      5  O   UNL A   1      34.208  24.638  23.472  1.00  0.00    -0.462 OA
BRANCH   5   6
ATOM      6  C   UNL A   1      33.932  25.660  24.407  1.00  0.00     0.328 C 
ATOM      7  O   UNL A   1      34.314  25.707  25.566  1.00  0.00    -0.250 OA
BRANCH   6   8
ATOM      8  C   UNL A   1      33.283  26.991  24.364  1.00  0.00     0.195 C 
ATOM      9  N   UNL A   1      31.724  26.808  24.177  1.00  0.00    -0.329 N 
ATOM     10  C   UNL A   1      31.044  27.997  23.626  1.00  0.00     0.120 C 
ATOM     11  C   UNL A   1      31.886  28.942  22.762  1.00  0.00     0.022 C 
ATOM     12  C   UNL A   1      34.008  27.933  23.445  1.00  0.00     0.037 C 
ATOM     13  C   UNL A   1      33.247  29.237  23.366  1.00  0.00     0.005 C 
BRANCH   9  14
ATOM     14  C   UNL A   1      30.763  25.826  24.735  1.00  0.00     0.227 C 
ATOM     15  O   UNL A   1      29.777  26.370  25.307  1.00  0.00    -0.275 OA
BRANCH  14  16
ATOM     16  C   UNL A   1      30.806  24.178  25.040  1.00  0.00     0.135 C 
BRANCH  16  17
ATOM     17  C   UNL A   1      31.991  23.098  25.203  1.00  0.00    -0.038 A 
ATOM     18  C   UNL A   1      32.590  18.952  23.385  1.00  0.00     0.044 C 
ATOM     19  C   UNL A   1      32.544  19.992  24.463  1.00  0.00    -0.051 A 
ATOM     20  C   UNL A   1      33.483  19.775  26.041  1.00  0.00     0.003 A 
ATOM     21  C   UNL A   1      31.828  21.688  24.049  1.00  0.00     0.007 A 
ATOM     22  C   UNL A   1      33.718  21.189  27.188  1.00  0.00     0.001 A 
ATOM     23  C   UNL A   1      33.080  22.870  26.697  1.00  0.00     0.004 A 
ENDBRANCH  16  17
ENDBRANCH  14  16
ENDBRANCH   9  14
ENDBRANCH   6   8
ENDBRANCH   5   6
ENDBRANCH   4   5
ENDBRANCH   3   4
ENDBRANCH   2   3
ENDBRANCH   1   2
BRANCH   1  24
ATOM     24  C   UNL A   1      38.484  22.752  26.094  1.00  0.00     0.188 C 
BRANCH  24  25
ATOM     25  O   UNL A   1      39.736  22.568  26.730  1.00  0.00    -0.376 OA
BRANCH  25  26
ATOM     26  C   UNL A   1      40.468  21.454  26.318  1.00  0.00     0.202 C 
BRANCH  26  27
ATOM     27  C   UNL A   1      41.744  21.402  27.158  1.00  0.00     0.261 C 
BRANCH  27  28
ATOM     28  O   UNL A   1      42.405  22.702  27.110  1.00  0.00    -0.460 OA
BRANCH  28  29
ATOM     29  C   UNL A   1      42.691  23.303  28.316  1.00  0.00     0.338 C 
ATOM     30  O   UNL A   1      42.728  22.701  29.375  1.00  0.00    -0.246 OA
BRANCH  29  31
ATOM     31  C   UNL A   1      42.770  24.810  28.172  1.00  0.00     0.060 A 
ATOM     32  C   UNL A   1      43.885  25.584  28.411  1.00  0.00     0.016 A 
ATOM     33  C   UNL A   1      41.618  25.521  28.232  1.00  0.00     0.016 A 
ATOM     34  C   UNL A   1      43.742  26.961  28.905  1.00  0.00     0.010 A 
ATOM     35  C   UNL A   1      41.598  26.644  29.139  1.00  0.00     0.010 A 
ATOM     36  C   UNL A   1      42.557  27.587  29.531  1.00  0.00    -0.014 A 
BRANCH  36  37
ATOM     37  C   UNL A   1      42.372  29.237  30.558  1.00  0.00     0.031 A 
ATOM     38  C   UNL A   1      40.551  30.027  30.343  1.00  0.00     0.074 A 
ATOM     39  C   UNL A   1      43.793  30.216  31.329  1.00  0.00     0.049 A 
ATOM     40  N   UNL A   1      40.335  31.309  29.869  1.00  0.00    -0.248 NA
ATOM     41  C   UNL A   1      39.076  29.620  30.366  1.00  0.00     0.031 C 
ATOM     42  C   UNL A   1      44.004  31.590  32.368  1.00  0.00     0.029 A 
ATOM     43  N   UNL A   1      45.364  30.055  31.455  1.00  0.00    -0.354 N 
ATOM     44  C   UNL A   1      39.061  31.809  30.060  1.00  0.00     0.074 A 
ATOM     45  C   UNL A   1      38.282  30.656  30.101  1.00  0.00     0.031 C 
ATOM     46  C   UNL A   1      45.260  32.054  32.381  1.00  0.00     0.029 A 
ATOM     47  C   UNL A   1      46.027  31.262  31.479  1.00  0.00     0.049 A 
ATOM     48  H   UNL A   1      45.819  29.184  31.509  1.00  0.00     0.167 HD
ATOM     49  C   UNL A   1      38.721  33.090  30.400  1.00  0.00     0.034 A 
ATOM     50  C   UNL A   1      46.655  31.669  30.350  1.00  0.00     0.034 A 
ATOM     51  C   UNL A   1      39.894  33.894  30.738  1.00  0.00     0.049 A 
ATOM     52  C   UNL A   1      45.934  32.924  29.853  1.00  0.00     0.074 A 
ATOM     53  C   UNL A   1      40.423  34.284  31.962  1.00  0.00     0.029 A 
ATOM     54  N   UNL A   1      40.878  34.162  29.787  1.00  0.00    -0.354 N 
ATOM     55  N   UNL A   1      44.658  33.211  30.021  1.00  0.00    -0.248 NA
ATOM     56  C   UNL A   1      46.686  34.036  29.303  1.00  0.00     0.031 C 
ATOM     57  C   UNL A   1      41.772  34.693  31.750  1.00  0.00     0.029 A 
ATOM     58  C   UNL A   1      42.055  34.610  30.391  1.00  0.00     0.049 A 
ATOM     59  H   UNL A   1      40.759  34.049  28.817  1.00  0.00     0.167 HD
ATOM     60  C   UNL A   1      44.404  34.500  29.620  1.00  0.00     0.074 A 
ATOM     61  C   UNL A   1      45.737  34.983  29.255  1.00  0.00     0.031 C 
ATOM     62  C   UNL A   1      43.171  35.119  29.590  1.00  0.00     0.034 A 
BRANCH  49  63
ATOM     63  C   UNL A   1      37.279  33.444  30.822  1.00  0.00     0.023 A 
ATOM     64  C   UNL A   1      36.296  33.772  29.864  1.00  0.00     0.031 A 
ATOM     65  C   UNL A   1      36.828  33.498  32.163  1.00  0.00     0.131 A 
ATOM     66  C   UNL A   1      35.017  34.249  30.242  1.00  0.00     0.055 A 
ATOM     67  C   UNL A   1      35.588  34.046  32.544  1.00  0.00     0.041 A 
ATOM     68  F   UNL A   1      37.561  32.993  33.168  1.00  0.00    -0.206 F 
ATOM     69  C   UNL A   1      34.679  34.440  31.577  1.00  0.00     0.022 A 
BRANCH  66  70
ATOM     70  S   UNL A   1      33.772  34.590  28.962  1.00  0.00     0.124 S 
ATOM     71  O   UNL A   1      34.374  35.702  28.233  1.00  0.00    -0.237 OA
ATOM     72  O   UNL A   1      33.697  33.316  28.255  1.00  0.00    -0.237 OA
ATOM     73  O   UNL A   1      32.575  34.934  29.730  1.00  0.00    -0.744 OA
ENDBRANCH  66  70
ENDBRANCH  49  63
BRANCH  50  74
ATOM     74  C   UNL A   1      47.357  30.559  29.570  1.00  0.00     0.023 A 
ATOM     75  C   UNL A   1      46.716  29.992  28.416  1.00  0.00     0.031 A 
ATOM     76  C   UNL A   1      48.699  30.205  29.750  1.00  0.00     0.131 A 
ATOM     77  C   UNL A   1      47.430  29.250  27.445  1.00  0.00     0.055 A 
ATOM     78  C   UNL A   1      49.407  29.443  28.793  1.00  0.00     0.041 A 
ATOM     79  F   UNL A   1      49.399  30.693  30.784  1.00  0.00    -0.206 F 
ATOM     80  C   UNL A   1      48.787  28.988  27.626  1.00  0.00     0.022 A 
BRANCH  77  81
ATOM     81  S   UNL A   1      46.719  28.938  25.772  1.00  0.00     0.124 S 
ATOM     82  O   UNL A   1      46.275  30.267  25.365  1.00  0.00    -0.237 OA
ATOM     83  O   UNL A   1      47.840  28.388  25.015  1.00  0.00    -0.237 OA
ATOM     84  O   UNL A   1      45.646  27.983  26.047  1.00  0.00    -0.744 OA
ENDBRANCH  77  81
ENDBRANCH  50  74
BRANCH  62  85
ATOM     85  C   UNL A   1      42.930  36.418  28.841  1.00  0.00     0.023 A 
ATOM     86  C   UNL A   1      43.308  37.649  29.377  1.00  0.00     0.031 A 
ATOM     87  C   UNL A   1      42.364  36.473  27.544  1.00  0.00     0.131 A 
ATOM     88  C   UNL A   1      42.922  38.852  28.783  1.00  0.00     0.055 A 
ATOM     89  C   UNL A   1      42.138  37.676  26.868  1.00  0.00     0.041 A 
ATOM     90  F   UNL A   1      42.002  35.372  26.871  1.00  0.00    -0.206 F 
ATOM     91  C   UNL A   1      42.370  38.883  27.509  1.00  0.00     0.022 A 
BRANCH  88  92
ATOM     92  S   UNL A   1      42.990  40.328  29.821  1.00  0.00     0.124 S 
ATOM     93  O   UNL A   1      41.610  40.807  29.744  1.00  0.00    -0.237 OA
ATOM     94  O   UNL A   1      43.395  39.790  31.116  1.00  0.00    -0.237 OA
ATOM     95  O   UNL A   1      43.979  41.172  29.155  1.00  0.00    -0.744 OA
ENDBRANCH  88  92
ENDBRANCH  62  85
ENDBRANCH  36  37
ENDBRANCH  29  31
ENDBRANCH  28  29
ENDBRANCH  27  28
ENDBRANCH  26  27
ENDBRANCH  25  26
ENDBRANCH  24  25
ENDBRANCH   1  24
TORSDOF 23
ENDMDL
MODEL 3
REMARK VINA RESULT:     -11.3      7.337     12.040
REMARK SMILES Cc1cccc(CC(=O)N2CCCC[C@@H]2C(=O)OCCOCCOCCOC(=O)c2ccc(-c3c4nc(c(-c5cc(S(=O)(=O)[O-])ccc5F)c5ccc([nH]5)c(-c5cc(S(=O)(=O)[O-])ccc5F)c5nc(c(-c6cc(S(=O)(=O)[O-])ccc6F)c6ccc3[nH]6)C=C5)C=C4)cc2)c1
REMARK SMILES IDX 22 1 21 2 20 3 19 4 18 5 16 6 17 7 15 8 10 9 11 10 12 11
REMARK SMILES IDX 14 12 13 13 8 14 9 15 7 16 6 17 1 18 2 19 3 20 93 21 4 22
REMARK SMILES IDX 5 23 23 24 24 25 25 26 26 27 27 28 28 29 29 30 30 31 31 32
REMARK SMILES IDX 92 33 32 34 91 35 33 36 34 37 35 38 85 39 36 40 90 41 84 42
REMARK SMILES IDX 86 43 37 44 89 45 83 46 82 47 38 49 70 50 50 51 69 52 51 53
REMARK SMILES IDX 54 54 68 55 87 56 52 57 53 58 67 60 88 61 55 62 39 63 40 64
REMARK SMILES IDX 48 65 41 66 47 67 49 68 46 69 42 70 43 71 44 72 45 73 71 74
REMARK SMILES IDX 72 75 80 76 73 77 79 78 81 79 78 80 74 81 75 82 76 83 77 84
REMARK SMILES IDX 56 85 57 86 65 87 58 88 64 89 66 90 63 91 59 92 60 93 61 94
REMARK SMILES IDX 62 95
REMARK H PARENT 86 48 54 59
REMARK Flexibility Score: inf
ROOT
ATOM      1  C   UNL A   1      38.066  20.802  25.712  1.00  0.00     0.188 C 
ENDROOT
BRANCH   1   2
ATOM      2  O   UNL A   1      37.649  21.526  24.536  1.00  0.00    -0.376 OA
BRANCH   2   3
ATOM      3  C   UNL A   1      36.334  22.042  24.229  1.00  0.00     0.202 C 
BRANCH   3   4
ATOM      4  C   UNL A   1      35.848  23.185  23.049  1.00  0.00     0.261 C 
BRANCH   4   5
ATOM      5  O   UNL A   1      34.376  24.118  22.663  1.00  0.00    -0.462 OA
BRANCH   5   6
ATOM      6  C   UNL A   1      33.864  25.435  22.656  1.00  0.00     0.328 C 
ATOM      7  O   UNL A   1      33.610  26.111  21.672  1.00  0.00    -0.250 OA
BRANCH   6   8
ATOM      8  C   UNL A   1      33.352  26.379  23.676  1.00  0.00     0.195 C 
ATOM      9  N   UNL A   1      31.771  26.396  23.627  1.00  0.00    -0.329 N 
ATOM     10  C   UNL A   1      31.169  27.614  24.204  1.00  0.00     0.120 C 
ATOM     11  C   UNL A   1      32.021  28.887  24.189  1.00  0.00     0.022 C 
ATOM     12  C   UNL A   1      34.083  27.690  23.636  1.00  0.00     0.037 C 
ATOM     13  C   UNL A   1      33.454  28.642  24.628  1.00  0.00     0.005 C 
BRANCH   9  14
ATOM     14  C   UNL A   1      30.770  25.322  23.425  1.00  0.00     0.227 C 
ATOM     15  O   UNL A   1      29.581  25.747  23.432  1.00  0.00    -0.275 OA
BRANCH  14  16
ATOM     16  C   UNL A   1      30.813  23.646  23.471  1.00  0.00     0.135 C 
BRANCH  16  17
ATOM     17  C   UNL A   1      31.945  22.564  23.850  1.00  0.00    -0.038 A 
ATOM     18  C   UNL A   1      32.599  18.253  22.493  1.00  0.00     0.044 C 
ATOM     19  C   UNL A   1      32.478  19.392  23.459  1.00  0.00    -0.051 A 
ATOM     20  C   UNL A   1      33.252  19.307  25.136  1.00  0.00     0.003 A 
ATOM     21  C   UNL A   1      31.854  21.055  22.821  1.00  0.00     0.007 A 
ATOM     22  C   UNL A   1      33.416  20.818  26.165  1.00  0.00     0.001 A 
ATOM     23  C   UNL A   1      32.877  22.457  25.460  1.00  0.00     0.004 A 
ENDBRANCH  16  17
ENDBRANCH  14  16
ENDBRANCH   9  14
ENDBRANCH   6   8
ENDBRANCH   5   6
ENDBRANCH   4   5
ENDBRANCH   3   4
ENDBRANCH   2   3
ENDBRANCH   1   2
BRANCH   1  24
ATOM     24  C   UNL A   1      39.119  19.788  25.372  1.00  0.00     0.188 C 
BRANCH  24  25
ATOM     25  O   UNL A   1      40.343  20.383  25.760  1.00  0.00    -0.376 OA
BRANCH  25  26
ATOM     26  C   UNL A   1      40.676  20.265  27.110  1.00  0.00     0.202 C 
BRANCH  26  27
ATOM     27  C   UNL A   1      41.339  21.573  27.541  1.00  0.00     0.261 C 
BRANCH  27  28
ATOM     28  O   UNL A   1      41.011  22.618  26.576  1.00  0.00    -0.460 OA
BRANCH  28  29
ATOM     29  C   UNL A   1      40.101  23.572  26.973  1.00  0.00     0.338 C 
ATOM     30  O   UNL A   1      38.903  23.367  27.051  1.00  0.00    -0.246 OA
BRANCH  29  31
ATOM     31  C   UNL A   1      40.759  24.930  27.120  1.00  0.00     0.060 A 
ATOM     32  C   UNL A   1      41.933  25.187  27.794  1.00  0.00     0.016 A 
ATOM     33  C   UNL A   1      39.988  26.035  26.974  1.00  0.00     0.016 A 
ATOM     34  C   UNL A   1      42.142  26.483  28.457  1.00  0.00     0.010 A 
ATOM     35  C   UNL A   1      40.076  27.028  28.018  1.00  0.00     0.010 A 
ATOM     36  C   UNL A   1      41.125  27.495  28.821  1.00  0.00    -0.014 A 
BRANCH  36  37
ATOM     37  C   UNL A   1      41.220  29.031  30.022  1.00  0.00     0.031 A 
ATOM     38  C   UNL A   1      39.526  30.087  29.987  1.00  0.00     0.074 A 
ATOM     39  C   UNL A   1      42.797  29.711  30.812  1.00  0.00     0.049 A 
ATOM     40  N   UNL A   1      39.479  31.430  29.662  1.00  0.00    -0.248 NA
ATOM     41  C   UNL A   1      38.009  29.890  30.047  1.00  0.00     0.031 C 
ATOM     42  C   UNL A   1      43.244  30.919  31.976  1.00  0.00     0.029 A 
ATOM     43  N   UNL A   1      44.332  29.319  30.837  1.00  0.00    -0.354 N 
ATOM     44  C   UNL A   1      38.300  32.080  29.971  1.00  0.00     0.074 A 
ATOM     45  C   UNL A   1      37.364  31.050  29.934  1.00  0.00     0.031 C 
ATOM     46  C   UNL A   1      44.554  31.199  31.970  1.00  0.00     0.029 A 
ATOM     47  C   UNL A   1      45.163  30.411  30.950  1.00  0.00     0.049 A 
ATOM     48  H   UNL A   1      44.658  28.392  30.776  1.00  0.00     0.167 HD
ATOM     49  C   UNL A   1      38.162  33.350  30.460  1.00  0.00     0.034 A 
ATOM     50  C   UNL A   1      45.799  30.849  29.838  1.00  0.00     0.034 A 
ATOM     51  C   UNL A   1      39.451  33.940  30.817  1.00  0.00     0.049 A 
ATOM     52  C   UNL A   1      45.249  32.239  29.514  1.00  0.00     0.074 A 
ATOM     53  C   UNL A   1      40.077  34.115  32.044  1.00  0.00     0.029 A 
ATOM     54  N   UNL A   1      40.427  34.171  29.847  1.00  0.00    -0.354 N 
ATOM     55  N   UNL A   1      44.035  32.681  29.778  1.00  0.00    -0.248 NA
ATOM     56  C   UNL A   1      46.132  33.290  29.042  1.00  0.00     0.031 C 
ATOM     57  C   UNL A   1      41.462  34.352  31.804  1.00  0.00     0.029 A 
ATOM     58  C   UNL A   1      41.678  34.381  30.431  1.00  0.00     0.049 A 
ATOM     59  H   UNL A   1      40.255  34.184  28.878  1.00  0.00     0.167 HD
ATOM     60  C   UNL A   1      43.956  34.029  29.528  1.00  0.00     0.074 A 
ATOM     61  C   UNL A   1      45.329  34.359  29.144  1.00  0.00     0.031 C 
ATOM     62  C   UNL A   1      42.824  34.815  29.628  1.00  0.00     0.034 A 
BRANCH  49  63
ATOM     63  C   UNL A   1      36.803  33.853  30.993  1.00  0.00     0.023 A 
ATOM     64  C   UNL A   1      35.811  34.344  30.118  1.00  0.00     0.031 A 
ATOM     65  C   UNL A   1      36.447  33.895  32.363  1.00  0.00     0.131 A 
ATOM     66  C   UNL A   1      34.626  34.951  30.602  1.00  0.00     0.055 A 
ATOM     67  C   UNL A   1      35.310  34.568  32.849  1.00  0.00     0.041 A 
ATOM     68  F   UNL A   1      37.174  33.256  33.294  1.00  0.00    -0.206 F 
ATOM     69  C   UNL A   1      34.397  35.116  31.964  1.00  0.00     0.022 A 
BRANCH  66  70
ATOM     70  S   UNL A   1      33.355  35.501  29.424  1.00  0.00     0.124 S 
ATOM     71  O   UNL A   1      32.525  36.373  30.248  1.00  0.00    -0.237 OA
ATOM     72  O   UNL A   1      34.151  36.153  28.389  1.00  0.00    -0.237 OA
ATOM     73  O   UNL A   1      32.712  34.255  29.006  1.00  0.00    -0.744 OA
ENDBRANCH  66  70
ENDBRANCH  49  63
BRANCH  50  74
ATOM     74  C   UNL A   1      46.303  29.745  28.911  1.00  0.00     0.023 A 
ATOM     75  C   UNL A   1      47.537  29.075  29.214  1.00  0.00     0.031 A 
ATOM     76  C   UNL A   1      45.531  29.157  27.901  1.00  0.00     0.131 A 
ATOM     77  C   UNL A   1      47.880  27.827  28.641  1.00  0.00     0.055 A 
ATOM     78  C   UNL A   1      45.884  27.923  27.311  1.00  0.00     0.041 A 
ATOM     79  F   UNL A   1      44.351  29.689  27.552  1.00  0.00    -0.206 F 
ATOM     80  C   UNL A   1      47.040  27.239  27.697  1.00  0.00     0.022 A 
BRANCH  77  81
ATOM     81  S   UNL A   1      49.205  26.775  29.374  1.00  0.00     0.124 S 
ATOM     82  O   UNL A   1      48.516  25.509  29.598  1.00  0.00    -0.237 OA
ATOM     83  O   UNL A   1      50.243  26.756  28.346  1.00  0.00    -0.237 OA
ATOM     84  O   UNL A   1      49.568  27.506  30.588  1.00  0.00    -0.744 OA
ENDBRANCH  77  81
ENDBRANCH  50  74
BRANCH  62  85
ATOM     85  C   UNL A   1      42.746  36.209  29.031  1.00  0.00     0.023 A 
ATOM     86  C   UNL A   1      43.417  37.287  29.609  1.00  0.00     0.031 A 
ATOM     87  C   UNL A   1      42.042  36.505  27.839  1.00  0.00     0.131 A 
ATOM     88  C   UNL A   1      43.198  38.597  29.178  1.00  0.00     0.055 A 
ATOM     89  C   UNL A   1      41.969  37.795  27.304  1.00  0.00     0.041 A 
ATOM     90  F   UNL A   1      41.394  35.566  27.135  1.00  0.00    -0.206 F 
ATOM     91  C   UNL A   1      42.507  38.864  28.003  1.00  0.00     0.022 A 
BRANCH  88  92
ATOM     92  S   UNL A   1      43.678  39.915  30.315  1.00  0.00     0.124 S 
ATOM     93  O   UNL A   1      45.075  40.132  29.941  1.00  0.00    -0.237 OA
ATOM     94  O   UNL A   1      42.759  40.993  29.961  1.00  0.00    -0.237 OA
ATOM     95  O   UNL A   1      43.473  39.324  31.634  1.00  0.00    -0.744 OA
ENDBRANCH  88  92
ENDBRANCH  62  85
ENDBRANCH  36  37
ENDBRANCH  29  31
ENDBRANCH  28  29
ENDBRANCH  27  28
ENDBRANCH  26  27
ENDBRANCH  25  26
ENDBRANCH  24  25
ENDBRANCH   1  24
TORSDOF 23
ENDMDL
