MODEL 1
REMARK VINA RESULT:      -8.9      0.000      0.000
REMARK SMILES C#CC[N@@H+](CC(=O)Nc1c(Cl)cccc1Cl)CC(=O)OCCOCCOCCOC(=O)c1ccc(-c2c3nc(c(-c4cc(S(=O)(=O)[O-])ccc4F)c4ccc([nH]4)c(-c4cc(S(=O)(=O)[O-])ccc4F)c4nc(c(-c5cc(S(=O)(=O)[O-])ccc5F)c5ccc2[nH]5)C=C4)C=C3)cc1
REMARK SMILES IDX 24 1 23 2 22 3 21 4 20 5 18 6 19 7 17 8 4 9 3 11 2 12 1 13
REMARK SMILES IDX 5 14 6 15 7 16 8 17 9 19 10 20 15 21 11 22 12 23 14 24 16 25
REMARK SMILES IDX 13 26 25 27 26 28 27 29 28 30 29 31 30 32 31 33 32 34 33 35
REMARK SMILES IDX 94 36 34 37 93 38 35 39 36 40 37 41 87 42 38 43 92 44 86 45
REMARK SMILES IDX 88 46 39 47 91 48 85 49 84 50 40 52 72 53 52 54 71 55 53 56
REMARK SMILES IDX 56 57 70 58 89 59 54 60 55 61 69 63 90 64 57 65 41 66 42 67
REMARK SMILES IDX 50 68 43 69 49 70 51 71 48 72 44 73 45 74 46 75 47 76 73 77
REMARK SMILES IDX 74 78 82 79 75 80 81 81 83 82 80 83 76 84 77 85 78 86 79 87
REMARK SMILES IDX 58 88 59 89 67 90 60 91 66 92 68 93 65 94 61 95 62 96 63 97
REMARK SMILES IDX 64 98
REMARK H PARENT 4 10 8 18 88 51 56 62
REMARK Flexibility Score: inf
ROOT
ATOM      1  C   UNL A   1      41.011  20.955  27.138  1.00  0.00     0.188 C 
ENDROOT
BRANCH   1   2
ATOM      2  O   UNL A   1      39.873  20.838  26.281  1.00  0.00    -0.376 OA
BRANCH   2   3
ATOM      3  C   UNL A   1      39.178  22.067  26.062  1.00  0.00     0.202 C 
BRANCH   3   4
ATOM      4  C   UNL A   1      37.976  21.873  25.139  1.00  0.00     0.261 C 
BRANCH   4   5
ATOM      5  O   UNL A   1      37.263  23.097  24.871  1.00  0.00    -0.459 OA
BRANCH   5   6
ATOM      6  C   UNL A   1      36.377  23.104  23.847  1.00  0.00     0.361 C 
ATOM      7  O   UNL A   1      36.673  22.908  22.675  1.00  0.00    -0.245 OA
BRANCH   6   8
ATOM      8  C   UNL A   1      34.998  23.580  24.303  1.00  0.00     0.387 C 
BRANCH   8   9
ATOM      9  N   UNL A   1      34.755  23.842  25.735  1.00  0.00    -0.308 N 
ATOM     10  H   UNL A   1      35.677  24.202  25.981  1.00  0.00     0.349 HD
BRANCH   9  11
ATOM     11  C   UNL A   1      33.763  24.847  25.999  1.00  0.00     0.354 C 
BRANCH  11  12
ATOM     12  C   UNL A   1      33.651  26.153  25.230  1.00  0.00    -0.047 C 
ATOM     13  C   UNL A   1      33.554  27.274  24.570  1.00  0.00     0.010 C 
ENDBRANCH  11  12
ENDBRANCH   9  11
BRANCH   9  14
ATOM     14  C   UNL A   1      34.544  22.675  26.643  1.00  0.00     0.365 C 
BRANCH  14  15
ATOM     15  C   UNL A   1      33.105  22.273  27.079  1.00  0.00     0.279 C 
ATOM     16  O   UNL A   1      32.662  22.667  28.168  1.00  0.00    -0.268 OA
ATOM     17  N   UNL A   1      32.204  21.591  26.294  1.00  0.00    -0.319 N 
ATOM     18  H   UNL A   1      31.354  21.395  26.749  1.00  0.00     0.170 HD
BRANCH  17  19
ATOM     19  C   UNL A   1      32.258  21.117  24.960  1.00  0.00     0.079 A 
ATOM     20  C   UNL A   1      32.504  19.761  24.686  1.00  0.00     0.066 A 
ATOM     21  C   UNL A   1      31.811  21.891  23.884  1.00  0.00     0.066 A 
ATOM     22  Cl  UNL A   1      32.667  18.622  25.940  1.00  0.00    -0.082 Cl
ATOM     23  C   UNL A   1      32.574  19.254  23.388  1.00  0.00     0.023 A 
ATOM     24  C   UNL A   1      31.801  21.369  22.578  1.00  0.00     0.023 A 
ATOM     25  Cl  UNL A   1      31.164  23.474  24.127  1.00  0.00    -0.082 Cl
ATOM     26  C   UNL A   1      32.236  20.068  22.324  1.00  0.00     0.003 A 
ENDBRANCH  17  19
ENDBRANCH  14  15
ENDBRANCH   9  14
ENDBRANCH   8   9
ENDBRANCH   6   8
ENDBRANCH   5   6
ENDBRANCH   4   5
ENDBRANCH   3   4
ENDBRANCH   2   3
ENDBRANCH   1   2
BRANCH   1  27
ATOM     27  C   UNL A   1      42.292  20.558  26.401  1.00  0.00     0.188 C 
BRANCH  27  28
ATOM     28  O   UNL A   1      42.663  21.551  25.432  1.00  0.00    -0.376 OA
BRANCH  28  29
ATOM     29  C   UNL A   1      44.080  21.636  25.248  1.00  0.00     0.202 C 
BRANCH  29  30
ATOM     30  C   UNL A   1      44.833  22.384  26.360  1.00  0.00     0.261 C 
BRANCH  30  31
ATOM     31  O   UNL A   1      44.085  23.511  26.855  1.00  0.00    -0.460 OA
BRANCH  31  32
ATOM     32  C   UNL A   1      44.845  24.506  27.371  1.00  0.00     0.338 C 
ATOM     33  O   UNL A   1      45.366  25.409  26.717  1.00  0.00    -0.246 OA
BRANCH  32  34
ATOM     34  C   UNL A   1      44.909  24.447  28.857  1.00  0.00     0.060 A 
ATOM     35  C   UNL A   1      44.068  23.614  29.601  1.00  0.00     0.016 A 
ATOM     36  C   UNL A   1      45.706  25.365  29.538  1.00  0.00     0.016 A 
ATOM     37  C   UNL A   1      43.920  23.794  30.984  1.00  0.00     0.010 A 
ATOM     38  C   UNL A   1      45.656  25.439  30.939  1.00  0.00     0.010 A 
ATOM     39  C   UNL A   1      44.730  24.687  31.693  1.00  0.00    -0.014 A 
BRANCH  39  40
ATOM     40  C   UNL A   1      44.632  24.909  33.179  1.00  0.00     0.031 A 
ATOM     41  C   UNL A   1      44.084  26.225  33.681  1.00  0.00     0.074 A 
ATOM     42  C   UNL A   1      45.046  24.021  34.108  1.00  0.00     0.049 A 
ATOM     43  N   UNL A   1      44.378  26.899  34.760  1.00  0.00    -0.248 NA
ATOM     44  C   UNL A   1      43.091  26.878  32.815  1.00  0.00     0.031 C 
ATOM     45  C   UNL A   1      45.451  22.635  33.877  1.00  0.00     0.029 A 
ATOM     46  N   UNL A   1      45.222  24.184  35.469  1.00  0.00    -0.354 N 
ATOM     47  C   UNL A   1      43.707  28.115  34.643  1.00  0.00     0.074 A 
ATOM     48  C   UNL A   1      42.959  28.058  33.404  1.00  0.00     0.031 C 
ATOM     49  C   UNL A   1      45.806  22.073  35.042  1.00  0.00     0.029 A 
ATOM     50  C   UNL A   1      45.816  23.097  36.077  1.00  0.00     0.049 A 
ATOM     51  H   UNL A   1      44.950  24.994  35.957  1.00  0.00     0.167 HD
ATOM     52  C   UNL A   1      43.754  29.183  35.481  1.00  0.00     0.034 A 
ATOM     53  C   UNL A   1      46.411  22.962  37.281  1.00  0.00     0.034 A 
ATOM     54  C   UNL A   1      44.437  29.165  36.755  1.00  0.00     0.049 A 
ATOM     55  C   UNL A   1      46.528  24.168  38.179  1.00  0.00     0.074 A 
ATOM     56  C   UNL A   1      44.577  30.184  37.681  1.00  0.00     0.029 A 
ATOM     57  N   UNL A   1      45.065  28.051  37.299  1.00  0.00    -0.354 N 
ATOM     58  N   UNL A   1      46.089  25.390  37.987  1.00  0.00    -0.248 NA
ATOM     59  C   UNL A   1      47.258  23.983  39.442  1.00  0.00     0.031 C 
ATOM     60  C   UNL A   1      45.330  29.702  38.759  1.00  0.00     0.029 A 
ATOM     61  C   UNL A   1      45.602  28.361  38.539  1.00  0.00     0.049 A 
ATOM     62  H   UNL A   1      45.121  27.169  36.865  1.00  0.00     0.167 HD
ATOM     63  C   UNL A   1      46.480  26.114  39.111  1.00  0.00     0.074 A 
ATOM     64  C   UNL A   1      47.170  25.188  39.984  1.00  0.00     0.031 C 
ATOM     65  C   UNL A   1      46.290  27.428  39.395  1.00  0.00     0.034 A 
BRANCH  52  66
ATOM     66  C   UNL A   1      43.148  30.480  34.997  1.00  0.00     0.023 A 
ATOM     67  C   UNL A   1      41.805  30.826  35.219  1.00  0.00     0.031 A 
ATOM     68  C   UNL A   1      43.938  31.376  34.248  1.00  0.00     0.131 A 
ATOM     69  C   UNL A   1      41.275  31.988  34.633  1.00  0.00     0.055 A 
ATOM     70  C   UNL A   1      43.428  32.573  33.743  1.00  0.00     0.041 A 
ATOM     71  F   UNL A   1      45.223  31.091  33.980  1.00  0.00    -0.206 F 
ATOM     72  C   UNL A   1      42.083  32.877  33.920  1.00  0.00     0.022 A 
BRANCH  69  73
ATOM     73  S   UNL A   1      39.479  32.245  34.684  1.00  0.00     0.124 S 
ATOM     74  O   UNL A   1      39.059  31.200  35.614  1.00  0.00    -0.237 OA
ATOM     75  O   UNL A   1      39.370  33.614  35.169  1.00  0.00    -0.237 OA
ATOM     76  O   UNL A   1      39.064  32.037  33.298  1.00  0.00    -0.744 OA
ENDBRANCH  69  73
ENDBRANCH  52  66
BRANCH  53  77
ATOM     77  C   UNL A   1      47.075  21.676  37.659  1.00  0.00     0.023 A 
ATOM     78  C   UNL A   1      46.355  20.646  38.287  1.00  0.00     0.031 A 
ATOM     79  C   UNL A   1      48.453  21.478  37.447  1.00  0.00     0.131 A 
ATOM     80  C   UNL A   1      47.022  19.482  38.707  1.00  0.00     0.055 A 
ATOM     81  C   UNL A   1      49.095  20.292  37.804  1.00  0.00     0.041 A 
ATOM     82  F   UNL A   1      49.196  22.435  36.868  1.00  0.00    -0.206 F 
ATOM     83  C   UNL A   1      48.381  19.290  38.450  1.00  0.00     0.022 A 
BRANCH  80  84
ATOM     84  S   UNL A   1      46.103  18.257  39.680  1.00  0.00     0.124 S 
ATOM     85  O   UNL A   1      47.165  17.340  40.078  1.00  0.00    -0.237 OA
ATOM     86  O   UNL A   1      45.533  19.079  40.742  1.00  0.00    -0.237 OA
ATOM     87  O   UNL A   1      45.137  17.718  38.725  1.00  0.00    -0.744 OA
ENDBRANCH  80  84
ENDBRANCH  53  77
BRANCH  65  88
ATOM     88  C   UNL A   1      46.787  27.914  40.734  1.00  0.00     0.023 A 
ATOM     89  C   UNL A   1      45.993  27.842  41.891  1.00  0.00     0.031 A 
ATOM     90  C   UNL A   1      48.070  28.480  40.843  1.00  0.00     0.131 A 
ATOM     91  C   UNL A   1      46.469  28.378  43.097  1.00  0.00     0.055 A 
ATOM     92  C   UNL A   1      48.558  28.963  42.057  1.00  0.00     0.041 A 
ATOM     93  F   UNL A   1      48.868  28.575  39.768  1.00  0.00    -0.206 F 
ATOM     94  C   UNL A   1      47.751  28.925  43.190  1.00  0.00     0.022 A 
BRANCH  91  95
ATOM     95  S   UNL A   1      45.356  28.429  44.530  1.00  0.00     0.124 S 
ATOM     96  O   UNL A   1      45.959  27.440  45.418  1.00  0.00    -0.237 OA
ATOM     97  O   UNL A   1      45.461  29.819  44.959  1.00  0.00    -0.237 OA
ATOM     98  O   UNL A   1      44.060  28.049  43.971  1.00  0.00    -0.744 OA
ENDBRANCH  91  95
ENDBRANCH  65  88
ENDBRANCH  39  40
ENDBRANCH  32  34
ENDBRANCH  31  32
ENDBRANCH  30  31
ENDBRANCH  29  30
ENDBRANCH  28  29
ENDBRANCH  27  28
ENDBRANCH   1  27
TORSDOF 26
ENDMDL
MODEL 2
REMARK VINA RESULT:      -8.3      9.509     11.751
REMARK SMILES C#CC[N@@H+](CC(=O)Nc1c(Cl)cccc1Cl)CC(=O)OCCOCCOCCOC(=O)c1ccc(-c2c3nc(c(-c4cc(S(=O)(=O)[O-])ccc4F)c4ccc([nH]4)c(-c4cc(S(=O)(=O)[O-])ccc4F)c4nc(c(-c5cc(S(=O)(=O)[O-])ccc5F)c5ccc2[nH]5)C=C4)C=C3)cc1
REMARK SMILES IDX 24 1 23 2 22 3 21 4 20 5 18 6 19 7 17 8 4 9 3 11 2 12 1 13
REMARK SMILES IDX 5 14 6 15 7 16 8 17 9 19 10 20 15 21 11 22 12 23 14 24 16 25
REMARK SMILES IDX 13 26 25 27 26 28 27 29 28 30 29 31 30 32 31 33 32 34 33 35
REMARK SMILES IDX 94 36 34 37 93 38 35 39 36 40 37 41 87 42 38 43 92 44 86 45
REMARK SMILES IDX 88 46 39 47 91 48 85 49 84 50 40 52 72 53 52 54 71 55 53 56
REMARK SMILES IDX 56 57 70 58 89 59 54 60 55 61 69 63 90 64 57 65 41 66 42 67
REMARK SMILES IDX 50 68 43 69 49 70 51 71 48 72 44 73 45 74 46 75 47 76 73 77
REMARK SMILES IDX 74 78 82 79 75 80 81 81 83 82 80 83 76 84 77 85 78 86 79 87
REMARK SMILES IDX 58 88 59 89 67 90 60 91 66 92 68 93 65 94 61 95 62 96 63 97
REMARK SMILES IDX 64 98
REMARK H PARENT 4 10 8 18 88 51 56 62
REMARK Flexibility Score: inf
ROOT
ATOM      1  C   UNL A   1      36.721  30.109  27.769  1.00  0.00     0.188 C 
ENDROOT
BRANCH   1   2
ATOM      2  O   UNL A   1      35.524  29.501  27.279  1.00  0.00    -0.376 OA
BRANCH   2   3
ATOM      3  C   UNL A   1      34.366  30.331  27.374  1.00  0.00     0.202 C 
BRANCH   3   4
ATOM      4  C   UNL A   1      33.136  29.646  26.780  1.00  0.00     0.261 C 
BRANCH   4   5
ATOM      5  O   UNL A   1      33.329  28.236  26.545  1.00  0.00    -0.459 OA
BRANCH   5   6
ATOM      6  C   UNL A   1      33.002  27.746  25.326  1.00  0.00     0.361 C 
ATOM      7  O   UNL A   1      32.717  28.437  24.356  1.00  0.00    -0.245 OA
BRANCH   6   8
ATOM      8  C   UNL A   1      32.840  26.226  25.359  1.00  0.00     0.387 C 
BRANCH   8   9
ATOM      9  N   UNL A   1      31.505  25.641  25.585  1.00  0.00    -0.308 N 
ATOM     10  H   UNL A   1      31.065  26.439  26.043  1.00  0.00     0.349 HD
BRANCH   9  11
ATOM     11  C   UNL A   1      30.782  25.319  24.387  1.00  0.00     0.354 C 
BRANCH  11  12
ATOM     12  C   UNL A   1      31.289  25.609  22.984  1.00  0.00    -0.047 C 
ATOM     13  C   UNL A   1      31.724  25.858  21.780  1.00  0.00     0.010 C 
ENDBRANCH  11  12
ENDBRANCH   9  11
BRANCH   9  14
ATOM     14  C   UNL A   1      31.379  24.521  26.566  1.00  0.00     0.365 C 
BRANCH  14  15
ATOM     15  C   UNL A   1      31.286  23.050  26.065  1.00  0.00     0.279 C 
ATOM     16  O   UNL A   1      30.207  22.444  26.139  1.00  0.00    -0.268 OA
ATOM     17  N   UNL A   1      32.294  22.370  25.421  1.00  0.00    -0.319 N 
ATOM     18  H   UNL A   1      32.067  21.436  25.208  1.00  0.00     0.170 HD
BRANCH  17  19
ATOM     19  C   UNL A   1      33.594  22.749  25.004  1.00  0.00     0.079 A 
ATOM     20  C   UNL A   1      34.656  22.812  25.922  1.00  0.00     0.066 A 
ATOM     21  C   UNL A   1      33.945  22.810  23.652  1.00  0.00     0.066 A 
ATOM     22  Cl  UNL A   1      34.445  22.361  27.550  1.00  0.00    -0.082 Cl
ATOM     23  C   UNL A   1      35.949  23.188  25.556  1.00  0.00     0.023 A 
ATOM     24  C   UNL A   1      35.264  23.112  23.264  1.00  0.00     0.023 A 
ATOM     25  Cl  UNL A   1      32.807  22.425  22.412  1.00  0.00    -0.082 Cl
ATOM     26  C   UNL A   1      36.252  23.355  24.218  1.00  0.00     0.003 A 
ENDBRANCH  17  19
ENDBRANCH  14  15
ENDBRANCH   9  14
ENDBRANCH   8   9
ENDBRANCH   6   8
ENDBRANCH   5   6
ENDBRANCH   4   5
ENDBRANCH   3   4
ENDBRANCH   2   3
ENDBRANCH   1   2
BRANCH   1  27
ATOM     27  C   UNL A   1      36.994  29.690  29.216  1.00  0.00     0.188 C 
BRANCH  27  28
ATOM     28  O   UNL A   1      36.910  30.814  30.106  1.00  0.00    -0.376 OA
BRANCH  28  29
ATOM     29  C   UNL A   1      36.975  32.066  29.415  1.00  0.00     0.202 C 
BRANCH  29  30
ATOM     30  C   UNL A   1      35.783  33.005  29.663  1.00  0.00     0.261 C 
BRANCH  30  31
ATOM     31  O   UNL A   1      35.872  33.662  30.942  1.00  0.00    -0.460 OA
BRANCH  31  32
ATOM     32  C   UNL A   1      35.166  33.062  31.931  1.00  0.00     0.338 C 
ATOM     33  O   UNL A   1      34.075  32.512  31.786  1.00  0.00    -0.246 OA
BRANCH  32  34
ATOM     34  C   UNL A   1      35.909  33.052  33.220  1.00  0.00     0.060 A 
ATOM     35  C   UNL A   1      35.454  33.755  34.340  1.00  0.00     0.016 A 
ATOM     36  C   UNL A   1      37.174  32.472  33.270  1.00  0.00     0.016 A 
ATOM     37  C   UNL A   1      36.303  33.994  35.431  1.00  0.00     0.010 A 
ATOM     38  C   UNL A   1      37.961  32.595  34.425  1.00  0.00     0.010 A 
ATOM     39  C   UNL A   1      37.564  33.397  35.517  1.00  0.00    -0.014 A 
BRANCH  39  40
ATOM     40  C   UNL A   1      38.511  33.599  36.670  1.00  0.00     0.031 A 
ATOM     41  C   UNL A   1      38.039  33.254  38.064  1.00  0.00     0.074 A 
ATOM     42  C   UNL A   1      39.753  34.115  36.552  1.00  0.00     0.049 A 
ATOM     43  N   UNL A   1      38.347  33.796  39.212  1.00  0.00    -0.248 NA
ATOM     44  C   UNL A   1      37.054  32.165  38.156  1.00  0.00     0.031 C 
ATOM     45  C   UNL A   1      40.484  34.365  35.310  1.00  0.00     0.029 A 
ATOM     46  N   UNL A   1      40.623  34.557  37.530  1.00  0.00    -0.354 N 
ATOM     47  C   UNL A   1      37.501  33.206  40.149  1.00  0.00     0.074 A 
ATOM     48  C   UNL A   1      36.700  32.234  39.431  1.00  0.00     0.031 C 
ATOM     49  C   UNL A   1      41.684  34.892  35.596  1.00  0.00     0.029 A 
ATOM     50  C   UNL A   1      41.748  35.174  37.024  1.00  0.00     0.049 A 
ATOM     51  H   UNL A   1      40.457  34.442  38.494  1.00  0.00     0.167 HD
ATOM     52  C   UNL A   1      37.388  33.489  41.472  1.00  0.00     0.034 A 
ATOM     53  C   UNL A   1      42.666  35.975  37.604  1.00  0.00     0.034 A 
ATOM     54  C   UNL A   1      38.270  34.398  42.169  1.00  0.00     0.049 A 
ATOM     55  C   UNL A   1      42.498  36.348  39.056  1.00  0.00     0.074 A 
ATOM     56  C   UNL A   1      38.246  34.786  43.498  1.00  0.00     0.029 A 
ATOM     57  N   UNL A   1      39.363  35.034  41.594  1.00  0.00    -0.354 N 
ATOM     58  N   UNL A   1      41.571  35.972  39.906  1.00  0.00    -0.248 NA
ATOM     59  C   UNL A   1      43.480  37.288  39.614  1.00  0.00     0.031 C 
ATOM     60  C   UNL A   1      39.292  35.692  43.714  1.00  0.00     0.029 A 
ATOM     61  C   UNL A   1      40.012  35.818  42.536  1.00  0.00     0.049 A 
ATOM     62  H   UNL A   1      39.637  34.942  40.653  1.00  0.00     0.167 HD
ATOM     63  C   UNL A   1      41.869  36.621  41.103  1.00  0.00     0.074 A 
ATOM     64  C   UNL A   1      43.071  37.394  40.869  1.00  0.00     0.031 C 
ATOM     65  C   UNL A   1      41.207  36.585  42.287  1.00  0.00     0.034 A 
BRANCH  52  66
ATOM     66  C   UNL A   1      36.212  32.900  42.217  1.00  0.00     0.023 A 
ATOM     67  C   UNL A   1      34.912  33.424  42.132  1.00  0.00     0.031 A 
ATOM     68  C   UNL A   1      36.419  31.801  43.077  1.00  0.00     0.131 A 
ATOM     69  C   UNL A   1      33.893  32.905  42.948  1.00  0.00     0.055 A 
ATOM     70  C   UNL A   1      35.382  31.234  43.819  1.00  0.00     0.041 A 
ATOM     71  F   UNL A   1      37.644  31.269  43.221  1.00  0.00    -0.206 F 
ATOM     72  C   UNL A   1      34.113  31.797  43.771  1.00  0.00     0.022 A 
BRANCH  69  73
ATOM     73  S   UNL A   1      32.315  33.796  43.038  1.00  0.00     0.124 S 
ATOM     74  O   UNL A   1      31.761  33.288  44.291  1.00  0.00    -0.237 OA
ATOM     75  O   UNL A   1      32.739  35.190  43.046  1.00  0.00    -0.237 OA
ATOM     76  O   UNL A   1      31.607  33.363  41.834  1.00  0.00    -0.744 OA
ENDBRANCH  69  73
ENDBRANCH  52  66
BRANCH  53  77
ATOM     77  C   UNL A   1      43.751  36.601  36.787  1.00  0.00     0.023 A 
ATOM     78  C   UNL A   1      43.497  37.725  35.985  1.00  0.00     0.031 A 
ATOM     79  C   UNL A   1      45.048  36.052  36.755  1.00  0.00     0.131 A 
ATOM     80  C   UNL A   1      44.513  38.242  35.163  1.00  0.00     0.055 A 
ATOM     81  C   UNL A   1      46.071  36.612  35.990  1.00  0.00     0.041 A 
ATOM     82  F   UNL A   1      45.344  34.966  37.487  1.00  0.00    -0.206 F 
ATOM     83  C   UNL A   1      45.803  37.707  35.177  1.00  0.00     0.022 A 
BRANCH  80  84
ATOM     84  S   UNL A   1      44.100  39.573  34.002  1.00  0.00     0.124 S 
ATOM     85  O   UNL A   1      44.411  40.760  34.789  1.00  0.00    -0.237 OA
ATOM     86  O   UNL A   1      44.996  39.291  32.884  1.00  0.00    -0.237 OA
ATOM     87  O   UNL A   1      42.680  39.359  33.728  1.00  0.00    -0.744 OA
ENDBRANCH  80  84
ENDBRANCH  53  77
BRANCH  65  88
ATOM     88  C   UNL A   1      41.813  37.361  43.429  1.00  0.00     0.023 A 
ATOM     89  C   UNL A   1      41.466  38.699  43.685  1.00  0.00     0.031 A 
ATOM     90  C   UNL A   1      42.774  36.755  44.258  1.00  0.00     0.131 A 
ATOM     91  C   UNL A   1      42.114  39.404  44.711  1.00  0.00     0.055 A 
ATOM     92  C   UNL A   1      43.376  37.445  45.310  1.00  0.00     0.041 A 
ATOM     93  F   UNL A   1      43.144  35.480  44.055  1.00  0.00    -0.206 F 
ATOM     94  C   UNL A   1      43.057  38.781  45.533  1.00  0.00     0.022 A 
BRANCH  91  95
ATOM     95  S   UNL A   1      41.773  41.175  44.905  1.00  0.00     0.124 S 
ATOM     96  O   UNL A   1      40.521  41.162  45.655  1.00  0.00    -0.237 OA
ATOM     97  O   UNL A   1      42.947  41.643  45.633  1.00  0.00    -0.237 OA
ATOM     98  O   UNL A   1      41.664  41.657  43.529  1.00  0.00    -0.744 OA
ENDBRANCH  91  95
ENDBRANCH  65  88
ENDBRANCH  39  40
ENDBRANCH  32  34
ENDBRANCH  31  32
ENDBRANCH  30  31
ENDBRANCH  29  30
ENDBRANCH  28  29
ENDBRANCH  27  28
ENDBRANCH   1  27
TORSDOF 26
ENDMDL
MODEL 3
REMARK VINA RESULT:      -8.3      8.464     10.715
REMARK SMILES C#CC[N@@H+](CC(=O)Nc1c(Cl)cccc1Cl)CC(=O)OCCOCCOCCOC(=O)c1ccc(-c2c3nc(c(-c4cc(S(=O)(=O)[O-])ccc4F)c4ccc([nH]4)c(-c4cc(S(=O)(=O)[O-])ccc4F)c4nc(c(-c5cc(S(=O)(=O)[O-])ccc5F)c5ccc2[nH]5)C=C4)C=C3)cc1
REMARK SMILES IDX 24 1 23 2 22 3 21 4 20 5 18 6 19 7 17 8 4 9 3 11 2 12 1 13
REMARK SMILES IDX 5 14 6 15 7 16 8 17 9 19 10 20 15 21 11 22 12 23 14 24 16 25
REMARK SMILES IDX 13 26 25 27 26 28 27 29 28 30 29 31 30 32 31 33 32 34 33 35
REMARK SMILES IDX 94 36 34 37 93 38 35 39 36 40 37 41 87 42 38 43 92 44 86 45
REMARK SMILES IDX 88 46 39 47 91 48 85 49 84 50 40 52 72 53 52 54 71 55 53 56
REMARK SMILES IDX 56 57 70 58 89 59 54 60 55 61 69 63 90 64 57 65 41 66 42 67
REMARK SMILES IDX 50 68 43 69 49 70 51 71 48 72 44 73 45 74 46 75 47 76 73 77
REMARK SMILES IDX 74 78 82 79 75 80 81 81 83 82 80 83 76 84 77 85 78 86 79 87
REMARK SMILES IDX 58 88 59 89 67 90 60 91 66 92 68 93 65 94 61 95 62 96 63 97
REMARK SMILES IDX 64 98
REMARK H PARENT 4 10 8 18 88 51 56 62
REMARK Flexibility Score: inf
ROOT
ATOM      1  C   UNL A   1      40.121  21.245  26.453  1.00  0.00     0.188 C 
ENDROOT
BRANCH   1   2
ATOM      2  O   UNL A   1      39.404  22.240  25.719  1.00  0.00    -0.376 OA
BRANCH   2   3
ATOM      3  C   UNL A   1      38.386  22.900  26.472  1.00  0.00     0.202 C 
BRANCH   3   4
ATOM      4  C   UNL A   1      37.019  22.767  25.802  1.00  0.00     0.261 C 
BRANCH   4   5
ATOM      5  O   UNL A   1      37.099  22.321  24.434  1.00  0.00    -0.459 OA
BRANCH   5   6
ATOM      6  C   UNL A   1      36.338  22.958  23.513  1.00  0.00     0.361 C 
ATOM      7  O   UNL A   1      36.535  22.919  22.305  1.00  0.00    -0.245 OA
BRANCH   6   8
ATOM      8  C   UNL A   1      35.321  23.888  24.174  1.00  0.00     0.387 C 
BRANCH   8   9
ATOM      9  N   UNL A   1      33.983  24.049  23.574  1.00  0.00    -0.308 N 
ATOM     10  H   UNL A   1      34.196  23.712  22.635  1.00  0.00     0.349 HD
BRANCH   9  11
ATOM     11  C   UNL A   1      32.962  23.224  24.157  1.00  0.00     0.354 C 
BRANCH  11  12
ATOM     12  C   UNL A   1      33.244  22.042  25.071  1.00  0.00    -0.047 C 
ATOM     13  C   UNL A   1      33.486  21.029  25.855  1.00  0.00     0.010 C 
ENDBRANCH  11  12
ENDBRANCH   9  11
BRANCH   9  14
ATOM     14  C   UNL A   1      33.458  25.433  23.372  1.00  0.00     0.365 C 
BRANCH  14  15
ATOM     15  C   UNL A   1      31.931  25.670  23.187  1.00  0.00     0.279 C 
ATOM     16  O   UNL A   1      31.285  24.939  22.420  1.00  0.00    -0.268 OA
ATOM     17  N   UNL A   1      31.179  26.574  23.902  1.00  0.00    -0.319 N 
ATOM     18  H   UNL A   1      30.236  26.610  23.625  1.00  0.00     0.170 HD
BRANCH  17  19
ATOM     19  C   UNL A   1      31.495  27.462  24.960  1.00  0.00     0.079 A 
ATOM     20  C   UNL A   1      31.328  28.849  24.810  1.00  0.00     0.066 A 
ATOM     21  C   UNL A   1      31.720  27.006  26.263  1.00  0.00     0.066 A 
ATOM     22  Cl  UNL A   1      30.668  29.512  23.389  1.00  0.00    -0.082 Cl
ATOM     23  C   UNL A   1      31.635  29.759  25.822  1.00  0.00     0.023 A 
ATOM     24  C   UNL A   1      31.954  27.913  27.312  1.00  0.00     0.023 A 
ATOM     25  Cl  UNL A   1      31.623  25.326  26.653  1.00  0.00    -0.082 Cl
ATOM     26  C   UNL A   1      31.966  29.288  27.079  1.00  0.00     0.003 A 
ENDBRANCH  17  19
ENDBRANCH  14  15
ENDBRANCH   9  14
ENDBRANCH   8   9
ENDBRANCH   6   8
ENDBRANCH   5   6
ENDBRANCH   4   5
ENDBRANCH   3   4
ENDBRANCH   2   3
ENDBRANCH   1   2
BRANCH   1  27
ATOM     27  C   UNL A   1      41.559  21.696  26.723  1.00  0.00     0.188 C 
BRANCH  27  28
ATOM     28  O   UNL A   1      42.371  21.573  25.546  1.00  0.00    -0.376 OA
BRANCH  28  29
ATOM     29  C   UNL A   1      43.620  20.923  25.807  1.00  0.00     0.202 C 
BRANCH  29  30
ATOM     30  C   UNL A   1      44.763  21.312  24.855  1.00  0.00     0.261 C 
BRANCH  30  31
ATOM     31  O   UNL A   1      45.750  22.136  25.505  1.00  0.00    -0.460 OA
BRANCH  31  32
ATOM     32  C   UNL A   1      46.010  23.304  24.871  1.00  0.00     0.338 C 
ATOM     33  O   UNL A   1      46.381  23.406  23.702  1.00  0.00    -0.246 OA
BRANCH  32  34
ATOM     34  C   UNL A   1      45.701  24.484  25.724  1.00  0.00     0.060 A 
ATOM     35  C   UNL A   1      45.054  25.614  25.217  1.00  0.00     0.016 A 
ATOM     36  C   UNL A   1      46.219  24.539  27.017  1.00  0.00     0.016 A 
ATOM     37  C   UNL A   1      45.050  26.821  25.933  1.00  0.00     0.010 A 
ATOM     38  C   UNL A   1      46.083  25.709  27.781  1.00  0.00     0.010 A 
ATOM     39  C   UNL A   1      45.536  26.892  27.242  1.00  0.00    -0.014 A 
BRANCH  39  40
ATOM     40  C   UNL A   1      45.540  28.152  28.067  1.00  0.00     0.031 A 
ATOM     41  C   UNL A   1      44.266  28.565  28.766  1.00  0.00     0.074 A 
ATOM     42  C   UNL A   1      46.604  28.975  28.192  1.00  0.00     0.049 A 
ATOM     43  N   UNL A   1      43.807  29.758  29.038  1.00  0.00    -0.248 NA
ATOM     44  C   UNL A   1      43.376  27.469  29.178  1.00  0.00     0.031 C 
ATOM     45  C   UNL A   1      47.974  28.708  27.755  1.00  0.00     0.029 A 
ATOM     46  N   UNL A   1      46.678  30.250  28.718  1.00  0.00    -0.354 N 
ATOM     47  C   UNL A   1      42.520  29.564  29.535  1.00  0.00     0.074 A 
ATOM     48  C   UNL A   1      42.296  28.133  29.563  1.00  0.00     0.031 C 
ATOM     49  C   UNL A   1      48.748  29.765  28.042  1.00  0.00     0.029 A 
ATOM     50  C   UNL A   1      47.907  30.849  28.531  1.00  0.00     0.049 A 
ATOM     51  H   UNL A   1      45.929  30.688  29.182  1.00  0.00     0.167 HD
ATOM     52  C   UNL A   1      41.608  30.505  29.893  1.00  0.00     0.034 A 
ATOM     53  C   UNL A   1      48.296  32.138  28.622  1.00  0.00     0.034 A 
ATOM     54  C   UNL A   1      41.903  31.920  29.941  1.00  0.00     0.049 A 
ATOM     55  C   UNL A   1      47.267  33.191  28.946  1.00  0.00     0.074 A 
ATOM     56  C   UNL A   1      41.065  32.973  30.263  1.00  0.00     0.029 A 
ATOM     57  N   UNL A   1      43.153  32.475  29.693  1.00  0.00    -0.354 N 
ATOM     58  N   UNL A   1      45.987  33.049  29.205  1.00  0.00    -0.248 NA
ATOM     59  C   UNL A   1      47.729  34.587  28.951  1.00  0.00     0.031 C 
ATOM     60  C   UNL A   1      41.792  34.166  30.161  1.00  0.00     0.029 A 
ATOM     61  C   UNL A   1      43.103  33.852  29.843  1.00  0.00     0.049 A 
ATOM     62  H   UNL A   1      43.956  31.964  29.445  1.00  0.00     0.167 HD
ATOM     63  C   UNL A   1      45.498  34.336  29.415  1.00  0.00     0.074 A 
ATOM     64  C   UNL A   1      46.622  35.237  29.274  1.00  0.00     0.031 C 
ATOM     65  C   UNL A   1      44.232  34.738  29.695  1.00  0.00     0.034 A 
BRANCH  52  66
ATOM     66  C   UNL A   1      40.191  30.048  30.149  1.00  0.00     0.023 A 
ATOM     67  C   UNL A   1      39.170  30.150  29.190  1.00  0.00     0.031 A 
ATOM     68  C   UNL A   1      39.848  29.534  31.416  1.00  0.00     0.131 A 
ATOM     69  C   UNL A   1      37.848  29.822  29.537  1.00  0.00     0.055 A 
ATOM     70  C   UNL A   1      38.550  29.127  31.726  1.00  0.00     0.041 A 
ATOM     71  F   UNL A   1      40.774  29.433  32.385  1.00  0.00    -0.206 F 
ATOM     72  C   UNL A   1      37.536  29.287  30.789  1.00  0.00     0.022 A 
BRANCH  69  73
ATOM     73  S   UNL A   1      36.516  30.252  28.382  1.00  0.00     0.124 S 
ATOM     74  O   UNL A   1      37.052  29.757  27.117  1.00  0.00    -0.237 OA
ATOM     75  O   UNL A   1      35.379  29.520  28.925  1.00  0.00    -0.237 OA
ATOM     76  O   UNL A   1      36.429  31.708  28.485  1.00  0.00    -0.744 OA
ENDBRANCH  69  73
ENDBRANCH  52  66
BRANCH  53  77
ATOM     77  C   UNL A   1      49.692  32.535  28.263  1.00  0.00     0.023 A 
ATOM     78  C   UNL A   1      50.039  32.850  26.939  1.00  0.00     0.031 A 
ATOM     79  C   UNL A   1      50.715  32.555  29.231  1.00  0.00     0.131 A 
ATOM     80  C   UNL A   1      51.376  33.138  26.616  1.00  0.00     0.055 A 
ATOM     81  C   UNL A   1      52.028  32.909  28.916  1.00  0.00     0.041 A 
ATOM     82  F   UNL A   1      50.447  32.244  30.510  1.00  0.00    -0.206 F 
ATOM     83  C   UNL A   1      52.367  33.191  27.598  1.00  0.00     0.022 A 
BRANCH  80  84
ATOM     84  S   UNL A   1      51.821  33.354  24.871  1.00  0.00     0.124 S 
ATOM     85  O   UNL A   1      50.865  34.369  24.445  1.00  0.00    -0.237 OA
ATOM     86  O   UNL A   1      53.214  33.782  24.963  1.00  0.00    -0.237 OA
ATOM     87  O   UNL A   1      51.618  32.024  24.300  1.00  0.00    -0.744 OA
ENDBRANCH  80  84
ENDBRANCH  53  77
BRANCH  65  88
ATOM     88  C   UNL A   1      44.022  36.214  29.926  1.00  0.00     0.023 A 
ATOM     89  C   UNL A   1      43.558  37.066  28.909  1.00  0.00     0.031 A 
ATOM     90  C   UNL A   1      44.318  36.777  31.180  1.00  0.00     0.131 A 
ATOM     91  C   UNL A   1      43.453  38.444  29.148  1.00  0.00     0.055 A 
ATOM     92  C   UNL A   1      44.160  38.141  31.428  1.00  0.00     0.041 A 
ATOM     93  F   UNL A   1      44.766  36.008  32.185  1.00  0.00    -0.206 F 
ATOM     94  C   UNL A   1      43.738  38.985  30.404  1.00  0.00     0.022 A 
BRANCH  91  95
ATOM     95  S   UNL A   1      43.019  39.540  27.767  1.00  0.00     0.124 S 
ATOM     96  O   UNL A   1      43.267  38.684  26.611  1.00  0.00    -0.237 OA
ATOM     97  O   UNL A   1      41.620  39.850  28.042  1.00  0.00    -0.237 OA
ATOM     98  O   UNL A   1      43.943  40.662  27.916  1.00  0.00    -0.744 OA
ENDBRANCH  91  95
ENDBRANCH  65  88
ENDBRANCH  39  40
ENDBRANCH  32  34
ENDBRANCH  31  32
ENDBRANCH  30  31
ENDBRANCH  29  30
ENDBRANCH  28  29
ENDBRANCH  27  28
ENDBRANCH   1  27
TORSDOF 26
ENDMDL
