MODEL 1
REMARK VINA RESULT:     -11.2      0.000      0.000
REMARK SMILES C[C@H]1C[N@H+]2CCC[C@@H]2CN1c1cc(Cl)ccc1C(=O)OCCOCCOCCOC(=O)c1ccc(-c2c3nc(c(-c4cc(S(=O)(=O)[O-])ccc4F)c4ccc([nH]4)c(-c4cc(S(=O)(=O)[O-])ccc4F)c4nc(c(-c5cc(S(=O)(=O)[O-])ccc5F)c5ccc2[nH]5)C=C4)C=C3)cc1
REMARK SMILES IDX 25 1 24 2 23 3 22 4 21 5 20 6 18 7 19 8 17 9 11 10 12 11
REMARK SMILES IDX 13 12 16 13 14 14 15 15 10 16 1 17 2 18 3 19 4 20 9 21 5 22
REMARK SMILES IDX 8 23 6 25 7 26 26 27 27 28 28 29 29 30 30 31 31 32 32 33
REMARK SMILES IDX 33 34 94 35 34 36 93 37 35 38 36 39 37 40 87 41 38 42 92 43
REMARK SMILES IDX 86 44 88 45 39 46 91 47 85 48 84 49 40 51 72 52 52 53 71 54
REMARK SMILES IDX 53 55 56 56 70 57 89 58 54 59 55 60 69 62 90 63 57 64 41 65
REMARK SMILES IDX 42 66 50 67 43 68 49 69 51 70 48 71 44 72 45 73 46 74 47 75
REMARK SMILES IDX 73 76 74 77 82 78 75 79 81 80 83 81 80 82 76 83 77 84 78 85
REMARK SMILES IDX 79 86 58 87 59 88 67 89 60 90 66 91 68 92 65 93 61 94 62 95
REMARK SMILES IDX 63 96 64 97
REMARK H PARENT 4 24 88 50 56 61
REMARK Flexibility Score: inf
ROOT
ATOM      1  C   UNL A   1      35.271  22.896  26.198  1.00  0.00     0.188 C 
ENDROOT
BRANCH   1   2
ATOM      2  C   UNL A   1      33.840  23.287  26.620  1.00  0.00     0.188 C 
BRANCH   2   3
ATOM      3  O   UNL A   1      33.296  24.507  26.123  1.00  0.00    -0.376 OA
BRANCH   3   4
ATOM      4  C   UNL A   1      32.034  24.932  26.629  1.00  0.00     0.202 C 
BRANCH   4   5
ATOM      5  C   UNL A   1      31.759  26.434  26.557  1.00  0.00     0.261 C 
BRANCH   5   6
ATOM      6  O   UNL A   1      32.478  27.019  25.459  1.00  0.00    -0.460 OA
BRANCH   6   7
ATOM      7  C   UNL A   1      32.376  28.361  25.345  1.00  0.00     0.340 C 
ATOM      8  O   UNL A   1      33.114  29.175  25.880  1.00  0.00    -0.246 OA
BRANCH   7   9
ATOM      9  C   UNL A   1      31.326  28.757  24.369  1.00  0.00     0.083 A 
ATOM     10  C   UNL A   1      30.863  27.984  23.270  1.00  0.00     0.053 A 
ATOM     11  C   UNL A   1      29.744  28.506  22.588  1.00  0.00     0.047 A 
ATOM     12  C   UNL A   1      29.214  29.770  22.862  1.00  0.00     0.043 A 
ATOM     13  C   UNL A   1      30.785  30.036  24.639  1.00  0.00     0.019 A 
ATOM     14  Cl  UNL A   1      27.892  30.359  21.930  1.00  0.00    -0.084 Cl
ATOM     15  C   UNL A   1      29.753  30.555  23.866  1.00  0.00     0.021 A 
BRANCH  10  16
ATOM     16  N   UNL A   1      31.449  26.802  22.823  1.00  0.00    -0.356 N 
ATOM     17  C   UNL A   1      33.660  27.822  22.008  1.00  0.00     0.037 C 
ATOM     18  C   UNL A   1      32.597  26.723  21.844  1.00  0.00     0.134 C 
ATOM     19  C   UNL A   1      33.389  25.361  21.977  1.00  0.00     0.287 C 
ATOM     20  N   UNL A   1      32.543  24.172  22.135  1.00  0.00    -0.329 N 
ATOM     21  C   UNL A   1      30.660  25.548  22.909  1.00  0.00     0.182 C 
ATOM     22  C   UNL A   1      33.269  22.953  22.487  1.00  0.00     0.262 C 
ATOM     23  C   UNL A   1      31.626  24.415  23.264  1.00  0.00     0.203 C 
ATOM     24  H   UNL A   1      32.089  24.030  21.233  1.00  0.00     0.348 HD
ATOM     25  C   UNL A   1      32.271  22.145  23.325  1.00  0.00     0.068 C 
ATOM     26  C   UNL A   1      31.037  23.037  23.460  1.00  0.00     0.073 C 
ENDBRANCH  10  16
ENDBRANCH   7   9
ENDBRANCH   6   7
ENDBRANCH   5   6
ENDBRANCH   4   5
ENDBRANCH   3   4
ENDBRANCH   2   3
ENDBRANCH   1   2
BRANCH   1  27
ATOM     27  O   UNL A   1      35.491  21.494  26.082  1.00  0.00    -0.376 OA
BRANCH  27  28
ATOM     28  C   UNL A   1      36.242  21.097  24.943  1.00  0.00     0.202 C 
BRANCH  28  29
ATOM     29  C   UNL A   1      37.688  20.715  25.279  1.00  0.00     0.261 C 
BRANCH  29  30
ATOM     30  O   UNL A   1      38.584  21.827  25.428  1.00  0.00    -0.460 OA
BRANCH  30  31
ATOM     31  C   UNL A   1      39.577  21.693  26.338  1.00  0.00     0.338 C 
ATOM     32  O   UNL A   1      40.246  20.696  26.542  1.00  0.00    -0.246 OA
BRANCH  31  33
ATOM     33  C   UNL A   1      39.855  23.026  26.914  1.00  0.00     0.060 A 
ATOM     34  C   UNL A   1      39.073  24.113  26.503  1.00  0.00     0.016 A 
ATOM     35  C   UNL A   1      40.868  23.201  27.862  1.00  0.00     0.016 A 
ATOM     36  C   UNL A   1      39.330  25.388  27.013  1.00  0.00     0.010 A 
ATOM     37  C   UNL A   1      41.133  24.481  28.360  1.00  0.00     0.010 A 
ATOM     38  C   UNL A   1      40.386  25.585  27.914  1.00  0.00    -0.014 A 
BRANCH  38  39
ATOM     39  C   UNL A   1      40.837  26.964  28.229  1.00  0.00     0.031 A 
ATOM     40  C   UNL A   1      42.267  27.330  27.933  1.00  0.00     0.074 A 
ATOM     41  C   UNL A   1      40.000  27.876  28.758  1.00  0.00     0.049 A 
ATOM     42  N   UNL A   1      42.891  28.464  28.114  1.00  0.00    -0.248 NA
ATOM     43  C   UNL A   1      43.106  26.264  27.361  1.00  0.00     0.031 C 
ATOM     44  C   UNL A   1      38.594  27.648  29.083  1.00  0.00     0.029 A 
ATOM     45  N   UNL A   1      40.222  29.181  29.124  1.00  0.00    -0.354 N 
ATOM     46  C   UNL A   1      44.194  28.252  27.675  1.00  0.00     0.074 A 
ATOM     47  C   UNL A   1      44.277  26.869  27.257  1.00  0.00     0.031 C 
ATOM     48  C   UNL A   1      38.082  28.772  29.615  1.00  0.00     0.029 A 
ATOM     49  C   UNL A   1      39.127  29.793  29.688  1.00  0.00     0.049 A 
ATOM     50  H   UNL A   1      41.085  29.637  28.994  1.00  0.00     0.167 HD
ATOM     51  C   UNL A   1      45.224  29.131  27.615  1.00  0.00     0.034 A 
ATOM     52  C   UNL A   1      38.993  31.027  30.217  1.00  0.00     0.034 A 
ATOM     53  C   UNL A   1      45.138  30.502  28.052  1.00  0.00     0.049 A 
ATOM     54  C   UNL A   1      40.173  31.972  30.195  1.00  0.00     0.074 A 
ATOM     55  C   UNL A   1      46.111  31.485  28.002  1.00  0.00     0.029 A 
ATOM     56  N   UNL A   1      44.020  31.080  28.638  1.00  0.00    -0.354 N 
ATOM     57  N   UNL A   1      41.384  31.776  29.725  1.00  0.00    -0.248 NA
ATOM     58  C   UNL A   1      39.961  33.312  30.763  1.00  0.00     0.031 C 
ATOM     59  C   UNL A   1      45.606  32.634  28.620  1.00  0.00     0.029 A 
ATOM     60  C   UNL A   1      44.291  32.393  28.988  1.00  0.00     0.049 A 
ATOM     61  H   UNL A   1      43.159  30.624  28.783  1.00  0.00     0.167 HD
ATOM     62  C   UNL A   1      42.066  32.977  29.915  1.00  0.00     0.074 A 
ATOM     63  C   UNL A   1      41.127  33.895  30.526  1.00  0.00     0.031 C 
ATOM     64  C   UNL A   1      43.350  33.296  29.609  1.00  0.00     0.034 A 
BRANCH  51  65
ATOM     65  C   UNL A   1      46.544  28.610  27.105  1.00  0.00     0.023 A 
ATOM     66  C   UNL A   1      46.790  28.436  25.733  1.00  0.00     0.031 A 
ATOM     67  C   UNL A   1      47.559  28.252  28.009  1.00  0.00     0.131 A 
ATOM     68  C   UNL A   1      47.994  27.856  25.306  1.00  0.00     0.055 A 
ATOM     69  C   UNL A   1      48.784  27.743  27.574  1.00  0.00     0.041 A 
ATOM     70  F   UNL A   1      47.370  28.373  29.333  1.00  0.00    -0.206 F 
ATOM     71  C   UNL A   1      49.003  27.530  26.216  1.00  0.00     0.022 A 
BRANCH  68  72
ATOM     72  S   UNL A   1      48.174  27.414  23.556  1.00  0.00     0.124 S 
ATOM     73  O   UNL A   1      49.545  27.842  23.283  1.00  0.00    -0.237 OA
ATOM     74  O   UNL A   1      47.946  25.975  23.569  1.00  0.00    -0.237 OA
ATOM     75  O   UNL A   1      47.139  28.205  22.894  1.00  0.00    -0.744 OA
ENDBRANCH  68  72
ENDBRANCH  51  65
BRANCH  52  76
ATOM     76  C   UNL A   1      37.711  31.444  30.857  1.00  0.00     0.023 A 
ATOM     77  C   UNL A   1      36.727  32.141  30.137  1.00  0.00     0.031 A 
ATOM     78  C   UNL A   1      37.489  31.221  32.228  1.00  0.00     0.131 A 
ATOM     79  C   UNL A   1      35.593  32.637  30.802  1.00  0.00     0.055 A 
ATOM     80  C   UNL A   1      36.336  31.671  32.874  1.00  0.00     0.041 A 
ATOM     81  F   UNL A   1      38.399  30.563  32.964  1.00  0.00    -0.206 F 
ATOM     82  C   UNL A   1      35.386  32.397  32.162  1.00  0.00     0.022 A 
BRANCH  79  83
ATOM     83  S   UNL A   1      34.434  33.687  29.880  1.00  0.00     0.124 S 
ATOM     84  O   UNL A   1      35.343  34.563  29.149  1.00  0.00    -0.237 OA
ATOM     85  O   UNL A   1      33.708  32.705  29.082  1.00  0.00    -0.237 OA
ATOM     86  O   UNL A   1      33.652  34.334  30.931  1.00  0.00    -0.744 OA
ENDBRANCH  79  83
ENDBRANCH  52  76
BRANCH  64  87
ATOM     87  C   UNL A   1      43.795  34.710  29.894  1.00  0.00     0.023 A 
ATOM     88  C   UNL A   1      43.579  35.755  28.979  1.00  0.00     0.031 A 
ATOM     89  C   UNL A   1      44.459  35.013  31.098  1.00  0.00     0.131 A 
ATOM     90  C   UNL A   1      44.072  37.040  29.256  1.00  0.00     0.055 A 
ATOM     91  C   UNL A   1      44.895  36.305  31.393  1.00  0.00     0.041 A 
ATOM     92  F   UNL A   1      44.693  34.053  32.009  1.00  0.00    -0.206 F 
ATOM     93  C   UNL A   1      44.715  37.325  30.464  1.00  0.00     0.022 A 
BRANCH  90  94
ATOM     94  S   UNL A   1      43.946  38.318  27.974  1.00  0.00     0.124 S 
ATOM     95  O   UNL A   1      45.346  38.664  27.751  1.00  0.00    -0.237 OA
ATOM     96  O   UNL A   1      43.285  37.605  26.887  1.00  0.00    -0.237 OA
ATOM     97  O   UNL A   1      43.143  39.363  28.608  1.00  0.00    -0.744 OA
ENDBRANCH  90  94
ENDBRANCH  64  87
ENDBRANCH  38  39
ENDBRANCH  31  33
ENDBRANCH  30  31
ENDBRANCH  29  30
ENDBRANCH  28  29
ENDBRANCH  27  28
ENDBRANCH   1  27
TORSDOF 21
ENDMDL
MODEL 2
REMARK VINA RESULT:     -10.9      3.411      5.541
REMARK SMILES C[C@H]1C[N@H+]2CCC[C@@H]2CN1c1cc(Cl)ccc1C(=O)OCCOCCOCCOC(=O)c1ccc(-c2c3nc(c(-c4cc(S(=O)(=O)[O-])ccc4F)c4ccc([nH]4)c(-c4cc(S(=O)(=O)[O-])ccc4F)c4nc(c(-c5cc(S(=O)(=O)[O-])ccc5F)c5ccc2[nH]5)C=C4)C=C3)cc1
REMARK SMILES IDX 25 1 24 2 23 3 22 4 21 5 20 6 18 7 19 8 17 9 11 10 12 11
REMARK SMILES IDX 13 12 16 13 14 14 15 15 10 16 1 17 2 18 3 19 4 20 9 21 5 22
REMARK SMILES IDX 8 23 6 25 7 26 26 27 27 28 28 29 29 30 30 31 31 32 32 33
REMARK SMILES IDX 33 34 94 35 34 36 93 37 35 38 36 39 37 40 87 41 38 42 92 43
REMARK SMILES IDX 86 44 88 45 39 46 91 47 85 48 84 49 40 51 72 52 52 53 71 54
REMARK SMILES IDX 53 55 56 56 70 57 89 58 54 59 55 60 69 62 90 63 57 64 41 65
REMARK SMILES IDX 42 66 50 67 43 68 49 69 51 70 48 71 44 72 45 73 46 74 47 75
REMARK SMILES IDX 73 76 74 77 82 78 75 79 81 80 83 81 80 82 76 83 77 84 78 85
REMARK SMILES IDX 79 86 58 87 59 88 67 89 60 90 66 91 68 92 65 93 61 94 62 95
REMARK SMILES IDX 63 96 64 97
REMARK H PARENT 4 24 88 50 56 61
REMARK Flexibility Score: inf
ROOT
ATOM      1  C   UNL A   1      41.615  21.611  26.300  1.00  0.00     0.188 C 
ENDROOT
BRANCH   1   2
ATOM      2  C   UNL A   1      40.263  21.864  26.999  1.00  0.00     0.188 C 
BRANCH   2   3
ATOM      3  O   UNL A   1      39.107  22.056  26.188  1.00  0.00    -0.376 OA
BRANCH   3   4
ATOM      4  C   UNL A   1      38.337  23.239  26.390  1.00  0.00     0.202 C 
BRANCH   4   5
ATOM      5  C   UNL A   1      37.255  23.514  25.347  1.00  0.00     0.261 C 
BRANCH   5   6
ATOM      6  O   UNL A   1      36.116  22.669  25.576  1.00  0.00    -0.460 OA
BRANCH   6   7
ATOM      7  C   UNL A   1      35.421  22.315  24.474  1.00  0.00     0.340 C 
ATOM      8  O   UNL A   1      35.549  22.814  23.365  1.00  0.00    -0.246 OA
BRANCH   7   9
ATOM      9  C   UNL A   1      34.553  21.132  24.721  1.00  0.00     0.083 A 
ATOM     10  C   UNL A   1      33.162  21.156  25.013  1.00  0.00     0.053 A 
ATOM     11  C   UNL A   1      32.526  19.897  25.043  1.00  0.00     0.047 A 
ATOM     12  C   UNL A   1      33.230  18.692  24.950  1.00  0.00     0.043 A 
ATOM     13  C   UNL A   1      35.258  19.910  24.630  1.00  0.00     0.019 A 
ATOM     14  Cl  UNL A   1      32.382  17.199  25.071  1.00  0.00    -0.084 Cl
ATOM     15  C   UNL A   1      34.603  18.692  24.777  1.00  0.00     0.021 A 
BRANCH  10  16
ATOM     16  N   UNL A   1      32.425  22.303  25.293  1.00  0.00    -0.356 N 
ATOM     17  C   UNL A   1      33.043  22.488  27.779  1.00  0.00     0.037 C 
ATOM     18  C   UNL A   1      32.002  22.741  26.676  1.00  0.00     0.134 C 
ATOM     19  C   UNL A   1      31.710  24.294  26.736  1.00  0.00     0.287 C 
ATOM     20  N   UNL A   1      30.955  24.821  25.591  1.00  0.00    -0.329 N 
ATOM     21  C   UNL A   1      31.601  22.894  24.210  1.00  0.00     0.182 C 
ATOM     22  C   UNL A   1      30.885  26.280  25.530  1.00  0.00     0.262 C 
ATOM     23  C   UNL A   1      31.659  24.416  24.360  1.00  0.00     0.203 C 
ATOM     24  H   UNL A   1      30.008  24.455  25.687  1.00  0.00     0.348 HD
ATOM     25  C   UNL A   1      30.810  26.594  24.031  1.00  0.00     0.068 C 
ATOM     26  C   UNL A   1      30.931  25.243  23.326  1.00  0.00     0.073 C 
ENDBRANCH  10  16
ENDBRANCH   7   9
ENDBRANCH   6   7
ENDBRANCH   5   6
ENDBRANCH   4   5
ENDBRANCH   3   4
ENDBRANCH   2   3
ENDBRANCH   1   2
BRANCH   1  27
ATOM     27  O   UNL A   1      41.650  20.441  25.489  1.00  0.00    -0.376 OA
BRANCH  27  28
ATOM     28  C   UNL A   1      42.123  19.271  26.145  1.00  0.00     0.202 C 
BRANCH  28  29
ATOM     29  C   UNL A   1      43.458  18.766  25.587  1.00  0.00     0.261 C 
BRANCH  29  30
ATOM     30  O   UNL A   1      43.903  19.435  24.396  1.00  0.00    -0.460 OA
BRANCH  30  31
ATOM     31  C   UNL A   1      45.125  20.013  24.441  1.00  0.00     0.338 C 
ATOM     32  O   UNL A   1      46.156  19.573  23.963  1.00  0.00    -0.246 OA
BRANCH  31  33
ATOM     33  C   UNL A   1      44.969  21.374  24.997  1.00  0.00     0.060 A 
ATOM     34  C   UNL A   1      44.532  22.401  24.150  1.00  0.00     0.016 A 
ATOM     35  C   UNL A   1      45.236  21.633  26.345  1.00  0.00     0.016 A 
ATOM     36  C   UNL A   1      44.400  23.701  24.644  1.00  0.00     0.010 A 
ATOM     37  C   UNL A   1      45.116  22.939  26.833  1.00  0.00     0.010 A 
ATOM     38  C   UNL A   1      44.728  23.984  25.977  1.00  0.00    -0.014 A 
BRANCH  38  39
ATOM     39  C   UNL A   1      44.862  25.395  26.419  1.00  0.00     0.031 A 
ATOM     40  C   UNL A   1      46.228  26.027  26.377  1.00  0.00     0.074 A 
ATOM     41  C   UNL A   1      43.800  26.106  26.840  1.00  0.00     0.049 A 
ATOM     42  N   UNL A   1      46.596  27.237  26.704  1.00  0.00    -0.248 NA
ATOM     43  C   UNL A   1      47.327  25.168  25.907  1.00  0.00     0.031 C 
ATOM     44  C   UNL A   1      42.427  25.611  26.920  1.00  0.00     0.029 A 
ATOM     45  N   UNL A   1      43.718  27.401  27.290  1.00  0.00    -0.354 N 
ATOM     46  C   UNL A   1      47.967  27.290  26.477  1.00  0.00     0.074 A 
ATOM     47  C   UNL A   1      48.369  25.976  26.022  1.00  0.00     0.031 C 
ATOM     48  C   UNL A   1      41.640  26.588  27.406  1.00  0.00     0.029 A 
ATOM     49  C   UNL A   1      42.455  27.769  27.692  1.00  0.00     0.049 A 
ATOM     50  H   UNL A   1      44.491  28.009  27.323  1.00  0.00     0.167 HD
ATOM     51  C   UNL A   1      48.814  28.338  26.623  1.00  0.00     0.034 A 
ATOM     52  C   UNL A   1      42.015  28.920  28.242  1.00  0.00     0.034 A 
ATOM     53  C   UNL A   1      48.410  29.638  27.095  1.00  0.00     0.049 A 
ATOM     54  C   UNL A   1      42.989  30.057  28.453  1.00  0.00     0.074 A 
ATOM     55  C   UNL A   1      49.179  30.778  27.246  1.00  0.00     0.029 A 
ATOM     56  N   UNL A   1      47.127  29.969  27.513  1.00  0.00    -0.354 N 
ATOM     57  N   UNL A   1      44.272  30.111  28.180  1.00  0.00    -0.248 NA
ATOM     58  C   UNL A   1      42.448  31.296  29.033  1.00  0.00     0.031 C 
ATOM     59  C   UNL A   1      48.381  31.774  27.819  1.00  0.00     0.029 A 
ATOM     60  C   UNL A   1      47.093  31.281  27.957  1.00  0.00     0.049 A 
ATOM     61  H   UNL A   1      46.354  29.359  27.496  1.00  0.00     0.167 HD
ATOM     62  C   UNL A   1      44.683  31.397  28.529  1.00  0.00     0.074 A 
ATOM     63  C   UNL A   1      43.508  32.090  29.015  1.00  0.00     0.031 C 
ATOM     64  C   UNL A   1      45.918  31.958  28.451  1.00  0.00     0.034 A 
BRANCH  51  65
ATOM     65  C   UNL A   1      50.269  28.095  26.315  1.00  0.00     0.023 A 
ATOM     66  C   UNL A   1      50.777  28.195  25.008  1.00  0.00     0.031 A 
ATOM     67  C   UNL A   1      51.157  27.725  27.341  1.00  0.00     0.131 A 
ATOM     68  C   UNL A   1      52.116  27.864  24.750  1.00  0.00     0.055 A 
ATOM     69  C   UNL A   1      52.506  27.469  27.090  1.00  0.00     0.041 A 
ATOM     70  F   UNL A   1      50.722  27.590  28.604  1.00  0.00    -0.206 F 
ATOM     71  C   UNL A   1      52.990  27.524  25.786  1.00  0.00     0.022 A 
BRANCH  68  72
ATOM     72  S   UNL A   1      52.668  27.759  23.026  1.00  0.00     0.124 S 
ATOM     73  O   UNL A   1      53.762  28.728  23.006  1.00  0.00    -0.237 OA
ATOM     74  O   UNL A   1      53.055  26.359  22.903  1.00  0.00    -0.237 OA
ATOM     75  O   UNL A   1      51.486  28.150  22.262  1.00  0.00    -0.744 OA
ENDBRANCH  68  72
ENDBRANCH  51  65
BRANCH  52  76
ATOM     76  C   UNL A   1      40.595  29.059  28.680  1.00  0.00     0.023 A 
ATOM     77  C   UNL A   1      40.232  28.948  30.032  1.00  0.00     0.031 A 
ATOM     78  C   UNL A   1      39.567  29.225  27.734  1.00  0.00     0.131 A 
ATOM     79  C   UNL A   1      38.875  28.949  30.395  1.00  0.00     0.055 A 
ATOM     80  C   UNL A   1      38.222  29.277  28.105  1.00  0.00     0.041 A 
ATOM     81  F   UNL A   1      39.857  29.333  26.428  1.00  0.00    -0.206 F 
ATOM     82  C   UNL A   1      37.869  29.124  29.442  1.00  0.00     0.022 A 
BRANCH  79  83
ATOM     83  S   UNL A   1      38.438  28.621  32.126  1.00  0.00     0.124 S 
ATOM     84  O   UNL A   1      38.575  27.171  32.198  1.00  0.00    -0.237 OA
ATOM     85  O   UNL A   1      39.443  29.398  32.843  1.00  0.00    -0.237 OA
ATOM     86  O   UNL A   1      37.070  29.126  32.233  1.00  0.00    -0.744 OA
ENDBRANCH  79  83
ENDBRANCH  52  76
BRANCH  64  87
ATOM     87  C   UNL A   1      46.044  33.405  28.864  1.00  0.00     0.023 A 
ATOM     88  C   UNL A   1      45.826  34.457  27.957  1.00  0.00     0.031 A 
ATOM     89  C   UNL A   1      46.401  33.734  30.184  1.00  0.00     0.131 A 
ATOM     90  C   UNL A   1      46.023  35.785  28.366  1.00  0.00     0.055 A 
ATOM     91  C   UNL A   1      46.538  35.059  30.600  1.00  0.00     0.041 A 
ATOM     92  F   UNL A   1      46.622  32.770  31.093  1.00  0.00    -0.206 F 
ATOM     93  C   UNL A   1      46.363  36.093  29.687  1.00  0.00     0.022 A 
BRANCH  90  94
ATOM     94  S   UNL A   1      45.922  37.105  27.125  1.00  0.00     0.124 S 
ATOM     95  O   UNL A   1      46.618  38.202  27.791  1.00  0.00    -0.237 OA
ATOM     96  O   UNL A   1      46.610  36.513  25.984  1.00  0.00    -0.237 OA
ATOM     97  O   UNL A   1      44.483  37.300  26.948  1.00  0.00    -0.744 OA
ENDBRANCH  90  94
ENDBRANCH  64  87
ENDBRANCH  38  39
ENDBRANCH  31  33
ENDBRANCH  30  31
ENDBRANCH  29  30
ENDBRANCH  28  29
ENDBRANCH  27  28
ENDBRANCH   1  27
TORSDOF 21
ENDMDL
MODEL 3
REMARK VINA RESULT:     -10.9      1.879      3.130
REMARK SMILES C[C@H]1C[N@H+]2CCC[C@@H]2CN1c1cc(Cl)ccc1C(=O)OCCOCCOCCOC(=O)c1ccc(-c2c3nc(c(-c4cc(S(=O)(=O)[O-])ccc4F)c4ccc([nH]4)c(-c4cc(S(=O)(=O)[O-])ccc4F)c4nc(c(-c5cc(S(=O)(=O)[O-])ccc5F)c5ccc2[nH]5)C=C4)C=C3)cc1
REMARK SMILES IDX 25 1 24 2 23 3 22 4 21 5 20 6 18 7 19 8 17 9 11 10 12 11
REMARK SMILES IDX 13 12 16 13 14 14 15 15 10 16 1 17 2 18 3 19 4 20 9 21 5 22
REMARK SMILES IDX 8 23 6 25 7 26 26 27 27 28 28 29 29 30 30 31 31 32 32 33
REMARK SMILES IDX 33 34 94 35 34 36 93 37 35 38 36 39 37 40 87 41 38 42 92 43
REMARK SMILES IDX 86 44 88 45 39 46 91 47 85 48 84 49 40 51 72 52 52 53 71 54
REMARK SMILES IDX 53 55 56 56 70 57 89 58 54 59 55 60 69 62 90 63 57 64 41 65
REMARK SMILES IDX 42 66 50 67 43 68 49 69 51 70 48 71 44 72 45 73 46 74 47 75
REMARK SMILES IDX 73 76 74 77 82 78 75 79 81 80 83 81 80 82 76 83 77 84 78 85
REMARK SMILES IDX 79 86 58 87 59 88 67 89 60 90 66 91 68 92 65 93 61 94 62 95
REMARK SMILES IDX 63 96 64 97
REMARK H PARENT 4 24 88 50 56 61
REMARK Flexibility Score: inf
ROOT
ATOM      1  C   UNL A   1      34.603  22.499  26.119  1.00  0.00     0.188 C 
ENDROOT
BRANCH   1   2
ATOM      2  C   UNL A   1      33.246  22.505  26.851  1.00  0.00     0.188 C 
BRANCH   2   3
ATOM      3  O   UNL A   1      32.126  21.901  26.209  1.00  0.00    -0.376 OA
BRANCH   3   4
ATOM      4  C   UNL A   1      30.963  22.698  26.004  1.00  0.00     0.202 C 
BRANCH   4   5
ATOM      5  C   UNL A   1      30.935  24.037  26.739  1.00  0.00     0.261 C 
BRANCH   5   6
ATOM      6  O   UNL A   1      30.807  25.118  25.801  1.00  0.00    -0.460 OA
BRANCH   6   7
ATOM      7  C   UNL A   1      31.968  25.656  25.370  1.00  0.00     0.340 C 
ATOM      8  O   UNL A   1      32.906  25.982  26.083  1.00  0.00    -0.246 OA
BRANCH   7   9
ATOM      9  C   UNL A   1      32.045  25.692  23.885  1.00  0.00     0.083 A 
ATOM     10  C   UNL A   1      31.669  26.779  23.048  1.00  0.00     0.053 A 
ATOM     11  C   UNL A   1      31.991  26.634  21.683  1.00  0.00     0.047 A 
ATOM     12  C   UNL A   1      32.500  25.446  21.148  1.00  0.00     0.043 A 
ATOM     13  C   UNL A   1      32.557  24.494  23.336  1.00  0.00     0.019 A 
ATOM     14  Cl  UNL A   1      32.795  25.332  19.456  1.00  0.00    -0.084 Cl
ATOM     15  C   UNL A   1      32.754  24.359  21.966  1.00  0.00     0.021 A 
BRANCH  10  16
ATOM     16  N   UNL A   1      30.999  27.921  23.477  1.00  0.00    -0.356 N 
ATOM     17  C   UNL A   1      33.025  29.125  24.497  1.00  0.00     0.037 C 
ATOM     18  C   UNL A   1      31.508  28.877  24.531  1.00  0.00     0.134 C 
ATOM     19  C   UNL A   1      30.855  30.310  24.388  1.00  0.00     0.287 C 
ATOM     20  N   UNL A   1      29.412  30.302  24.112  1.00  0.00    -0.329 N 
ATOM     21  C   UNL A   1      29.531  27.995  23.274  1.00  0.00     0.182 C 
ATOM     22  C   UNL A   1      28.856  31.606  23.754  1.00  0.00     0.262 C 
ATOM     23  C   UNL A   1      29.182  29.446  22.934  1.00  0.00     0.203 C 
ATOM     24  H   UNL A   1      28.965  29.984  24.971  1.00  0.00     0.348 HD
ATOM     25  C   UNL A   1      27.695  31.276  22.808  1.00  0.00     0.068 C 
ATOM     26  C   UNL A   1      27.735  29.758  22.629  1.00  0.00     0.073 C 
ENDBRANCH  10  16
ENDBRANCH   7   9
ENDBRANCH   6   7
ENDBRANCH   5   6
ENDBRANCH   4   5
ENDBRANCH   3   4
ENDBRANCH   2   3
ENDBRANCH   1   2
BRANCH   1  27
ATOM     27  O   UNL A   1      34.712  21.525  25.085  1.00  0.00    -0.376 OA
BRANCH  27  28
ATOM     28  C   UNL A   1      36.031  21.310  24.600  1.00  0.00     0.202 C 
BRANCH  28  29
ATOM     29  C   UNL A   1      37.088  21.313  25.710  1.00  0.00     0.261 C 
BRANCH  29  30
ATOM     30  O   UNL A   1      38.401  21.717  25.288  1.00  0.00    -0.460 OA
BRANCH  30  31
ATOM     31  C   UNL A   1      39.415  21.499  26.156  1.00  0.00     0.338 C 
ATOM     32  O   UNL A   1      40.037  20.462  26.302  1.00  0.00    -0.246 OA
BRANCH  31  33
ATOM     33  C   UNL A   1      39.783  22.795  26.766  1.00  0.00     0.060 A 
ATOM     34  C   UNL A   1      39.059  23.938  26.405  1.00  0.00     0.016 A 
ATOM     35  C   UNL A   1      40.822  22.881  27.698  1.00  0.00     0.016 A 
ATOM     36  C   UNL A   1      39.401  25.179  26.948  1.00  0.00     0.010 A 
ATOM     37  C   UNL A   1      41.171  24.126  28.229  1.00  0.00     0.010 A 
ATOM     38  C   UNL A   1      40.484  25.286  27.832  1.00  0.00    -0.014 A 
BRANCH  38  39
ATOM     39  C   UNL A   1      41.021  26.625  28.180  1.00  0.00     0.031 A 
ATOM     40  C   UNL A   1      42.451  26.931  27.823  1.00  0.00     0.074 A 
ATOM     41  C   UNL A   1      40.262  27.554  28.789  1.00  0.00     0.049 A 
ATOM     42  N   UNL A   1      43.143  28.024  28.017  1.00  0.00    -0.248 NA
ATOM     43  C   UNL A   1      43.203  25.851  27.164  1.00  0.00     0.031 C 
ATOM     44  C   UNL A   1      38.863  27.382  29.179  1.00  0.00     0.029 A 
ATOM     45  N   UNL A   1      40.570  28.829  29.196  1.00  0.00    -0.354 N 
ATOM     46  C   UNL A   1      44.409  27.766  27.502  1.00  0.00     0.074 A 
ATOM     47  C   UNL A   1      44.398  26.400  27.023  1.00  0.00     0.031 C 
ATOM     48  C   UNL A   1      38.439  28.507  29.783  1.00  0.00     0.029 A 
ATOM     49  C   UNL A   1      39.539  29.470  29.842  1.00  0.00     0.049 A 
ATOM     50  H   UNL A   1      41.448  29.246  29.039  1.00  0.00     0.167 HD
ATOM     51  C   UNL A   1      45.479  28.594  27.423  1.00  0.00     0.034 A 
ATOM     52  C   UNL A   1      39.496  30.684  30.428  1.00  0.00     0.034 A 
ATOM     53  C   UNL A   1      45.487  29.947  27.920  1.00  0.00     0.049 A 
ATOM     54  C   UNL A   1      40.722  31.569  30.382  1.00  0.00     0.074 A 
ATOM     55  C   UNL A   1      46.506  30.881  27.859  1.00  0.00     0.029 A 
ATOM     56  N   UNL A   1      44.432  30.555  28.588  1.00  0.00    -0.354 N 
ATOM     57  N   UNL A   1      41.895  31.333  29.841  1.00  0.00    -0.248 NA
ATOM     58  C   UNL A   1      40.610  32.891  31.016  1.00  0.00     0.031 C 
ATOM     59  C   UNL A   1      46.094  32.026  28.550  1.00  0.00     0.029 A 
ATOM     60  C   UNL A   1      44.790  31.836  28.978  1.00  0.00     0.049 A 
ATOM     61  H   UNL A   1      43.557  30.136  28.759  1.00  0.00     0.167 HD
ATOM     62  C   UNL A   1      42.648  32.489  30.044  1.00  0.00     0.074 A 
ATOM     63  C   UNL A   1      41.790  33.425  30.741  1.00  0.00     0.031 C 
ATOM     64  C   UNL A   1      43.930  32.756  29.684  1.00  0.00     0.034 A 
BRANCH  51  65
ATOM     65  C   UNL A   1      46.742  28.031  26.823  1.00  0.00     0.023 A 
ATOM     66  C   UNL A   1      47.021  28.138  25.450  1.00  0.00     0.031 A 
ATOM     67  C   UNL A   1      47.666  27.347  27.633  1.00  0.00     0.131 A 
ATOM     68  C   UNL A   1      48.159  27.515  24.916  1.00  0.00     0.055 A 
ATOM     69  C   UNL A   1      48.833  26.791  27.107  1.00  0.00     0.041 A 
ATOM     70  F   UNL A   1      47.439  27.192  28.947  1.00  0.00    -0.206 F 
ATOM     71  C   UNL A   1      49.079  26.861  25.739  1.00  0.00     0.022 A 
BRANCH  68  72
ATOM     72  S   UNL A   1      48.353  27.457  23.114  1.00  0.00     0.124 S 
ATOM     73  O   UNL A   1      47.190  28.220  22.667  1.00  0.00    -0.237 OA
ATOM     74  O   UNL A   1      49.649  28.093  22.915  1.00  0.00    -0.237 OA
ATOM     75  O   UNL A   1      48.306  26.028  22.809  1.00  0.00    -0.744 OA
ENDBRANCH  68  72
ENDBRANCH  51  65
BRANCH  52  76
ATOM     76  C   UNL A   1      38.272  31.137  31.152  1.00  0.00     0.023 A 
ATOM     77  C   UNL A   1      37.214  31.767  30.477  1.00  0.00     0.031 A 
ATOM     78  C   UNL A   1      38.182  31.017  32.551  1.00  0.00     0.131 A 
ATOM     79  C   UNL A   1      36.139  32.301  31.205  1.00  0.00     0.055 A 
ATOM     80  C   UNL A   1      37.086  31.504  33.265  1.00  0.00     0.041 A 
ATOM     81  F   UNL A   1      39.167  30.427  33.246  1.00  0.00    -0.206 F 
ATOM     82  C   UNL A   1      36.062  32.164  32.593  1.00  0.00     0.022 A 
BRANCH  79  83
ATOM     83  S   UNL A   1      34.882  33.266  30.319  1.00  0.00     0.124 S 
ATOM     84  O   UNL A   1      35.697  34.273  29.651  1.00  0.00    -0.237 OA
ATOM     85  O   UNL A   1      34.277  32.254  29.459  1.00  0.00    -0.237 OA
ATOM     86  O   UNL A   1      34.021  33.767  31.389  1.00  0.00    -0.744 OA
ENDBRANCH  79  83
ENDBRANCH  52  76
BRANCH  64  87
ATOM     87  C   UNL A   1      44.462  34.133  30.003  1.00  0.00     0.023 A 
ATOM     88  C   UNL A   1      45.069  34.425  31.237  1.00  0.00     0.031 A 
ATOM     89  C   UNL A   1      44.347  35.171  29.061  1.00  0.00     0.131 A 
ATOM     90  C   UNL A   1      45.487  35.736  31.518  1.00  0.00     0.055 A 
ATOM     91  C   UNL A   1      44.817  36.458  29.323  1.00  0.00     0.041 A 
ATOM     92  F   UNL A   1      43.774  34.949  27.866  1.00  0.00    -0.206 F 
ATOM     93  C   UNL A   1      45.378  36.751  30.562  1.00  0.00     0.022 A 
BRANCH  90  94
ATOM     94  S   UNL A   1      46.090  36.122  33.185  1.00  0.00     0.124 S 
ATOM     95  O   UNL A   1      47.289  36.903  32.901  1.00  0.00    -0.237 OA
ATOM     96  O   UNL A   1      44.969  36.861  33.758  1.00  0.00    -0.237 OA
ATOM     97  O   UNL A   1      46.331  34.807  33.776  1.00  0.00    -0.744 OA
ENDBRANCH  90  94
ENDBRANCH  64  87
ENDBRANCH  38  39
ENDBRANCH  31  33
ENDBRANCH  30  31
ENDBRANCH  29  30
ENDBRANCH  28  29
ENDBRANCH  27  28
ENDBRANCH   1  27
TORSDOF 21
ENDMDL
