MODEL 1
REMARK VINA RESULT:     -10.9      0.000      0.000
REMARK SMILES C[C@@H]1CN(S(=O)(=O)c2cccc(C(=O)N3CCC[C@@H]3C(=O)OCCOCCOCCOC(=O)c3ccc(-c4c5nc(c(-c6cc(S(=O)(=O)[O-])ccc6F)c6ccc([nH]6)c(-c6cc(S(=O)(=O)[O-])ccc6F)c6nc(c(-c7cc(S(=O)(=O)[O-])ccc7F)c7ccc4[nH]7)C=C6)C=C5)cc3)c2)C[C@H](C)O1
REMARK SMILES IDX 26 1 25 2 24 3 23 4 22 5 20 6 21 7 19 8 15 9 16 10 17 11
REMARK SMILES IDX 18 12 13 13 14 14 12 15 8 16 9 17 97 18 10 19 11 20 5 21
REMARK SMILES IDX 6 22 7 23 4 24 1 25 2 26 3 27 101 28 99 29 98 30 100 31
REMARK SMILES IDX 27 32 28 33 29 34 30 35 31 36 32 37 33 38 34 39 35 40 96 41
REMARK SMILES IDX 36 42 95 43 37 44 38 45 39 46 89 47 40 48 94 49 88 50 90 51
REMARK SMILES IDX 41 52 93 53 87 54 86 55 42 57 74 58 54 59 73 60 55 61 58 62
REMARK SMILES IDX 72 63 91 64 56 65 57 66 71 68 92 69 59 70 43 71 44 72 52 73
REMARK SMILES IDX 45 74 51 75 53 76 50 77 46 78 47 79 48 80 49 81 75 82 76 83
REMARK SMILES IDX 84 84 77 85 83 86 85 87 82 88 78 89 79 90 80 91 81 92 60 93
REMARK SMILES IDX 61 94 69 95 62 96 68 97 70 98 67 99 63 100 64 101 65 102
REMARK SMILES IDX 66 103
REMARK H PARENT 90 56 58 67
REMARK Flexibility Score: inf
ROOT
ATOM      1  C   UNL A   1      41.765  21.518  27.793  1.00  0.00     0.188 C 
ENDROOT
BRANCH   1   2
ATOM      2  O   UNL A   1      40.455  22.053  27.654  1.00  0.00    -0.376 OA
BRANCH   2   3
ATOM      3  C   UNL A   1      40.127  22.817  26.500  1.00  0.00     0.202 C 
BRANCH   3   4
ATOM      4  C   UNL A   1      38.900  23.738  26.554  1.00  0.00     0.261 C 
BRANCH   4   5
ATOM      5  O   UNL A   1      37.631  23.058  26.685  1.00  0.00    -0.462 OA
BRANCH   5   6
ATOM      6  C   UNL A   1      36.704  23.384  25.745  1.00  0.00     0.328 C 
ATOM      7  O   UNL A   1      36.307  24.532  25.568  1.00  0.00    -0.250 OA
BRANCH   6   8
ATOM      8  C   UNL A   1      36.109  22.192  24.961  1.00  0.00     0.195 C 
ATOM      9  N   UNL A   1      35.082  21.494  25.724  1.00  0.00    -0.325 N 
ATOM     10  C   UNL A   1      34.824  20.210  25.122  1.00  0.00     0.121 C 
ATOM     11  C   UNL A   1      36.230  19.734  24.826  1.00  0.00     0.024 C 
ATOM     12  C   UNL A   1      37.012  21.024  24.520  1.00  0.00     0.039 C 
BRANCH   9  13
ATOM     13  C   UNL A   1      34.136  22.158  26.464  1.00  0.00     0.254 C 
ATOM     14  O   UNL A   1      34.148  22.285  27.675  1.00  0.00    -0.269 OA
BRANCH  13  15
ATOM     15  C   UNL A   1      33.023  22.653  25.597  1.00  0.00     0.041 A 
ATOM     16  C   UNL A   1      32.307  24.035  23.732  1.00  0.00     0.083 A 
ATOM     17  C   UNL A   1      31.016  23.518  23.845  1.00  0.00     0.022 A 
ATOM     18  C   UNL A   1      33.293  23.623  24.622  1.00  0.00     0.035 A 
ATOM     19  C   UNL A   1      30.735  22.564  24.835  1.00  0.00     0.002 A 
ATOM     20  C   UNL A   1      31.738  22.127  25.709  1.00  0.00     0.014 A 
BRANCH  16  21
ATOM     21  S   UNL A   1      32.679  25.394  22.655  1.00  0.00     0.243 S 
ATOM     22  O   UNL A   1      31.811  25.273  21.497  1.00  0.00    -0.207 OA
ATOM     23  O   UNL A   1      34.116  25.439  22.488  1.00  0.00    -0.207 OA
BRANCH  21  24
ATOM     24  N   UNL A   1      32.218  26.838  23.481  1.00  0.00    -0.193 NA
ATOM     25  C   UNL A   1      30.196  29.323  23.983  1.00  0.00     0.040 C 
ATOM     26  C   UNL A   1      31.629  29.295  23.459  1.00  0.00     0.130 C 
ATOM     27  C   UNL A   1      31.960  28.042  22.616  1.00  0.00     0.134 C 
ATOM     28  O   UNL A   1      32.576  29.544  24.508  1.00  0.00    -0.373 OA
ATOM     29  C   UNL A   1      32.915  28.413  25.317  1.00  0.00     0.130 C 
ATOM     30  C   UNL A   1      33.301  27.196  24.473  1.00  0.00     0.134 C 
ATOM     31  C   UNL A   1      31.857  28.095  26.367  1.00  0.00     0.040 C 
ENDBRANCH  21  24
ENDBRANCH  16  21
ENDBRANCH  13  15
ENDBRANCH   9  13
ENDBRANCH   6   8
ENDBRANCH   5   6
ENDBRANCH   4   5
ENDBRANCH   3   4
ENDBRANCH   2   3
ENDBRANCH   1   2
BRANCH   1  32
ATOM     32  C   UNL A   1      42.288  20.542  26.730  1.00  0.00     0.188 C 
BRANCH  32  33
ATOM     33  O   UNL A   1      42.657  21.133  25.501  1.00  0.00    -0.376 OA
BRANCH  33  34
ATOM     34  C   UNL A   1      43.998  21.587  25.376  1.00  0.00     0.202 C 
BRANCH  34  35
ATOM     35  C   UNL A   1      44.273  22.575  24.233  1.00  0.00     0.261 C 
BRANCH  35  36
ATOM     36  O   UNL A   1      43.814  23.918  24.457  1.00  0.00    -0.460 OA
BRANCH  36  37
ATOM     37  C   UNL A   1      44.687  24.787  25.021  1.00  0.00     0.338 C 
ATOM     38  O   UNL A   1      45.814  25.047  24.629  1.00  0.00    -0.246 OA
BRANCH  37  39
ATOM     39  C   UNL A   1      43.933  25.568  26.026  1.00  0.00     0.060 A 
ATOM     40  C   UNL A   1      44.079  26.963  26.048  1.00  0.00     0.016 A 
ATOM     41  C   UNL A   1      43.036  24.937  26.890  1.00  0.00     0.016 A 
ATOM     42  C   UNL A   1      43.336  27.727  26.948  1.00  0.00     0.010 A 
ATOM     43  C   UNL A   1      42.308  25.701  27.803  1.00  0.00     0.010 A 
ATOM     44  C   UNL A   1      42.472  27.096  27.852  1.00  0.00    -0.014 A 
BRANCH  44  45
ATOM     45  C   UNL A   1      41.886  27.870  28.972  1.00  0.00     0.031 A 
ATOM     46  C   UNL A   1      42.612  27.870  30.289  1.00  0.00     0.074 A 
ATOM     47  C   UNL A   1      40.741  28.558  28.823  1.00  0.00     0.049 A 
ATOM     48  N   UNL A   1      42.291  28.443  31.418  1.00  0.00    -0.248 NA
ATOM     49  C   UNL A   1      43.869  27.107  30.333  1.00  0.00     0.031 C 
ATOM     50  C   UNL A   1      39.962  28.646  27.589  1.00  0.00     0.029 A 
ATOM     51  N   UNL A   1      40.029  29.307  29.726  1.00  0.00    -0.354 N 
ATOM     52  C   UNL A   1      43.305  28.111  32.310  1.00  0.00     0.074 A 
ATOM     53  C   UNL A   1      44.226  27.251  31.598  1.00  0.00     0.031 C 
ATOM     54  C   UNL A   1      38.869  29.396  27.818  1.00  0.00     0.029 A 
ATOM     55  C   UNL A   1      38.856  29.815  29.218  1.00  0.00     0.049 A 
ATOM     56  H   UNL A   1      40.329  29.466  30.650  1.00  0.00     0.167 HD
ATOM     57  C   UNL A   1      43.457  28.495  33.602  1.00  0.00     0.034 A 
ATOM     58  C   UNL A   1      37.875  30.515  29.824  1.00  0.00     0.034 A 
ATOM     59  C   UNL A   1      42.512  29.332  34.302  1.00  0.00     0.049 A 
ATOM     60  C   UNL A   1      38.029  30.875  31.283  1.00  0.00     0.074 A 
ATOM     61  C   UNL A   1      42.576  29.805  35.601  1.00  0.00     0.029 A 
ATOM     62  N   UNL A   1      41.318  29.801  33.768  1.00  0.00    -0.354 N 
ATOM     63  N   UNL A   1      39.010  30.588  32.109  1.00  0.00    -0.248 NA
ATOM     64  C   UNL A   1      36.947  31.663  31.886  1.00  0.00     0.031 C 
ATOM     65  C   UNL A   1      41.387  30.490  35.875  1.00  0.00     0.029 A 
ATOM     66  C   UNL A   1      40.617  30.521  34.723  1.00  0.00     0.049 A 
ATOM     67  H   UNL A   1      41.012  29.644  32.845  1.00  0.00     0.167 HD
ATOM     68  C   UNL A   1      38.671  31.181  33.324  1.00  0.00     0.074 A 
ATOM     69  C   UNL A   1      37.410  31.860  33.112  1.00  0.00     0.031 C 
ATOM     70  C   UNL A   1      39.342  31.168  34.507  1.00  0.00     0.034 A 
BRANCH  57  71
ATOM     71  C   UNL A   1      44.657  27.953  34.342  1.00  0.00     0.023 A 
ATOM     72  C   UNL A   1      44.682  26.645  34.858  1.00  0.00     0.031 A 
ATOM     73  C   UNL A   1      45.770  28.777  34.586  1.00  0.00     0.131 A 
ATOM     74  C   UNL A   1      45.754  26.230  35.663  1.00  0.00     0.055 A 
ATOM     75  C   UNL A   1      46.874  28.328  35.314  1.00  0.00     0.041 A 
ATOM     76  F   UNL A   1      45.794  30.043  34.141  1.00  0.00    -0.206 F 
ATOM     77  C   UNL A   1      46.862  27.054  35.873  1.00  0.00     0.022 A 
BRANCH  74  78
ATOM     78  S   UNL A   1      45.605  24.664  36.567  1.00  0.00     0.124 S 
ATOM     79  O   UNL A   1      46.371  23.756  35.717  1.00  0.00    -0.237 OA
ATOM     80  O   UNL A   1      46.202  24.987  37.858  1.00  0.00    -0.237 OA
ATOM     81  O   UNL A   1      44.164  24.416  36.590  1.00  0.00    -0.744 OA
ENDBRANCH  74  78
ENDBRANCH  57  71
BRANCH  58  82
ATOM     82  C   UNL A   1      36.641  30.888  29.074  1.00  0.00     0.023 A 
ATOM     83  C   UNL A   1      36.192  32.217  29.014  1.00  0.00     0.031 A 
ATOM     84  C   UNL A   1      35.867  29.901  28.435  1.00  0.00     0.131 A 
ATOM     85  C   UNL A   1      34.983  32.519  28.366  1.00  0.00     0.055 A 
ATOM     86  C   UNL A   1      34.693  30.213  27.748  1.00  0.00     0.041 A 
ATOM     87  F   UNL A   1      36.249  28.615  28.466  1.00  0.00    -0.206 F 
ATOM     88  C   UNL A   1      34.239  31.529  27.720  1.00  0.00     0.022 A 
BRANCH  85  89
ATOM     89  S   UNL A   1      34.357  34.221  28.437  1.00  0.00     0.124 S 
ATOM     90  O   UNL A   1      34.894  34.682  29.712  1.00  0.00    -0.237 OA
ATOM     91  O   UNL A   1      34.949  34.811  27.241  1.00  0.00    -0.237 OA
ATOM     92  O   UNL A   1      32.907  34.052  28.394  1.00  0.00    -0.744 OA
ENDBRANCH  85  89
ENDBRANCH  58  82
BRANCH  70  93
ATOM     93  C   UNL A   1      38.723  31.940  35.650  1.00  0.00     0.023 A 
ATOM     94  C   UNL A   1      38.198  31.290  36.782  1.00  0.00     0.031 A 
ATOM     95  C   UNL A   1      38.629  33.342  35.595  1.00  0.00     0.131 A 
ATOM     96  C   UNL A   1      37.539  32.033  37.773  1.00  0.00     0.055 A 
ATOM     97  C   UNL A   1      38.036  34.082  36.618  1.00  0.00     0.041 A 
ATOM     98  F   UNL A   1      39.111  34.019  34.539  1.00  0.00    -0.206 F 
ATOM     99  C   UNL A   1      37.470  33.426  37.708  1.00  0.00     0.022 A 
BRANCH  96 100
ATOM    100  S   UNL A   1      36.663  31.143  39.090  1.00  0.00     0.124 S 
ATOM    101  O   UNL A   1      35.468  31.962  39.267  1.00  0.00    -0.237 OA
ATOM    102  O   UNL A   1      36.454  29.828  38.492  1.00  0.00    -0.237 OA
ATOM    103  O   UNL A   1      37.605  31.171  40.208  1.00  0.00    -0.744 OA
ENDBRANCH  96 100
ENDBRANCH  70  93
ENDBRANCH  44  45
ENDBRANCH  37  39
ENDBRANCH  36  37
ENDBRANCH  35  36
ENDBRANCH  34  35
ENDBRANCH  33  34
ENDBRANCH  32  33
ENDBRANCH   1  32
TORSDOF 24
ENDMDL
MODEL 2
REMARK VINA RESULT:     -10.6      2.891      9.440
REMARK SMILES C[C@@H]1CN(S(=O)(=O)c2cccc(C(=O)N3CCC[C@@H]3C(=O)OCCOCCOCCOC(=O)c3ccc(-c4c5nc(c(-c6cc(S(=O)(=O)[O-])ccc6F)c6ccc([nH]6)c(-c6cc(S(=O)(=O)[O-])ccc6F)c6nc(c(-c7cc(S(=O)(=O)[O-])ccc7F)c7ccc4[nH]7)C=C6)C=C5)cc3)c2)C[C@H](C)O1
REMARK SMILES IDX 26 1 25 2 24 3 23 4 22 5 20 6 21 7 19 8 15 9 16 10 17 11
REMARK SMILES IDX 18 12 13 13 14 14 12 15 8 16 9 17 97 18 10 19 11 20 5 21
REMARK SMILES IDX 6 22 7 23 4 24 1 25 2 26 3 27 101 28 99 29 98 30 100 31
REMARK SMILES IDX 27 32 28 33 29 34 30 35 31 36 32 37 33 38 34 39 35 40 96 41
REMARK SMILES IDX 36 42 95 43 37 44 38 45 39 46 89 47 40 48 94 49 88 50 90 51
REMARK SMILES IDX 41 52 93 53 87 54 86 55 42 57 74 58 54 59 73 60 55 61 58 62
REMARK SMILES IDX 72 63 91 64 56 65 57 66 71 68 92 69 59 70 43 71 44 72 52 73
REMARK SMILES IDX 45 74 51 75 53 76 50 77 46 78 47 79 48 80 49 81 75 82 76 83
REMARK SMILES IDX 84 84 77 85 83 86 85 87 82 88 78 89 79 90 80 91 81 92 60 93
REMARK SMILES IDX 61 94 69 95 62 96 68 97 70 98 67 99 63 100 64 101 65 102
REMARK SMILES IDX 66 103
REMARK H PARENT 90 56 58 67
REMARK Flexibility Score: inf
ROOT
ATOM      1  C   UNL A   1      28.933  31.296  23.764  1.00  0.00     0.188 C 
ENDROOT
BRANCH   1   2
ATOM      2  O   UNL A   1      29.314  30.744  22.509  1.00  0.00    -0.376 OA
BRANCH   2   3
ATOM      3  C   UNL A   1      28.880  29.437  22.156  1.00  0.00     0.202 C 
BRANCH   3   4
ATOM      4  C   UNL A   1      28.181  28.582  23.221  1.00  0.00     0.261 C 
BRANCH   4   5
ATOM      5  O   UNL A   1      28.752  27.269  23.422  1.00  0.00    -0.462 OA
BRANCH   5   6
ATOM      6  C   UNL A   1      30.073  27.260  23.750  1.00  0.00     0.328 C 
ATOM      7  O   UNL A   1      30.493  27.638  24.840  1.00  0.00    -0.250 OA
BRANCH   6   8
ATOM      8  C   UNL A   1      31.032  26.822  22.620  1.00  0.00     0.195 C 
ATOM      9  N   UNL A   1      31.587  25.497  22.856  1.00  0.00    -0.325 N 
ATOM     10  C   UNL A   1      32.722  25.288  21.993  1.00  0.00     0.121 C 
ATOM     11  C   UNL A   1      33.436  26.617  22.117  1.00  0.00     0.024 C 
ATOM     12  C   UNL A   1      32.304  27.639  22.321  1.00  0.00     0.039 C 
BRANCH   9  13
ATOM     13  C   UNL A   1      30.829  24.455  23.332  1.00  0.00     0.254 C 
ATOM     14  O   UNL A   1      29.754  24.101  22.882  1.00  0.00    -0.269 OA
BRANCH  13  15
ATOM     15  C   UNL A   1      31.455  23.842  24.543  1.00  0.00     0.041 A 
ATOM     16  C   UNL A   1      33.269  22.544  25.505  1.00  0.00     0.083 A 
ATOM     17  C   UNL A   1      32.761  22.781  26.783  1.00  0.00     0.022 A 
ATOM     18  C   UNL A   1      32.602  23.049  24.395  1.00  0.00     0.035 A 
ATOM     19  C   UNL A   1      31.600  23.554  26.935  1.00  0.00     0.002 A 
ATOM     20  C   UNL A   1      30.948  24.089  25.817  1.00  0.00     0.014 A 
BRANCH  16  21
ATOM     21  S   UNL A   1      34.597  21.402  25.224  1.00  0.00     0.243 S 
ATOM     22  O   UNL A   1      35.273  21.210  26.495  1.00  0.00    -0.207 OA
ATOM     23  O   UNL A   1      35.334  21.865  24.068  1.00  0.00    -0.207 OA
BRANCH  21  24
ATOM     24  N   UNL A   1      33.884  19.888  24.799  1.00  0.00    -0.193 NA
ATOM     25  C   UNL A   1      33.052  17.631  22.623  1.00  0.00     0.040 C 
ATOM     26  C   UNL A   1      32.190  18.542  23.493  1.00  0.00     0.130 C 
ATOM     27  C   UNL A   1      32.812  19.936  23.743  1.00  0.00     0.134 C 
ATOM     28  O   UNL A   1      31.773  17.879  24.695  1.00  0.00    -0.373 OA
ATOM     29  C   UNL A   1      32.729  17.869  25.760  1.00  0.00     0.130 C 
ATOM     30  C   UNL A   1      33.292  19.264  26.041  1.00  0.00     0.134 C 
ATOM     31  C   UNL A   1      33.815  16.818  25.574  1.00  0.00     0.040 C 
ENDBRANCH  21  24
ENDBRANCH  16  21
ENDBRANCH  13  15
ENDBRANCH   9  13
ENDBRANCH   6   8
ENDBRANCH   5   6
ENDBRANCH   4   5
ENDBRANCH   3   4
ENDBRANCH   2   3
ENDBRANCH   1   2
BRANCH   1  32
ATOM     32  C   UNL A   1      30.024  31.804  24.716  1.00  0.00     0.188 C 
BRANCH  32  33
ATOM     33  O   UNL A   1      30.860  30.802  25.261  1.00  0.00    -0.376 OA
BRANCH  33  34
ATOM     34  C   UNL A   1      31.692  31.173  26.351  1.00  0.00     0.202 C 
BRANCH  34  35
ATOM     35  C   UNL A   1      31.686  32.662  26.729  1.00  0.00     0.261 C 
BRANCH  35  36
ATOM     36  O   UNL A   1      32.349  32.986  27.962  1.00  0.00    -0.460 OA
BRANCH  36  37
ATOM     37  C   UNL A   1      33.362  33.883  27.906  1.00  0.00     0.338 C 
ATOM     38  O   UNL A   1      33.272  35.070  27.631  1.00  0.00    -0.246 OA
BRANCH  37  39
ATOM     39  C   UNL A   1      34.548  33.237  28.509  1.00  0.00     0.060 A 
ATOM     40  C   UNL A   1      34.409  31.963  29.081  1.00  0.00     0.016 A 
ATOM     41  C   UNL A   1      35.800  33.851  28.446  1.00  0.00     0.016 A 
ATOM     42  C   UNL A   1      35.525  31.310  29.604  1.00  0.00     0.010 A 
ATOM     43  C   UNL A   1      36.912  33.204  28.988  1.00  0.00     0.010 A 
ATOM     44  C   UNL A   1      36.775  31.941  29.590  1.00  0.00    -0.014 A 
BRANCH  44  45
ATOM     45  C   UNL A   1      37.898  31.369  30.371  1.00  0.00     0.031 A 
ATOM     46  C   UNL A   1      38.763  30.332  29.710  1.00  0.00     0.074 A 
ATOM     47  C   UNL A   1      38.146  31.764  31.631  1.00  0.00     0.049 A 
ATOM     48  N   UNL A   1      39.782  29.668  30.189  1.00  0.00    -0.248 NA
ATOM     49  C   UNL A   1      38.419  29.995  28.320  1.00  0.00     0.031 C 
ATOM     50  C   UNL A   1      37.387  32.775  32.365  1.00  0.00     0.029 A 
ATOM     51  N   UNL A   1      39.105  31.350  32.521  1.00  0.00    -0.354 N 
ATOM     52  C   UNL A   1      40.202  28.832  29.160  1.00  0.00     0.074 A 
ATOM     53  C   UNL A   1      39.299  29.046  28.049  1.00  0.00     0.031 C 
ATOM     54  C   UNL A   1      37.902  32.892  33.602  1.00  0.00     0.029 A 
ATOM     55  C   UNL A   1      39.006  31.945  33.757  1.00  0.00     0.049 A 
ATOM     56  H   UNL A   1      39.800  30.690  32.296  1.00  0.00     0.167 HD
ATOM     57  C   UNL A   1      41.251  27.972  29.142  1.00  0.00     0.034 A 
ATOM     58  C   UNL A   1      39.709  31.730  34.887  1.00  0.00     0.034 A 
ATOM     59  C   UNL A   1      42.124  27.755  30.270  1.00  0.00     0.049 A 
ATOM     60  C   UNL A   1      40.829  30.717  34.868  1.00  0.00     0.074 A 
ATOM     61  C   UNL A   1      43.230  26.929  30.358  1.00  0.00     0.029 A 
ATOM     62  N   UNL A   1      41.974  28.349  31.518  1.00  0.00    -0.354 N 
ATOM     63  N   UNL A   1      41.244  29.957  33.879  1.00  0.00    -0.248 NA
ATOM     64  C   UNL A   1      41.582  30.543  36.116  1.00  0.00     0.031 C 
ATOM     65  C   UNL A   1      43.699  26.964  31.676  1.00  0.00     0.029 A 
ATOM     66  C   UNL A   1      42.940  27.876  32.392  1.00  0.00     0.049 A 
ATOM     67  H   UNL A   1      41.280  29.010  31.748  1.00  0.00     0.167 HD
ATOM     68  C   UNL A   1      42.322  29.232  34.382  1.00  0.00     0.074 A 
ATOM     69  C   UNL A   1      42.505  29.663  35.752  1.00  0.00     0.031 C 
ATOM     70  C   UNL A   1      43.092  28.294  33.768  1.00  0.00     0.034 A 
BRANCH  57  71
ATOM     71  C   UNL A   1      41.455  27.167  27.880  1.00  0.00     0.023 A 
ATOM     72  C   UNL A   1      41.086  25.812  27.796  1.00  0.00     0.031 A 
ATOM     73  C   UNL A   1      42.082  27.747  26.764  1.00  0.00     0.131 A 
ATOM     74  C   UNL A   1      41.425  25.063  26.660  1.00  0.00     0.055 A 
ATOM     75  C   UNL A   1      42.338  27.018  25.601  1.00  0.00     0.041 A 
ATOM     76  F   UNL A   1      42.481  29.029  26.792  1.00  0.00    -0.206 F 
ATOM     77  C   UNL A   1      42.026  25.663  25.551  1.00  0.00     0.022 A 
BRANCH  74  78
ATOM     78  S   UNL A   1      41.223  23.260  26.717  1.00  0.00     0.124 S 
ATOM     79  O   UNL A   1      39.782  23.117  26.524  1.00  0.00    -0.237 OA
ATOM     80  O   UNL A   1      42.063  22.814  25.611  1.00  0.00    -0.237 OA
ATOM     81  O   UNL A   1      41.703  22.902  28.050  1.00  0.00    -0.744 OA
ENDBRANCH  74  78
ENDBRANCH  57  71
BRANCH  58  82
ATOM     82  C   UNL A   1      39.354  32.450  36.144  1.00  0.00     0.023 A 
ATOM     83  C   UNL A   1      39.972  33.660  36.496  1.00  0.00     0.031 A 
ATOM     84  C   UNL A   1      38.412  31.907  37.038  1.00  0.00     0.131 A 
ATOM     85  C   UNL A   1      39.672  34.269  37.726  1.00  0.00     0.055 A 
ATOM     86  C   UNL A   1      38.078  32.542  38.235  1.00  0.00     0.041 A 
ATOM     87  F   UNL A   1      37.795  30.750  36.752  1.00  0.00    -0.206 F 
ATOM     88  C   UNL A   1      38.718  33.726  38.590  1.00  0.00     0.022 A 
BRANCH  85  89
ATOM     89  S   UNL A   1      40.597  35.751  38.215  1.00  0.00     0.124 S 
ATOM     90  O   UNL A   1      41.971  35.348  37.935  1.00  0.00    -0.237 OA
ATOM     91  O   UNL A   1      40.035  36.766  37.332  1.00  0.00    -0.237 OA
ATOM     92  O   UNL A   1      40.269  35.906  39.630  1.00  0.00    -0.744 OA
ENDBRANCH  85  89
ENDBRANCH  58  82
BRANCH  70  93
ATOM     93  C   UNL A   1      44.220  27.699  34.580  1.00  0.00     0.023 A 
ATOM     94  C   UNL A   1      45.453  28.360  34.729  1.00  0.00     0.031 A 
ATOM     95  C   UNL A   1      44.072  26.440  35.189  1.00  0.00     0.131 A 
ATOM     96  C   UNL A   1      46.509  27.729  35.403  1.00  0.00     0.055 A 
ATOM     97  C   UNL A   1      45.103  25.848  35.919  1.00  0.00     0.041 A 
ATOM     98  F   UNL A   1      42.919  25.759  35.080  1.00  0.00    -0.206 F 
ATOM     99  C   UNL A   1      46.337  26.485  36.014  1.00  0.00     0.022 A 
BRANCH  96 100
ATOM    100  S   UNL A   1      48.151  28.501  35.364  1.00  0.00     0.124 S 
ATOM    101  O   UNL A   1      47.961  29.661  36.230  1.00  0.00    -0.237 OA
ATOM    102  O   UNL A   1      49.005  27.443  35.893  1.00  0.00    -0.237 OA
ATOM    103  O   UNL A   1      48.352  28.809  33.949  1.00  0.00    -0.744 OA
ENDBRANCH  96 100
ENDBRANCH  70  93
ENDBRANCH  44  45
ENDBRANCH  37  39
ENDBRANCH  36  37
ENDBRANCH  35  36
ENDBRANCH  34  35
ENDBRANCH  33  34
ENDBRANCH  32  33
ENDBRANCH   1  32
TORSDOF 24
ENDMDL
MODEL 3
REMARK VINA RESULT:     -10.4      2.505      9.081
REMARK SMILES C[C@@H]1CN(S(=O)(=O)c2cccc(C(=O)N3CCC[C@@H]3C(=O)OCCOCCOCCOC(=O)c3ccc(-c4c5nc(c(-c6cc(S(=O)(=O)[O-])ccc6F)c6ccc([nH]6)c(-c6cc(S(=O)(=O)[O-])ccc6F)c6nc(c(-c7cc(S(=O)(=O)[O-])ccc7F)c7ccc4[nH]7)C=C6)C=C5)cc3)c2)C[C@H](C)O1
REMARK SMILES IDX 26 1 25 2 24 3 23 4 22 5 20 6 21 7 19 8 15 9 16 10 17 11
REMARK SMILES IDX 18 12 13 13 14 14 12 15 8 16 9 17 97 18 10 19 11 20 5 21
REMARK SMILES IDX 6 22 7 23 4 24 1 25 2 26 3 27 101 28 99 29 98 30 100 31
REMARK SMILES IDX 27 32 28 33 29 34 30 35 31 36 32 37 33 38 34 39 35 40 96 41
REMARK SMILES IDX 36 42 95 43 37 44 38 45 39 46 89 47 40 48 94 49 88 50 90 51
REMARK SMILES IDX 41 52 93 53 87 54 86 55 42 57 74 58 54 59 73 60 55 61 58 62
REMARK SMILES IDX 72 63 91 64 56 65 57 66 71 68 92 69 59 70 43 71 44 72 52 73
REMARK SMILES IDX 45 74 51 75 53 76 50 77 46 78 47 79 48 80 49 81 75 82 76 83
REMARK SMILES IDX 84 84 77 85 83 86 85 87 82 88 78 89 79 90 80 91 81 92 60 93
REMARK SMILES IDX 61 94 69 95 62 96 68 97 70 98 67 99 63 100 64 101 65 102
REMARK SMILES IDX 66 103
REMARK H PARENT 90 56 58 67
REMARK Flexibility Score: inf
ROOT
ATOM      1  C   UNL A   1      28.516  32.346  23.283  1.00  0.00     0.188 C 
ENDROOT
BRANCH   1   2
ATOM      2  O   UNL A   1      28.811  32.299  21.893  1.00  0.00    -0.376 OA
BRANCH   2   3
ATOM      3  C   UNL A   1      28.466  31.143  21.140  1.00  0.00     0.202 C 
BRANCH   3   4
ATOM      4  C   UNL A   1      28.505  29.775  21.835  1.00  0.00     0.261 C 
BRANCH   4   5
ATOM      5  O   UNL A   1      29.716  29.015  21.619  1.00  0.00    -0.462 OA
BRANCH   5   6
ATOM      6  C   UNL A   1      30.509  28.872  22.715  1.00  0.00     0.328 C 
ATOM      7  O   UNL A   1      30.088  28.978  23.863  1.00  0.00    -0.250 OA
BRANCH   6   8
ATOM      8  C   UNL A   1      32.010  28.651  22.420  1.00  0.00     0.195 C 
ATOM      9  N   UNL A   1      32.400  27.257  22.576  1.00  0.00    -0.325 N 
ATOM     10  C   UNL A   1      33.836  27.162  22.648  1.00  0.00     0.121 C 
ATOM     11  C   UNL A   1      34.162  28.315  23.573  1.00  0.00     0.024 C 
ATOM     12  C   UNL A   1      33.082  29.366  23.266  1.00  0.00     0.039 C 
BRANCH   9  13
ATOM     13  C   UNL A   1      31.620  26.220  22.126  1.00  0.00     0.254 C 
ATOM     14  O   UNL A   1      31.171  26.112  20.999  1.00  0.00    -0.269 OA
BRANCH  13  15
ATOM     15  C   UNL A   1      31.318  25.255  23.227  1.00  0.00     0.041 A 
ATOM     16  C   UNL A   1      31.735  23.099  24.265  1.00  0.00     0.083 A 
ATOM     17  C   UNL A   1      30.908  23.452  25.331  1.00  0.00     0.022 A 
ATOM     18  C   UNL A   1      31.913  23.986  23.209  1.00  0.00     0.035 A 
ATOM     19  C   UNL A   1      30.291  24.713  25.343  1.00  0.00     0.002 A 
ATOM     20  C   UNL A   1      30.498  25.617  24.293  1.00  0.00     0.014 A 
BRANCH  16  21
ATOM     21  S   UNL A   1      32.368  21.452  24.079  1.00  0.00     0.243 S 
ATOM     22  O   UNL A   1      32.154  21.064  22.696  1.00  0.00    -0.207 OA
ATOM     23  O   UNL A   1      31.824  20.651  25.155  1.00  0.00    -0.207 OA
BRANCH  21  24
ATOM     24  N   UNL A   1      34.075  21.535  24.321  1.00  0.00    -0.193 NA
ATOM     25  C   UNL A   1      36.962  20.143  24.823  1.00  0.00     0.040 C 
ATOM     26  C   UNL A   1      36.127  21.057  25.717  1.00  0.00     0.130 C 
ATOM     27  C   UNL A   1      34.601  20.859  25.558  1.00  0.00     0.134 C 
ATOM     28  O   UNL A   1      36.540  22.426  25.600  1.00  0.00    -0.373 OA
ATOM     29  C   UNL A   1      36.008  23.139  24.478  1.00  0.00     0.130 C 
ATOM     30  C   UNL A   1      34.490  22.987  24.367  1.00  0.00     0.134 C 
ATOM     31  C   UNL A   1      36.733  22.824  23.176  1.00  0.00     0.040 C 
ENDBRANCH  21  24
ENDBRANCH  16  21
ENDBRANCH  13  15
ENDBRANCH   9  13
ENDBRANCH   6   8
ENDBRANCH   5   6
ENDBRANCH   4   5
ENDBRANCH   3   4
ENDBRANCH   2   3
ENDBRANCH   1   2
BRANCH   1  32
ATOM     32  C   UNL A   1      29.588  32.857  24.255  1.00  0.00     0.188 C 
BRANCH  32  33
ATOM     33  O   UNL A   1      30.435  31.861  24.792  1.00  0.00    -0.376 OA
BRANCH  33  34
ATOM     34  C   UNL A   1      30.715  31.928  26.184  1.00  0.00     0.202 C 
BRANCH  34  35
ATOM     35  C   UNL A   1      31.741  32.984  26.616  1.00  0.00     0.261 C 
BRANCH  35  36
ATOM     36  O   UNL A   1      32.918  32.470  27.263  1.00  0.00    -0.460 OA
BRANCH  36  37
ATOM     37  C   UNL A   1      33.203  31.159  27.082  1.00  0.00     0.338 C 
ATOM     38  O   UNL A   1      32.625  30.382  26.337  1.00  0.00    -0.246 OA
BRANCH  37  39
ATOM     39  C   UNL A   1      34.508  30.905  27.731  1.00  0.00     0.060 A 
ATOM     40  C   UNL A   1      34.902  29.580  27.965  1.00  0.00     0.016 A 
ATOM     41  C   UNL A   1      35.366  31.964  28.039  1.00  0.00     0.016 A 
ATOM     42  C   UNL A   1      36.153  29.313  28.523  1.00  0.00     0.010 A 
ATOM     43  C   UNL A   1      36.608  31.696  28.615  1.00  0.00     0.010 A 
ATOM     44  C   UNL A   1      36.997  30.372  28.881  1.00  0.00    -0.014 A 
BRANCH  44  45
ATOM     45  C   UNL A   1      38.201  30.107  29.705  1.00  0.00     0.031 A 
ATOM     46  C   UNL A   1      39.235  29.159  29.164  1.00  0.00     0.074 A 
ATOM     47  C   UNL A   1      38.374  30.696  30.900  1.00  0.00     0.049 A 
ATOM     48  N   UNL A   1      40.352  28.748  29.702  1.00  0.00    -0.248 NA
ATOM     49  C   UNL A   1      38.959  28.593  27.834  1.00  0.00     0.031 C 
ATOM     50  C   UNL A   1      37.448  31.646  31.516  1.00  0.00     0.029 A 
ATOM     51  N   UNL A   1      39.388  30.571  31.816  1.00  0.00    -0.354 N 
ATOM     52  C   UNL A   1      40.914  27.873  28.778  1.00  0.00     0.074 A 
ATOM     53  C   UNL A   1      39.991  27.783  27.668  1.00  0.00     0.031 C 
ATOM     54  C   UNL A   1      37.933  32.007  32.718  1.00  0.00     0.029 A 
ATOM     55  C   UNL A   1      39.183  31.293  32.969  1.00  0.00     0.049 A 
ATOM     56  H   UNL A   1      40.187  30.018  31.663  1.00  0.00     0.167 HD
ATOM     57  C   UNL A   1      42.097  27.212  28.848  1.00  0.00     0.034 A 
ATOM     58  C   UNL A   1      39.911  31.348  34.104  1.00  0.00     0.034 A 
ATOM     59  C   UNL A   1      42.991  27.294  29.977  1.00  0.00     0.049 A 
ATOM     60  C   UNL A   1      41.190  30.550  34.190  1.00  0.00     0.074 A 
ATOM     61  C   UNL A   1      44.225  26.690  30.146  1.00  0.00     0.029 A 
ATOM     62  N   UNL A   1      42.737  28.008  31.143  1.00  0.00    -0.354 N 
ATOM     63  N   UNL A   1      41.733  29.754  33.296  1.00  0.00    -0.248 NA
ATOM     64  C   UNL A   1      41.959  30.669  35.435  1.00  0.00     0.031 C 
ATOM     65  C   UNL A   1      44.677  26.973  31.440  1.00  0.00     0.029 A 
ATOM     66  C   UNL A   1      43.769  27.825  32.050  1.00  0.00     0.049 A 
ATOM     67  H   UNL A   1      41.939  28.563  31.302  1.00  0.00     0.167 HD
ATOM     68  C   UNL A   1      42.919  29.295  33.865  1.00  0.00     0.074 A 
ATOM     69  C   UNL A   1      43.021  29.924  35.167  1.00  0.00     0.031 C 
ATOM     70  C   UNL A   1      43.843  28.435  33.360  1.00  0.00     0.034 A 
BRANCH  57  71
ATOM     71  C   UNL A   1      42.441  26.299  27.694  1.00  0.00     0.023 A 
ATOM     72  C   UNL A   1      41.838  25.038  27.540  1.00  0.00     0.031 A 
ATOM     73  C   UNL A   1      43.431  26.672  26.768  1.00  0.00     0.131 A 
ATOM     74  C   UNL A   1      42.290  24.163  26.541  1.00  0.00     0.055 A 
ATOM     75  C   UNL A   1      43.815  25.831  25.722  1.00  0.00     0.041 A 
ATOM     76  F   UNL A   1      44.060  27.853  26.878  1.00  0.00    -0.206 F 
ATOM     77  C   UNL A   1      43.257  24.561  25.614  1.00  0.00     0.022 A 
BRANCH  74  78
ATOM     78  S   UNL A   1      41.720  22.441  26.572  1.00  0.00     0.124 S 
ATOM     79  O   UNL A   1      42.513  21.847  25.498  1.00  0.00    -0.237 OA
ATOM     80  O   UNL A   1      42.061  22.020  27.926  1.00  0.00    -0.237 OA
ATOM     81  O   UNL A   1      40.289  22.548  26.293  1.00  0.00    -0.744 OA
ENDBRANCH  74  78
ENDBRANCH  57  71
BRANCH  58  82
ATOM     82  C   UNL A   1      39.433  32.150  35.267  1.00  0.00     0.023 A 
ATOM     83  C   UNL A   1      39.833  33.483  35.452  1.00  0.00     0.031 A 
ATOM     84  C   UNL A   1      38.595  31.572  36.239  1.00  0.00     0.131 A 
ATOM     85  C   UNL A   1      39.427  34.182  36.601  1.00  0.00     0.055 A 
ATOM     86  C   UNL A   1      38.153  32.287  37.353  1.00  0.00     0.041 A 
ATOM     87  F   UNL A   1      38.188  30.299  36.112  1.00  0.00    -0.206 F 
ATOM     88  C   UNL A   1      38.578  33.599  37.544  1.00  0.00     0.022 A 
BRANCH  85  89
ATOM     89  S   UNL A   1      40.083  35.851  36.883  1.00  0.00     0.124 S 
ATOM     90  O   UNL A   1      41.519  35.601  36.934  1.00  0.00    -0.237 OA
ATOM     91  O   UNL A   1      39.599  36.570  35.710  1.00  0.00    -0.237 OA
ATOM     92  O   UNL A   1      39.473  36.246  38.150  1.00  0.00    -0.744 OA
ENDBRANCH  85  89
ENDBRANCH  58  82
BRANCH  70  93
ATOM     93  C   UNL A   1      45.055  28.152  34.218  1.00  0.00     0.023 A 
ATOM     94  C   UNL A   1      45.087  27.074  35.121  1.00  0.00     0.031 A 
ATOM     95  C   UNL A   1      46.182  28.990  34.155  1.00  0.00     0.131 A 
ATOM     96  C   UNL A   1      46.188  26.906  35.974  1.00  0.00     0.055 A 
ATOM     97  C   UNL A   1      47.305  28.776  34.956  1.00  0.00     0.041 A 
ATOM     98  F   UNL A   1      46.211  30.038  33.315  1.00  0.00    -0.206 F 
ATOM     99  C   UNL A   1      47.305  27.740  35.885  1.00  0.00     0.022 A 
BRANCH  96 100
ATOM    100  S   UNL A   1      46.089  25.658  37.287  1.00  0.00     0.124 S 
ATOM    101  O   UNL A   1      46.806  24.535  36.692  1.00  0.00    -0.237 OA
ATOM    102  O   UNL A   1      46.757  26.325  38.400  1.00  0.00    -0.237 OA
ATOM    103  O   UNL A   1      44.652  25.455  37.460  1.00  0.00    -0.744 OA
ENDBRANCH  96 100
ENDBRANCH  70  93
ENDBRANCH  44  45
ENDBRANCH  37  39
ENDBRANCH  36  37
ENDBRANCH  35  36
ENDBRANCH  34  35
ENDBRANCH  33  34
ENDBRANCH  32  33
ENDBRANCH   1  32
TORSDOF 24
ENDMDL
