MODEL 1
REMARK VINA RESULT:     -10.2      0.000      0.000
REMARK SMILES CC(C)N(c1cc2c(cc1Cl)C=C(C(=O)OCCOCCOCCOC(=O)c1ccc(-c3c4nc(c(-c5cc(S(=O)(=O)[O-])ccc5F)c5ccc([nH]5)c(-c5cc(S(=O)(=O)[O-])ccc5F)c5nc(c(-c6cc(S(=O)(=O)[O-])ccc6F)c6ccc3[nH]6)C=C5)C=C4)cc1)[C@@H](C(F)(F)F)O2)C(C)C
REMARK SMILES IDX 21 1 20 2 19 3 18 4 17 5 16 6 14 7 15 8 13 9 5 10 6 11 10 12
REMARK SMILES IDX 7 13 9 14 11 15 8 16 96 17 12 18 91 19 4 20 2 21 1 22 3 23
REMARK SMILES IDX 97 24 98 25 99 26 92 27 93 28 94 29 95 30 22 31 23 32 24 33
REMARK SMILES IDX 25 34 26 35 27 36 28 37 29 38 90 39 30 40 89 41 31 42 32 43
REMARK SMILES IDX 33 44 83 45 34 46 88 47 82 48 84 49 35 50 87 51 81 52 80 53
REMARK SMILES IDX 36 55 68 56 48 57 67 58 49 59 52 60 66 61 85 62 50 63 51 64
REMARK SMILES IDX 65 66 86 67 53 68 37 69 38 70 46 71 39 72 45 73 47 74 44 75
REMARK SMILES IDX 40 76 41 77 42 78 43 79 69 80 70 81 78 82 71 83 77 84 79 85
REMARK SMILES IDX 76 86 72 87 73 88 74 89 75 90 54 91 55 92 63 93 56 94 62 95
REMARK SMILES IDX 64 96 61 97 57 98 58 99 59 100 60 101
REMARK H PARENT 84 54 52 65
REMARK Flexibility Score: inf
ROOT
ATOM      1  C   UNL A   1      34.251  34.198  30.405  1.00  0.00     0.188 C 
ENDROOT
BRANCH   1   2
ATOM      2  C   UNL A   1      34.575  32.803  29.827  1.00  0.00     0.188 C 
BRANCH   2   3
ATOM      3  O   UNL A   1      34.076  32.594  28.528  1.00  0.00    -0.376 OA
BRANCH   3   4
ATOM      4  C   UNL A   1      33.927  31.291  27.999  1.00  0.00     0.202 C 
BRANCH   4   5
ATOM      5  C   UNL A   1      33.032  30.921  26.802  1.00  0.00     0.261 C 
BRANCH   5   6
ATOM      6  O   UNL A   1      32.548  29.581  26.727  1.00  0.00    -0.460 OA
BRANCH   6   7
ATOM      7  C   UNL A   1      31.746  29.296  25.676  1.00  0.00     0.338 C 
ATOM      8  O   UNL A   1      31.019  30.077  25.083  1.00  0.00    -0.246 OA
BRANCH   7   9
ATOM      9  C   UNL A   1      31.959  27.894  25.271  1.00  0.00     0.087 C 
ATOM     10  C   UNL A   1      33.031  22.953  25.248  1.00  0.00     0.060 A 
ATOM     11  C   UNL A   1      32.876  23.954  24.260  1.00  0.00     0.074 A 
ATOM     12  C   UNL A   1      32.679  23.317  26.568  1.00  0.00     0.065 A 
ATOM     13  C   UNL A   1      32.488  25.264  24.574  1.00  0.00     0.130 A 
ATOM     14  C   UNL A   1      32.253  24.619  26.875  1.00  0.00     0.034 A 
ATOM     15  Cl  UNL A   1      32.855  22.277  27.940  1.00  0.00    -0.082 Cl
ATOM     16  C   UNL A   1      32.196  25.602  25.889  1.00  0.00     0.019 A 
ATOM     17  O   UNL A   1      32.450  26.154  23.537  1.00  0.00    -0.475 OA
ATOM     18  C   UNL A   1      31.914  26.981  26.247  1.00  0.00     0.027 C 
ATOM     19  C   UNL A   1      32.211  27.563  23.822  1.00  0.00     0.316 C 
BRANCH  10  20
ATOM     20  N   UNL A   1      33.573  21.704  24.866  1.00  0.00    -0.365 N 
BRANCH  20  21
ATOM     21  C   UNL A   1      35.039  21.600  24.668  1.00  0.00     0.076 C 
ATOM     22  C   UNL A   1      35.574  22.639  23.682  1.00  0.00     0.030 C 
ATOM     23  C   UNL A   1      35.843  21.649  25.968  1.00  0.00     0.030 C 
ENDBRANCH  20  21
BRANCH  20  24
ATOM     24  C   UNL A   1      32.589  20.623  24.624  1.00  0.00     0.076 C 
ATOM     25  C   UNL A   1      32.289  20.400  23.145  1.00  0.00     0.030 C 
ATOM     26  C   UNL A   1      32.945  19.317  25.327  1.00  0.00     0.030 C 
ENDBRANCH  20  24
ENDBRANCH  10  20
BRANCH  19  27
ATOM     27  C   UNL A   1      33.366  28.385  23.229  1.00  0.00     0.430 C 
ATOM     28  F   UNL A   1      33.318  28.398  21.874  1.00  0.00    -0.167 F 
ATOM     29  F   UNL A   1      33.318  29.681  23.624  1.00  0.00    -0.167 F 
ATOM     30  F   UNL A   1      34.577  27.901  23.584  1.00  0.00    -0.167 F 
ENDBRANCH  19  27
ENDBRANCH   7   9
ENDBRANCH   6   7
ENDBRANCH   5   6
ENDBRANCH   4   5
ENDBRANCH   3   4
ENDBRANCH   2   3
ENDBRANCH   1   2
BRANCH   1  31
ATOM     31  O   UNL A   1      33.775  34.310  31.743  1.00  0.00    -0.376 OA
BRANCH  31  32
ATOM     32  C   UNL A   1      33.991  33.229  32.645  1.00  0.00     0.202 C 
BRANCH  32  33
ATOM     33  C   UNL A   1      35.274  33.201  33.487  1.00  0.00     0.261 C 
BRANCH  33  34
ATOM     34  O   UNL A   1      36.099  32.049  33.257  1.00  0.00    -0.460 OA
BRANCH  34  35
ATOM     35  C   UNL A   1      37.202  31.954  34.043  1.00  0.00     0.338 C 
ATOM     36  O   UNL A   1      37.238  31.948  35.261  1.00  0.00    -0.246 OA
BRANCH  35  37
ATOM     37  C   UNL A   1      38.369  31.640  33.193  1.00  0.00     0.060 A 
ATOM     38  C   UNL A   1      39.469  30.947  33.700  1.00  0.00     0.016 A 
ATOM     39  C   UNL A   1      38.347  32.055  31.854  1.00  0.00     0.016 A 
ATOM     40  C   UNL A   1      40.543  30.650  32.855  1.00  0.00     0.010 A 
ATOM     41  C   UNL A   1      39.427  31.775  31.017  1.00  0.00     0.010 A 
ATOM     42  C   UNL A   1      40.525  31.054  31.507  1.00  0.00    -0.014 A 
BRANCH  42  43
ATOM     43  C   UNL A   1      41.569  30.571  30.571  1.00  0.00     0.031 A 
ATOM     44  C   UNL A   1      42.800  31.371  30.276  1.00  0.00     0.074 A 
ATOM     45  C   UNL A   1      41.367  29.388  29.962  1.00  0.00     0.049 A 
ATOM     46  N   UNL A   1      43.833  31.038  29.546  1.00  0.00    -0.248 NA
ATOM     47  C   UNL A   1      42.885  32.714  30.868  1.00  0.00     0.031 C 
ATOM     48  C   UNL A   1      40.182  28.551  30.149  1.00  0.00     0.029 A 
ATOM     49  N   UNL A   1      42.137  28.686  29.068  1.00  0.00    -0.354 N 
ATOM     50  C   UNL A   1      44.708  32.116  29.608  1.00  0.00     0.074 A 
ATOM     51  C   UNL A   1      44.058  33.135  30.407  1.00  0.00     0.031 C 
ATOM     52  C   UNL A   1      40.307  27.445  29.403  1.00  0.00     0.029 A 
ATOM     53  C   UNL A   1      41.569  27.500  28.667  1.00  0.00     0.049 A 
ATOM     54  H   UNL A   1      43.011  29.002  28.746  1.00  0.00     0.167 HD
ATOM     55  C   UNL A   1      45.945  32.225  29.065  1.00  0.00     0.034 A 
ATOM     56  C   UNL A   1      42.012  26.557  27.810  1.00  0.00     0.034 A 
ATOM     57  C   UNL A   1      46.562  31.201  28.256  1.00  0.00     0.049 A 
ATOM     58  C   UNL A   1      43.376  26.719  27.191  1.00  0.00     0.074 A 
ATOM     59  C   UNL A   1      47.836  31.194  27.714  1.00  0.00     0.029 A 
ATOM     60  N   UNL A   1      45.958  30.015  27.860  1.00  0.00    -0.354 N 
ATOM     61  N   UNL A   1      44.249  27.683  27.365  1.00  0.00    -0.248 NA
ATOM     62  C   UNL A   1      43.828  25.661  26.277  1.00  0.00     0.031 C 
ATOM     63  C   UNL A   1      47.975  30.049  26.932  1.00  0.00     0.029 A 
ATOM     64  C   UNL A   1      46.819  29.292  27.048  1.00  0.00     0.049 A 
ATOM     65  H   UNL A   1      45.051  29.730  28.116  1.00  0.00     0.167 HD
ATOM     66  C   UNL A   1      45.363  27.335  26.607  1.00  0.00     0.074 A 
ATOM     67  C   UNL A   1      45.061  26.061  25.988  1.00  0.00     0.031 C 
ATOM     68  C   UNL A   1      46.526  28.014  26.441  1.00  0.00     0.034 A 
BRANCH  55  69
ATOM     69  C   UNL A   1      46.755  33.469  29.339  1.00  0.00     0.023 A 
ATOM     70  C   UNL A   1      46.572  34.624  28.555  1.00  0.00     0.031 A 
ATOM     71  C   UNL A   1      47.822  33.450  30.255  1.00  0.00     0.131 A 
ATOM     72  C   UNL A   1      47.466  35.695  28.674  1.00  0.00     0.055 A 
ATOM     73  C   UNL A   1      48.686  34.536  30.398  1.00  0.00     0.041 A 
ATOM     74  F   UNL A   1      48.046  32.368  31.019  1.00  0.00    -0.206 F 
ATOM     75  C   UNL A   1      48.520  35.659  29.594  1.00  0.00     0.022 A 
BRANCH  72  76
ATOM     76  S   UNL A   1      47.352  37.143  27.586  1.00  0.00     0.124 S 
ATOM     77  O   UNL A   1      48.148  38.128  28.316  1.00  0.00    -0.237 OA
ATOM     78  O   UNL A   1      47.953  36.647  26.352  1.00  0.00    -0.237 OA
ATOM     79  O   UNL A   1      45.921  37.423  27.525  1.00  0.00    -0.744 OA
ENDBRANCH  72  76
ENDBRANCH  55  69
BRANCH  56  80
ATOM     80  C   UNL A   1      41.169  25.351  27.572  1.00  0.00     0.023 A 
ATOM     81  C   UNL A   1      41.697  24.057  27.738  1.00  0.00     0.031 A 
ATOM     82  C   UNL A   1      39.870  25.473  27.053  1.00  0.00     0.131 A 
ATOM     83  C   UNL A   1      40.957  22.944  27.321  1.00  0.00     0.055 A 
ATOM     84  C   UNL A   1      39.107  24.357  26.706  1.00  0.00     0.041 A 
ATOM     85  F   UNL A   1      39.331  26.688  26.861  1.00  0.00    -0.206 F 
ATOM     86  C   UNL A   1      39.659  23.084  26.821  1.00  0.00     0.022 A 
BRANCH  83  87
ATOM     87  S   UNL A   1      41.706  21.292  27.280  1.00  0.00     0.124 S 
ATOM     88  O   UNL A   1      40.703  20.485  27.969  1.00  0.00    -0.237 OA
ATOM     89  O   UNL A   1      41.828  21.056  25.843  1.00  0.00    -0.237 OA
ATOM     90  O   UNL A   1      42.969  21.467  27.989  1.00  0.00    -0.744 OA
ENDBRANCH  83  87
ENDBRANCH  56  80
BRANCH  68  91
ATOM     91  C   UNL A   1      47.598  27.419  25.557  1.00  0.00     0.023 A 
ATOM     92  C   UNL A   1      48.756  26.860  26.132  1.00  0.00     0.031 A 
ATOM     93  C   UNL A   1      47.552  27.557  24.158  1.00  0.00     0.131 A 
ATOM     94  C   UNL A   1      49.841  26.510  25.319  1.00  0.00     0.055 A 
ATOM     95  C   UNL A   1      48.617  27.159  23.347  1.00  0.00     0.041 A 
ATOM     96  F   UNL A   1      46.475  28.091  23.561  1.00  0.00    -0.206 F 
ATOM     97  C   UNL A   1      49.775  26.648  23.929  1.00  0.00     0.022 A 
BRANCH  94  98
ATOM     98  S   UNL A   1      51.411  25.953  26.038  1.00  0.00     0.124 S 
ATOM     99  O   UNL A   1      51.780  27.091  26.879  1.00  0.00    -0.237 OA
ATOM    100  O   UNL A   1      51.008  24.749  26.761  1.00  0.00    -0.237 OA
ATOM    101  O   UNL A   1      52.271  25.731  24.881  1.00  0.00    -0.744 OA
ENDBRANCH  94  98
ENDBRANCH  68  91
ENDBRANCH  42  43
ENDBRANCH  35  37
ENDBRANCH  34  35
ENDBRANCH  33  34
ENDBRANCH  32  33
ENDBRANCH  31  32
ENDBRANCH   1  31
TORSDOF 24
ENDMDL
MODEL 2
REMARK VINA RESULT:     -10.1      5.325      7.296
REMARK SMILES CC(C)N(c1cc2c(cc1Cl)C=C(C(=O)OCCOCCOCCOC(=O)c1ccc(-c3c4nc(c(-c5cc(S(=O)(=O)[O-])ccc5F)c5ccc([nH]5)c(-c5cc(S(=O)(=O)[O-])ccc5F)c5nc(c(-c6cc(S(=O)(=O)[O-])ccc6F)c6ccc3[nH]6)C=C5)C=C4)cc1)[C@@H](C(F)(F)F)O2)C(C)C
REMARK SMILES IDX 21 1 20 2 19 3 18 4 17 5 16 6 14 7 15 8 13 9 5 10 6 11 10 12
REMARK SMILES IDX 7 13 9 14 11 15 8 16 96 17 12 18 91 19 4 20 2 21 1 22 3 23
REMARK SMILES IDX 97 24 98 25 99 26 92 27 93 28 94 29 95 30 22 31 23 32 24 33
REMARK SMILES IDX 25 34 26 35 27 36 28 37 29 38 90 39 30 40 89 41 31 42 32 43
REMARK SMILES IDX 33 44 83 45 34 46 88 47 82 48 84 49 35 50 87 51 81 52 80 53
REMARK SMILES IDX 36 55 68 56 48 57 67 58 49 59 52 60 66 61 85 62 50 63 51 64
REMARK SMILES IDX 65 66 86 67 53 68 37 69 38 70 46 71 39 72 45 73 47 74 44 75
REMARK SMILES IDX 40 76 41 77 42 78 43 79 69 80 70 81 78 82 71 83 77 84 79 85
REMARK SMILES IDX 76 86 72 87 73 88 74 89 75 90 54 91 55 92 63 93 56 94 62 95
REMARK SMILES IDX 64 96 61 97 57 98 58 99 59 100 60 101
REMARK H PARENT 84 54 52 65
REMARK Flexibility Score: inf
ROOT
ATOM      1  C   UNL A   1      33.211  35.070  29.944  1.00  0.00     0.188 C 
ENDROOT
BRANCH   1   2
ATOM      2  C   UNL A   1      33.875  34.199  28.855  1.00  0.00     0.188 C 
BRANCH   2   3
ATOM      3  O   UNL A   1      35.271  34.351  28.776  1.00  0.00    -0.376 OA
BRANCH   3   4
ATOM      4  C   UNL A   1      36.128  33.231  28.671  1.00  0.00     0.202 C 
BRANCH   4   5
ATOM      5  C   UNL A   1      36.168  32.054  29.664  1.00  0.00     0.261 C 
BRANCH   5   6
ATOM      6  O   UNL A   1      37.373  31.293  29.740  1.00  0.00    -0.460 OA
BRANCH   6   7
ATOM      7  C   UNL A   1      37.266  29.978  29.444  1.00  0.00     0.338 C 
ATOM      8  O   UNL A   1      36.234  29.362  29.234  1.00  0.00    -0.246 OA
BRANCH   7   9
ATOM      9  C   UNL A   1      38.617  29.403  29.304  1.00  0.00     0.087 C 
ATOM     10  C   UNL A   1      42.732  27.031  27.570  1.00  0.00     0.060 A 
ATOM     11  C   UNL A   1      42.286  27.478  28.836  1.00  0.00     0.074 A 
ATOM     12  C   UNL A   1      41.958  27.434  26.457  1.00  0.00     0.065 A 
ATOM     13  C   UNL A   1      41.095  28.199  29.001  1.00  0.00     0.130 A 
ATOM     14  C   UNL A   1      40.786  28.189  26.619  1.00  0.00     0.034 A 
ATOM     15  Cl  UNL A   1      42.278  26.946  24.828  1.00  0.00    -0.082 Cl
ATOM     16  C   UNL A   1      40.332  28.537  27.890  1.00  0.00     0.019 A 
ATOM     17  O   UNL A   1      40.739  28.505  30.285  1.00  0.00    -0.475 OA
ATOM     18  C   UNL A   1      39.037  29.172  28.056  1.00  0.00     0.027 C 
ATOM     19  C   UNL A   1      39.437  29.109  30.534  1.00  0.00     0.316 C 
BRANCH  10  20
ATOM     20  N   UNL A   1      43.860  26.181  27.512  1.00  0.00    -0.365 N 
BRANCH  20  21
ATOM     21  C   UNL A   1      45.119  26.715  26.939  1.00  0.00     0.076 C 
ATOM     22  C   UNL A   1      45.399  26.179  25.534  1.00  0.00     0.030 C 
ATOM     23  C   UNL A   1      45.202  28.241  26.944  1.00  0.00     0.030 C 
ENDBRANCH  20  21
BRANCH  20  24
ATOM     24  C   UNL A   1      43.640  24.789  27.971  1.00  0.00     0.076 C 
ATOM     25  C   UNL A   1      42.822  23.953  26.992  1.00  0.00     0.030 C 
ATOM     26  C   UNL A   1      44.927  24.078  28.376  1.00  0.00     0.030 C 
ENDBRANCH  20  24
ENDBRANCH  10  20
BRANCH  19  27
ATOM     27  C   UNL A   1      38.678  28.236  31.546  1.00  0.00     0.430 C 
ATOM     28  F   UNL A   1      39.489  27.832  32.555  1.00  0.00    -0.167 F 
ATOM     29  F   UNL A   1      37.656  28.912  32.127  1.00  0.00    -0.167 F 
ATOM     30  F   UNL A   1      38.156  27.127  30.979  1.00  0.00    -0.167 F 
ENDBRANCH  19  27
ENDBRANCH   7   9
ENDBRANCH   6   7
ENDBRANCH   5   6
ENDBRANCH   4   5
ENDBRANCH   3   4
ENDBRANCH   2   3
ENDBRANCH   1   2
BRANCH   1  31
ATOM     31  O   UNL A   1      33.310  34.682  31.311  1.00  0.00    -0.376 OA
BRANCH  31  32
ATOM     32  C   UNL A   1      34.082  35.482  32.200  1.00  0.00     0.202 C 
BRANCH  32  33
ATOM     33  C   UNL A   1      35.567  35.153  32.408  1.00  0.00     0.261 C 
BRANCH  33  34
ATOM     34  O   UNL A   1      36.021  35.327  33.759  1.00  0.00    -0.460 OA
BRANCH  34  35
ATOM     35  C   UNL A   1      36.285  34.182  34.439  1.00  0.00     0.338 C 
ATOM     36  O   UNL A   1      35.550  33.608  35.224  1.00  0.00    -0.246 OA
BRANCH  35  37
ATOM     37  C   UNL A   1      37.540  33.598  33.925  1.00  0.00     0.060 A 
ATOM     38  C   UNL A   1      38.780  34.152  34.243  1.00  0.00     0.016 A 
ATOM     39  C   UNL A   1      37.458  32.463  33.105  1.00  0.00     0.016 A 
ATOM     40  C   UNL A   1      39.946  33.553  33.753  1.00  0.00     0.010 A 
ATOM     41  C   UNL A   1      38.620  31.879  32.601  1.00  0.00     0.010 A 
ATOM     42  C   UNL A   1      39.874  32.409  32.937  1.00  0.00    -0.014 A 
BRANCH  42  43
ATOM     43  C   UNL A   1      41.108  31.667  32.584  1.00  0.00     0.031 A 
ATOM     44  C   UNL A   1      41.907  31.995  31.361  1.00  0.00     0.074 A 
ATOM     45  C   UNL A   1      41.485  30.656  33.388  1.00  0.00     0.049 A 
ATOM     46  N   UNL A   1      43.048  31.488  30.972  1.00  0.00    -0.248 NA
ATOM     47  C   UNL A   1      41.360  33.016  30.456  1.00  0.00     0.031 C 
ATOM     48  C   UNL A   1      40.753  30.229  34.581  1.00  0.00     0.029 A 
ATOM     49  N   UNL A   1      42.561  29.806  33.332  1.00  0.00    -0.354 N 
ATOM     50  C   UNL A   1      43.375  32.144  29.791  1.00  0.00     0.074 A 
ATOM     51  C   UNL A   1      42.283  33.049  29.501  1.00  0.00     0.031 C 
ATOM     52  C   UNL A   1      41.405  29.205  35.150  1.00  0.00     0.029 A 
ATOM     53  C   UNL A   1      42.589  28.887  34.355  1.00  0.00     0.049 A 
ATOM     54  H   UNL A   1      43.246  29.850  32.627  1.00  0.00     0.167 HD
ATOM     55  C   UNL A   1      44.495  32.011  29.040  1.00  0.00     0.034 A 
ATOM     56  C   UNL A   1      43.469  27.902  34.629  1.00  0.00     0.034 A 
ATOM     57  C   UNL A   1      45.562  31.086  29.343  1.00  0.00     0.049 A 
ATOM     58  C   UNL A   1      44.689  27.752  33.758  1.00  0.00     0.074 A 
ATOM     59  C   UNL A   1      46.765  30.924  28.676  1.00  0.00     0.029 A 
ATOM     60  N   UNL A   1      45.557  30.162  30.379  1.00  0.00    -0.354 N 
ATOM     61  N   UNL A   1      45.051  28.468  32.719  1.00  0.00    -0.248 NA
ATOM     62  C   UNL A   1      45.632  26.678  34.101  1.00  0.00     0.031 C 
ATOM     63  C   UNL A   1      47.449  29.858  29.257  1.00  0.00     0.029 A 
ATOM     64  C   UNL A   1      46.717  29.402  30.342  1.00  0.00     0.049 A 
ATOM     65  H   UNL A   1      44.836  30.060  31.042  1.00  0.00     0.167 HD
ATOM     66  C   UNL A   1      46.274  27.951  32.303  1.00  0.00     0.074 A 
ATOM     67  C   UNL A   1      46.600  26.873  33.215  1.00  0.00     0.031 C 
ATOM     68  C   UNL A   1      47.051  28.336  31.260  1.00  0.00     0.034 A 
BRANCH  55  69
ATOM     69  C   UNL A   1      44.674  32.898  27.832  1.00  0.00     0.023 A 
ATOM     70  C   UNL A   1      45.167  34.209  27.979  1.00  0.00     0.031 A 
ATOM     71  C   UNL A   1      44.193  32.507  26.570  1.00  0.00     0.131 A 
ATOM     72  C   UNL A   1      45.131  35.093  26.893  1.00  0.00     0.055 A 
ATOM     73  C   UNL A   1      44.196  33.379  25.481  1.00  0.00     0.041 A 
ATOM     74  F   UNL A   1      43.702  31.271  26.380  1.00  0.00    -0.206 F 
ATOM     75  C   UNL A   1      44.652  34.683  25.644  1.00  0.00     0.022 A 
BRANCH  72  76
ATOM     76  S   UNL A   1      45.626  36.829  27.074  1.00  0.00     0.124 S 
ATOM     77  O   UNL A   1      44.338  37.515  27.003  1.00  0.00    -0.237 OA
ATOM     78  O   UNL A   1      46.261  36.830  28.389  1.00  0.00    -0.237 OA
ATOM     79  O   UNL A   1      46.516  37.060  25.942  1.00  0.00    -0.744 OA
ENDBRANCH  72  76
ENDBRANCH  55  69
BRANCH  56  80
ATOM     80  C   UNL A   1      43.242  27.052  35.832  1.00  0.00     0.023 A 
ATOM     81  C   UNL A   1      44.007  27.235  37.000  1.00  0.00     0.031 A 
ATOM     82  C   UNL A   1      42.353  25.966  35.787  1.00  0.00     0.131 A 
ATOM     83  C   UNL A   1      43.918  26.305  38.043  1.00  0.00     0.055 A 
ATOM     84  C   UNL A   1      42.215  25.082  36.859  1.00  0.00     0.041 A 
ATOM     85  F   UNL A   1      41.616  25.741  34.688  1.00  0.00    -0.206 F 
ATOM     86  C   UNL A   1      43.015  25.239  37.987  1.00  0.00     0.022 A 
BRANCH  83  87
ATOM     87  S   UNL A   1      45.071  26.366  39.443  1.00  0.00     0.124 S 
ATOM     88  O   UNL A   1      44.227  26.895  40.510  1.00  0.00    -0.237 OA
ATOM     89  O   UNL A   1      45.452  24.962  39.576  1.00  0.00    -0.237 OA
ATOM     90  O   UNL A   1      46.132  27.255  38.978  1.00  0.00    -0.744 OA
ENDBRANCH  83  87
ENDBRANCH  56  80
BRANCH  68  91
ATOM     91  C   UNL A   1      48.353  27.610  31.012  1.00  0.00     0.023 A 
ATOM     92  C   UNL A   1      49.568  28.171  31.452  1.00  0.00     0.031 A 
ATOM     93  C   UNL A   1      48.408  26.462  30.202  1.00  0.00     0.131 A 
ATOM     94  C   UNL A   1      50.785  27.617  31.035  1.00  0.00     0.055 A 
ATOM     95  C   UNL A   1      49.623  25.882  29.833  1.00  0.00     0.041 A 
ATOM     96  F   UNL A   1      47.279  25.892  29.750  1.00  0.00    -0.206 F 
ATOM     97  C   UNL A   1      50.819  26.470  30.236  1.00  0.00     0.022 A 
BRANCH  94  98
ATOM     98  S   UNL A   1      52.365  28.414  31.437  1.00  0.00     0.124 S 
ATOM     99  O   UNL A   1      52.185  29.748  30.865  1.00  0.00    -0.237 OA
ATOM    100  O   UNL A   1      52.376  28.359  32.896  1.00  0.00    -0.237 OA
ATOM    101  O   UNL A   1      53.360  27.582  30.769  1.00  0.00    -0.744 OA
ENDBRANCH  94  98
ENDBRANCH  68  91
ENDBRANCH  42  43
ENDBRANCH  35  37
ENDBRANCH  34  35
ENDBRANCH  33  34
ENDBRANCH  32  33
ENDBRANCH  31  32
ENDBRANCH   1  31
TORSDOF 24
ENDMDL
MODEL 3
REMARK VINA RESULT:     -10.0      4.989      8.972
REMARK SMILES CC(C)N(c1cc2c(cc1Cl)C=C(C(=O)OCCOCCOCCOC(=O)c1ccc(-c3c4nc(c(-c5cc(S(=O)(=O)[O-])ccc5F)c5ccc([nH]5)c(-c5cc(S(=O)(=O)[O-])ccc5F)c5nc(c(-c6cc(S(=O)(=O)[O-])ccc6F)c6ccc3[nH]6)C=C5)C=C4)cc1)[C@@H](C(F)(F)F)O2)C(C)C
REMARK SMILES IDX 21 1 20 2 19 3 18 4 17 5 16 6 14 7 15 8 13 9 5 10 6 11 10 12
REMARK SMILES IDX 7 13 9 14 11 15 8 16 96 17 12 18 91 19 4 20 2 21 1 22 3 23
REMARK SMILES IDX 97 24 98 25 99 26 92 27 93 28 94 29 95 30 22 31 23 32 24 33
REMARK SMILES IDX 25 34 26 35 27 36 28 37 29 38 90 39 30 40 89 41 31 42 32 43
REMARK SMILES IDX 33 44 83 45 34 46 88 47 82 48 84 49 35 50 87 51 81 52 80 53
REMARK SMILES IDX 36 55 68 56 48 57 67 58 49 59 52 60 66 61 85 62 50 63 51 64
REMARK SMILES IDX 65 66 86 67 53 68 37 69 38 70 46 71 39 72 45 73 47 74 44 75
REMARK SMILES IDX 40 76 41 77 42 78 43 79 69 80 70 81 78 82 71 83 77 84 79 85
REMARK SMILES IDX 76 86 72 87 73 88 74 89 75 90 54 91 55 92 63 93 56 94 62 95
REMARK SMILES IDX 64 96 61 97 57 98 58 99 59 100 60 101
REMARK H PARENT 84 54 52 65
REMARK Flexibility Score: inf
ROOT
ATOM      1  C   UNL A   1      34.187  33.969  30.252  1.00  0.00     0.188 C 
ENDROOT
BRANCH   1   2
ATOM      2  C   UNL A   1      34.759  32.686  29.610  1.00  0.00     0.188 C 
BRANCH   2   3
ATOM      3  O   UNL A   1      35.708  32.929  28.600  1.00  0.00    -0.376 OA
BRANCH   3   4
ATOM      4  C   UNL A   1      37.068  33.160  28.910  1.00  0.00     0.202 C 
BRANCH   4   5
ATOM      5  C   UNL A   1      38.111  32.060  29.181  1.00  0.00     0.261 C 
BRANCH   5   6
ATOM      6  O   UNL A   1      37.719  30.966  30.011  1.00  0.00    -0.460 OA
BRANCH   6   7
ATOM      7  C   UNL A   1      37.531  29.782  29.385  1.00  0.00     0.338 C 
ATOM      8  O   UNL A   1      36.502  29.393  28.858  1.00  0.00    -0.246 OA
BRANCH   7   9
ATOM      9  C   UNL A   1      38.813  29.054  29.336  1.00  0.00     0.087 C 
ATOM     10  C   UNL A   1      42.712  26.172  27.899  1.00  0.00     0.060 A 
ATOM     11  C   UNL A   1      42.256  26.712  29.125  1.00  0.00     0.074 A 
ATOM     12  C   UNL A   1      42.047  26.620  26.734  1.00  0.00     0.065 A 
ATOM     13  C   UNL A   1      41.149  27.567  29.203  1.00  0.00     0.130 A 
ATOM     14  C   UNL A   1      40.962  27.508  26.810  1.00  0.00     0.034 A 
ATOM     15  Cl  UNL A   1      42.391  26.042  25.139  1.00  0.00    -0.082 Cl
ATOM     16  C   UNL A   1      40.487  27.950  28.043  1.00  0.00     0.019 A 
ATOM     17  O   UNL A   1      40.766  27.957  30.457  1.00  0.00    -0.475 OA
ATOM     18  C   UNL A   1      39.267  28.733  28.119  1.00  0.00     0.027 C 
ATOM     19  C   UNL A   1      39.531  28.713  30.616  1.00  0.00     0.316 C 
BRANCH  10  20
ATOM     20  N   UNL A   1      43.736  25.198  27.927  1.00  0.00    -0.365 N 
BRANCH  20  21
ATOM     21  C   UNL A   1      43.396  23.826  28.374  1.00  0.00     0.076 C 
ATOM     22  C   UNL A   1      43.818  23.557  29.819  1.00  0.00     0.030 C 
ATOM     23  C   UNL A   1      41.924  23.462  28.182  1.00  0.00     0.030 C 
ENDBRANCH  20  21
BRANCH  20  24
ATOM     24  C   UNL A   1      45.091  25.681  27.571  1.00  0.00     0.076 C 
ATOM     25  C   UNL A   1      45.627  26.739  28.531  1.00  0.00     0.030 C 
ATOM     26  C   UNL A   1      46.097  24.553  27.362  1.00  0.00     0.030 C 
ENDBRANCH  20  24
ENDBRANCH  10  20
BRANCH  19  27
ATOM     27  C   UNL A   1      38.626  27.968  31.611  1.00  0.00     0.430 C 
ATOM     28  F   UNL A   1      38.349  26.712  31.182  1.00  0.00    -0.167 F 
ATOM     29  F   UNL A   1      39.215  27.834  32.825  1.00  0.00    -0.167 F 
ATOM     30  F   UNL A   1      37.446  28.597  31.804  1.00  0.00    -0.167 F 
ENDBRANCH  19  27
ENDBRANCH   7   9
ENDBRANCH   6   7
ENDBRANCH   5   6
ENDBRANCH   4   5
ENDBRANCH   3   4
ENDBRANCH   2   3
ENDBRANCH   1   2
BRANCH   1  31
ATOM     31  O   UNL A   1      34.032  34.038  31.666  1.00  0.00    -0.376 OA
BRANCH  31  32
ATOM     32  C   UNL A   1      34.482  35.202  32.353  1.00  0.00     0.202 C 
BRANCH  32  33
ATOM     33  C   UNL A   1      35.392  35.044  33.579  1.00  0.00     0.261 C 
BRANCH  33  34
ATOM     34  O   UNL A   1      35.506  33.694  34.052  1.00  0.00    -0.460 OA
BRANCH  34  35
ATOM     35  C   UNL A   1      36.356  33.509  35.095  1.00  0.00     0.338 C 
ATOM     36  O   UNL A   1      36.082  33.552  36.282  1.00  0.00    -0.246 OA
BRANCH  35  37
ATOM     37  C   UNL A   1      37.653  33.030  34.576  1.00  0.00     0.060 A 
ATOM     38  C   UNL A   1      37.719  32.070  33.566  1.00  0.00     0.016 A 
ATOM     39  C   UNL A   1      38.827  33.568  35.124  1.00  0.00     0.016 A 
ATOM     40  C   UNL A   1      38.969  31.662  33.088  1.00  0.00     0.010 A 
ATOM     41  C   UNL A   1      40.072  33.145  34.660  1.00  0.00     0.010 A 
ATOM     42  C   UNL A   1      40.152  32.202  33.625  1.00  0.00    -0.014 A 
BRANCH  42  43
ATOM     43  C   UNL A   1      41.459  31.915  32.987  1.00  0.00     0.031 A 
ATOM     44  C   UNL A   1      42.319  30.769  33.422  1.00  0.00     0.074 A 
ATOM     45  C   UNL A   1      41.875  32.740  32.007  1.00  0.00     0.049 A 
ATOM     46  N   UNL A   1      43.443  30.349  32.902  1.00  0.00    -0.248 NA
ATOM     47  C   UNL A   1      41.868  29.998  34.589  1.00  0.00     0.031 C 
ATOM     48  C   UNL A   1      41.131  33.909  31.538  1.00  0.00     0.029 A 
ATOM     49  N   UNL A   1      43.010  32.731  31.237  1.00  0.00    -0.354 N 
ATOM     50  C   UNL A   1      43.825  29.247  33.657  1.00  0.00     0.074 A 
ATOM     51  C   UNL A   1      42.837  29.097  34.705  1.00  0.00     0.031 C 
ATOM     52  C   UNL A   1      41.823  34.499  30.553  1.00  0.00     0.029 A 
ATOM     53  C   UNL A   1      43.068  33.767  30.334  1.00  0.00     0.049 A 
ATOM     54  H   UNL A   1      43.714  32.050  31.322  1.00  0.00     0.167 HD
ATOM     55  C   UNL A   1      44.890  28.431  33.469  1.00  0.00     0.034 A 
ATOM     56  C   UNL A   1      44.012  34.091  29.426  1.00  0.00     0.034 A 
ATOM     57  C   UNL A   1      45.872  28.614  32.427  1.00  0.00     0.049 A 
ATOM     58  C   UNL A   1      45.205  33.187  29.261  1.00  0.00     0.074 A 
ATOM     59  C   UNL A   1      46.951  27.803  32.119  1.00  0.00     0.029 A 
ATOM     60  N   UNL A   1      45.910  29.677  31.534  1.00  0.00    -0.354 N 
ATOM     61  N   UNL A   1      45.486  32.072  29.894  1.00  0.00    -0.248 NA
ATOM     62  C   UNL A   1      46.200  33.565  28.248  1.00  0.00     0.031 C 
ATOM     63  C   UNL A   1      47.681  28.412  31.098  1.00  0.00     0.029 A 
ATOM     64  C   UNL A   1      47.016  29.563  30.706  1.00  0.00     0.049 A 
ATOM     65  H   UNL A   1      45.249  30.407  31.496  1.00  0.00     0.167 HD
ATOM     66  C   UNL A   1      46.672  31.602  29.339  1.00  0.00     0.074 A 
ATOM     67  C   UNL A   1      47.047  32.544  28.304  1.00  0.00     0.031 C 
ATOM     68  C   UNL A   1      47.383  30.493  29.663  1.00  0.00     0.034 A 
BRANCH  55  69
ATOM     69  C   UNL A   1      45.060  27.233  34.372  1.00  0.00     0.023 A 
ATOM     70  C   UNL A   1      44.427  26.013  34.062  1.00  0.00     0.031 A 
ATOM     71  C   UNL A   1      45.698  27.351  35.619  1.00  0.00     0.131 A 
ATOM     72  C   UNL A   1      44.413  24.976  35.003  1.00  0.00     0.055 A 
ATOM     73  C   UNL A   1      45.715  26.300  36.538  1.00  0.00     0.041 A 
ATOM     74  F   UNL A   1      46.307  28.496  35.968  1.00  0.00    -0.206 F 
ATOM     75  C   UNL A   1      45.058  25.112  36.237  1.00  0.00     0.022 A 
BRANCH  72  76
ATOM     76  S   UNL A   1      43.492  23.442  34.701  1.00  0.00     0.124 S 
ATOM     77  O   UNL A   1      44.246  22.479  35.501  1.00  0.00    -0.237 OA
ATOM     78  O   UNL A   1      42.166  23.776  35.214  1.00  0.00    -0.237 OA
ATOM     79  O   UNL A   1      43.584  23.257  33.257  1.00  0.00    -0.744 OA
ENDBRANCH  72  76
ENDBRANCH  55  69
BRANCH  56  80
ATOM     80  C   UNL A   1      43.796  35.288  28.563  1.00  0.00     0.023 A 
ATOM     81  C   UNL A   1      44.023  36.586  29.059  1.00  0.00     0.031 A 
ATOM     82  C   UNL A   1      43.242  35.157  27.280  1.00  0.00     0.131 A 
ATOM     83  C   UNL A   1      43.629  37.698  28.304  1.00  0.00     0.055 A 
ATOM     84  C   UNL A   1      42.916  36.269  26.501  1.00  0.00     0.041 A 
ATOM     85  F   UNL A   1      42.991  33.940  26.772  1.00  0.00    -0.206 F 
ATOM     86  C   UNL A   1      43.092  37.548  27.022  1.00  0.00     0.022 A 
BRANCH  83  87
ATOM     87  S   UNL A   1      43.666  39.365  29.018  1.00  0.00     0.124 S 
ATOM     88  O   UNL A   1      43.436  39.096  30.434  1.00  0.00    -0.237 OA
ATOM     89  O   UNL A   1      45.015  39.807  28.671  1.00  0.00    -0.237 OA
ATOM     90  O   UNL A   1      42.588  40.062  28.324  1.00  0.00    -0.744 OA
ENDBRANCH  83  87
ENDBRANCH  56  80
BRANCH  68  91
ATOM     91  C   UNL A   1      48.656  30.195  28.903  1.00  0.00     0.023 A 
ATOM     92  C   UNL A   1      48.632  29.309  27.808  1.00  0.00     0.031 A 
ATOM     93  C   UNL A   1      49.905  30.648  29.362  1.00  0.00     0.131 A 
ATOM     94  C   UNL A   1      49.833  28.862  27.244  1.00  0.00     0.055 A 
ATOM     95  C   UNL A   1      51.098  30.240  28.763  1.00  0.00     0.041 A 
ATOM     96  F   UNL A   1      49.983  31.488  30.407  1.00  0.00    -0.206 F 
ATOM     97  C   UNL A   1      51.066  29.329  27.710  1.00  0.00     0.022 A 
BRANCH  94  98
ATOM     98  S   UNL A   1      49.846  27.589  25.952  1.00  0.00     0.124 S 
ATOM     99  O   UNL A   1      51.171  26.996  26.124  1.00  0.00    -0.237 OA
ATOM    100  O   UNL A   1      48.727  26.737  26.347  1.00  0.00    -0.237 OA
ATOM    101  O   UNL A   1      49.657  28.339  24.715  1.00  0.00    -0.744 OA
ENDBRANCH  94  98
ENDBRANCH  68  91
ENDBRANCH  42  43
ENDBRANCH  35  37
ENDBRANCH  34  35
ENDBRANCH  33  34
ENDBRANCH  32  33
ENDBRANCH  31  32
ENDBRANCH   1  31
TORSDOF 24
ENDMDL
