MODEL 1
REMARK VINA RESULT:     -10.0      0.000      0.000
REMARK SMILES O=C(NCc1ccc(C(=O)OCCOCCOCCOC(=O)c2ccc(-c3c4nc(c(-c5cc(S(=O)(=O)[O-])ccc5F)c5ccc([nH]5)c(-c5cc(S(=O)(=O)[O-])ccc5F)c5nc(c(-c6cc(S(=O)(=O)[O-])ccc6F)c6ccc3[nH]6)C=C5)C=C4)cc2)o1)Nc1ccc(F)c(Cl)c1
REMARK SMILES IDX 15 1 14 2 13 3 12 4 11 5 9 6 10 7 8 8 5 9 6 10 86 11 7 12
REMARK SMILES IDX 4 13 3 14 1 15 2 16 87 17 88 20 89 21 95 22 90 23 93 24
REMARK SMILES IDX 91 25 94 26 92 27 16 28 17 29 18 30 19 31 20 32 21 33 22 34
REMARK SMILES IDX 23 35 24 36 85 37 25 38 84 39 26 40 27 41 28 42 78 43 29 44
REMARK SMILES IDX 83 45 77 46 79 47 30 48 82 49 76 50 75 51 31 53 63 54 43 55
REMARK SMILES IDX 62 56 44 57 47 58 61 59 80 60 45 61 46 62 60 64 81 65 48 66
REMARK SMILES IDX 32 67 33 68 41 69 34 70 40 71 42 72 39 73 35 74 36 75 37 76
REMARK SMILES IDX 38 77 64 78 65 79 73 80 66 81 72 82 74 83 71 84 67 85 68 86
REMARK SMILES IDX 69 87 70 88 49 89 50 90 58 91 51 92 57 93 59 94 56 95 52 96
REMARK SMILES IDX 53 97 54 98 55 99
REMARK H PARENT 3 18 87 19 79 52 47 63
REMARK Flexibility Score: inf
ROOT
ATOM      1  C   UNL A   1      41.247  22.158  26.106  1.00  0.00     0.188 C 
ENDROOT
BRANCH   1   2
ATOM      2  O   UNL A   1      40.101  21.655  26.785  1.00  0.00    -0.376 OA
BRANCH   2   3
ATOM      3  C   UNL A   1      39.129  20.909  26.066  1.00  0.00     0.202 C 
BRANCH   3   4
ATOM      4  C   UNL A   1      38.124  21.709  25.235  1.00  0.00     0.261 C 
BRANCH   4   5
ATOM      5  O   UNL A   1      36.819  21.720  25.837  1.00  0.00    -0.457 OA
BRANCH   5   6
ATOM      6  C   UNL A   1      36.193  22.934  25.863  1.00  0.00     0.374 C 
ATOM      7  O   UNL A   1      36.625  23.950  25.334  1.00  0.00    -0.242 OA
BRANCH   6   8
ATOM      8  C   UNL A   1      34.907  22.801  26.505  1.00  0.00     0.211 A 
ATOM      9  C   UNL A   1      32.701  22.706  26.497  1.00  0.00     0.124 A 
ATOM     10  C   UNL A   1      33.097  22.392  27.781  1.00  0.00     0.048 A 
ATOM     11  O   UNL A   1      33.792  22.973  25.729  1.00  0.00    -0.452 OA
ATOM     12  C   UNL A   1      34.513  22.452  27.787  1.00  0.00     0.058 A 
BRANCH   9  13
ATOM     13  C   UNL A   1      31.379  22.828  25.826  1.00  0.00     0.193 C 
BRANCH  13  14
ATOM     14  N   UNL A   1      31.504  22.232  24.516  1.00  0.00    -0.331 N 
ATOM     15  O   UNL A   1      32.360  20.899  22.975  1.00  0.00    -0.248 OA
ATOM     16  C   UNL A   1      32.062  21.048  24.158  1.00  0.00     0.319 C 
ATOM     17  N   UNL A   1      32.206  20.113  25.144  1.00  0.00    -0.308 N 
ATOM     18  H   UNL A   1      31.130  22.763  23.775  1.00  0.00     0.165 HD
ATOM     19  H   UNL A   1      31.731  20.276  25.991  1.00  0.00     0.171 HD
BRANCH  17  20
ATOM     20  C   UNL A   1      32.976  18.934  25.052  1.00  0.00     0.044 A 
ATOM     21  C   UNL A   1      34.316  19.044  24.654  1.00  0.00     0.029 A 
ATOM     22  C   UNL A   1      32.441  17.668  25.310  1.00  0.00     0.049 A 
ATOM     23  C   UNL A   1      35.123  17.905  24.567  1.00  0.00     0.043 A 
ATOM     24  C   UNL A   1      33.246  16.532  25.210  1.00  0.00     0.078 A 
ATOM     25  C   UNL A   1      34.586  16.656  24.856  1.00  0.00     0.141 A 
ATOM     26  Cl  UNL A   1      32.559  14.982  25.528  1.00  0.00    -0.081 Cl
ATOM     27  F   UNL A   1      35.375  15.574  24.795  1.00  0.00    -0.205 F 
ENDBRANCH  17  20
ENDBRANCH  13  14
ENDBRANCH   9  13
ENDBRANCH   6   8
ENDBRANCH   5   6
ENDBRANCH   4   5
ENDBRANCH   3   4
ENDBRANCH   2   3
ENDBRANCH   1   2
BRANCH   1  28
ATOM     28  C   UNL A   1      41.606  23.650  26.243  1.00  0.00     0.188 C 
BRANCH  28  29
ATOM     29  O   UNL A   1      42.533  24.121  25.275  1.00  0.00    -0.376 OA
BRANCH  29  30
ATOM     30  C   UNL A   1      43.527  23.189  24.872  1.00  0.00     0.202 C 
BRANCH  30  31
ATOM     31  C   UNL A   1      44.889  23.844  24.625  1.00  0.00     0.261 C 
BRANCH  31  32
ATOM     32  O   UNL A   1      45.409  24.583  25.742  1.00  0.00    -0.460 OA
BRANCH  32  33
ATOM     33  C   UNL A   1      45.499  25.925  25.596  1.00  0.00     0.338 C 
ATOM     34  O   UNL A   1      46.045  26.529  24.692  1.00  0.00    -0.246 OA
BRANCH  33  35
ATOM     35  C   UNL A   1      44.673  26.549  26.647  1.00  0.00     0.060 A 
ATOM     36  C   UNL A   1      44.628  27.945  26.734  1.00  0.00     0.016 A 
ATOM     37  C   UNL A   1      43.951  25.755  27.542  1.00  0.00     0.016 A 
ATOM     38  C   UNL A   1      43.870  28.552  27.739  1.00  0.00     0.010 A 
ATOM     39  C   UNL A   1      43.206  26.363  28.553  1.00  0.00     0.010 A 
ATOM     40  C   UNL A   1      43.180  27.763  28.670  1.00  0.00    -0.014 A 
BRANCH  40  41
ATOM     41  C   UNL A   1      42.555  28.384  29.863  1.00  0.00     0.031 A 
ATOM     42  C   UNL A   1      41.176  28.970  29.731  1.00  0.00     0.074 A 
ATOM     43  C   UNL A   1      43.208  28.447  31.038  1.00  0.00     0.049 A 
ATOM     44  N   UNL A   1      40.458  29.611  30.615  1.00  0.00    -0.248 NA
ATOM     45  C   UNL A   1      40.529  28.813  28.421  1.00  0.00     0.031 C 
ATOM     46  C   UNL A   1      44.537  27.897  31.296  1.00  0.00     0.029 A 
ATOM     47  N   UNL A   1      42.841  29.019  32.229  1.00  0.00    -0.354 N 
ATOM     48  C   UNL A   1      39.267  29.930  29.972  1.00  0.00     0.074 A 
ATOM     49  C   UNL A   1      39.380  29.443  28.613  1.00  0.00     0.031 C 
ATOM     50  C   UNL A   1      44.884  28.177  32.566  1.00  0.00     0.029 A 
ATOM     51  C   UNL A   1      43.815  28.950  33.197  1.00  0.00     0.049 A 
ATOM     52  H   UNL A   1      41.963  29.439  32.377  1.00  0.00     0.167 HD
ATOM     53  C   UNL A   1      38.177  30.564  30.469  1.00  0.00     0.034 A 
ATOM     54  C   UNL A   1      43.847  29.474  34.439  1.00  0.00     0.034 A 
ATOM     55  C   UNL A   1      38.085  31.076  31.813  1.00  0.00     0.049 A 
ATOM     56  C   UNL A   1      42.657  30.255  34.945  1.00  0.00     0.074 A 
ATOM     57  C   UNL A   1      37.025  31.730  32.418  1.00  0.00     0.029 A 
ATOM     58  N   UNL A   1      39.102  31.013  32.757  1.00  0.00    -0.354 N 
ATOM     59  N   UNL A   1      41.527  30.527  34.335  1.00  0.00    -0.248 NA
ATOM     60  C   UNL A   1      42.748  30.792  36.310  1.00  0.00     0.031 C 
ATOM     61  C   UNL A   1      37.423  32.113  33.704  1.00  0.00     0.029 A 
ATOM     62  C   UNL A   1      38.706  31.640  33.927  1.00  0.00     0.049 A 
ATOM     63  H   UNL A   1      39.978  30.585  32.615  1.00  0.00     0.167 HD
ATOM     64  C   UNL A   1      40.761  31.238  35.257  1.00  0.00     0.074 A 
ATOM     65  C   UNL A   1      41.555  31.348  36.462  1.00  0.00     0.031 C 
ATOM     66  C   UNL A   1      39.510  31.747  35.122  1.00  0.00     0.034 A 
BRANCH  53  67
ATOM     67  C   UNL A   1      37.021  30.775  29.525  1.00  0.00     0.023 A 
ATOM     68  C   UNL A   1      36.542  32.063  29.227  1.00  0.00     0.031 A 
ATOM     69  C   UNL A   1      36.358  29.675  28.954  1.00  0.00     0.131 A 
ATOM     70  C   UNL A   1      35.390  32.216  28.441  1.00  0.00     0.055 A 
ATOM     71  C   UNL A   1      35.257  29.838  28.112  1.00  0.00     0.041 A 
ATOM     72  F   UNL A   1      36.757  28.421  29.223  1.00  0.00    -0.206 F 
ATOM     73  C   UNL A   1      34.757  31.114  27.863  1.00  0.00     0.022 A 
BRANCH  70  74
ATOM     74  S   UNL A   1      34.650  33.866  28.305  1.00  0.00     0.124 S 
ATOM     75  O   UNL A   1      33.247  33.541  28.056  1.00  0.00    -0.237 OA
ATOM     76  O   UNL A   1      34.948  34.454  29.606  1.00  0.00    -0.237 OA
ATOM     77  O   UNL A   1      35.354  34.465  27.173  1.00  0.00    -0.744 OA
ENDBRANCH  70  74
ENDBRANCH  53  67
BRANCH  54  78
ATOM     78  C   UNL A   1      45.055  29.311  35.295  1.00  0.00     0.023 A 
ATOM     79  C   UNL A   1      45.116  28.306  36.271  1.00  0.00     0.031 A 
ATOM     80  C   UNL A   1      46.142  30.197  35.187  1.00  0.00     0.131 A 
ATOM     81  C   UNL A   1      46.221  28.236  37.133  1.00  0.00     0.055 A 
ATOM     82  C   UNL A   1      47.259  30.095  36.017  1.00  0.00     0.041 A 
ATOM     83  F   UNL A   1      46.131  31.175  34.266  1.00  0.00    -0.206 F 
ATOM     84  C   UNL A   1      47.297  29.117  37.006  1.00  0.00     0.022 A 
BRANCH  81  85
ATOM     85  S   UNL A   1      46.193  27.011  38.469  1.00  0.00     0.124 S 
ATOM     86  O   UNL A   1      45.160  27.552  39.344  1.00  0.00    -0.237 OA
ATOM     87  O   UNL A   1      45.847  25.788  37.749  1.00  0.00    -0.237 OA
ATOM     88  O   UNL A   1      47.553  27.059  39.001  1.00  0.00    -0.744 OA
ENDBRANCH  81  85
ENDBRANCH  54  78
BRANCH  66  89
ATOM     89  C   UNL A   1      38.903  32.417  36.330  1.00  0.00     0.023 A 
ATOM     90  C   UNL A   1      38.243  31.686  37.333  1.00  0.00     0.031 A 
ATOM     91  C   UNL A   1      38.991  33.813  36.475  1.00  0.00     0.131 A 
ATOM     92  C   UNL A   1      37.656  32.360  38.415  1.00  0.00     0.055 A 
ATOM     93  C   UNL A   1      38.449  34.473  37.579  1.00  0.00     0.041 A 
ATOM     94  F   UNL A   1      39.611  34.559  35.546  1.00  0.00    -0.206 F 
ATOM     95  C   UNL A   1      37.768  33.746  38.552  1.00  0.00     0.022 A 
BRANCH  92  96
ATOM     96  S   UNL A   1      36.681  31.407  39.612  1.00  0.00     0.124 S 
ATOM     97  O   UNL A   1      37.709  30.933  40.533  1.00  0.00    -0.237 OA
ATOM     98  O   UNL A   1      35.766  32.413  40.141  1.00  0.00    -0.237 OA
ATOM     99  O   UNL A   1      36.054  30.369  38.796  1.00  0.00    -0.744 OA
ENDBRANCH  92  96
ENDBRANCH  66  89
ENDBRANCH  40  41
ENDBRANCH  33  35
ENDBRANCH  32  33
ENDBRANCH  31  32
ENDBRANCH  30  31
ENDBRANCH  29  30
ENDBRANCH  28  29
ENDBRANCH   1  28
TORSDOF 23
ENDMDL
MODEL 2
REMARK VINA RESULT:      -9.4      6.523     11.639
REMARK SMILES O=C(NCc1ccc(C(=O)OCCOCCOCCOC(=O)c2ccc(-c3c4nc(c(-c5cc(S(=O)(=O)[O-])ccc5F)c5ccc([nH]5)c(-c5cc(S(=O)(=O)[O-])ccc5F)c5nc(c(-c6cc(S(=O)(=O)[O-])ccc6F)c6ccc3[nH]6)C=C5)C=C4)cc2)o1)Nc1ccc(F)c(Cl)c1
REMARK SMILES IDX 15 1 14 2 13 3 12 4 11 5 9 6 10 7 8 8 5 9 6 10 86 11 7 12
REMARK SMILES IDX 4 13 3 14 1 15 2 16 87 17 88 20 89 21 95 22 90 23 93 24
REMARK SMILES IDX 91 25 94 26 92 27 16 28 17 29 18 30 19 31 20 32 21 33 22 34
REMARK SMILES IDX 23 35 24 36 85 37 25 38 84 39 26 40 27 41 28 42 78 43 29 44
REMARK SMILES IDX 83 45 77 46 79 47 30 48 82 49 76 50 75 51 31 53 63 54 43 55
REMARK SMILES IDX 62 56 44 57 47 58 61 59 80 60 45 61 46 62 60 64 81 65 48 66
REMARK SMILES IDX 32 67 33 68 41 69 34 70 40 71 42 72 39 73 35 74 36 75 37 76
REMARK SMILES IDX 38 77 64 78 65 79 73 80 66 81 72 82 74 83 71 84 67 85 68 86
REMARK SMILES IDX 69 87 70 88 49 89 50 90 58 91 51 92 57 93 59 94 56 95 52 96
REMARK SMILES IDX 53 97 54 98 55 99
REMARK H PARENT 3 18 87 19 79 52 47 63
REMARK Flexibility Score: inf
ROOT
ATOM      1  C   UNL A   1      37.381  32.765  29.258  1.00  0.00     0.188 C 
ENDROOT
BRANCH   1   2
ATOM      2  O   UNL A   1      37.086  31.927  28.145  1.00  0.00    -0.376 OA
BRANCH   2   3
ATOM      3  C   UNL A   1      37.105  30.515  28.305  1.00  0.00     0.202 C 
BRANCH   3   4
ATOM      4  C   UNL A   1      35.748  29.812  28.370  1.00  0.00     0.261 C 
BRANCH   4   5
ATOM      5  O   UNL A   1      35.070  29.838  27.103  1.00  0.00    -0.457 OA
BRANCH   5   6
ATOM      6  C   UNL A   1      33.809  30.363  27.122  1.00  0.00     0.374 C 
ATOM      7  O   UNL A   1      33.515  31.450  27.604  1.00  0.00    -0.242 OA
BRANCH   6   8
ATOM      8  C   UNL A   1      32.914  29.498  26.391  1.00  0.00     0.211 A 
ATOM      9  C   UNL A   1      32.115  27.521  25.818  1.00  0.00     0.124 A 
ATOM     10  C   UNL A   1      31.275  28.456  25.250  1.00  0.00     0.048 A 
ATOM     11  O   UNL A   1      33.118  28.148  26.491  1.00  0.00    -0.452 OA
ATOM     12  C   UNL A   1      31.787  29.726  25.618  1.00  0.00     0.058 A 
BRANCH   9  13
ATOM     13  C   UNL A   1      32.153  26.034  25.818  1.00  0.00     0.193 C 
BRANCH  13  14
ATOM     14  N   UNL A   1      32.594  25.613  24.508  1.00  0.00    -0.331 N 
ATOM     15  O   UNL A   1      33.679  24.359  23.047  1.00  0.00    -0.248 OA
ATOM     16  C   UNL A   1      33.047  24.401  24.101  1.00  0.00     0.319 C 
ATOM     17  N   UNL A   1      32.725  23.329  24.884  1.00  0.00    -0.308 N 
ATOM     18  H   UNL A   1      32.561  26.308  23.810  1.00  0.00     0.165 HD
ATOM     19  H   UNL A   1      32.036  23.467  25.575  1.00  0.00     0.171 HD
BRANCH  17  20
ATOM     20  C   UNL A   1      33.293  22.041  24.788  1.00  0.00     0.044 A 
ATOM     21  C   UNL A   1      34.644  21.882  25.127  1.00  0.00     0.029 A 
ATOM     22  C   UNL A   1      32.567  20.934  24.336  1.00  0.00     0.049 A 
ATOM     23  C   UNL A   1      35.245  20.621  25.066  1.00  0.00     0.043 A 
ATOM     24  C   UNL A   1      33.173  19.678  24.263  1.00  0.00     0.078 A 
ATOM     25  C   UNL A   1      34.503  19.523  24.643  1.00  0.00     0.141 A 
ATOM     26  Cl  UNL A   1      32.257  18.332  23.697  1.00  0.00    -0.081 Cl
ATOM     27  F   UNL A   1      35.081  18.314  24.614  1.00  0.00    -0.205 F 
ENDBRANCH  17  20
ENDBRANCH  13  14
ENDBRANCH   9  13
ENDBRANCH   6   8
ENDBRANCH   5   6
ENDBRANCH   4   5
ENDBRANCH   3   4
ENDBRANCH   2   3
ENDBRANCH   1   2
BRANCH   1  28
ATOM     28  C   UNL A   1      36.220  33.418  30.034  1.00  0.00     0.188 C 
BRANCH  28  29
ATOM     29  O   UNL A   1      35.480  32.520  30.849  1.00  0.00    -0.376 OA
BRANCH  29  30
ATOM     30  C   UNL A   1      35.571  32.746  32.249  1.00  0.00     0.202 C 
BRANCH  30  31
ATOM     31  C   UNL A   1      36.550  31.793  32.941  1.00  0.00     0.261 C 
BRANCH  31  32
ATOM     32  O   UNL A   1      36.993  30.695  32.128  1.00  0.00    -0.460 OA
BRANCH  32  33
ATOM     33  C   UNL A   1      38.010  29.948  32.615  1.00  0.00     0.338 C 
ATOM     34  O   UNL A   1      37.924  28.985  33.354  1.00  0.00    -0.246 OA
BRANCH  33  35
ATOM     35  C   UNL A   1      39.253  30.403  31.964  1.00  0.00     0.060 A 
ATOM     36  C   UNL A   1      40.240  31.019  32.743  1.00  0.00     0.016 A 
ATOM     37  C   UNL A   1      39.438  30.224  30.591  1.00  0.00     0.016 A 
ATOM     38  C   UNL A   1      41.413  31.478  32.138  1.00  0.00     0.010 A 
ATOM     39  C   UNL A   1      40.605  30.695  29.987  1.00  0.00     0.010 A 
ATOM     40  C   UNL A   1      41.588  31.343  30.754  1.00  0.00    -0.014 A 
BRANCH  40  41
ATOM     41  C   UNL A   1      42.720  32.015  30.072  1.00  0.00     0.031 A 
ATOM     42  C   UNL A   1      43.929  31.198  29.708  1.00  0.00     0.074 A 
ATOM     43  C   UNL A   1      42.686  33.331  29.799  1.00  0.00     0.049 A 
ATOM     44  N   UNL A   1      45.055  31.577  29.163  1.00  0.00    -0.248 NA
ATOM     45  C   UNL A   1      43.853  29.761  30.008  1.00  0.00     0.031 C 
ATOM     46  C   UNL A   1      41.564  34.225  30.082  1.00  0.00     0.029 A 
ATOM     47  N   UNL A   1      43.633  34.148  29.235  1.00  0.00    -0.354 N 
ATOM     48  C   UNL A   1      45.823  30.423  29.046  1.00  0.00     0.074 A 
ATOM     49  C   UNL A   1      45.045  29.341  29.613  1.00  0.00     0.031 C 
ATOM     50  C   UNL A   1      41.897  35.473  29.707  1.00  0.00     0.029 A 
ATOM     51  C   UNL A   1      43.264  35.471  29.187  1.00  0.00     0.049 A 
ATOM     52  H   UNL A   1      44.497  33.817  28.896  1.00  0.00     0.167 HD
ATOM     53  C   UNL A   1      47.059  30.277  28.510  1.00  0.00     0.034 A 
ATOM     54  C   UNL A   1      43.960  36.556  28.792  1.00  0.00     0.034 A 
ATOM     55  C   UNL A   1      47.841  31.365  27.979  1.00  0.00     0.049 A 
ATOM     56  C   UNL A   1      45.372  36.385  28.281  1.00  0.00     0.074 A 
ATOM     57  C   UNL A   1      49.103  31.325  27.409  1.00  0.00     0.029 A 
ATOM     58  N   UNL A   1      47.446  32.697  27.973  1.00  0.00    -0.354 N 
ATOM     59  N   UNL A   1      46.077  35.285  28.151  1.00  0.00    -0.248 NA
ATOM     60  C   UNL A   1      46.075  37.603  27.855  1.00  0.00     0.031 C 
ATOM     61  C   UNL A   1      49.493  32.637  27.114  1.00  0.00     0.029 A 
ATOM     62  C   UNL A   1      48.449  33.489  27.437  1.00  0.00     0.049 A 
ATOM     63  H   UNL A   1      46.580  33.030  28.302  1.00  0.00     0.167 HD
ATOM     64  C   UNL A   1      47.294  35.678  27.598  1.00  0.00     0.074 A 
ATOM     65  C   UNL A   1      47.224  37.113  27.415  1.00  0.00     0.031 C 
ATOM     66  C   UNL A   1      48.369  34.920  27.264  1.00  0.00     0.034 A 
BRANCH  53  67
ATOM     67  C   UNL A   1      47.650  28.890  28.524  1.00  0.00     0.023 A 
ATOM     68  C   UNL A   1      47.465  28.003  27.449  1.00  0.00     0.031 A 
ATOM     69  C   UNL A   1      48.364  28.432  29.644  1.00  0.00     0.131 A 
ATOM     70  C   UNL A   1      47.924  26.681  27.546  1.00  0.00     0.055 A 
ATOM     71  C   UNL A   1      48.884  27.138  29.704  1.00  0.00     0.041 A 
ATOM     72  F   UNL A   1      48.550  29.228  30.709  1.00  0.00    -0.206 F 
ATOM     73  C   UNL A   1      48.652  26.249  28.657  1.00  0.00     0.022 A 
BRANCH  70  74
ATOM     74  S   UNL A   1      47.432  25.498  26.263  1.00  0.00     0.124 S 
ATOM     75  O   UNL A   1      46.018  25.821  26.089  1.00  0.00    -0.237 OA
ATOM     76  O   UNL A   1      48.310  25.853  25.154  1.00  0.00    -0.237 OA
ATOM     77  O   UNL A   1      47.696  24.198  26.876  1.00  0.00    -0.744 OA
ENDBRANCH  70  74
ENDBRANCH  53  67
BRANCH  54  78
ATOM     78  C   UNL A   1      43.358  37.914  28.887  1.00  0.00     0.023 A 
ATOM     79  C   UNL A   1      42.604  38.443  27.830  1.00  0.00     0.031 A 
ATOM     80  C   UNL A   1      43.577  38.725  30.015  1.00  0.00     0.131 A 
ATOM     81  C   UNL A   1      42.133  39.763  27.900  1.00  0.00     0.055 A 
ATOM     82  C   UNL A   1      43.067  40.021  30.100  1.00  0.00     0.041 A 
ATOM     83  F   UNL A   1      44.290  38.262  31.054  1.00  0.00    -0.206 F 
ATOM     84  C   UNL A   1      42.349  40.552  29.031  1.00  0.00     0.022 A 
BRANCH  81  85
ATOM     85  S   UNL A   1      41.284  40.452  26.453  1.00  0.00     0.124 S 
ATOM     86  O   UNL A   1      40.242  41.257  27.078  1.00  0.00    -0.237 OA
ATOM     87  O   UNL A   1      42.360  41.193  25.798  1.00  0.00    -0.237 OA
ATOM     88  O   UNL A   1      40.817  39.267  25.738  1.00  0.00    -0.744 OA
ENDBRANCH  81  85
ENDBRANCH  54  78
BRANCH  66  89
ATOM     89  C   UNL A   1      49.533  35.624  26.612  1.00  0.00     0.023 A 
ATOM     90  C   UNL A   1      50.572  36.198  27.365  1.00  0.00     0.031 A 
ATOM     91  C   UNL A   1      49.599  35.718  25.209  1.00  0.00     0.131 A 
ATOM     92  C   UNL A   1      51.610  36.881  26.713  1.00  0.00     0.055 A 
ATOM     93  C   UNL A   1      50.660  36.355  24.565  1.00  0.00     0.041 A 
ATOM     94  F   UNL A   1      48.633  35.187  24.443  1.00  0.00    -0.206 F 
ATOM     95  C   UNL A   1      51.668  36.951  25.318  1.00  0.00     0.022 A 
BRANCH  92  96
ATOM     96  S   UNL A   1      52.854  37.741  27.715  1.00  0.00     0.124 S 
ATOM     97  O   UNL A   1      53.475  36.638  28.441  1.00  0.00    -0.237 OA
ATOM     98  O   UNL A   1      53.683  38.384  26.701  1.00  0.00    -0.237 OA
ATOM     99  O   UNL A   1      52.061  38.655  28.536  1.00  0.00    -0.744 OA
ENDBRANCH  92  96
ENDBRANCH  66  89
ENDBRANCH  40  41
ENDBRANCH  33  35
ENDBRANCH  32  33
ENDBRANCH  31  32
ENDBRANCH  30  31
ENDBRANCH  29  30
ENDBRANCH  28  29
ENDBRANCH   1  28
TORSDOF 23
ENDMDL
MODEL 3
REMARK VINA RESULT:      -9.3      5.873      8.914
REMARK SMILES O=C(NCc1ccc(C(=O)OCCOCCOCCOC(=O)c2ccc(-c3c4nc(c(-c5cc(S(=O)(=O)[O-])ccc5F)c5ccc([nH]5)c(-c5cc(S(=O)(=O)[O-])ccc5F)c5nc(c(-c6cc(S(=O)(=O)[O-])ccc6F)c6ccc3[nH]6)C=C5)C=C4)cc2)o1)Nc1ccc(F)c(Cl)c1
REMARK SMILES IDX 15 1 14 2 13 3 12 4 11 5 9 6 10 7 8 8 5 9 6 10 86 11 7 12
REMARK SMILES IDX 4 13 3 14 1 15 2 16 87 17 88 20 89 21 95 22 90 23 93 24
REMARK SMILES IDX 91 25 94 26 92 27 16 28 17 29 18 30 19 31 20 32 21 33 22 34
REMARK SMILES IDX 23 35 24 36 85 37 25 38 84 39 26 40 27 41 28 42 78 43 29 44
REMARK SMILES IDX 83 45 77 46 79 47 30 48 82 49 76 50 75 51 31 53 63 54 43 55
REMARK SMILES IDX 62 56 44 57 47 58 61 59 80 60 45 61 46 62 60 64 81 65 48 66
REMARK SMILES IDX 32 67 33 68 41 69 34 70 40 71 42 72 39 73 35 74 36 75 37 76
REMARK SMILES IDX 38 77 64 78 65 79 73 80 66 81 72 82 74 83 71 84 67 85 68 86
REMARK SMILES IDX 69 87 70 88 49 89 50 90 58 91 51 92 57 93 59 94 56 95 52 96
REMARK SMILES IDX 53 97 54 98 55 99
REMARK H PARENT 3 18 87 19 79 52 47 63
REMARK Flexibility Score: inf
ROOT
ATOM      1  C   UNL A   1      40.785  21.490  26.404  1.00  0.00     0.188 C 
ENDROOT
BRANCH   1   2
ATOM      2  O   UNL A   1      39.636  20.669  26.224  1.00  0.00    -0.376 OA
BRANCH   2   3
ATOM      3  C   UNL A   1      38.636  21.055  25.291  1.00  0.00     0.202 C 
BRANCH   3   4
ATOM      4  C   UNL A   1      37.500  21.931  25.823  1.00  0.00     0.261 C 
BRANCH   4   5
ATOM      5  O   UNL A   1      36.271  21.705  25.113  1.00  0.00    -0.457 OA
BRANCH   5   6
ATOM      6  C   UNL A   1      35.895  20.398  24.988  1.00  0.00     0.374 C 
ATOM      7  O   UNL A   1      36.667  19.448  25.012  1.00  0.00    -0.242 OA
BRANCH   6   8
ATOM      8  C   UNL A   1      34.455  20.312  24.939  1.00  0.00     0.211 A 
ATOM      9  C   UNL A   1      32.421  21.097  25.287  1.00  0.00     0.124 A 
ATOM     10  C   UNL A   1      32.267  19.936  24.558  1.00  0.00     0.048 A 
ATOM     11  O   UNL A   1      33.740  21.316  25.536  1.00  0.00    -0.452 OA
ATOM     12  C   UNL A   1      33.573  19.431  24.333  1.00  0.00     0.058 A 
BRANCH   9  13
ATOM     13  C   UNL A   1      31.472  22.095  25.849  1.00  0.00     0.193 C 
BRANCH  13  14
ATOM     14  N   UNL A   1      30.955  22.869  24.744  1.00  0.00    -0.331 N 
ATOM     15  O   UNL A   1      30.268  24.690  23.699  1.00  0.00    -0.248 OA
ATOM     16  C   UNL A   1      31.059  24.199  24.501  1.00  0.00     0.319 C 
ATOM     17  N   UNL A   1      32.061  24.866  25.147  1.00  0.00    -0.308 N 
ATOM     18  H   UNL A   1      30.454  22.355  24.069  1.00  0.00     0.165 HD
ATOM     19  H   UNL A   1      32.754  24.320  25.587  1.00  0.00     0.171 HD
BRANCH  17  20
ATOM     20  C   UNL A   1      32.191  26.268  25.236  1.00  0.00     0.044 A 
ATOM     21  C   UNL A   1      31.655  26.916  26.358  1.00  0.00     0.029 A 
ATOM     22  C   UNL A   1      32.802  27.029  24.234  1.00  0.00     0.049 A 
ATOM     23  C   UNL A   1      31.777  28.302  26.498  1.00  0.00     0.043 A 
ATOM     24  C   UNL A   1      32.911  28.414  24.371  1.00  0.00     0.078 A 
ATOM     25  C   UNL A   1      32.413  29.043  25.508  1.00  0.00     0.141 A 
ATOM     26  Cl  UNL A   1      33.663  29.328  23.117  1.00  0.00    -0.081 Cl
ATOM     27  F   UNL A   1      32.548  30.367  25.666  1.00  0.00    -0.205 F 
ENDBRANCH  17  20
ENDBRANCH  13  14
ENDBRANCH   9  13
ENDBRANCH   6   8
ENDBRANCH   5   6
ENDBRANCH   4   5
ENDBRANCH   3   4
ENDBRANCH   2   3
ENDBRANCH   1   2
BRANCH   1  28
ATOM     28  C   UNL A   1      40.811  22.500  27.567  1.00  0.00     0.188 C 
BRANCH  28  29
ATOM     29  O   UNL A   1      40.018  23.660  27.355  1.00  0.00    -0.376 OA
BRANCH  29  30
ATOM     30  C   UNL A   1      40.651  24.897  27.653  1.00  0.00     0.202 C 
BRANCH  30  31
ATOM     31  C   UNL A   1      40.401  25.964  26.584  1.00  0.00     0.261 C 
BRANCH  31  32
ATOM     32  O   UNL A   1      41.168  25.796  25.380  1.00  0.00    -0.460 OA
BRANCH  32  33
ATOM     33  C   UNL A   1      42.508  25.940  25.488  1.00  0.00     0.338 C 
ATOM     34  O   UNL A   1      43.363  25.216  25.014  1.00  0.00    -0.246 OA
BRANCH  33  35
ATOM     35  C   UNL A   1      42.771  27.231  26.151  1.00  0.00     0.060 A 
ATOM     36  C   UNL A   1      43.644  27.266  27.244  1.00  0.00     0.016 A 
ATOM     37  C   UNL A   1      42.152  28.399  25.696  1.00  0.00     0.016 A 
ATOM     38  C   UNL A   1      43.885  28.477  27.900  1.00  0.00     0.010 A 
ATOM     39  C   UNL A   1      42.383  29.603  26.360  1.00  0.00     0.010 A 
ATOM     40  C   UNL A   1      43.234  29.644  27.479  1.00  0.00    -0.014 A 
BRANCH  40  41
ATOM     41  C   UNL A   1      43.309  30.881  28.293  1.00  0.00     0.031 A 
ATOM     42  C   UNL A   1      44.417  31.860  28.014  1.00  0.00     0.074 A 
ATOM     43  C   UNL A   1      42.424  31.122  29.276  1.00  0.00     0.049 A 
ATOM     44  N   UNL A   1      44.716  32.974  28.630  1.00  0.00    -0.248 NA
ATOM     45  C   UNL A   1      45.306  31.529  26.892  1.00  0.00     0.031 C 
ATOM     46  C   UNL A   1      41.296  30.262  29.628  1.00  0.00     0.029 A 
ATOM     47  N   UNL A   1      42.350  32.160  30.171  1.00  0.00    -0.354 N 
ATOM     48  C   UNL A   1      45.827  33.484  27.966  1.00  0.00     0.074 A 
ATOM     49  C   UNL A   1      46.166  32.535  26.925  1.00  0.00     0.031 C 
ATOM     50  C   UNL A   1      40.651  30.799  30.680  1.00  0.00     0.029 A 
ATOM     51  C   UNL A   1      41.339  32.022  31.092  1.00  0.00     0.049 A 
ATOM     52  H   UNL A   1      42.963  32.930  30.155  1.00  0.00     0.167 HD
ATOM     53  C   UNL A   1      46.497  34.638  28.197  1.00  0.00     0.034 A 
ATOM     54  C   UNL A   1      41.024  32.783  32.160  1.00  0.00     0.034 A 
ATOM     55  C   UNL A   1      46.174  35.560  29.257  1.00  0.00     0.049 A 
ATOM     56  C   UNL A   1      41.840  34.020  32.455  1.00  0.00     0.074 A 
ATOM     57  C   UNL A   1      46.787  36.760  29.575  1.00  0.00     0.029 A 
ATOM     58  N   UNL A   1      45.162  35.374  30.189  1.00  0.00    -0.354 N 
ATOM     59  N   UNL A   1      42.871  34.505  31.804  1.00  0.00    -0.248 NA
ATOM     60  C   UNL A   1      41.441  34.814  33.625  1.00  0.00     0.031 C 
ATOM     61  C   UNL A   1      46.185  37.268  30.732  1.00  0.00     0.029 A 
ATOM     62  C   UNL A   1      45.151  36.420  31.097  1.00  0.00     0.049 A 
ATOM     63  H   UNL A   1      44.541  34.609  30.202  1.00  0.00     0.167 HD
ATOM     64  C   UNL A   1      43.221  35.679  32.468  1.00  0.00     0.074 A 
ATOM     65  C   UNL A   1      42.289  35.830  33.566  1.00  0.00     0.031 C 
ATOM     66  C   UNL A   1      44.218  36.557  32.191  1.00  0.00     0.034 A 
BRANCH  53  67
ATOM     67  C   UNL A   1      47.679  34.931  27.307  1.00  0.00     0.023 A 
ATOM     68  C   UNL A   1      48.978  34.526  27.656  1.00  0.00     0.031 A 
ATOM     69  C   UNL A   1      47.510  35.665  26.121  1.00  0.00     0.131 A 
ATOM     70  C   UNL A   1      50.069  34.920  26.866  1.00  0.00     0.055 A 
ATOM     71  C   UNL A   1      48.591  35.990  25.299  1.00  0.00     0.041 A 
ATOM     72  F   UNL A   1      46.295  36.098  25.751  1.00  0.00    -0.206 F 
ATOM     73  C   UNL A   1      49.883  35.630  25.678  1.00  0.00     0.022 A 
BRANCH  70  74
ATOM     74  S   UNL A   1      51.744  34.613  27.490  1.00  0.00     0.124 S 
ATOM     75  O   UNL A   1      52.556  34.901  26.310  1.00  0.00    -0.237 OA
ATOM     76  O   UNL A   1      51.852  35.568  28.587  1.00  0.00    -0.237 OA
ATOM     77  O   UNL A   1      51.710  33.208  27.887  1.00  0.00    -0.744 OA
ENDBRANCH  70  74
ENDBRANCH  53  67
BRANCH  54  78
ATOM     78  C   UNL A   1      39.902  32.394  33.059  1.00  0.00     0.023 A 
ATOM     79  C   UNL A   1      38.646  33.007  32.949  1.00  0.00     0.031 A 
ATOM     80  C   UNL A   1      40.089  31.444  34.078  1.00  0.00     0.131 A 
ATOM     81  C   UNL A   1      37.635  32.698  33.871  1.00  0.00     0.055 A 
ATOM     82  C   UNL A   1      39.066  31.107  34.966  1.00  0.00     0.041 A 
ATOM     83  F   UNL A   1      41.274  30.829  34.223  1.00  0.00    -0.206 F 
ATOM     84  C   UNL A   1      37.833  31.745  34.872  1.00  0.00     0.022 A 
BRANCH  81  85
ATOM     85  S   UNL A   1      36.074  33.616  33.777  1.00  0.00     0.124 S 
ATOM     86  O   UNL A   1      36.538  34.949  33.409  1.00  0.00    -0.237 OA
ATOM     87  O   UNL A   1      35.354  32.880  32.741  1.00  0.00    -0.237 OA
ATOM     88  O   UNL A   1      35.527  33.493  35.126  1.00  0.00    -0.744 OA
ENDBRANCH  81  85
ENDBRANCH  54  78
BRANCH  66  89
ATOM     89  C   UNL A   1      44.312  37.789  33.056  1.00  0.00     0.023 A 
ATOM     90  C   UNL A   1      43.625  38.975  32.740  1.00  0.00     0.031 A 
ATOM     91  C   UNL A   1      45.105  37.772  34.218  1.00  0.00     0.131 A 
ATOM     92  C   UNL A   1      43.781  40.109  33.552  1.00  0.00     0.055 A 
ATOM     93  C   UNL A   1      45.216  38.887  35.049  1.00  0.00     0.041 A 
ATOM     94  F   UNL A   1      45.782  36.665  34.566  1.00  0.00    -0.206 F 
ATOM     95  C   UNL A   1      44.560  40.068  34.712  1.00  0.00     0.022 A 
BRANCH  92  96
ATOM     96  S   UNL A   1      43.006  41.665  33.036  1.00  0.00     0.124 S 
ATOM     97  O   UNL A   1      42.631  41.375  31.655  1.00  0.00    -0.237 OA
ATOM     98  O   UNL A   1      41.902  41.793  33.982  1.00  0.00    -0.237 OA
ATOM     99  O   UNL A   1      44.074  42.650  33.194  1.00  0.00    -0.744 OA
ENDBRANCH  92  96
ENDBRANCH  66  89
ENDBRANCH  40  41
ENDBRANCH  33  35
ENDBRANCH  32  33
ENDBRANCH  31  32
ENDBRANCH  30  31
ENDBRANCH  29  30
ENDBRANCH  28  29
ENDBRANCH   1  28
TORSDOF 23
ENDMDL
