MODEL 1
REMARK VINA RESULT:      -9.4      0.000      0.000
REMARK SMILES C/C(C(=O)OCCOCCOCCOC(=O)c1ccc(-c2c3nc(c(-c4cc(S(=O)(=O)[O-])ccc4F)c4ccc([nH]4)c(-c4cc(S(=O)(=O)[O-])ccc4F)c4nc(c(-c5cc(S(=O)(=O)[O-])ccc5F)c5ccc2[nH]5)C=C4)C=C3)cc1)=C1/CCCSC1
REMARK SMILES IDX 11 1 10 2 9 3 8 4 7 5 6 6 5 7 3 8 4 9 2 10 1 11 80 12 81 13
REMARK SMILES IDX 85 14 82 15 84 16 83 17 12 18 13 19 14 20 15 21 16 22 17 23
REMARK SMILES IDX 18 24 79 25 19 26 78 27 20 28 21 29 22 30 72 31 23 32 77 33
REMARK SMILES IDX 71 34 73 35 24 36 76 37 70 38 69 39 25 41 57 42 37 43 56 44
REMARK SMILES IDX 38 45 41 46 55 47 74 48 39 49 40 50 54 52 75 53 42 54 26 55
REMARK SMILES IDX 27 56 35 57 28 58 34 59 36 60 33 61 29 62 30 63 31 64 32 65
REMARK SMILES IDX 58 66 59 67 67 68 60 69 66 70 68 71 65 72 61 73 62 74 63 75
REMARK SMILES IDX 64 76 43 77 44 78 52 79 45 80 51 81 53 82 50 83 46 84 47 85
REMARK SMILES IDX 48 86 49 87
REMARK H PARENT 73 40 41 51
REMARK Flexibility Score: inf
ROOT
ATOM      1  O   UNL A   1      32.175  30.430  26.153  1.00  0.00    -0.376 OA
ENDROOT
BRANCH   1   2
ATOM      2  C   UNL A   1      33.042  29.541  25.470  1.00  0.00     0.188 C 
BRANCH   2   3
ATOM      3  C   UNL A   1      32.639  28.966  24.095  1.00  0.00     0.188 C 
BRANCH   3   4
ATOM      4  O   UNL A   1      31.262  28.744  23.883  1.00  0.00    -0.376 OA
BRANCH   4   5
ATOM      5  C   UNL A   1      30.722  27.433  23.935  1.00  0.00     0.202 C 
BRANCH   5   6
ATOM      6  C   UNL A   1      30.648  26.539  25.186  1.00  0.00     0.261 C 
BRANCH   6   7
ATOM      7  O   UNL A   1      31.222  25.236  25.088  1.00  0.00    -0.460 OA
BRANCH   7   8
ATOM      8  C   UNL A   1      31.843  24.769  26.201  1.00  0.00     0.333 C 
ATOM      9  O   UNL A   1      31.307  24.476  27.257  1.00  0.00    -0.247 OA
BRANCH   8  10
ATOM     10  C   UNL A   1      33.306  24.636  25.944  1.00  0.00     0.034 C 
ATOM     11  C   UNL A   1      34.011  25.908  25.563  1.00  0.00     0.052 C 
ATOM     12  C   UNL A   1      33.930  23.435  26.058  1.00  0.00    -0.050 C 
ATOM     13  C   UNL A   1      33.227  22.104  26.281  1.00  0.00     0.033 C 
ATOM     14  C   UNL A   1      35.436  23.306  26.021  1.00  0.00     0.101 C 
ATOM     15  C   UNL A   1      33.577  21.067  25.204  1.00  0.00     0.015 C 
ATOM     16  S   UNL A   1      35.957  22.289  24.622  1.00  0.00    -0.158 SA
ATOM     17  C   UNL A   1      35.068  20.778  25.090  1.00  0.00     0.070 C 
ENDBRANCH   8  10
ENDBRANCH   7   8
ENDBRANCH   6   7
ENDBRANCH   5   6
ENDBRANCH   4   5
ENDBRANCH   3   4
ENDBRANCH   2   3
ENDBRANCH   1   2
BRANCH   1  18
ATOM     18  C   UNL A   1      32.710  31.318  27.124  1.00  0.00     0.202 C 
BRANCH  18  19
ATOM     19  C   UNL A   1      32.166  32.741  27.354  1.00  0.00     0.261 C 
BRANCH  19  20
ATOM     20  O   UNL A   1      33.131  33.786  27.525  1.00  0.00    -0.460 OA
BRANCH  20  21
ATOM     21  C   UNL A   1      33.358  34.174  28.805  1.00  0.00     0.338 C 
ATOM     22  O   UNL A   1      32.596  34.801  29.529  1.00  0.00    -0.246 OA
BRANCH  21  23
ATOM     23  C   UNL A   1      34.616  33.567  29.282  1.00  0.00     0.060 A 
ATOM     24  C   UNL A   1      34.545  32.533  30.224  1.00  0.00     0.016 A 
ATOM     25  C   UNL A   1      35.854  34.018  28.823  1.00  0.00     0.016 A 
ATOM     26  C   UNL A   1      35.714  31.931  30.689  1.00  0.00     0.010 A 
ATOM     27  C   UNL A   1      37.027  33.428  29.314  1.00  0.00     0.010 A 
ATOM     28  C   UNL A   1      36.964  32.377  30.246  1.00  0.00    -0.014 A 
BRANCH  28  29
ATOM     29  C   UNL A   1      38.201  31.821  30.849  1.00  0.00     0.031 A 
ATOM     30  C   UNL A   1      38.946  30.743  30.115  1.00  0.00     0.074 A 
ATOM     31  C   UNL A   1      38.679  32.291  32.016  1.00  0.00     0.049 A 
ATOM     32  N   UNL A   1      39.984  30.046  30.496  1.00  0.00    -0.248 NA
ATOM     33  C   UNL A   1      38.453  30.414  28.770  1.00  0.00     0.031 C 
ATOM     34  C   UNL A   1      38.098  33.393  32.779  1.00  0.00     0.029 A 
ATOM     35  N   UNL A   1      39.764  31.901  32.766  1.00  0.00    -0.354 N 
ATOM     36  C   UNL A   1      40.266  29.183  29.443  1.00  0.00     0.074 A 
ATOM     37  C   UNL A   1      39.282  29.445  28.412  1.00  0.00     0.031 C 
ATOM     38  C   UNL A   1      38.835  33.593  33.886  1.00  0.00     0.029 A 
ATOM     39  C   UNL A   1      39.893  32.587  33.952  1.00  0.00     0.049 A 
ATOM     40  H   UNL A   1      40.389  31.196  32.481  1.00  0.00     0.167 HD
ATOM     41  C   UNL A   1      41.246  28.253  29.352  1.00  0.00     0.034 A 
ATOM     42  C   UNL A   1      40.733  32.390  34.992  1.00  0.00     0.034 A 
ATOM     43  C   UNL A   1      42.199  27.980  30.400  1.00  0.00     0.049 A 
ATOM     44  C   UNL A   1      41.724  31.246  34.925  1.00  0.00     0.074 A 
ATOM     45  C   UNL A   1      43.216  27.042  30.416  1.00  0.00     0.029 A 
ATOM     46  N   UNL A   1      42.242  28.629  31.628  1.00  0.00    -0.354 N 
ATOM     47  N   UNL A   1      41.962  30.413  33.938  1.00  0.00    -0.248 NA
ATOM     48  C   UNL A   1      42.545  31.006  36.120  1.00  0.00     0.031 C 
ATOM     49  C   UNL A   1      43.816  27.065  31.680  1.00  0.00     0.029 A 
ATOM     50  C   UNL A   1      43.236  28.079  32.424  1.00  0.00     0.049 A 
ATOM     51  H   UNL A   1      41.652  29.371  31.893  1.00  0.00     0.167 HD
ATOM     52  C   UNL A   1      42.974  29.565  34.391  1.00  0.00     0.074 A 
ATOM     53  C   UNL A   1      43.317  30.004  35.726  1.00  0.00     0.031 C 
ATOM     54  C   UNL A   1      43.561  28.515  33.762  1.00  0.00     0.034 A 
BRANCH  41  55
ATOM     55  C   UNL A   1      41.276  27.403  28.106  1.00  0.00     0.023 A 
ATOM     56  C   UNL A   1      40.853  26.063  28.110  1.00  0.00     0.031 A 
ATOM     57  C   UNL A   1      41.769  27.936  26.902  1.00  0.00     0.131 A 
ATOM     58  C   UNL A   1      40.992  25.285  26.951  1.00  0.00     0.055 A 
ATOM     59  C   UNL A   1      41.830  27.180  25.732  1.00  0.00     0.041 A 
ATOM     60  F   UNL A   1      42.214  29.202  26.847  1.00  0.00    -0.206 F 
ATOM     61  C   UNL A   1      41.453  25.841  25.755  1.00  0.00     0.022 A 
BRANCH  58  62
ATOM     62  S   UNL A   1      40.700  23.498  27.067  1.00  0.00     0.124 S 
ATOM     63  O   UNL A   1      39.241  23.435  27.027  1.00  0.00    -0.237 OA
ATOM     64  O   UNL A   1      41.394  22.988  25.891  1.00  0.00    -0.237 OA
ATOM     65  O   UNL A   1      41.297  23.136  28.350  1.00  0.00    -0.744 OA
ENDBRANCH  58  62
ENDBRANCH  41  55
BRANCH  42  66
ATOM     66  C   UNL A   1      40.629  33.215  36.235  1.00  0.00     0.023 A 
ATOM     67  C   UNL A   1      39.822  32.813  37.313  1.00  0.00     0.031 A 
ATOM     68  C   UNL A   1      41.257  34.471  36.324  1.00  0.00     0.131 A 
ATOM     69  C   UNL A   1      39.623  33.677  38.402  1.00  0.00     0.055 A 
ATOM     70  C   UNL A   1      41.110  35.298  37.439  1.00  0.00     0.041 A 
ATOM     71  F   UNL A   1      42.024  34.921  35.317  1.00  0.00    -0.206 F 
ATOM     72  C   UNL A   1      40.276  34.909  38.481  1.00  0.00     0.022 A 
BRANCH  69  73
ATOM     73  S   UNL A   1      38.401  33.222  39.665  1.00  0.00     0.124 S 
ATOM     74  O   UNL A   1      37.221  32.956  38.850  1.00  0.00    -0.237 OA
ATOM     75  O   UNL A   1      39.028  32.060  40.287  1.00  0.00    -0.237 OA
ATOM     76  O   UNL A   1      38.323  34.412  40.509  1.00  0.00    -0.744 OA
ENDBRANCH  69  73
ENDBRANCH  42  66
BRANCH  54  77
ATOM     77  C   UNL A   1      44.662  27.789  34.502  1.00  0.00     0.023 A 
ATOM     78  C   UNL A   1      44.421  26.592  35.201  1.00  0.00     0.031 A 
ATOM     79  C   UNL A   1      45.972  28.300  34.504  1.00  0.00     0.131 A 
ATOM     80  C   UNL A   1      45.463  25.975  35.913  1.00  0.00     0.055 A 
ATOM     81  C   UNL A   1      47.018  27.647  35.158  1.00  0.00     0.041 A 
ATOM     82  F   UNL A   1      46.262  29.440  33.858  1.00  0.00    -0.206 F 
ATOM     83  C   UNL A   1      46.763  26.484  35.879  1.00  0.00     0.022 A 
BRANCH  80  84
ATOM     84  S   UNL A   1      45.076  24.543  36.958  1.00  0.00     0.124 S 
ATOM     85  O   UNL A   1      43.925  25.022  37.716  1.00  0.00    -0.237 OA
ATOM     86  O   UNL A   1      44.804  23.500  35.974  1.00  0.00    -0.237 OA
ATOM     87  O   UNL A   1      46.296  24.351  37.741  1.00  0.00    -0.744 OA
ENDBRANCH  80  84
ENDBRANCH  54  77
ENDBRANCH  28  29
ENDBRANCH  21  23
ENDBRANCH  20  21
ENDBRANCH  19  20
ENDBRANCH  18  19
ENDBRANCH   1  18
TORSDOF 20
ENDMDL
MODEL 2
REMARK VINA RESULT:      -9.3      1.870      2.139
REMARK SMILES C/C(C(=O)OCCOCCOCCOC(=O)c1ccc(-c2c3nc(c(-c4cc(S(=O)(=O)[O-])ccc4F)c4ccc([nH]4)c(-c4cc(S(=O)(=O)[O-])ccc4F)c4nc(c(-c5cc(S(=O)(=O)[O-])ccc5F)c5ccc2[nH]5)C=C4)C=C3)cc1)=C1/CCCSC1
REMARK SMILES IDX 11 1 10 2 9 3 8 4 7 5 6 6 5 7 3 8 4 9 2 10 1 11 80 12 81 13
REMARK SMILES IDX 85 14 82 15 84 16 83 17 12 18 13 19 14 20 15 21 16 22 17 23
REMARK SMILES IDX 18 24 79 25 19 26 78 27 20 28 21 29 22 30 72 31 23 32 77 33
REMARK SMILES IDX 71 34 73 35 24 36 76 37 70 38 69 39 25 41 57 42 37 43 56 44
REMARK SMILES IDX 38 45 41 46 55 47 74 48 39 49 40 50 54 52 75 53 42 54 26 55
REMARK SMILES IDX 27 56 35 57 28 58 34 59 36 60 33 61 29 62 30 63 31 64 32 65
REMARK SMILES IDX 58 66 59 67 67 68 60 69 66 70 68 71 65 72 61 73 62 74 63 75
REMARK SMILES IDX 64 76 43 77 44 78 52 79 45 80 51 81 53 82 50 83 46 84 47 85
REMARK SMILES IDX 48 86 49 87
REMARK H PARENT 73 40 41 51
REMARK Flexibility Score: inf
ROOT
ATOM      1  O   UNL A   1      32.203  30.466  26.255  1.00  0.00    -0.376 OA
ENDROOT
BRANCH   1   2
ATOM      2  C   UNL A   1      33.100  29.510  25.715  1.00  0.00     0.188 C 
BRANCH   2   3
ATOM      3  C   UNL A   1      32.797  28.840  24.358  1.00  0.00     0.188 C 
BRANCH   3   4
ATOM      4  O   UNL A   1      31.437  28.737  23.994  1.00  0.00    -0.376 OA
BRANCH   4   5
ATOM      5  C   UNL A   1      30.782  27.480  23.981  1.00  0.00     0.202 C 
BRANCH   5   6
ATOM      6  C   UNL A   1      30.657  26.517  25.177  1.00  0.00     0.261 C 
BRANCH   6   7
ATOM      7  O   UNL A   1      31.298  25.248  25.058  1.00  0.00    -0.460 OA
BRANCH   7   8
ATOM      8  C   UNL A   1      31.821  24.731  26.199  1.00  0.00     0.333 C 
ATOM      9  O   UNL A   1      31.226  24.549  27.248  1.00  0.00    -0.247 OA
BRANCH   8  10
ATOM     10  C   UNL A   1      33.256  24.386  25.984  1.00  0.00     0.034 C 
ATOM     11  C   UNL A   1      34.161  25.549  25.687  1.00  0.00     0.052 C 
ATOM     12  C   UNL A   1      33.685  23.099  26.061  1.00  0.00    -0.050 C 
ATOM     13  C   UNL A   1      32.780  21.884  26.197  1.00  0.00     0.033 C 
ATOM     14  C   UNL A   1      35.154  22.742  26.068  1.00  0.00     0.101 C 
ATOM     15  C   UNL A   1      33.011  20.852  25.083  1.00  0.00     0.015 C 
ATOM     16  S   UNL A   1      35.569  21.717  24.640  1.00  0.00    -0.158 SA
ATOM     17  C   UNL A   1      34.443  20.342  25.005  1.00  0.00     0.070 C 
ENDBRANCH   8  10
ENDBRANCH   7   8
ENDBRANCH   6   7
ENDBRANCH   5   6
ENDBRANCH   4   5
ENDBRANCH   3   4
ENDBRANCH   2   3
ENDBRANCH   1   2
BRANCH   1  18
ATOM     18  C   UNL A   1      32.688  31.437  27.171  1.00  0.00     0.202 C 
BRANCH  18  19
ATOM     19  C   UNL A   1      32.137  32.875  27.244  1.00  0.00     0.261 C 
BRANCH  19  20
ATOM     20  O   UNL A   1      33.097  33.935  27.336  1.00  0.00    -0.460 OA
BRANCH  20  21
ATOM     21  C   UNL A   1      33.277  34.459  28.574  1.00  0.00     0.338 C 
ATOM     22  O   UNL A   1      32.513  35.201  29.177  1.00  0.00    -0.246 OA
BRANCH  21  23
ATOM     23  C   UNL A   1      34.476  33.855  29.189  1.00  0.00     0.060 A 
ATOM     24  C   UNL A   1      34.301  32.900  30.198  1.00  0.00     0.016 A 
ATOM     25  C   UNL A   1      35.758  34.233  28.791  1.00  0.00     0.016 A 
ATOM     26  C   UNL A   1      35.412  32.303  30.794  1.00  0.00     0.010 A 
ATOM     27  C   UNL A   1      36.872  33.651  29.412  1.00  0.00     0.010 A 
ATOM     28  C   UNL A   1      36.706  32.678  30.414  1.00  0.00    -0.014 A 
BRANCH  28  29
ATOM     29  C   UNL A   1      37.876  32.135  31.147  1.00  0.00     0.031 A 
ATOM     30  C   UNL A   1      38.657  31.006  30.538  1.00  0.00     0.074 A 
ATOM     31  C   UNL A   1      38.265  32.661  32.325  1.00  0.00     0.049 A 
ATOM     32  N   UNL A   1      39.644  30.314  31.043  1.00  0.00    -0.248 NA
ATOM     33  C   UNL A   1      38.271  30.611  29.176  1.00  0.00     0.031 C 
ATOM     34  C   UNL A   1      37.645  33.813  32.975  1.00  0.00     0.029 A 
ATOM     35  N   UNL A   1      39.274  32.295  33.183  1.00  0.00    -0.354 N 
ATOM     36  C   UNL A   1      39.995  29.390  30.065  1.00  0.00     0.074 A 
ATOM     37  C   UNL A   1      39.106  29.611  28.942  1.00  0.00     0.031 C 
ATOM     38  C   UNL A   1      38.291  34.062  34.128  1.00  0.00     0.029 A 
ATOM     39  C   UNL A   1      39.319  33.044  34.338  1.00  0.00     0.049 A 
ATOM     40  H   UNL A   1      39.906  31.565  32.990  1.00  0.00     0.167 HD
ATOM     41  C   UNL A   1      40.959  28.440  30.107  1.00  0.00     0.034 A 
ATOM     42  C   UNL A   1      40.064  32.890  35.454  1.00  0.00     0.034 A 
ATOM     43  C   UNL A   1      41.815  28.209  31.245  1.00  0.00     0.049 A 
ATOM     44  C   UNL A   1      41.033  31.728  35.533  1.00  0.00     0.074 A 
ATOM     45  C   UNL A   1      42.807  27.257  31.398  1.00  0.00     0.029 A 
ATOM     46  N   UNL A   1      41.768  28.925  32.436  1.00  0.00    -0.354 N 
ATOM     47  N   UNL A   1      41.335  30.837  34.616  1.00  0.00    -0.248 NA
ATOM     48  C   UNL A   1      41.746  31.541  36.804  1.00  0.00     0.031 C 
ATOM     49  C   UNL A   1      43.299  27.340  32.705  1.00  0.00     0.029 A 
ATOM     50  C   UNL A   1      42.681  28.403  33.342  1.00  0.00     0.049 A 
ATOM     51  H   UNL A   1      41.174  29.689  32.610  1.00  0.00     0.167 HD
ATOM     52  C   UNL A   1      42.287  29.999  35.197  1.00  0.00     0.074 A 
ATOM     53  C   UNL A   1      42.526  30.506  36.531  1.00  0.00     0.031 C 
ATOM     54  C   UNL A   1      42.902  28.907  34.677  1.00  0.00     0.034 A 
BRANCH  41  55
ATOM     55  C   UNL A   1      41.075  27.522  28.916  1.00  0.00     0.023 A 
ATOM     56  C   UNL A   1      42.057  27.707  27.928  1.00  0.00     0.031 A 
ATOM     57  C   UNL A   1      40.164  26.463  28.752  1.00  0.00     0.131 A 
ATOM     58  C   UNL A   1      42.062  26.888  26.789  1.00  0.00     0.055 A 
ATOM     59  C   UNL A   1      40.225  25.602  27.656  1.00  0.00     0.041 A 
ATOM     60  F   UNL A   1      39.187  26.257  29.650  1.00  0.00    -0.206 F 
ATOM     61  C   UNL A   1      41.170  25.820  26.660  1.00  0.00     0.022 A 
BRANCH  58  62
ATOM     62  S   UNL A   1      43.158  27.326  25.412  1.00  0.00     0.124 S 
ATOM     63  O   UNL A   1      42.302  28.210  24.624  1.00  0.00    -0.237 OA
ATOM     64  O   UNL A   1      44.280  27.962  26.091  1.00  0.00    -0.237 OA
ATOM     65  O   UNL A   1      43.455  26.038  24.787  1.00  0.00    -0.744 OA
ENDBRANCH  58  62
ENDBRANCH  41  55
BRANCH  42  66
ATOM     66  C   UNL A   1      39.874  33.784  36.637  1.00  0.00     0.023 A 
ATOM     67  C   UNL A   1      39.324  33.301  37.837  1.00  0.00     0.031 A 
ATOM     68  C   UNL A   1      40.147  35.163  36.554  1.00  0.00     0.131 A 
ATOM     69  C   UNL A   1      39.015  34.193  38.877  1.00  0.00     0.055 A 
ATOM     70  C   UNL A   1      39.902  36.034  37.616  1.00  0.00     0.041 A 
ATOM     71  F   UNL A   1      40.654  35.688  35.427  1.00  0.00    -0.206 F 
ATOM     72  C   UNL A   1      39.318  35.552  38.782  1.00  0.00     0.022 A 
BRANCH  69  73
ATOM     73  S   UNL A   1      38.102  33.570  40.318  1.00  0.00     0.124 S 
ATOM     74  O   UNL A   1      36.937  32.961  39.686  1.00  0.00    -0.237 OA
ATOM     75  O   UNL A   1      39.066  32.650  40.912  1.00  0.00    -0.237 OA
ATOM     76  O   UNL A   1      37.832  34.776  41.097  1.00  0.00    -0.744 OA
ENDBRANCH  69  73
ENDBRANCH  42  66
BRANCH  54  77
ATOM     77  C   UNL A   1      43.922  28.204  35.545  1.00  0.00     0.023 A 
ATOM     78  C   UNL A   1      45.304  28.393  35.366  1.00  0.00     0.031 A 
ATOM     79  C   UNL A   1      43.504  27.336  36.570  1.00  0.00     0.131 A 
ATOM     80  C   UNL A   1      46.217  27.686  36.165  1.00  0.00     0.055 A 
ATOM     81  C   UNL A   1      44.415  26.687  37.404  1.00  0.00     0.041 A 
ATOM     82  F   UNL A   1      42.198  27.113  36.787  1.00  0.00    -0.206 F 
ATOM     83  C   UNL A   1      45.781  26.850  37.195  1.00  0.00     0.022 A 
BRANCH  80  84
ATOM     84  S   UNL A   1      47.987  27.805  35.781  1.00  0.00     0.124 S 
ATOM     85  O   UNL A   1      48.004  28.824  34.737  1.00  0.00    -0.237 OA
ATOM     86  O   UNL A   1      48.561  28.196  37.065  1.00  0.00    -0.237 OA
ATOM     87  O   UNL A   1      48.332  26.456  35.335  1.00  0.00    -0.744 OA
ENDBRANCH  80  84
ENDBRANCH  54  77
ENDBRANCH  28  29
ENDBRANCH  21  23
ENDBRANCH  20  21
ENDBRANCH  19  20
ENDBRANCH  18  19
ENDBRANCH   1  18
TORSDOF 20
ENDMDL
MODEL 3
REMARK VINA RESULT:      -8.9      1.752      2.288
REMARK SMILES C/C(C(=O)OCCOCCOCCOC(=O)c1ccc(-c2c3nc(c(-c4cc(S(=O)(=O)[O-])ccc4F)c4ccc([nH]4)c(-c4cc(S(=O)(=O)[O-])ccc4F)c4nc(c(-c5cc(S(=O)(=O)[O-])ccc5F)c5ccc2[nH]5)C=C4)C=C3)cc1)=C1/CCCSC1
REMARK SMILES IDX 11 1 10 2 9 3 8 4 7 5 6 6 5 7 3 8 4 9 2 10 1 11 80 12 81 13
REMARK SMILES IDX 85 14 82 15 84 16 83 17 12 18 13 19 14 20 15 21 16 22 17 23
REMARK SMILES IDX 18 24 79 25 19 26 78 27 20 28 21 29 22 30 72 31 23 32 77 33
REMARK SMILES IDX 71 34 73 35 24 36 76 37 70 38 69 39 25 41 57 42 37 43 56 44
REMARK SMILES IDX 38 45 41 46 55 47 74 48 39 49 40 50 54 52 75 53 42 54 26 55
REMARK SMILES IDX 27 56 35 57 28 58 34 59 36 60 33 61 29 62 30 63 31 64 32 65
REMARK SMILES IDX 58 66 59 67 67 68 60 69 66 70 68 71 65 72 61 73 62 74 63 75
REMARK SMILES IDX 64 76 43 77 44 78 52 79 45 80 51 81 53 82 50 83 46 84 47 85
REMARK SMILES IDX 48 86 49 87
REMARK H PARENT 73 40 41 51
REMARK Flexibility Score: inf
ROOT
ATOM      1  O   UNL A   1      32.408  30.868  27.023  1.00  0.00    -0.376 OA
ENDROOT
BRANCH   1   2
ATOM      2  C   UNL A   1      32.900  29.557  27.239  1.00  0.00     0.188 C 
BRANCH   2   3
ATOM      3  C   UNL A   1      31.920  28.376  27.406  1.00  0.00     0.188 C 
BRANCH   3   4
ATOM      4  O   UNL A   1      31.896  27.423  26.365  1.00  0.00    -0.376 OA
BRANCH   4   5
ATOM      5  C   UNL A   1      33.022  26.600  26.111  1.00  0.00     0.202 C 
BRANCH   5   6
ATOM      6  C   UNL A   1      32.980  25.163  25.558  1.00  0.00     0.261 C 
BRANCH   6   7
ATOM      7  O   UNL A   1      34.085  24.315  25.871  1.00  0.00    -0.460 OA
BRANCH   7   8
ATOM      8  C   UNL A   1      34.608  23.607  24.838  1.00  0.00     0.333 C 
ATOM      9  O   UNL A   1      34.961  24.056  23.760  1.00  0.00    -0.247 OA
BRANCH   8  10
ATOM     10  C   UNL A   1      34.717  22.169  25.217  1.00  0.00     0.034 C 
ATOM     11  C   UNL A   1      36.003  21.776  25.890  1.00  0.00     0.052 C 
ATOM     12  C   UNL A   1      33.706  21.300  24.962  1.00  0.00    -0.050 C 
ATOM     13  C   UNL A   1      32.465  21.620  24.142  1.00  0.00     0.033 C 
ATOM     14  C   UNL A   1      33.691  19.896  25.525  1.00  0.00     0.101 C 
ATOM     15  C   UNL A   1      32.270  20.651  22.967  1.00  0.00     0.015 C 
ATOM     16  S   UNL A   1      33.708  18.673  24.197  1.00  0.00    -0.158 SA
ATOM     17  C   UNL A   1      32.169  19.191  23.385  1.00  0.00     0.070 C 
ENDBRANCH   8  10
ENDBRANCH   7   8
ENDBRANCH   6   7
ENDBRANCH   5   6
ENDBRANCH   4   5
ENDBRANCH   3   4
ENDBRANCH   2   3
ENDBRANCH   1   2
BRANCH   1  18
ATOM     18  C   UNL A   1      33.200  31.983  27.407  1.00  0.00     0.202 C 
BRANCH  18  19
ATOM     19  C   UNL A   1      32.643  33.415  27.513  1.00  0.00     0.261 C 
BRANCH  19  20
ATOM     20  O   UNL A   1      33.518  34.415  28.050  1.00  0.00    -0.460 OA
BRANCH  20  21
ATOM     21  C   UNL A   1      33.555  34.498  29.404  1.00  0.00     0.338 C 
ATOM     22  O   UNL A   1      32.658  34.886  30.142  1.00  0.00    -0.246 OA
BRANCH  21  23
ATOM     23  C   UNL A   1      34.798  33.873  29.896  1.00  0.00     0.060 A 
ATOM     24  C   UNL A   1      34.719  32.989  30.979  1.00  0.00     0.016 A 
ATOM     25  C   UNL A   1      36.031  34.163  29.311  1.00  0.00     0.016 A 
ATOM     26  C   UNL A   1      35.874  32.373  31.463  1.00  0.00     0.010 A 
ATOM     27  C   UNL A   1      37.193  33.564  29.819  1.00  0.00     0.010 A 
ATOM     28  C   UNL A   1      37.120  32.661  30.895  1.00  0.00    -0.014 A 
BRANCH  28  29
ATOM     29  C   UNL A   1      38.354  32.105  31.504  1.00  0.00     0.031 A 
ATOM     30  C   UNL A   1      39.051  30.963  30.823  1.00  0.00     0.074 A 
ATOM     31  C   UNL A   1      38.871  32.629  32.631  1.00  0.00     0.049 A 
ATOM     32  N   UNL A   1      40.077  30.259  31.224  1.00  0.00    -0.248 NA
ATOM     33  C   UNL A   1      38.519  30.568  29.510  1.00  0.00     0.031 C 
ATOM     34  C   UNL A   1      38.339  33.793  33.337  1.00  0.00     0.029 A 
ATOM     35  N   UNL A   1      39.961  32.253  33.381  1.00  0.00    -0.354 N 
ATOM     36  C   UNL A   1      40.310  29.327  30.220  1.00  0.00     0.074 A 
ATOM     37  C   UNL A   1      39.311  29.555  29.196  1.00  0.00     0.031 C 
ATOM     38  C   UNL A   1      39.106  34.037  34.415  1.00  0.00     0.029 A 
ATOM     39  C   UNL A   1      40.136  33.006  34.520  1.00  0.00     0.049 A 
ATOM     40  H   UNL A   1      40.559  31.514  33.126  1.00  0.00     0.167 HD
ATOM     41  C   UNL A   1      41.261  28.363  30.165  1.00  0.00     0.034 A 
ATOM     42  C   UNL A   1      40.993  32.846  35.553  1.00  0.00     0.034 A 
ATOM     43  C   UNL A   1      42.229  28.126  31.208  1.00  0.00     0.049 A 
ATOM     44  C   UNL A   1      41.949  31.671  35.536  1.00  0.00     0.074 A 
ATOM     45  C   UNL A   1      43.219  27.160  31.260  1.00  0.00     0.029 A 
ATOM     46  N   UNL A   1      42.317  28.846  32.394  1.00  0.00    -0.354 N 
ATOM     47  N   UNL A   1      42.141  30.773  34.596  1.00  0.00    -0.248 NA
ATOM     48  C   UNL A   1      42.789  31.479  36.726  1.00  0.00     0.031 C 
ATOM     49  C   UNL A   1      43.847  27.241  32.508  1.00  0.00     0.029 A 
ATOM     50  C   UNL A   1      43.313  28.315  33.201  1.00  0.00     0.049 A 
ATOM     51  H   UNL A   1      41.755  29.620  32.625  1.00  0.00     0.167 HD
ATOM     52  C   UNL A   1      43.137  29.924  35.079  1.00  0.00     0.074 A 
ATOM     53  C   UNL A   1      43.523  30.432  36.377  1.00  0.00     0.031 C 
ATOM     54  C   UNL A   1      43.680  28.821  34.503  1.00  0.00     0.034 A 
BRANCH  41  55
ATOM     55  C   UNL A   1      41.239  27.440  28.974  1.00  0.00     0.023 A 
ATOM     56  C   UNL A   1      42.198  27.524  27.950  1.00  0.00     0.031 A 
ATOM     57  C   UNL A   1      40.219  26.480  28.845  1.00  0.00     0.131 A 
ATOM     58  C   UNL A   1      42.078  26.709  26.814  1.00  0.00     0.055 A 
ATOM     59  C   UNL A   1      40.152  25.618  27.751  1.00  0.00     0.041 A 
ATOM     60  F   UNL A   1      39.259  26.374  29.779  1.00  0.00    -0.206 F 
ATOM     61  C   UNL A   1      41.076  25.739  26.720  1.00  0.00     0.022 A 
BRANCH  58  62
ATOM     62  S   UNL A   1      43.162  27.034  25.396  1.00  0.00     0.124 S 
ATOM     63  O   UNL A   1      44.361  27.547  26.053  1.00  0.00    -0.237 OA
ATOM     64  O   UNL A   1      43.282  25.717  24.783  1.00  0.00    -0.237 OA
ATOM     65  O   UNL A   1      42.418  28.020  24.615  1.00  0.00    -0.744 OA
ENDBRANCH  58  62
ENDBRANCH  41  55
BRANCH  42  66
ATOM     66  C   UNL A   1      40.940  33.747  36.745  1.00  0.00     0.023 A 
ATOM     67  C   UNL A   1      40.249  33.376  37.911  1.00  0.00     0.031 A 
ATOM     68  C   UNL A   1      41.497  35.039  36.700  1.00  0.00     0.131 A 
ATOM     69  C   UNL A   1      40.086  34.301  38.956  1.00  0.00     0.055 A 
ATOM     70  C   UNL A   1      41.391  35.931  37.769  1.00  0.00     0.041 A 
ATOM     71  F   UNL A   1      42.151  35.460  35.606  1.00  0.00    -0.206 F 
ATOM     72  C   UNL A   1      40.669  35.569  38.900  1.00  0.00     0.022 A 
BRANCH  69  73
ATOM     73  S   UNL A   1      39.000  33.867  40.344  1.00  0.00     0.124 S 
ATOM     74  O   UNL A   1      39.142  35.037  41.205  1.00  0.00    -0.237 OA
ATOM     75  O   UNL A   1      37.710  33.710  39.681  1.00  0.00    -0.237 OA
ATOM     76  O   UNL A   1      39.588  32.634  40.864  1.00  0.00    -0.744 OA
ENDBRANCH  69  73
ENDBRANCH  42  66
BRANCH  54  77
ATOM     77  C   UNL A   1      44.776  28.108  35.263  1.00  0.00     0.023 A 
ATOM     78  C   UNL A   1      44.493  27.242  36.335  1.00  0.00     0.031 A 
ATOM     79  C   UNL A   1      46.124  28.295  34.906  1.00  0.00     0.131 A 
ATOM     80  C   UNL A   1      45.543  26.636  37.042  1.00  0.00     0.055 A 
ATOM     81  C   UNL A   1      47.161  27.638  35.572  1.00  0.00     0.041 A 
ATOM     82  F   UNL A   1      46.457  29.113  33.895  1.00  0.00    -0.206 F 
ATOM     83  C   UNL A   1      46.874  26.813  36.655  1.00  0.00     0.022 A 
BRANCH  80  84
ATOM     84  S   UNL A   1      45.153  25.681  38.535  1.00  0.00     0.124 S 
ATOM     85  O   UNL A   1      46.482  25.380  39.059  1.00  0.00    -0.237 OA
ATOM     86  O   UNL A   1      44.359  26.626  39.314  1.00  0.00    -0.237 OA
ATOM     87  O   UNL A   1      44.415  24.528  38.021  1.00  0.00    -0.744 OA
ENDBRANCH  80  84
ENDBRANCH  54  77
ENDBRANCH  28  29
ENDBRANCH  21  23
ENDBRANCH  20  21
ENDBRANCH  19  20
ENDBRANCH  18  19
ENDBRANCH   1  18
TORSDOF 20
ENDMDL
