MODEL 1
REMARK VINA RESULT:     -12.8      0.000      0.000
REMARK SMILES Cc1cc(C(=O)OCCOCCOCCOC(=O)c2ccc(-c3c4nc(c(-c5cc(S(=O)(=O)[O-])ccc5F)c5ccc([nH]5)c(-c5cc(S(=O)(=O)[O-])ccc5F)c5nc(c(-c6cc(S(=O)(=O)[O-])ccc6F)c6ccc3[nH]6)C=C5)C=C4)cc2)ccc1NS(=O)(=O)c1c(F)cccc1F
REMARK SMILES IDX 11 1 10 2 9 3 8 4 7 5 5 6 6 7 4 8 1 9 2 10 3 11 84 12 83 13
REMARK SMILES IDX 82 14 85 15 86 17 87 18 88 19 89 20 90 21 95 22 91 23 92 24
REMARK SMILES IDX 94 25 96 26 93 27 12 28 13 29 14 30 15 31 16 32 17 33 18 34
REMARK SMILES IDX 19 35 20 36 81 37 21 38 80 39 22 40 23 41 24 42 74 43 25 44
REMARK SMILES IDX 79 45 73 46 75 47 26 48 78 49 72 50 71 51 27 53 59 54 39 55
REMARK SMILES IDX 58 56 40 57 43 58 57 59 76 60 41 61 42 62 56 64 77 65 44 66
REMARK SMILES IDX 28 67 29 68 37 69 30 70 36 71 38 72 35 73 31 74 32 75 33 76
REMARK SMILES IDX 34 77 60 78 61 79 69 80 62 81 68 82 70 83 67 84 63 85 64 86
REMARK SMILES IDX 65 87 66 88 45 89 46 90 54 91 47 92 53 93 55 94 52 95 48 96
REMARK SMILES IDX 49 97 50 98 51 99
REMARK H PARENT 85 16 75 52 43 63
REMARK Flexibility Score: inf
ROOT
ATOM      1  C   UNL A   1      42.255  20.791  27.082  1.00  0.00     0.188 C 
ENDROOT
BRANCH   1   2
ATOM      2  O   UNL A   1      41.027  21.485  26.898  1.00  0.00    -0.376 OA
BRANCH   2   3
ATOM      3  C   UNL A   1      39.796  21.005  26.381  1.00  0.00     0.202 C 
BRANCH   3   4
ATOM      4  C   UNL A   1      38.403  21.820  25.825  1.00  0.00     0.261 C 
BRANCH   4   5
ATOM      5  O   UNL A   1      37.429  21.977  24.448  1.00  0.00    -0.460 OA
BRANCH   5   6
ATOM      6  C   UNL A   1      36.696  22.926  23.703  1.00  0.00     0.338 C 
ATOM      7  O   UNL A   1      36.625  23.121  22.499  1.00  0.00    -0.246 OA
BRANCH   6   8
ATOM      8  C   UNL A   1      35.503  23.637  24.196  1.00  0.00     0.060 A 
ATOM      9  C   UNL A   1      33.233  26.208  22.467  1.00  0.00     0.046 C 
ATOM     10  C   UNL A   1      33.785  25.311  23.548  1.00  0.00    -0.026 A 
ATOM     11  C   UNL A   1      34.734  24.340  23.217  1.00  0.00     0.021 A 
ATOM     12  C   UNL A   1      33.553  25.503  24.904  1.00  0.00     0.052 A 
ATOM     13  C   UNL A   1      34.525  25.106  25.832  1.00  0.00     0.028 A 
ATOM     14  C   UNL A   1      35.500  24.160  25.481  1.00  0.00     0.018 A 
BRANCH  12  15
ATOM     15  N   UNL A   1      32.273  25.987  25.325  1.00  0.00    -0.279 N 
ATOM     16  H   UNL A   1      32.095  26.954  25.376  1.00  0.00     0.180 HD
BRANCH  15  17
ATOM     17  S   UNL A   1      31.057  24.854  25.739  1.00  0.00     0.267 S 
ATOM     18  O   UNL A   1      31.158  24.698  27.175  1.00  0.00    -0.201 OA
ATOM     19  O   UNL A   1      29.825  25.355  25.158  1.00  0.00    -0.201 OA
BRANCH  17  20
ATOM     20  C   UNL A   1      31.400  23.310  24.964  1.00  0.00     0.158 A 
ATOM     21  C   UNL A   1      32.024  22.299  25.687  1.00  0.00     0.146 A 
ATOM     22  C   UNL A   1      31.206  23.142  23.597  1.00  0.00     0.146 A 
ATOM     23  F   UNL A   1      32.178  22.368  27.014  1.00  0.00    -0.205 F 
ATOM     24  C   UNL A   1      32.555  21.183  25.039  1.00  0.00     0.041 A 
ATOM     25  C   UNL A   1      31.746  22.031  22.937  1.00  0.00     0.041 A 
ATOM     26  F   UNL A   1      30.604  24.084  22.859  1.00  0.00    -0.205 F 
ATOM     27  C   UNL A   1      32.448  21.063  23.655  1.00  0.00     0.006 A 
ENDBRANCH  17  20
ENDBRANCH  15  17
ENDBRANCH  12  15
ENDBRANCH   6   8
ENDBRANCH   5   6
ENDBRANCH   4   5
ENDBRANCH   3   4
ENDBRANCH   2   3
ENDBRANCH   1   2
BRANCH   1  28
ATOM     28  C   UNL A   1      42.716  19.694  26.152  1.00  0.00     0.188 C 
BRANCH  28  29
ATOM     29  O   UNL A   1      43.195  20.236  24.932  1.00  0.00    -0.376 OA
BRANCH  29  30
ATOM     30  C   UNL A   1      44.441  20.901  25.070  1.00  0.00     0.202 C 
BRANCH  30  31
ATOM     31  C   UNL A   1      44.505  22.211  24.272  1.00  0.00     0.261 C 
BRANCH  31  32
ATOM     32  O   UNL A   1      43.461  23.105  24.706  1.00  0.00    -0.460 OA
BRANCH  32  33
ATOM     33  C   UNL A   1      43.866  24.392  24.943  1.00  0.00     0.338 C 
ATOM     34  O   UNL A   1      44.958  24.831  24.618  1.00  0.00    -0.246 OA
BRANCH  33  35
ATOM     35  C   UNL A   1      42.765  25.133  25.616  1.00  0.00     0.060 A 
ATOM     36  C   UNL A   1      42.433  26.464  25.433  1.00  0.00     0.016 A 
ATOM     37  C   UNL A   1      42.052  24.495  26.575  1.00  0.00     0.016 A 
ATOM     38  C   UNL A   1      41.650  27.191  26.415  1.00  0.00     0.010 A 
ATOM     39  C   UNL A   1      41.316  25.263  27.499  1.00  0.00     0.010 A 
ATOM     40  C   UNL A   1      41.220  26.665  27.647  1.00  0.00    -0.014 A 
BRANCH  40  41
ATOM     41  C   UNL A   1      40.852  27.634  29.009  1.00  0.00     0.031 A 
ATOM     42  C   UNL A   1      39.654  28.711  29.382  1.00  0.00     0.074 A 
ATOM     43  C   UNL A   1      41.726  27.654  30.044  1.00  0.00     0.049 A 
ATOM     44  N   UNL A   1      39.818  30.022  29.454  1.00  0.00    -0.248 NA
ATOM     45  C   UNL A   1      38.222  28.440  29.662  1.00  0.00     0.031 C 
ATOM     46  C   UNL A   1      41.646  28.439  31.278  1.00  0.00     0.029 A 
ATOM     47  N   UNL A   1      42.992  27.091  30.097  1.00  0.00    -0.354 N 
ATOM     48  C   UNL A   1      38.570  30.633  29.622  1.00  0.00     0.074 A 
ATOM     49  C   UNL A   1      37.595  29.606  29.569  1.00  0.00     0.031 C 
ATOM     50  C   UNL A   1      42.893  28.594  31.752  1.00  0.00     0.029 A 
ATOM     51  C   UNL A   1      43.803  27.978  30.801  1.00  0.00     0.049 A 
ATOM     52  H   UNL A   1      43.267  26.228  29.711  1.00  0.00     0.167 HD
ATOM     53  C   UNL A   1      38.329  31.883  30.108  1.00  0.00     0.034 A 
ATOM     54  C   UNL A   1      44.867  28.554  30.178  1.00  0.00     0.034 A 
ATOM     55  C   UNL A   1      39.490  32.325  30.820  1.00  0.00     0.049 A 
ATOM     56  C   UNL A   1      44.780  30.061  30.188  1.00  0.00     0.074 A 
ATOM     57  C   UNL A   1      39.874  32.052  32.122  1.00  0.00     0.029 A 
ATOM     58  N   UNL A   1      40.614  32.715  30.127  1.00  0.00    -0.354 N 
ATOM     59  N   UNL A   1      43.686  30.743  30.404  1.00  0.00    -0.248 NA
ATOM     60  C   UNL A   1      45.942  30.914  29.982  1.00  0.00     0.031 C 
ATOM     61  C   UNL A   1      41.281  32.176  32.180  1.00  0.00     0.029 A 
ATOM     62  C   UNL A   1      41.721  32.620  30.945  1.00  0.00     0.049 A 
ATOM     63  H   UNL A   1      40.626  33.016  29.190  1.00  0.00     0.167 HD
ATOM     64  C   UNL A   1      43.967  32.084  30.336  1.00  0.00     0.074 A 
ATOM     65  C   UNL A   1      45.402  32.135  30.115  1.00  0.00     0.031 C 
ATOM     66  C   UNL A   1      43.008  33.051  30.449  1.00  0.00     0.034 A 
BRANCH  53  67
ATOM     67  C   UNL A   1      36.913  32.394  30.326  1.00  0.00     0.023 A 
ATOM     68  C   UNL A   1      36.237  33.141  29.343  1.00  0.00     0.031 A 
ATOM     69  C   UNL A   1      36.216  32.195  31.543  1.00  0.00     0.131 A 
ATOM     70  C   UNL A   1      34.987  33.739  29.617  1.00  0.00     0.055 A 
ATOM     71  C   UNL A   1      34.993  32.820  31.828  1.00  0.00     0.041 A 
ATOM     72  F   UNL A   1      36.737  31.425  32.514  1.00  0.00    -0.206 F 
ATOM     73  C   UNL A   1      34.381  33.616  30.868  1.00  0.00     0.022 A 
BRANCH  70  74
ATOM     74  S   UNL A   1      34.156  34.706  28.321  1.00  0.00     0.124 S 
ATOM     75  O   UNL A   1      32.829  34.098  28.282  1.00  0.00    -0.237 OA
ATOM     76  O   UNL A   1      34.232  36.061  28.853  1.00  0.00    -0.237 OA
ATOM     77  O   UNL A   1      34.976  34.462  27.134  1.00  0.00    -0.744 OA
ENDBRANCH  70  74
ENDBRANCH  53  67
BRANCH  54  78
ATOM     78  C   UNL A   1      45.539  27.695  29.141  1.00  0.00     0.023 A 
ATOM     79  C   UNL A   1      45.493  28.143  27.793  1.00  0.00     0.031 A 
ATOM     80  C   UNL A   1      46.440  26.661  29.433  1.00  0.00     0.131 A 
ATOM     81  C   UNL A   1      46.416  27.688  26.838  1.00  0.00     0.055 A 
ATOM     82  C   UNL A   1      47.309  26.143  28.453  1.00  0.00     0.041 A 
ATOM     83  F   UNL A   1      46.577  26.203  30.686  1.00  0.00    -0.206 F 
ATOM     84  C   UNL A   1      47.319  26.674  27.158  1.00  0.00     0.022 A 
BRANCH  81  85
ATOM     85  S   UNL A   1      46.628  28.633  25.288  1.00  0.00     0.124 S 
ATOM     86  O   UNL A   1      46.275  29.985  25.700  1.00  0.00    -0.237 OA
ATOM     87  O   UNL A   1      48.032  28.412  24.947  1.00  0.00    -0.237 OA
ATOM     88  O   UNL A   1      45.690  27.991  24.371  1.00  0.00    -0.744 OA
ENDBRANCH  81  85
ENDBRANCH  54  78
BRANCH  66  89
ATOM     89  C   UNL A   1      43.188  34.523  30.155  1.00  0.00     0.023 A 
ATOM     90  C   UNL A   1      42.901  35.079  28.908  1.00  0.00     0.031 A 
ATOM     91  C   UNL A   1      43.576  35.442  31.165  1.00  0.00     0.131 A 
ATOM     92  C   UNL A   1      43.105  36.444  28.660  1.00  0.00     0.055 A 
ATOM     93  C   UNL A   1      43.659  36.819  30.949  1.00  0.00     0.041 A 
ATOM     94  F   UNL A   1      43.887  35.047  32.409  1.00  0.00    -0.206 F 
ATOM     95  C   UNL A   1      43.447  37.328  29.679  1.00  0.00     0.022 A 
BRANCH  92  96
ATOM     96  S   UNL A   1      43.042  36.994  26.940  1.00  0.00     0.124 S 
ATOM     97  O   UNL A   1      41.823  37.801  26.930  1.00  0.00    -0.237 OA
ATOM     98  O   UNL A   1      44.291  37.733  26.799  1.00  0.00    -0.237 OA
ATOM     99  O   UNL A   1      42.963  35.746  26.183  1.00  0.00    -0.744 OA
ENDBRANCH  92  96
ENDBRANCH  66  89
ENDBRANCH  40  41
ENDBRANCH  33  35
ENDBRANCH  32  33
ENDBRANCH  31  32
ENDBRANCH  30  31
ENDBRANCH  29  30
ENDBRANCH  28  29
ENDBRANCH   1  28
TORSDOF 23
ENDMDL
MODEL 2
REMARK VINA RESULT:     -12.5      3.887     10.445
REMARK SMILES Cc1cc(C(=O)OCCOCCOCCOC(=O)c2ccc(-c3c4nc(c(-c5cc(S(=O)(=O)[O-])ccc5F)c5ccc([nH]5)c(-c5cc(S(=O)(=O)[O-])ccc5F)c5nc(c(-c6cc(S(=O)(=O)[O-])ccc6F)c6ccc3[nH]6)C=C5)C=C4)cc2)ccc1NS(=O)(=O)c1c(F)cccc1F
REMARK SMILES IDX 11 1 10 2 9 3 8 4 7 5 5 6 6 7 4 8 1 9 2 10 3 11 84 12 83 13
REMARK SMILES IDX 82 14 85 15 86 17 87 18 88 19 89 20 90 21 95 22 91 23 92 24
REMARK SMILES IDX 94 25 96 26 93 27 12 28 13 29 14 30 15 31 16 32 17 33 18 34
REMARK SMILES IDX 19 35 20 36 81 37 21 38 80 39 22 40 23 41 24 42 74 43 25 44
REMARK SMILES IDX 79 45 73 46 75 47 26 48 78 49 72 50 71 51 27 53 59 54 39 55
REMARK SMILES IDX 58 56 40 57 43 58 57 59 76 60 41 61 42 62 56 64 77 65 44 66
REMARK SMILES IDX 28 67 29 68 37 69 30 70 36 71 38 72 35 73 31 74 32 75 33 76
REMARK SMILES IDX 34 77 60 78 61 79 69 80 62 81 68 82 70 83 67 84 63 85 64 86
REMARK SMILES IDX 65 87 66 88 45 89 46 90 54 91 47 92 53 93 55 94 52 95 48 96
REMARK SMILES IDX 49 97 50 98 51 99
REMARK H PARENT 85 16 75 52 43 63
REMARK Flexibility Score: inf
ROOT
ATOM      1  C   UNL A   1      33.660  34.679  29.843  1.00  0.00     0.188 C 
ENDROOT
BRANCH   1   2
ATOM      2  O   UNL A   1      33.729  33.705  28.808  1.00  0.00    -0.376 OA
BRANCH   2   3
ATOM      3  C   UNL A   1      32.867  33.517  27.697  1.00  0.00     0.202 C 
BRANCH   3   4
ATOM      4  C   UNL A   1      32.036  32.139  27.126  1.00  0.00     0.261 C 
BRANCH   4   5
ATOM      5  O   UNL A   1      32.322  30.594  26.494  1.00  0.00    -0.460 OA
BRANCH   5   6
ATOM      6  C   UNL A   1      33.330  29.617  26.351  1.00  0.00     0.338 C 
ATOM      7  O   UNL A   1      34.510  29.626  26.671  1.00  0.00    -0.246 OA
BRANCH   6   8
ATOM      8  C   UNL A   1      33.080  28.177  26.160  1.00  0.00     0.060 A 
ATOM      9  C   UNL A   1      33.574  25.941  23.076  1.00  0.00     0.046 C 
ATOM     10  C   UNL A   1      33.194  26.352  24.478  1.00  0.00    -0.026 A 
ATOM     11  C   UNL A   1      33.608  27.594  24.965  1.00  0.00     0.021 A 
ATOM     12  C   UNL A   1      32.291  25.653  25.269  1.00  0.00     0.052 A 
ATOM     13  C   UNL A   1      31.518  26.348  26.208  1.00  0.00     0.028 A 
ATOM     14  C   UNL A   1      31.917  27.612  26.665  1.00  0.00     0.018 A 
BRANCH  12  15
ATOM     15  N   UNL A   1      32.266  24.224  25.192  1.00  0.00    -0.279 N 
ATOM     16  H   UNL A   1      31.806  23.770  24.449  1.00  0.00     0.180 HD
BRANCH  15  17
ATOM     17  S   UNL A   1      33.052  23.316  26.414  1.00  0.00     0.267 S 
ATOM     18  O   UNL A   1      34.321  23.980  26.622  1.00  0.00    -0.201 OA
ATOM     19  O   UNL A   1      32.108  23.214  27.510  1.00  0.00    -0.201 OA
BRANCH  17  20
ATOM     20  C   UNL A   1      33.346  21.678  25.834  1.00  0.00     0.158 A 
ATOM     21  C   UNL A   1      34.651  21.211  25.718  1.00  0.00     0.146 A 
ATOM     22  C   UNL A   1      32.304  20.903  25.335  1.00  0.00     0.146 A 
ATOM     23  F   UNL A   1      35.689  21.874  26.238  1.00  0.00    -0.205 F 
ATOM     24  C   UNL A   1      34.929  20.041  25.012  1.00  0.00     0.041 A 
ATOM     25  C   UNL A   1      32.575  19.733  24.614  1.00  0.00     0.041 A 
ATOM     26  F   UNL A   1      31.031  21.306  25.429  1.00  0.00    -0.205 F 
ATOM     27  C   UNL A   1      33.893  19.316  24.427  1.00  0.00     0.006 A 
ENDBRANCH  17  20
ENDBRANCH  15  17
ENDBRANCH  12  15
ENDBRANCH   6   8
ENDBRANCH   5   6
ENDBRANCH   4   5
ENDBRANCH   3   4
ENDBRANCH   2   3
ENDBRANCH   1   2
BRANCH   1  28
ATOM     28  C   UNL A   1      34.182  34.422  31.237  1.00  0.00     0.188 C 
BRANCH  28  29
ATOM     29  O   UNL A   1      34.071  33.048  31.571  1.00  0.00    -0.376 OA
BRANCH  29  30
ATOM     30  C   UNL A   1      34.786  32.702  32.747  1.00  0.00     0.202 C 
BRANCH  30  31
ATOM     31  C   UNL A   1      35.986  31.789  32.463  1.00  0.00     0.261 C 
BRANCH  31  32
ATOM     32  O   UNL A   1      35.758  31.036  31.255  1.00  0.00    -0.460 OA
BRANCH  32  33
ATOM     33  C   UNL A   1      36.589  31.354  30.212  1.00  0.00     0.338 C 
ATOM     34  O   UNL A   1      36.784  32.495  29.824  1.00  0.00    -0.246 OA
BRANCH  33  35
ATOM     35  C   UNL A   1      37.205  30.108  29.682  1.00  0.00     0.060 A 
ATOM     36  C   UNL A   1      37.603  29.005  30.417  1.00  0.00     0.016 A 
ATOM     37  C   UNL A   1      37.502  30.049  28.362  1.00  0.00     0.016 A 
ATOM     38  C   UNL A   1      38.557  28.047  29.890  1.00  0.00     0.010 A 
ATOM     39  C   UNL A   1      38.441  29.095  27.918  1.00  0.00     0.010 A 
ATOM     40  C   UNL A   1      39.213  28.167  28.651  1.00  0.00    -0.014 A 
BRANCH  40  41
ATOM     41  C   UNL A   1      40.713  27.420  28.302  1.00  0.00     0.031 A 
ATOM     42  C   UNL A   1      41.177  25.906  27.829  1.00  0.00     0.074 A 
ATOM     43  C   UNL A   1      41.850  28.129  28.505  1.00  0.00     0.049 A 
ATOM     44  N   UNL A   1      41.796  25.033  28.608  1.00  0.00    -0.248 NA
ATOM     45  C   UNL A   1      40.973  25.244  26.517  1.00  0.00     0.031 C 
ATOM     46  C   UNL A   1      43.233  27.684  28.325  1.00  0.00     0.029 A 
ATOM     47  N   UNL A   1      41.982  29.367  29.114  1.00  0.00    -0.354 N 
ATOM     48  C   UNL A   1      41.884  23.804  27.942  1.00  0.00     0.074 A 
ATOM     49  C   UNL A   1      41.198  23.950  26.711  1.00  0.00     0.031 C 
ATOM     50  C   UNL A   1      44.017  28.437  29.116  1.00  0.00     0.029 A 
ATOM     51  C   UNL A   1      43.150  29.327  29.870  1.00  0.00     0.049 A 
ATOM     52  H   UNL A   1      41.366  30.131  29.028  1.00  0.00     0.167 HD
ATOM     53  C   UNL A   1      42.748  22.786  28.212  1.00  0.00     0.034 A 
ATOM     54  C   UNL A   1      43.082  29.470  31.221  1.00  0.00     0.034 A 
ATOM     55  C   UNL A   1      43.834  23.306  28.988  1.00  0.00     0.049 A 
ATOM     56  C   UNL A   1      43.661  28.279  31.945  1.00  0.00     0.074 A 
ATOM     57  C   UNL A   1      44.975  23.966  28.562  1.00  0.00     0.029 A 
ATOM     58  N   UNL A   1      43.644  23.616  30.316  1.00  0.00    -0.354 N 
ATOM     59  N   UNL A   1      43.856  27.103  31.409  1.00  0.00    -0.248 NA
ATOM     60  C   UNL A   1      44.094  28.342  33.335  1.00  0.00     0.031 C 
ATOM     61  C   UNL A   1      45.415  24.777  29.634  1.00  0.00     0.029 A 
ATOM     62  C   UNL A   1      44.600  24.523  30.723  1.00  0.00     0.049 A 
ATOM     63  H   UNL A   1      42.934  23.245  30.888  1.00  0.00     0.167 HD
ATOM     64  C   UNL A   1      44.391  26.259  32.350  1.00  0.00     0.074 A 
ATOM     65  C   UNL A   1      44.562  27.098  33.523  1.00  0.00     0.031 C 
ATOM     66  C   UNL A   1      44.640  24.937  32.107  1.00  0.00     0.034 A 
BRANCH  53  67
ATOM     67  C   UNL A   1      42.801  21.535  27.350  1.00  0.00     0.023 A 
ATOM     68  C   UNL A   1      43.860  21.298  26.454  1.00  0.00     0.031 A 
ATOM     69  C   UNL A   1      41.768  20.565  27.359  1.00  0.00     0.131 A 
ATOM     70  C   UNL A   1      43.819  20.213  25.551  1.00  0.00     0.055 A 
ATOM     71  C   UNL A   1      41.709  19.510  26.436  1.00  0.00     0.041 A 
ATOM     72  F   UNL A   1      40.753  20.652  28.237  1.00  0.00    -0.206 F 
ATOM     73  C   UNL A   1      42.730  19.342  25.510  1.00  0.00     0.022 A 
BRANCH  70  74
ATOM     74  S   UNL A   1      45.204  19.953  24.402  1.00  0.00     0.124 S 
ATOM     75  O   UNL A   1      46.145  20.992  24.809  1.00  0.00    -0.237 OA
ATOM     76  O   UNL A   1      45.590  18.578  24.694  1.00  0.00    -0.237 OA
ATOM     77  O   UNL A   1      44.599  20.157  23.085  1.00  0.00    -0.744 OA
ENDBRANCH  70  74
ENDBRANCH  53  67
BRANCH  54  78
ATOM     78  C   UNL A   1      41.986  30.379  31.710  1.00  0.00     0.023 A 
ATOM     79  C   UNL A   1      42.105  31.763  31.412  1.00  0.00     0.031 A 
ATOM     80  C   UNL A   1      40.737  29.936  32.170  1.00  0.00     0.131 A 
ATOM     81  C   UNL A   1      40.988  32.613  31.423  1.00  0.00     0.055 A 
ATOM     82  C   UNL A   1      39.635  30.809  32.261  1.00  0.00     0.041 A 
ATOM     83  F   UNL A   1      40.525  28.640  32.438  1.00  0.00    -0.206 F 
ATOM     84  C   UNL A   1      39.750  32.145  31.862  1.00  0.00     0.022 A 
BRANCH  81  85
ATOM     85  S   UNL A   1      41.095  34.230  30.577  1.00  0.00     0.124 S 
ATOM     86  O   UNL A   1      39.789  34.333  29.941  1.00  0.00    -0.237 OA
ATOM     87  O   UNL A   1      41.352  35.167  31.669  1.00  0.00    -0.237 OA
ATOM     88  O   UNL A   1      42.225  34.060  29.668  1.00  0.00    -0.744 OA
ENDBRANCH  81  85
ENDBRANCH  54  78
BRANCH  66  89
ATOM     89  C   UNL A   1      45.001  23.895  33.140  1.00  0.00     0.023 A 
ATOM     90  C   UNL A   1      46.264  23.832  33.731  1.00  0.00     0.031 A 
ATOM     91  C   UNL A   1      44.042  22.973  33.635  1.00  0.00     0.131 A 
ATOM     92  C   UNL A   1      46.576  22.834  34.666  1.00  0.00     0.055 A 
ATOM     93  C   UNL A   1      44.321  22.060  34.656  1.00  0.00     0.041 A 
ATOM     94  F   UNL A   1      42.791  22.917  33.155  1.00  0.00    -0.206 F 
ATOM     95  C   UNL A   1      45.606  21.969  35.162  1.00  0.00     0.022 A 
BRANCH  92  96
ATOM     96  S   UNL A   1      48.317  22.622  35.103  1.00  0.00     0.124 S 
ATOM     97  O   UNL A   1      48.283  22.803  36.553  1.00  0.00    -0.237 OA
ATOM     98  O   UNL A   1      48.594  21.267  34.641  1.00  0.00    -0.237 OA
ATOM     99  O   UNL A   1      48.989  23.687  34.362  1.00  0.00    -0.744 OA
ENDBRANCH  92  96
ENDBRANCH  66  89
ENDBRANCH  40  41
ENDBRANCH  33  35
ENDBRANCH  32  33
ENDBRANCH  31  32
ENDBRANCH  30  31
ENDBRANCH  29  30
ENDBRANCH  28  29
ENDBRANCH   1  28
TORSDOF 23
ENDMDL
MODEL 3
REMARK VINA RESULT:     -11.8      2.538      3.406
REMARK SMILES Cc1cc(C(=O)OCCOCCOCCOC(=O)c2ccc(-c3c4nc(c(-c5cc(S(=O)(=O)[O-])ccc5F)c5ccc([nH]5)c(-c5cc(S(=O)(=O)[O-])ccc5F)c5nc(c(-c6cc(S(=O)(=O)[O-])ccc6F)c6ccc3[nH]6)C=C5)C=C4)cc2)ccc1NS(=O)(=O)c1c(F)cccc1F
REMARK SMILES IDX 11 1 10 2 9 3 8 4 7 5 5 6 6 7 4 8 1 9 2 10 3 11 84 12 83 13
REMARK SMILES IDX 82 14 85 15 86 17 87 18 88 19 89 20 90 21 95 22 91 23 92 24
REMARK SMILES IDX 94 25 96 26 93 27 12 28 13 29 14 30 15 31 16 32 17 33 18 34
REMARK SMILES IDX 19 35 20 36 81 37 21 38 80 39 22 40 23 41 24 42 74 43 25 44
REMARK SMILES IDX 79 45 73 46 75 47 26 48 78 49 72 50 71 51 27 53 59 54 39 55
REMARK SMILES IDX 58 56 40 57 43 58 57 59 76 60 41 61 42 62 56 64 77 65 44 66
REMARK SMILES IDX 28 67 29 68 37 69 30 70 36 71 38 72 35 73 31 74 32 75 33 76
REMARK SMILES IDX 34 77 60 78 61 79 69 80 62 81 68 82 70 83 67 84 63 85 64 86
REMARK SMILES IDX 65 87 66 88 45 89 46 90 54 91 47 92 53 93 55 94 52 95 48 96
REMARK SMILES IDX 49 97 50 98 51 99
REMARK H PARENT 85 16 75 52 43 63
REMARK Flexibility Score: inf
ROOT
ATOM      1  C   UNL A   1      41.259  21.077  27.501  1.00  0.00     0.188 C 
ENDROOT
BRANCH   1   2
ATOM      2  O   UNL A   1      39.880  21.182  27.165  1.00  0.00    -0.376 OA
BRANCH   2   3
ATOM      3  C   UNL A   1      39.276  21.827  26.056  1.00  0.00     0.202 C 
BRANCH   3   4
ATOM      4  C   UNL A   1      37.654  22.252  25.734  1.00  0.00     0.261 C 
BRANCH   4   5
ATOM      5  O   UNL A   1      36.077  21.657  25.903  1.00  0.00    -0.460 OA
BRANCH   5   6
ATOM      6  C   UNL A   1      34.748  22.072  26.139  1.00  0.00     0.338 C 
ATOM      7  O   UNL A   1      33.791  21.474  26.608  1.00  0.00    -0.246 OA
BRANCH   6   8
ATOM      8  C   UNL A   1      34.320  23.476  26.264  1.00  0.00     0.060 A 
ATOM      9  C   UNL A   1      30.827  25.055  26.018  1.00  0.00     0.046 C 
ATOM     10  C   UNL A   1      32.325  24.954  26.174  1.00  0.00    -0.026 A 
ATOM     11  C   UNL A   1      32.912  23.702  26.374  1.00  0.00     0.021 A 
ATOM     12  C   UNL A   1      33.197  26.012  25.948  1.00  0.00     0.052 A 
ATOM     13  C   UNL A   1      34.493  25.746  25.486  1.00  0.00     0.028 A 
ATOM     14  C   UNL A   1      35.064  24.476  25.654  1.00  0.00     0.018 A 
BRANCH  12  15
ATOM     15  N   UNL A   1      32.790  27.334  26.312  1.00  0.00    -0.279 N 
ATOM     16  H   UNL A   1      32.370  27.507  27.186  1.00  0.00     0.180 HD
BRANCH  15  17
ATOM     17  S   UNL A   1      33.046  28.613  25.202  1.00  0.00     0.267 S 
ATOM     18  O   UNL A   1      33.109  29.811  26.012  1.00  0.00    -0.201 OA
ATOM     19  O   UNL A   1      34.192  28.229  24.401  1.00  0.00    -0.201 OA
BRANCH  17  20
ATOM     20  C   UNL A   1      31.670  28.728  24.108  1.00  0.00     0.158 A 
ATOM     21  C   UNL A   1      30.728  29.736  24.287  1.00  0.00     0.146 A 
ATOM     22  C   UNL A   1      31.421  27.731  23.170  1.00  0.00     0.146 A 
ATOM     23  F   UNL A   1      30.937  30.761  25.121  1.00  0.00    -0.205 F 
ATOM     24  C   UNL A   1      29.501  29.691  23.625  1.00  0.00     0.041 A 
ATOM     25  C   UNL A   1      30.187  27.671  22.510  1.00  0.00     0.041 A 
ATOM     26  F   UNL A   1      32.301  26.744  22.956  1.00  0.00    -0.205 F 
ATOM     27  C   UNL A   1      29.213  28.637  22.760  1.00  0.00     0.006 A 
ENDBRANCH  17  20
ENDBRANCH  15  17
ENDBRANCH  12  15
ENDBRANCH   6   8
ENDBRANCH   5   6
ENDBRANCH   4   5
ENDBRANCH   3   4
ENDBRANCH   2   3
ENDBRANCH   1   2
BRANCH   1  28
ATOM     28  C   UNL A   1      42.290  20.528  26.544  1.00  0.00     0.188 C 
BRANCH  28  29
ATOM     29  O   UNL A   1      42.371  21.330  25.377  1.00  0.00    -0.376 OA
BRANCH  29  30
ATOM     30  C   UNL A   1      43.590  22.050  25.280  1.00  0.00     0.202 C 
BRANCH  30  31
ATOM     31  C   UNL A   1      43.377  23.535  24.954  1.00  0.00     0.261 C 
BRANCH  31  32
ATOM     32  O   UNL A   1      42.193  24.020  25.616  1.00  0.00    -0.460 OA
BRANCH  32  33
ATOM     33  C   UNL A   1      42.388  24.457  26.900  1.00  0.00     0.338 C 
ATOM     34  O   UNL A   1      43.296  24.069  27.618  1.00  0.00    -0.246 OA
BRANCH  33  35
ATOM     35  C   UNL A   1      41.350  25.470  27.233  1.00  0.00     0.060 A 
ATOM     36  C   UNL A   1      41.251  26.751  26.720  1.00  0.00     0.016 A 
ATOM     37  C   UNL A   1      40.448  25.173  28.199  1.00  0.00     0.016 A 
ATOM     38  C   UNL A   1      40.490  27.783  27.399  1.00  0.00     0.010 A 
ATOM     39  C   UNL A   1      39.746  26.225  28.821  1.00  0.00     0.010 A 
ATOM     40  C   UNL A   1      39.854  27.622  28.644  1.00  0.00    -0.014 A 
BRANCH  40  41
ATOM     41  C   UNL A   1      39.498  28.924  29.696  1.00  0.00     0.031 A 
ATOM     42  C   UNL A   1      38.362  30.125  29.717  1.00  0.00     0.074 A 
ATOM     43  C   UNL A   1      40.328  29.157  30.741  1.00  0.00     0.049 A 
ATOM     44  N   UNL A   1      38.613  31.401  29.468  1.00  0.00    -0.248 NA
ATOM     45  C   UNL A   1      36.904  30.015  29.975  1.00  0.00     0.031 C 
ATOM     46  C   UNL A   1      40.250  30.233  31.732  1.00  0.00     0.029 A 
ATOM     47  N   UNL A   1      41.549  28.556  31.006  1.00  0.00    -0.354 N 
ATOM     48  C   UNL A   1      37.403  32.104  29.406  1.00  0.00     0.074 A 
ATOM     49  C   UNL A   1      36.363  31.153  29.556  1.00  0.00     0.031 C 
ATOM     50  C   UNL A   1      41.485  30.433  32.223  1.00  0.00     0.029 A 
ATOM     51  C   UNL A   1      42.388  29.545  31.510  1.00  0.00     0.049 A 
ATOM     52  H   UNL A   1      41.779  27.609  30.865  1.00  0.00     0.167 HD
ATOM     53  C   UNL A   1      37.228  33.448  29.548  1.00  0.00     0.034 A 
ATOM     54  C   UNL A   1      43.515  29.884  30.825  1.00  0.00     0.034 A 
ATOM     55  C   UNL A   1      38.387  33.990  30.192  1.00  0.00     0.049 A 
ATOM     56  C   UNL A   1      43.530  31.347  30.451  1.00  0.00     0.074 A 
ATOM     57  C   UNL A   1      38.698  34.035  31.541  1.00  0.00     0.029 A 
ATOM     58  N   UNL A   1      39.563  34.127  29.488  1.00  0.00    -0.354 N 
ATOM     59  N   UNL A   1      42.478  32.121  30.426  1.00  0.00    -0.248 NA
ATOM     60  C   UNL A   1      44.756  32.053  30.104  1.00  0.00     0.031 C 
ATOM     61  C   UNL A   1      40.106  34.091  31.646  1.00  0.00     0.029 A 
ATOM     62  C   UNL A   1      40.626  34.182  30.366  1.00  0.00     0.049 A 
ATOM     63  H   UNL A   1      39.634  34.180  28.508  1.00  0.00     0.167 HD
ATOM     64  C   UNL A   1      42.853  33.384  30.040  1.00  0.00     0.074 A 
ATOM     65  C   UNL A   1      44.296  33.297  29.896  1.00  0.00     0.031 C 
ATOM     66  C   UNL A   1      41.959  34.400  29.852  1.00  0.00     0.034 A 
BRANCH  53  67
ATOM     67  C   UNL A   1      35.844  34.075  29.550  1.00  0.00     0.023 A 
ATOM     68  C   UNL A   1      35.246  34.546  30.735  1.00  0.00     0.031 A 
ATOM     69  C   UNL A   1      35.057  34.177  28.376  1.00  0.00     0.131 A 
ATOM     70  C   UNL A   1      33.904  34.983  30.747  1.00  0.00     0.055 A 
ATOM     71  C   UNL A   1      33.712  34.575  28.396  1.00  0.00     0.041 A 
ATOM     72  F   UNL A   1      35.564  33.835  27.179  1.00  0.00    -0.206 F 
ATOM     73  C   UNL A   1      33.122  34.962  29.592  1.00  0.00     0.022 A 
BRANCH  70  74
ATOM     74  S   UNL A   1      33.169  35.571  32.303  1.00  0.00     0.124 S 
ATOM     75  O   UNL A   1      32.668  34.335  32.897  1.00  0.00    -0.237 OA
ATOM     76  O   UNL A   1      34.310  36.192  32.965  1.00  0.00    -0.237 OA
ATOM     77  O   UNL A   1      32.131  36.502  31.861  1.00  0.00    -0.744 OA
ENDBRANCH  70  74
ENDBRANCH  53  67
BRANCH  54  78
ATOM     78  C   UNL A   1      44.168  28.754  30.076  1.00  0.00     0.023 A 
ATOM     79  C   UNL A   1      44.191  28.838  28.658  1.00  0.00     0.031 A 
ATOM     80  C   UNL A   1      44.998  27.790  30.666  1.00  0.00     0.131 A 
ATOM     81  C   UNL A   1      45.115  28.106  27.896  1.00  0.00     0.055 A 
ATOM     82  C   UNL A   1      45.866  26.994  29.893  1.00  0.00     0.041 A 
ATOM     83  F   UNL A   1      45.069  27.668  31.999  1.00  0.00    -0.206 F 
ATOM     84  C   UNL A   1      45.948  27.169  28.507  1.00  0.00     0.022 A 
BRANCH  81  85
ATOM     85  S   UNL A   1      45.430  28.603  26.165  1.00  0.00     0.124 S 
ATOM     86  O   UNL A   1      44.462  27.799  25.432  1.00  0.00    -0.237 OA
ATOM     87  O   UNL A   1      45.188  30.044  26.178  1.00  0.00    -0.237 OA
ATOM     88  O   UNL A   1      46.830  28.242  25.961  1.00  0.00    -0.744 OA
ENDBRANCH  81  85
ENDBRANCH  54  78
BRANCH  66  89
ATOM     89  C   UNL A   1      42.251  35.736  29.209  1.00  0.00     0.023 A 
ATOM     90  C   UNL A   1      43.137  36.658  29.768  1.00  0.00     0.031 A 
ATOM     91  C   UNL A   1      41.707  36.091  27.948  1.00  0.00     0.131 A 
ATOM     92  C   UNL A   1      43.366  37.901  29.161  1.00  0.00     0.055 A 
ATOM     93  C   UNL A   1      42.033  37.278  27.285  1.00  0.00     0.041 A 
ATOM     94  F   UNL A   1      40.837  35.303  27.297  1.00  0.00    -0.206 F 
ATOM     95  C   UNL A   1      42.851  38.207  27.905  1.00  0.00     0.022 A 
BRANCH  92  96
ATOM     96  S   UNL A   1      44.244  39.149  30.130  1.00  0.00     0.124 S 
ATOM     97  O   UNL A   1      43.646  38.974  31.453  1.00  0.00    -0.237 OA
ATOM     98  O   UNL A   1      45.634  38.726  30.004  1.00  0.00    -0.237 OA
ATOM     99  O   UNL A   1      43.907  40.404  29.461  1.00  0.00    -0.744 OA
ENDBRANCH  92  96
ENDBRANCH  66  89
ENDBRANCH  40  41
ENDBRANCH  33  35
ENDBRANCH  32  33
ENDBRANCH  31  32
ENDBRANCH  30  31
ENDBRANCH  29  30
ENDBRANCH  28  29
ENDBRANCH   1  28
TORSDOF 23
ENDMDL
