MODEL 1
REMARK VINA RESULT:      -9.3      0.000      0.000
REMARK SMILES CS(=O)(=O)N1CCC[C@@H]1C(=O)N1CCC[C@@H]1C(=O)OCCOCCOCCOC(=O)c1ccc(-c2c3nc(c(-c4cc(S(=O)(=O)[O-])ccc4F)c4ccc([nH]4)c(-c4cc(S(=O)(=O)[O-])ccc4F)c4nc(c(-c5cc(S(=O)(=O)[O-])ccc5F)c5ccc2[nH]5)C=C4)C=C3)cc1
REMARK SMILES IDX 23 1 22 2 21 3 20 4 19 5 17 6 18 7 16 8 12 9 13 10 14 11
REMARK SMILES IDX 15 12 10 13 11 14 9 15 5 16 6 17 7 18 8 19 2 20 1 21 3 22
REMARK SMILES IDX 4 23 24 24 25 25 26 26 27 27 28 28 29 29 30 30 31 31 32 32
REMARK SMILES IDX 93 33 33 34 92 35 34 36 35 37 36 38 86 39 37 40 91 41 85 42
REMARK SMILES IDX 87 43 38 44 90 45 84 46 83 47 39 49 71 50 51 51 70 52 52 53
REMARK SMILES IDX 55 54 69 55 88 56 53 57 54 58 68 60 89 61 56 62 40 63 41 64
REMARK SMILES IDX 49 65 42 66 48 67 50 68 47 69 43 70 44 71 45 72 46 73 72 74
REMARK SMILES IDX 73 75 81 76 74 77 80 78 82 79 79 80 75 81 76 82 77 83 78 84
REMARK SMILES IDX 57 85 58 86 66 87 59 88 65 89 67 90 64 91 60 92 61 93 62 94
REMARK SMILES IDX 63 95
REMARK H PARENT 87 48 55 59
REMARK Flexibility Score: inf
ROOT
ATOM      1  C   UNL A   1      40.322  22.078  26.636  1.00  0.00     0.188 C 
ENDROOT
BRANCH   1   2
ATOM      2  O   UNL A   1      39.392  23.040  27.103  1.00  0.00    -0.376 OA
BRANCH   2   3
ATOM      3  C   UNL A   1      38.581  23.666  26.116  1.00  0.00     0.202 C 
BRANCH   3   4
ATOM      4  C   UNL A   1      37.234  23.031  25.739  1.00  0.00     0.261 C 
BRANCH   4   5
ATOM      5  O   UNL A   1      36.083  23.921  25.774  1.00  0.00    -0.462 OA
BRANCH   5   6
ATOM      6  C   UNL A   1      34.849  23.338  25.818  1.00  0.00     0.328 C 
ATOM      7  O   UNL A   1      34.276  23.067  26.870  1.00  0.00    -0.250 OA
BRANCH   6   8
ATOM      8  C   UNL A   1      34.201  23.014  24.435  1.00  0.00     0.195 C 
ATOM      9  N   UNL A   1      33.142  23.895  23.923  1.00  0.00    -0.327 N 
ATOM     10  C   UNL A   1      32.572  23.224  22.772  1.00  0.00     0.120 C 
ATOM     11  C   UNL A   1      32.428  21.794  23.234  1.00  0.00     0.024 C 
ATOM     12  C   UNL A   1      33.576  21.615  24.231  1.00  0.00     0.039 C 
BRANCH   9  13
ATOM     13  C   UNL A   1      33.265  25.265  23.979  1.00  0.00     0.241 C 
ATOM     14  O   UNL A   1      34.022  25.866  23.216  1.00  0.00    -0.273 OA
BRANCH  13  15
ATOM     15  C   UNL A   1      32.431  26.031  25.038  1.00  0.00     0.162 C 
ATOM     16  N   UNL A   1      31.422  27.111  24.656  1.00  0.00    -0.190 NA
ATOM     17  C   UNL A   1      31.740  28.341  25.399  1.00  0.00     0.103 C 
ATOM     18  C   UNL A   1      33.176  28.175  25.838  1.00  0.00     0.019 C 
ATOM     19  C   UNL A   1      33.282  26.688  26.125  1.00  0.00     0.032 C 
BRANCH  16  20
ATOM     20  S   UNL A   1      31.082  27.239  23.032  1.00  0.00     0.211 S 
ATOM     21  C   UNL A   1      29.594  28.189  22.864  1.00  0.00     0.176 C 
ATOM     22  O   UNL A   1      30.766  25.897  22.616  1.00  0.00    -0.212 OA
ATOM     23  O   UNL A   1      32.135  28.046  22.445  1.00  0.00    -0.212 OA
ENDBRANCH  16  20
ENDBRANCH  13  15
ENDBRANCH   9  13
ENDBRANCH   6   8
ENDBRANCH   5   6
ENDBRANCH   4   5
ENDBRANCH   3   4
ENDBRANCH   2   3
ENDBRANCH   1   2
BRANCH   1  24
ATOM     24  C   UNL A   1      41.370  21.590  27.646  1.00  0.00     0.188 C 
BRANCH  24  25
ATOM     25  O   UNL A   1      41.707  20.224  27.570  1.00  0.00    -0.376 OA
BRANCH  25  26
ATOM     26  C   UNL A   1      41.568  19.541  26.337  1.00  0.00     0.202 C 
BRANCH  26  27
ATOM     27  C   UNL A   1      42.593  18.537  25.759  1.00  0.00     0.261 C 
BRANCH  27  28
ATOM     28  O   UNL A   1      43.975  18.908  25.722  1.00  0.00    -0.460 OA
BRANCH  28  29
ATOM     29  C   UNL A   1      44.408  19.630  24.654  1.00  0.00     0.338 C 
ATOM     30  O   UNL A   1      44.532  19.228  23.511  1.00  0.00    -0.246 OA
BRANCH  29  31
ATOM     31  C   UNL A   1      44.390  21.060  25.068  1.00  0.00     0.060 A 
ATOM     32  C   UNL A   1      43.771  22.006  24.229  1.00  0.00     0.016 A 
ATOM     33  C   UNL A   1      44.845  21.439  26.331  1.00  0.00     0.016 A 
ATOM     34  C   UNL A   1      43.604  23.327  24.654  1.00  0.00     0.010 A 
ATOM     35  C   UNL A   1      44.719  22.771  26.737  1.00  0.00     0.010 A 
ATOM     36  C   UNL A   1      44.119  23.727  25.894  1.00  0.00    -0.014 A 
BRANCH  36  37
ATOM     37  C   UNL A   1      44.300  25.169  26.199  1.00  0.00     0.031 A 
ATOM     38  C   UNL A   1      45.684  25.733  26.015  1.00  0.00     0.074 A 
ATOM     39  C   UNL A   1      43.302  25.954  26.645  1.00  0.00     0.049 A 
ATOM     40  N   UNL A   1      46.162  26.900  26.350  1.00  0.00    -0.248 NA
ATOM     41  C   UNL A   1      46.663  24.838  25.375  1.00  0.00     0.031 C 
ATOM     42  C   UNL A   1      41.907  25.549  26.799  1.00  0.00     0.029 A 
ATOM     43  N   UNL A   1      43.322  27.261  27.072  1.00  0.00    -0.354 N 
ATOM     44  C   UNL A   1      47.502  26.875  25.979  1.00  0.00     0.074 A 
ATOM     45  C   UNL A   1      47.765  25.568  25.420  1.00  0.00     0.031 C 
ATOM     46  C   UNL A   1      41.209  26.581  27.310  1.00  0.00     0.029 A 
ATOM     47  C   UNL A   1      42.115  27.700  27.569  1.00  0.00     0.049 A 
ATOM     48  H   UNL A   1      44.124  27.830  27.026  1.00  0.00     0.167 HD
ATOM     49  C   UNL A   1      48.430  27.854  26.097  1.00  0.00     0.034 A 
ATOM     50  C   UNL A   1      41.796  28.854  28.197  1.00  0.00     0.034 A 
ATOM     51  C   UNL A   1      48.158  29.145  26.674  1.00  0.00     0.049 A 
ATOM     52  C   UNL A   1      42.877  29.894  28.417  1.00  0.00     0.074 A 
ATOM     53  C   UNL A   1      49.021  30.214  26.832  1.00  0.00     0.029 A 
ATOM     54  N   UNL A   1      46.935  29.537  27.204  1.00  0.00    -0.354 N 
ATOM     55  N   UNL A   1      44.143  29.864  28.065  1.00  0.00    -0.248 NA
ATOM     56  C   UNL A   1      42.486  31.125  29.120  1.00  0.00     0.031 C 
ATOM     57  C   UNL A   1      48.348  31.216  27.536  1.00  0.00     0.029 A 
ATOM     58  C   UNL A   1      47.035  30.818  27.725  1.00  0.00     0.049 A 
ATOM     59  H   UNL A   1      46.118  28.988  27.207  1.00  0.00     0.167 HD
ATOM     60  C   UNL A   1      44.682  31.086  28.467  1.00  0.00     0.074 A 
ATOM     61  C   UNL A   1      43.605  31.833  29.080  1.00  0.00     0.031 C 
ATOM     62  C   UNL A   1      45.950  31.553  28.332  1.00  0.00     0.034 A 
BRANCH  49  63
ATOM     63  C   UNL A   1      49.837  27.534  25.656  1.00  0.00     0.023 A 
ATOM     64  C   UNL A   1      50.860  27.253  26.578  1.00  0.00     0.031 A 
ATOM     65  C   UNL A   1      50.163  27.534  24.288  1.00  0.00     0.131 A 
ATOM     66  C   UNL A   1      52.172  27.050  26.125  1.00  0.00     0.055 A 
ATOM     67  C   UNL A   1      51.453  27.247  23.839  1.00  0.00     0.041 A 
ATOM     68  F   UNL A   1      49.235  27.827  23.364  1.00  0.00    -0.206 F 
ATOM     69  C   UNL A   1      52.469  27.015  24.761  1.00  0.00     0.022 A 
BRANCH  66  70
ATOM     70  S   UNL A   1      53.510  26.974  27.348  1.00  0.00     0.124 S 
ATOM     71  O   UNL A   1      54.462  27.939  26.805  1.00  0.00    -0.237 OA
ATOM     72  O   UNL A   1      52.835  27.368  28.579  1.00  0.00    -0.237 OA
ATOM     73  O   UNL A   1      53.945  25.581  27.293  1.00  0.00    -0.744 OA
ENDBRANCH  66  70
ENDBRANCH  49  63
BRANCH  50  74
ATOM     74  C   UNL A   1      40.418  29.082  28.729  1.00  0.00     0.023 A 
ATOM     75  C   UNL A   1      40.146  29.020  30.107  1.00  0.00     0.031 A 
ATOM     76  C   UNL A   1      39.330  29.276  27.858  1.00  0.00     0.131 A 
ATOM     77  C   UNL A   1      38.821  29.093  30.567  1.00  0.00     0.055 A 
ATOM     78  C   UNL A   1      38.021  29.417  28.325  1.00  0.00     0.041 A 
ATOM     79  F   UNL A   1      39.523  29.324  26.531  1.00  0.00    -0.206 F 
ATOM     80  C   UNL A   1      37.758  29.310  29.687  1.00  0.00     0.022 A 
BRANCH  77  81
ATOM     81  S   UNL A   1      38.490  28.774  32.323  1.00  0.00     0.124 S 
ATOM     82  O   UNL A   1      39.197  29.878  32.962  1.00  0.00    -0.237 OA
ATOM     83  O   UNL A   1      37.033  28.830  32.375  1.00  0.00    -0.237 OA
ATOM     84  O   UNL A   1      39.070  27.451  32.546  1.00  0.00    -0.744 OA
ENDBRANCH  77  81
ENDBRANCH  50  74
BRANCH  62  85
ATOM     85  C   UNL A   1      46.232  32.965  28.794  1.00  0.00     0.023 A 
ATOM     86  C   UNL A   1      45.997  34.083  27.976  1.00  0.00     0.031 A 
ATOM     87  C   UNL A   1      46.725  33.190  30.094  1.00  0.00     0.131 A 
ATOM     88  C   UNL A   1      46.299  35.371  28.448  1.00  0.00     0.055 A 
ATOM     89  C   UNL A   1      46.960  34.476  30.581  1.00  0.00     0.041 A 
ATOM     90  F   UNL A   1      46.972  32.161  30.919  1.00  0.00    -0.206 F 
ATOM     91  C   UNL A   1      46.758  35.575  29.752  1.00  0.00     0.022 A 
BRANCH  88  92
ATOM     92  S   UNL A   1      46.167  36.775  27.308  1.00  0.00     0.124 S 
ATOM     93  O   UNL A   1      44.765  36.712  26.911  1.00  0.00    -0.237 OA
ATOM     94  O   UNL A   1      46.540  37.902  28.155  1.00  0.00    -0.237 OA
ATOM     95  O   UNL A   1      47.125  36.452  26.252  1.00  0.00    -0.744 OA
ENDBRANCH  88  92
ENDBRANCH  62  85
ENDBRANCH  36  37
ENDBRANCH  29  31
ENDBRANCH  28  29
ENDBRANCH  27  28
ENDBRANCH  26  27
ENDBRANCH  25  26
ENDBRANCH  24  25
ENDBRANCH   1  24
TORSDOF 23
ENDMDL
MODEL 2
REMARK VINA RESULT:      -9.0      6.521     11.440
REMARK SMILES CS(=O)(=O)N1CCC[C@@H]1C(=O)N1CCC[C@@H]1C(=O)OCCOCCOCCOC(=O)c1ccc(-c2c3nc(c(-c4cc(S(=O)(=O)[O-])ccc4F)c4ccc([nH]4)c(-c4cc(S(=O)(=O)[O-])ccc4F)c4nc(c(-c5cc(S(=O)(=O)[O-])ccc5F)c5ccc2[nH]5)C=C4)C=C3)cc1
REMARK SMILES IDX 23 1 22 2 21 3 20 4 19 5 17 6 18 7 16 8 12 9 13 10 14 11
REMARK SMILES IDX 15 12 10 13 11 14 9 15 5 16 6 17 7 18 8 19 2 20 1 21 3 22
REMARK SMILES IDX 4 23 24 24 25 25 26 26 27 27 28 28 29 29 30 30 31 31 32 32
REMARK SMILES IDX 93 33 33 34 92 35 34 36 35 37 36 38 86 39 37 40 91 41 85 42
REMARK SMILES IDX 87 43 38 44 90 45 84 46 83 47 39 49 71 50 51 51 70 52 52 53
REMARK SMILES IDX 55 54 69 55 88 56 53 57 54 58 68 60 89 61 56 62 40 63 41 64
REMARK SMILES IDX 49 65 42 66 48 67 50 68 47 69 43 70 44 71 45 72 46 73 72 74
REMARK SMILES IDX 73 75 81 76 74 77 80 78 82 79 79 80 75 81 76 82 77 83 78 84
REMARK SMILES IDX 57 85 58 86 66 87 59 88 65 89 67 90 64 91 60 92 61 93 62 94
REMARK SMILES IDX 63 95
REMARK H PARENT 87 48 55 59
REMARK Flexibility Score: inf
ROOT
ATOM      1  C   UNL A   1      35.508  31.813  28.179  1.00  0.00     0.188 C 
ENDROOT
BRANCH   1   2
ATOM      2  O   UNL A   1      34.966  30.825  27.319  1.00  0.00    -0.376 OA
BRANCH   2   3
ATOM      3  C   UNL A   1      33.553  30.671  27.345  1.00  0.00     0.202 C 
BRANCH   3   4
ATOM      4  C   UNL A   1      32.871  29.813  26.270  1.00  0.00     0.261 C 
BRANCH   4   5
ATOM      5  O   UNL A   1      33.717  29.399  25.160  1.00  0.00    -0.462 OA
BRANCH   5   6
ATOM      6  C   UNL A   1      33.142  28.614  24.201  1.00  0.00     0.328 C 
ATOM      7  O   UNL A   1      33.709  28.323  23.150  1.00  0.00    -0.250 OA
BRANCH   6   8
ATOM      8  C   UNL A   1      31.698  28.111  24.510  1.00  0.00     0.195 C 
ATOM      9  N   UNL A   1      31.456  26.665  24.614  1.00  0.00    -0.327 N 
ATOM     10  C   UNL A   1      30.018  26.492  24.656  1.00  0.00     0.120 C 
ATOM     11  C   UNL A   1      29.519  27.427  23.581  1.00  0.00     0.024 C 
ATOM     12  C   UNL A   1      30.553  28.557  23.572  1.00  0.00     0.039 C 
BRANCH   9  13
ATOM     13  C   UNL A   1      32.307  25.849  25.323  1.00  0.00     0.241 C 
ATOM     14  O   UNL A   1      32.154  25.670  26.532  1.00  0.00    -0.273 OA
BRANCH  13  15
ATOM     15  C   UNL A   1      33.473  25.169  24.561  1.00  0.00     0.162 C 
ATOM     16  N   UNL A   1      33.410  23.713  24.104  1.00  0.00    -0.190 NA
ATOM     17  C   UNL A   1      34.590  23.002  24.622  1.00  0.00     0.103 C 
ATOM     18  C   UNL A   1      35.096  23.858  25.760  1.00  0.00     0.019 C 
ATOM     19  C   UNL A   1      34.817  25.272  25.284  1.00  0.00     0.032 C 
BRANCH  16  20
ATOM     20  S   UNL A   1      31.924  22.977  24.244  1.00  0.00     0.211 S 
ATOM     21  C   UNL A   1      32.111  21.283  23.755  1.00  0.00     0.176 C 
ATOM     22  O   UNL A   1      31.105  23.609  23.242  1.00  0.00    -0.212 OA
ATOM     23  O   UNL A   1      31.601  22.948  25.658  1.00  0.00    -0.212 OA
ENDBRANCH  16  20
ENDBRANCH  13  15
ENDBRANCH   9  13
ENDBRANCH   6   8
ENDBRANCH   5   6
ENDBRANCH   4   5
ENDBRANCH   3   4
ENDBRANCH   2   3
ENDBRANCH   1   2
BRANCH   1  24
ATOM     24  C   UNL A   1      34.504  32.644  28.989  1.00  0.00     0.188 C 
BRANCH  24  25
ATOM     25  O   UNL A   1      34.387  33.998  28.618  1.00  0.00    -0.376 OA
BRANCH  25  26
ATOM     26  C   UNL A   1      33.110  34.611  28.614  1.00  0.00     0.202 C 
BRANCH  26  27
ATOM     27  C   UNL A   1      32.741  35.896  29.391  1.00  0.00     0.261 C 
BRANCH  27  28
ATOM     28  O   UNL A   1      33.424  36.180  30.616  1.00  0.00    -0.460 OA
BRANCH  28  29
ATOM     29  C   UNL A   1      33.160  35.385  31.688  1.00  0.00     0.338 C 
ATOM     30  O   UNL A   1      32.059  35.077  32.106  1.00  0.00    -0.246 OA
BRANCH  29  31
ATOM     31  C   UNL A   1      34.438  34.711  32.046  1.00  0.00     0.060 A 
ATOM     32  C   UNL A   1      34.393  33.483  32.732  1.00  0.00     0.016 A 
ATOM     33  C   UNL A   1      35.657  35.207  31.583  1.00  0.00     0.016 A 
ATOM     34  C   UNL A   1      35.564  32.751  32.952  1.00  0.00     0.010 A 
ATOM     35  C   UNL A   1      36.833  34.496  31.842  1.00  0.00     0.010 A 
ATOM     36  C   UNL A   1      36.797  33.278  32.546  1.00  0.00    -0.014 A 
BRANCH  36  37
ATOM     37  C   UNL A   1      38.062  32.726  33.095  1.00  0.00     0.031 A 
ATOM     38  C   UNL A   1      38.685  31.580  32.344  1.00  0.00     0.074 A 
ATOM     39  C   UNL A   1      38.634  33.189  34.221  1.00  0.00     0.049 A 
ATOM     40  N   UNL A   1      39.687  30.811  32.673  1.00  0.00    -0.248 NA
ATOM     41  C   UNL A   1      38.072  31.254  31.045  1.00  0.00     0.031 C 
ATOM     42  C   UNL A   1      38.171  34.335  35.002  1.00  0.00     0.029 A 
ATOM     43  N   UNL A   1      39.728  32.730  34.917  1.00  0.00    -0.354 N 
ATOM     44  C   UNL A   1      39.814  29.898  31.632  1.00  0.00     0.074 A 
ATOM     45  C   UNL A   1      38.770  30.192  30.676  1.00  0.00     0.031 C 
ATOM     46  C   UNL A   1      38.962  34.472  36.083  1.00  0.00     0.029 A 
ATOM     47  C   UNL A   1      39.953  33.396  36.101  1.00  0.00     0.049 A 
ATOM     48  H   UNL A   1      40.298  31.993  34.598  1.00  0.00     0.167 HD
ATOM     49  C   UNL A   1      40.720  28.902  31.487  1.00  0.00     0.034 A 
ATOM     50  C   UNL A   1      40.829  33.137  37.098  1.00  0.00     0.034 A 
ATOM     51  C   UNL A   1      41.742  28.608  32.457  1.00  0.00     0.049 A 
ATOM     52  C   UNL A   1      41.762  31.950  36.966  1.00  0.00     0.074 A 
ATOM     53  C   UNL A   1      42.719  27.630  32.406  1.00  0.00     0.029 A 
ATOM     54  N   UNL A   1      41.913  29.279  33.662  1.00  0.00    -0.354 N 
ATOM     55  N   UNL A   1      41.877  31.089  35.979  1.00  0.00    -0.248 NA
ATOM     56  C   UNL A   1      42.685  31.698  38.083  1.00  0.00     0.031 C 
ATOM     57  C   UNL A   1      43.419  27.649  33.615  1.00  0.00     0.029 A 
ATOM     58  C   UNL A   1      42.951  28.707  34.379  1.00  0.00     0.049 A 
ATOM     59  H   UNL A   1      41.374  30.047  33.962  1.00  0.00     0.167 HD
ATOM     60  C   UNL A   1      42.910  30.225  36.341  1.00  0.00     0.074 A 
ATOM     61  C   UNL A   1      43.390  30.671  37.631  1.00  0.00     0.031 C 
ATOM     62  C   UNL A   1      43.423  29.165  35.665  1.00  0.00     0.034 A 
BRANCH  49  63
ATOM     63  C   UNL A   1      40.593  28.020  30.270  1.00  0.00     0.023 A 
ATOM     64  C   UNL A   1      41.501  28.095  29.199  1.00  0.00     0.031 A 
ATOM     65  C   UNL A   1      39.530  27.105  30.171  1.00  0.00     0.131 A 
ATOM     66  C   UNL A   1      41.290  27.320  28.049  1.00  0.00     0.055 A 
ATOM     67  C   UNL A   1      39.375  26.275  29.060  1.00  0.00     0.041 A 
ATOM     68  F   UNL A   1      38.614  27.012  31.148  1.00  0.00    -0.206 F 
ATOM     69  C   UNL A   1      40.251  26.388  27.985  1.00  0.00     0.022 A 
BRANCH  66  70
ATOM     70  S   UNL A   1      42.308  27.647  26.584  1.00  0.00     0.124 S 
ATOM     71  O   UNL A   1      42.689  29.041  26.794  1.00  0.00    -0.237 OA
ATOM     72  O   UNL A   1      43.378  26.665  26.717  1.00  0.00    -0.237 OA
ATOM     73  O   UNL A   1      41.388  27.421  25.471  1.00  0.00    -0.744 OA
ENDBRANCH  66  70
ENDBRANCH  49  63
BRANCH  50  74
ATOM     74  C   UNL A   1      40.839  33.963  38.344  1.00  0.00     0.023 A 
ATOM     75  C   UNL A   1      41.708  35.057  38.488  1.00  0.00     0.031 A 
ATOM     76  C   UNL A   1      40.041  33.613  39.449  1.00  0.00     0.131 A 
ATOM     77  C   UNL A   1      41.801  35.725  39.720  1.00  0.00     0.055 A 
ATOM     78  C   UNL A   1      40.086  34.324  40.651  1.00  0.00     0.041 A 
ATOM     79  F   UNL A   1      39.206  32.565  39.379  1.00  0.00    -0.206 F 
ATOM     80  C   UNL A   1      40.982  35.378  40.797  1.00  0.00     0.022 A 
BRANCH  77  81
ATOM     81  S   UNL A   1      43.098  36.977  39.938  1.00  0.00     0.124 S 
ATOM     82  O   UNL A   1      43.884  36.802  38.722  1.00  0.00    -0.237 OA
ATOM     83  O   UNL A   1      42.321  38.209  40.028  1.00  0.00    -0.237 OA
ATOM     84  O   UNL A   1      43.762  36.569  41.174  1.00  0.00    -0.744 OA
ENDBRANCH  77  81
ENDBRANCH  50  74
BRANCH  62  85
ATOM     85  C   UNL A   1      44.610  28.451  36.272  1.00  0.00     0.023 A 
ATOM     86  C   UNL A   1      44.468  27.475  37.273  1.00  0.00     0.031 A 
ATOM     87  C   UNL A   1      45.910  28.744  35.816  1.00  0.00     0.131 A 
ATOM     88  C   UNL A   1      45.607  26.862  37.818  1.00  0.00     0.055 A 
ATOM     89  C   UNL A   1      47.032  28.082  36.313  1.00  0.00     0.041 A 
ATOM     90  F   UNL A   1      46.107  29.669  34.863  1.00  0.00    -0.206 F 
ATOM     91  C   UNL A   1      46.886  27.144  37.329  1.00  0.00     0.022 A 
BRANCH  88  92
ATOM     92  S   UNL A   1      45.409  25.750  39.237  1.00  0.00     0.124 S 
ATOM     93  O   UNL A   1      44.353  26.411  39.996  1.00  0.00    -0.237 OA
ATOM     94  O   UNL A   1      45.042  24.490  38.599  1.00  0.00    -0.237 OA
ATOM     95  O   UNL A   1      46.726  25.761  39.870  1.00  0.00    -0.744 OA
ENDBRANCH  88  92
ENDBRANCH  62  85
ENDBRANCH  36  37
ENDBRANCH  29  31
ENDBRANCH  28  29
ENDBRANCH  27  28
ENDBRANCH  26  27
ENDBRANCH  25  26
ENDBRANCH  24  25
ENDBRANCH   1  24
TORSDOF 23
ENDMDL
MODEL 3
REMARK VINA RESULT:      -9.0      5.233      8.921
REMARK SMILES CS(=O)(=O)N1CCC[C@@H]1C(=O)N1CCC[C@@H]1C(=O)OCCOCCOCCOC(=O)c1ccc(-c2c3nc(c(-c4cc(S(=O)(=O)[O-])ccc4F)c4ccc([nH]4)c(-c4cc(S(=O)(=O)[O-])ccc4F)c4nc(c(-c5cc(S(=O)(=O)[O-])ccc5F)c5ccc2[nH]5)C=C4)C=C3)cc1
REMARK SMILES IDX 23 1 22 2 21 3 20 4 19 5 17 6 18 7 16 8 12 9 13 10 14 11
REMARK SMILES IDX 15 12 10 13 11 14 9 15 5 16 6 17 7 18 8 19 2 20 1 21 3 22
REMARK SMILES IDX 4 23 24 24 25 25 26 26 27 27 28 28 29 29 30 30 31 31 32 32
REMARK SMILES IDX 93 33 33 34 92 35 34 36 35 37 36 38 86 39 37 40 91 41 85 42
REMARK SMILES IDX 87 43 38 44 90 45 84 46 83 47 39 49 71 50 51 51 70 52 52 53
REMARK SMILES IDX 55 54 69 55 88 56 53 57 54 58 68 60 89 61 56 62 40 63 41 64
REMARK SMILES IDX 49 65 42 66 48 67 50 68 47 69 43 70 44 71 45 72 46 73 72 74
REMARK SMILES IDX 73 75 81 76 74 77 80 78 82 79 79 80 75 81 76 82 77 83 78 84
REMARK SMILES IDX 57 85 58 86 66 87 59 88 65 89 67 90 64 91 60 92 61 93 62 94
REMARK SMILES IDX 63 95
REMARK H PARENT 87 48 55 59
REMARK Flexibility Score: inf
ROOT
ATOM      1  C   UNL A   1      39.929  24.356  27.300  1.00  0.00     0.188 C 
ENDROOT
BRANCH   1   2
ATOM      2  O   UNL A   1      39.258  25.025  28.355  1.00  0.00    -0.376 OA
BRANCH   2   3
ATOM      3  C   UNL A   1      39.791  26.285  28.744  1.00  0.00     0.202 C 
BRANCH   3   4
ATOM      4  C   UNL A   1      39.294  27.558  28.043  1.00  0.00     0.261 C 
BRANCH   4   5
ATOM      5  O   UNL A   1      38.718  28.575  28.911  1.00  0.00    -0.462 OA
BRANCH   5   6
ATOM      6  C   UNL A   1      39.572  29.231  29.750  1.00  0.00     0.328 C 
ATOM      7  O   UNL A   1      40.613  29.757  29.364  1.00  0.00    -0.250 OA
BRANCH   6   8
ATOM      8  C   UNL A   1      39.156  29.265  31.254  1.00  0.00     0.195 C 
ATOM      9  N   UNL A   1      38.359  30.397  31.745  1.00  0.00    -0.327 N 
ATOM     10  C   UNL A   1      38.337  30.287  33.190  1.00  0.00     0.120 C 
ATOM     11  C   UNL A   1      39.768  29.957  33.539  1.00  0.00     0.024 C 
ATOM     12  C   UNL A   1      40.269  29.174  32.322  1.00  0.00     0.039 C 
BRANCH   9  13
ATOM     13  C   UNL A   1      37.277  30.869  31.037  1.00  0.00     0.241 C 
ATOM     14  O   UNL A   1      36.224  30.231  30.985  1.00  0.00    -0.273 OA
BRANCH  13  15
ATOM     15  C   UNL A   1      37.424  32.221  30.292  1.00  0.00     0.162 C 
ATOM     16  N   UNL A   1      36.536  33.423  30.603  1.00  0.00    -0.190 NA
ATOM     17  C   UNL A   1      35.911  33.886  29.353  1.00  0.00     0.103 C 
ATOM     18  C   UNL A   1      36.018  32.716  28.403  1.00  0.00     0.019 C 
ATOM     19  C   UNL A   1      37.352  32.090  28.771  1.00  0.00     0.032 C 
BRANCH  16  20
ATOM     20  S   UNL A   1      35.577  33.282  31.956  1.00  0.00     0.211 S 
ATOM     21  C   UNL A   1      34.908  34.885  32.314  1.00  0.00     0.176 C 
ATOM     22  O   UNL A   1      36.491  32.967  33.023  1.00  0.00    -0.212 OA
ATOM     23  O   UNL A   1      34.445  32.454  31.584  1.00  0.00    -0.212 OA
ENDBRANCH  16  20
ENDBRANCH  13  15
ENDBRANCH   9  13
ENDBRANCH   6   8
ENDBRANCH   5   6
ENDBRANCH   4   5
ENDBRANCH   3   4
ENDBRANCH   2   3
ENDBRANCH   1   2
BRANCH   1  24
ATOM     24  C   UNL A   1      40.412  22.928  27.590  1.00  0.00     0.188 C 
BRANCH  24  25
ATOM     25  O   UNL A   1      41.793  22.783  27.829  1.00  0.00    -0.376 OA
BRANCH  25  26
ATOM     26  C   UNL A   1      42.581  22.034  26.922  1.00  0.00     0.202 C 
BRANCH  26  27
ATOM     27  C   UNL A   1      42.785  22.381  25.429  1.00  0.00     0.261 C 
BRANCH  27  28
ATOM     28  O   UNL A   1      42.940  23.754  25.056  1.00  0.00    -0.460 OA
BRANCH  28  29
ATOM     29  C   UNL A   1      44.198  24.271  25.055  1.00  0.00     0.338 C 
ATOM     30  O   UNL A   1      45.082  24.023  24.257  1.00  0.00    -0.246 OA
BRANCH  29  31
ATOM     31  C   UNL A   1      44.187  25.422  26.000  1.00  0.00     0.060 A 
ATOM     32  C   UNL A   1      45.412  25.933  26.467  1.00  0.00     0.016 A 
ATOM     33  C   UNL A   1      42.995  26.080  26.304  1.00  0.00     0.016 A 
ATOM     34  C   UNL A   1      45.446  27.102  27.233  1.00  0.00     0.010 A 
ATOM     35  C   UNL A   1      43.025  27.223  27.108  1.00  0.00     0.010 A 
ATOM     36  C   UNL A   1      44.246  27.728  27.596  1.00  0.00    -0.014 A 
BRANCH  36  37
ATOM     37  C   UNL A   1      44.225  28.719  28.702  1.00  0.00     0.031 A 
ATOM     38  C   UNL A   1      44.083  28.175  30.098  1.00  0.00     0.074 A 
ATOM     39  C   UNL A   1      44.299  30.047  28.496  1.00  0.00     0.049 A 
ATOM     40  N   UNL A   1      43.879  28.803  31.224  1.00  0.00    -0.248 NA
ATOM     41  C   UNL A   1      44.169  26.711  30.229  1.00  0.00     0.031 C 
ATOM     42  C   UNL A   1      44.507  30.697  27.204  1.00  0.00     0.029 A 
ATOM     43  N   UNL A   1      44.185  31.092  29.383  1.00  0.00    -0.354 N 
ATOM     44  C   UNL A   1      43.794  27.812  32.195  1.00  0.00     0.074 A 
ATOM     45  C   UNL A   1      43.940  26.542  31.521  1.00  0.00     0.031 C 
ATOM     46  C   UNL A   1      44.481  32.032  27.380  1.00  0.00     0.029 A 
ATOM     47  C   UNL A   1      44.202  32.332  28.784  1.00  0.00     0.049 A 
ATOM     48  H   UNL A   1      44.100  30.965  30.355  1.00  0.00     0.167 HD
ATOM     49  C   UNL A   1      43.608  27.949  33.529  1.00  0.00     0.034 A 
ATOM     50  C   UNL A   1      43.976  33.559  29.307  1.00  0.00     0.034 A 
ATOM     51  C   UNL A   1      43.444  29.222  34.183  1.00  0.00     0.049 A 
ATOM     52  C   UNL A   1      43.661  33.681  30.784  1.00  0.00     0.074 A 
ATOM     53  C   UNL A   1      43.261  29.477  35.530  1.00  0.00     0.029 A 
ATOM     54  N   UNL A   1      43.426  30.452  33.539  1.00  0.00    -0.354 N 
ATOM     55  N   UNL A   1      43.581  32.739  31.698  1.00  0.00    -0.248 NA
ATOM     56  C   UNL A   1      43.406  35.033  31.303  1.00  0.00     0.031 C 
ATOM     57  C   UNL A   1      43.043  30.848  35.688  1.00  0.00     0.029 A 
ATOM     58  C   UNL A   1      43.194  31.464  34.456  1.00  0.00     0.049 A 
ATOM     59  H   UNL A   1      43.559  30.585  32.572  1.00  0.00     0.167 HD
ATOM     60  C   UNL A   1      43.309  33.392  32.900  1.00  0.00     0.074 A 
ATOM     61  C   UNL A   1      43.246  34.806  32.598  1.00  0.00     0.031 C 
ATOM     62  C   UNL A   1      43.136  32.872  34.142  1.00  0.00     0.034 A 
BRANCH  49  63
ATOM     63  C   UNL A   1      43.503  26.688  34.348  1.00  0.00     0.023 A 
ATOM     64  C   UNL A   1      44.637  25.946  34.722  1.00  0.00     0.031 A 
ATOM     65  C   UNL A   1      42.241  26.207  34.742  1.00  0.00     0.131 A 
ATOM     66  C   UNL A   1      44.484  24.731  35.406  1.00  0.00     0.055 A 
ATOM     67  C   UNL A   1      42.101  25.042  35.496  1.00  0.00     0.041 A 
ATOM     68  F   UNL A   1      41.121  26.855  34.386  1.00  0.00    -0.206 F 
ATOM     69  C   UNL A   1      43.225  24.290  35.823  1.00  0.00     0.022 A 
BRANCH  66  70
ATOM     70  S   UNL A   1      45.936  23.666  35.620  1.00  0.00     0.124 S 
ATOM     71  O   UNL A   1      46.641  23.871  34.357  1.00  0.00    -0.237 OA
ATOM     72  O   UNL A   1      46.571  24.232  36.804  1.00  0.00    -0.237 OA
ATOM     73  O   UNL A   1      45.361  22.335  35.795  1.00  0.00    -0.744 OA
ENDBRANCH  66  70
ENDBRANCH  49  63
BRANCH  50  74
ATOM     74  C   UNL A   1      43.969  34.774  28.436  1.00  0.00     0.023 A 
ATOM     75  C   UNL A   1      45.162  35.421  28.074  1.00  0.00     0.031 A 
ATOM     76  C   UNL A   1      42.758  35.361  28.025  1.00  0.00     0.131 A 
ATOM     77  C   UNL A   1      45.119  36.640  27.378  1.00  0.00     0.055 A 
ATOM     78  C   UNL A   1      42.721  36.538  27.273  1.00  0.00     0.041 A 
ATOM     79  F   UNL A   1      41.584  34.800  28.356  1.00  0.00    -0.206 F 
ATOM     80  C   UNL A   1      43.907  37.194  26.959  1.00  0.00     0.022 A 
BRANCH  77  81
ATOM     81  S   UNL A   1      46.665  37.561  27.136  1.00  0.00     0.124 S 
ATOM     82  O   UNL A   1      46.258  38.918  27.485  1.00  0.00    -0.237 OA
ATOM     83  O   UNL A   1      47.565  36.900  28.074  1.00  0.00    -0.237 OA
ATOM     84  O   UNL A   1      46.972  37.347  25.723  1.00  0.00    -0.744 OA
ENDBRANCH  77  81
ENDBRANCH  50  74
BRANCH  62  85
ATOM     85  C   UNL A   1      42.931  33.839  35.287  1.00  0.00     0.023 A 
ATOM     86  C   UNL A   1      41.660  34.321  35.643  1.00  0.00     0.031 A 
ATOM     87  C   UNL A   1      44.036  34.264  36.049  1.00  0.00     0.131 A 
ATOM     88  C   UNL A   1      41.531  35.237  36.700  1.00  0.00     0.055 A 
ATOM     89  C   UNL A   1      43.893  35.120  37.141  1.00  0.00     0.041 A 
ATOM     90  F   UNL A   1      45.275  33.839  35.754  1.00  0.00    -0.206 F 
ATOM     91  C   UNL A   1      42.636  35.622  37.464  1.00  0.00     0.022 A 
BRANCH  88  92
ATOM     92  S   UNL A   1      39.911  35.988  37.014  1.00  0.00     0.124 S 
ATOM     93  O   UNL A   1      39.090  34.822  37.321  1.00  0.00    -0.237 OA
ATOM     94  O   UNL A   1      40.191  36.882  38.132  1.00  0.00    -0.237 OA
ATOM     95  O   UNL A   1      39.591  36.657  35.754  1.00  0.00    -0.744 OA
ENDBRANCH  88  92
ENDBRANCH  62  85
ENDBRANCH  36  37
ENDBRANCH  29  31
ENDBRANCH  28  29
ENDBRANCH  27  28
ENDBRANCH  26  27
ENDBRANCH  25  26
ENDBRANCH  24  25
ENDBRANCH   1  24
TORSDOF 23
ENDMDL
