MODEL 1
REMARK VINA RESULT:     -11.2      0.000      0.000
REMARK SMILES O=C(OCCOCCOCCOC(=O)[C@@H]1CN(c2nccc(N3CCC(O)CC3)n2)CC[NH2+]1)c1ccc(-c2c3nc(c(-c4cc(S(=O)(=O)[O-])ccc4F)c4ccc([nH]4)c(-c4cc(S(=O)(=O)[O-])ccc4F)c4nc(c(-c5cc(S(=O)(=O)[O-])ccc5F)c5ccc2[nH]5)C=C4)C=C3)cc1
REMARK SMILES IDX 7 1 6 2 5 3 4 4 3 5 2 6 1 7 34 8 35 9 96 10 36 11 95 12
REMARK SMILES IDX 37 13 38 14 39 15 89 16 40 17 94 18 88 19 90 20 41 21 93 22
REMARK SMILES IDX 87 23 86 24 42 26 74 27 54 28 73 29 55 30 58 31 72 32 91 33
REMARK SMILES IDX 56 34 57 35 71 37 92 38 59 39 43 40 44 41 52 42 45 43 51 44
REMARK SMILES IDX 53 45 50 46 46 47 47 48 48 49 49 50 75 51 76 52 84 53 77 54
REMARK SMILES IDX 83 55 85 56 82 57 78 58 79 59 80 60 81 61 60 62 61 63 69 64
REMARK SMILES IDX 62 65 68 66 70 67 67 68 63 69 64 70 65 71 66 72 8 73 9 74
REMARK SMILES IDX 10 75 11 76 12 77 13 78 14 79 15 80 16 81 33 82 17 83 32 84
REMARK SMILES IDX 31 87 18 88 19 89 30 90 20 91 22 92 21 93 23 94 24 95 29 96
REMARK SMILES IDX 25 97 28 98 26 99 27 100
REMARK H PARENT 90 25 58 36 33 85 33 86 27 101
REMARK Flexibility Score: inf
ROOT
ATOM      1  C   UNL A   1      35.367  23.307  23.069  1.00  0.00     0.188 C 
ENDROOT
BRANCH   1   2
ATOM      2  O   UNL A   1      36.192  22.261  23.596  1.00  0.00    -0.376 OA
BRANCH   2   3
ATOM      3  C   UNL A   1      36.879  22.598  24.803  1.00  0.00     0.202 C 
BRANCH   3   4
ATOM      4  C   UNL A   1      37.632  21.440  25.468  1.00  0.00     0.261 C 
BRANCH   4   5
ATOM      5  O   UNL A   1      39.044  21.695  25.558  1.00  0.00    -0.460 OA
BRANCH   5   6
ATOM      6  C   UNL A   1      39.714  21.988  26.702  1.00  0.00     0.338 C 
ATOM      7  O   UNL A   1      40.237  21.090  27.357  1.00  0.00    -0.246 OA
BRANCH   6   8
ATOM      8  C   UNL A   1      39.911  23.395  27.125  1.00  0.00     0.060 A 
ATOM      9  C   UNL A   1      39.097  24.455  26.720  1.00  0.00     0.016 A 
ATOM     10  C   UNL A   1      40.954  23.650  28.010  1.00  0.00     0.016 A 
ATOM     11  C   UNL A   1      39.406  25.770  27.068  1.00  0.00     0.010 A 
ATOM     12  C   UNL A   1      41.195  24.956  28.443  1.00  0.00     0.010 A 
ATOM     13  C   UNL A   1      40.452  26.042  27.950  1.00  0.00    -0.014 A 
BRANCH  13  14
ATOM     14  C   UNL A   1      40.846  27.443  28.284  1.00  0.00     0.031 A 
ATOM     15  C   UNL A   1      42.227  27.915  27.900  1.00  0.00     0.074 A 
ATOM     16  C   UNL A   1      40.008  28.285  28.923  1.00  0.00     0.049 A 
ATOM     17  N   UNL A   1      42.902  28.953  28.315  1.00  0.00    -0.248 NA
ATOM     18  C   UNL A   1      42.981  27.041  26.990  1.00  0.00     0.031 C 
ATOM     19  C   UNL A   1      38.647  27.968  29.363  1.00  0.00     0.029 A 
ATOM     20  N   UNL A   1      40.169  29.598  29.291  1.00  0.00    -0.354 N 
ATOM     21  C   UNL A   1      44.195  28.780  27.824  1.00  0.00     0.074 A 
ATOM     22  C   UNL A   1      44.208  27.512  27.129  1.00  0.00     0.031 C 
ATOM     23  C   UNL A   1      38.069  29.078  29.849  1.00  0.00     0.029 A 
ATOM     24  C   UNL A   1      39.043  30.161  29.850  1.00  0.00     0.049 A 
ATOM     25  H   UNL A   1      41.011  30.092  29.166  1.00  0.00     0.167 HD
ATOM     26  C   UNL A   1      45.261  29.613  27.928  1.00  0.00     0.034 A 
ATOM     27  C   UNL A   1      38.833  31.407  30.320  1.00  0.00     0.034 A 
ATOM     28  C   UNL A   1      45.162  30.936  28.495  1.00  0.00     0.049 A 
ATOM     29  C   UNL A   1      39.988  32.378  30.292  1.00  0.00     0.074 A 
ATOM     30  C   UNL A   1      46.142  31.903  28.632  1.00  0.00     0.029 A 
ATOM     31  N   UNL A   1      43.981  31.497  28.968  1.00  0.00    -0.354 N 
ATOM     32  N   UNL A   1      41.227  32.175  29.902  1.00  0.00    -0.248 NA
ATOM     33  C   UNL A   1      39.722  33.740  30.768  1.00  0.00     0.031 C 
ATOM     34  C   UNL A   1      45.553  33.043  29.195  1.00  0.00     0.029 A 
ATOM     35  C   UNL A   1      44.199  32.804  29.368  1.00  0.00     0.049 A 
ATOM     36  H   UNL A   1      43.114  31.032  29.012  1.00  0.00     0.167 HD
ATOM     37  C   UNL A   1      41.880  33.391  30.065  1.00  0.00     0.074 A 
ATOM     38  C   UNL A   1      40.891  34.328  30.563  1.00  0.00     0.031 C 
ATOM     39  C   UNL A   1      43.180  33.711  29.837  1.00  0.00     0.034 A 
BRANCH  26  40
ATOM     40  C   UNL A   1      46.597  29.090  27.449  1.00  0.00     0.023 A 
ATOM     41  C   UNL A   1      46.847  28.814  26.092  1.00  0.00     0.031 A 
ATOM     42  C   UNL A   1      47.595  28.738  28.377  1.00  0.00     0.131 A 
ATOM     43  C   UNL A   1      47.977  28.068  25.726  1.00  0.00     0.055 A 
ATOM     44  C   UNL A   1      48.778  28.105  27.987  1.00  0.00     0.041 A 
ATOM     45  F   UNL A   1      47.419  28.962  29.689  1.00  0.00    -0.206 F 
ATOM     46  C   UNL A   1      48.961  27.737  26.658  1.00  0.00     0.022 A 
BRANCH  43  47
ATOM     47  S   UNL A   1      48.016  27.347  24.060  1.00  0.00     0.124 S 
ATOM     48  O   UNL A   1      47.414  28.422  23.266  1.00  0.00    -0.237 OA
ATOM     49  O   UNL A   1      49.428  27.110  23.844  1.00  0.00    -0.237 OA
ATOM     50  O   UNL A   1      47.184  26.145  24.190  1.00  0.00    -0.744 OA
ENDBRANCH  43  47
ENDBRANCH  26  40
BRANCH  27  51
ATOM     51  C   UNL A   1      37.498  31.817  30.849  1.00  0.00     0.023 A 
ATOM     52  C   UNL A   1      36.558  32.450  30.018  1.00  0.00     0.031 A 
ATOM     53  C   UNL A   1      37.149  31.619  32.197  1.00  0.00     0.131 A 
ATOM     54  C   UNL A   1      35.340  32.905  30.548  1.00  0.00     0.055 A 
ATOM     55  C   UNL A   1      35.914  32.026  32.709  1.00  0.00     0.041 A 
ATOM     56  F   UNL A   1      38.002  31.015  33.039  1.00  0.00    -0.206 F 
ATOM     57  C   UNL A   1      35.007  32.687  31.886  1.00  0.00     0.022 A 
BRANCH  54  58
ATOM     58  S   UNL A   1      34.234  33.871  29.483  1.00  0.00     0.124 S 
ATOM     59  O   UNL A   1      35.167  34.786  28.834  1.00  0.00    -0.237 OA
ATOM     60  O   UNL A   1      33.655  32.837  28.632  1.00  0.00    -0.237 OA
ATOM     61  O   UNL A   1      33.307  34.492  30.427  1.00  0.00    -0.744 OA
ENDBRANCH  54  58
ENDBRANCH  27  51
BRANCH  39  62
ATOM     62  C   UNL A   1      43.569  35.148  30.061  1.00  0.00     0.023 A 
ATOM     63  C   UNL A   1      43.535  36.090  29.021  1.00  0.00     0.031 A 
ATOM     64  C   UNL A   1      43.993  35.569  31.333  1.00  0.00     0.131 A 
ATOM     65  C   UNL A   1      43.974  37.400  29.257  1.00  0.00     0.055 A 
ATOM     66  C   UNL A   1      44.380  36.886  31.574  1.00  0.00     0.041 A 
ATOM     67  F   UNL A   1      44.042  34.703  32.358  1.00  0.00    -0.206 F 
ATOM     68  C   UNL A   1      44.383  37.808  30.530  1.00  0.00     0.022 A 
BRANCH  65  69
ATOM     69  S   UNL A   1      44.080  38.546  27.856  1.00  0.00     0.124 S 
ATOM     70  O   UNL A   1      45.516  38.793  27.773  1.00  0.00    -0.237 OA
ATOM     71  O   UNL A   1      43.504  37.762  26.769  1.00  0.00    -0.237 OA
ATOM     72  O   UNL A   1      43.279  39.689  28.287  1.00  0.00    -0.744 OA
ENDBRANCH  65  69
ENDBRANCH  39  62
ENDBRANCH  13  14
ENDBRANCH   6   8
ENDBRANCH   5   6
ENDBRANCH   4   5
ENDBRANCH   3   4
ENDBRANCH   2   3
ENDBRANCH   1   2
BRANCH   1  73
ATOM     73  C   UNL A   1      33.926  22.818  22.911  1.00  0.00     0.188 C 
BRANCH  73  74
ATOM     74  O   UNL A   1      32.924  23.786  23.232  1.00  0.00    -0.376 OA
BRANCH  74  75
ATOM     75  C   UNL A   1      31.566  23.386  23.057  1.00  0.00     0.202 C 
BRANCH  75  76
ATOM     76  C   UNL A   1      30.677  23.436  24.304  1.00  0.00     0.261 C 
BRANCH  76  77
ATOM     77  O   UNL A   1      31.187  22.724  25.446  1.00  0.00    -0.459 OA
BRANCH  77  78
ATOM     78  C   UNL A   1      31.011  23.349  26.645  1.00  0.00     0.366 C 
ATOM     79  O   UNL A   1      30.062  23.157  27.403  1.00  0.00    -0.245 OA
BRANCH  78  80
ATOM     80  C   UNL A   1      32.083  24.413  26.915  1.00  0.00     0.313 C 
ATOM     81  C   UNL A   1      31.545  25.798  26.435  1.00  0.00     0.197 C 
ATOM     82  N   UNL A   1      33.323  23.924  26.224  1.00  0.00    -0.332 N 
ATOM     83  N   UNL A   1      32.638  26.752  26.219  1.00  0.00    -0.328 N 
ATOM     84  C   UNL A   1      34.323  25.001  26.140  1.00  0.00     0.283 C 
ATOM     85  H   UNL A   1      33.082  23.614  25.283  1.00  0.00     0.347 HD
ATOM     86  H   UNL A   1      33.715  23.149  26.759  1.00  0.00     0.347 HD
ATOM     87  C   UNL A   1      33.776  26.260  25.451  1.00  0.00     0.181 C 
BRANCH  83  88
ATOM     88  C   UNL A   1      32.292  28.063  25.951  1.00  0.00     0.227 A 
ATOM     89  N   UNL A   1      32.585  29.001  26.870  1.00  0.00    -0.221 NA
ATOM     90  N   UNL A   1      31.557  28.305  24.855  1.00  0.00    -0.196 NA
ATOM     91  C   UNL A   1      32.099  30.233  26.655  1.00  0.00     0.119 A 
ATOM     92  C   UNL A   1      31.065  29.546  24.680  1.00  0.00     0.134 A 
ATOM     93  C   UNL A   1      31.334  30.563  25.569  1.00  0.00     0.067 A 
BRANCH  92  94
ATOM     94  N   UNL A   1      30.186  29.789  23.648  1.00  0.00    -0.356 N 
ATOM     95  C   UNL A   1      29.780  28.738  22.733  1.00  0.00     0.121 C 
ATOM     96  C   UNL A   1      29.511  31.074  23.584  1.00  0.00     0.121 C 
ATOM     97  C   UNL A   1      28.274  28.510  22.843  1.00  0.00     0.053 C 
ATOM     98  C   UNL A   1      28.010  30.872  23.692  1.00  0.00     0.053 C 
ATOM     99  C   UNL A   1      27.500  29.819  22.708  1.00  0.00     0.118 C 
BRANCH  99 100
ATOM    100  O   UNL A   1      27.608  30.299  21.366  1.00  0.00    -0.393 OA
ATOM    101  H   UNL A   1      28.316  30.959  21.314  1.00  0.00     0.210 HD
ENDBRANCH  99 100
ENDBRANCH  92  94
ENDBRANCH  83  88
ENDBRANCH  78  80
ENDBRANCH  77  78
ENDBRANCH  76  77
ENDBRANCH  75  76
ENDBRANCH  74  75
ENDBRANCH  73  74
ENDBRANCH   1  73
TORSDOF 23
ENDMDL
MODEL 2
REMARK VINA RESULT:     -10.8      2.370      4.511
REMARK SMILES O=C(OCCOCCOCCOC(=O)[C@@H]1CN(c2nccc(N3CCC(O)CC3)n2)CC[NH2+]1)c1ccc(-c2c3nc(c(-c4cc(S(=O)(=O)[O-])ccc4F)c4ccc([nH]4)c(-c4cc(S(=O)(=O)[O-])ccc4F)c4nc(c(-c5cc(S(=O)(=O)[O-])ccc5F)c5ccc2[nH]5)C=C4)C=C3)cc1
REMARK SMILES IDX 7 1 6 2 5 3 4 4 3 5 2 6 1 7 34 8 35 9 96 10 36 11 95 12
REMARK SMILES IDX 37 13 38 14 39 15 89 16 40 17 94 18 88 19 90 20 41 21 93 22
REMARK SMILES IDX 87 23 86 24 42 26 74 27 54 28 73 29 55 30 58 31 72 32 91 33
REMARK SMILES IDX 56 34 57 35 71 37 92 38 59 39 43 40 44 41 52 42 45 43 51 44
REMARK SMILES IDX 53 45 50 46 46 47 47 48 48 49 49 50 75 51 76 52 84 53 77 54
REMARK SMILES IDX 83 55 85 56 82 57 78 58 79 59 80 60 81 61 60 62 61 63 69 64
REMARK SMILES IDX 62 65 68 66 70 67 67 68 63 69 64 70 65 71 66 72 8 73 9 74
REMARK SMILES IDX 10 75 11 76 12 77 13 78 14 79 15 80 16 81 33 82 17 83 32 84
REMARK SMILES IDX 31 87 18 88 19 89 30 90 20 91 22 92 21 93 23 94 24 95 29 96
REMARK SMILES IDX 25 97 28 98 26 99 27 100
REMARK H PARENT 90 25 58 36 33 85 33 86 27 101
REMARK Flexibility Score: inf
ROOT
ATOM      1  C   UNL A   1      35.163  23.656  24.417  1.00  0.00     0.188 C 
ENDROOT
BRANCH   1   2
ATOM      2  O   UNL A   1      36.573  23.552  24.185  1.00  0.00    -0.376 OA
BRANCH   2   3
ATOM      3  C   UNL A   1      37.081  22.216  24.208  1.00  0.00     0.202 C 
BRANCH   3   4
ATOM      4  C   UNL A   1      37.508  21.707  25.591  1.00  0.00     0.261 C 
BRANCH   4   5
ATOM      5  O   UNL A   1      38.889  21.309  25.617  1.00  0.00    -0.460 OA
BRANCH   5   6
ATOM      6  C   UNL A   1      39.761  21.579  26.622  1.00  0.00     0.338 C 
ATOM      7  O   UNL A   1      40.404  20.669  27.141  1.00  0.00    -0.246 OA
BRANCH   6   8
ATOM      8  C   UNL A   1      40.025  22.976  27.041  1.00  0.00     0.060 A 
ATOM      9  C   UNL A   1      39.324  24.083  26.559  1.00  0.00     0.016 A 
ATOM     10  C   UNL A   1      41.012  23.172  28.003  1.00  0.00     0.016 A 
ATOM     11  C   UNL A   1      39.699  25.379  26.914  1.00  0.00     0.010 A 
ATOM     12  C   UNL A   1      41.313  24.465  28.436  1.00  0.00     0.010 A 
ATOM     13  C   UNL A   1      40.691  25.592  27.872  1.00  0.00    -0.014 A 
BRANCH  13  14
ATOM     14  C   UNL A   1      41.158  26.967  28.219  1.00  0.00     0.031 A 
ATOM     15  C   UNL A   1      42.536  27.394  27.775  1.00  0.00     0.074 A 
ATOM     16  C   UNL A   1      40.387  27.825  28.920  1.00  0.00     0.049 A 
ATOM     17  N   UNL A   1      43.272  28.395  28.179  1.00  0.00    -0.248 NA
ATOM     18  C   UNL A   1      43.206  26.515  26.807  1.00  0.00     0.031 C 
ATOM     19  C   UNL A   1      39.039  27.551  29.422  1.00  0.00     0.029 A 
ATOM     20  N   UNL A   1      40.620  29.121  29.310  1.00  0.00    -0.354 N 
ATOM     21  C   UNL A   1      44.530  28.183  27.618  1.00  0.00     0.074 A 
ATOM     22  C   UNL A   1      44.457  26.933  26.893  1.00  0.00     0.031 C 
ATOM     23  C   UNL A   1      38.531  28.671  29.963  1.00  0.00     0.029 A 
ATOM     24  C   UNL A   1      39.548  29.714  29.938  1.00  0.00     0.049 A 
ATOM     25  H   UNL A   1      41.475  29.585  29.153  1.00  0.00     0.167 HD
ATOM     26  C   UNL A   1      45.633  28.971  27.687  1.00  0.00     0.034 A 
ATOM     27  C   UNL A   1      39.412  30.955  30.448  1.00  0.00     0.034 A 
ATOM     28  C   UNL A   1      45.617  30.281  28.288  1.00  0.00     0.049 A 
ATOM     29  C   UNL A   1      40.603  31.879  30.383  1.00  0.00     0.074 A 
ATOM     30  C   UNL A   1      46.641  31.205  28.397  1.00  0.00     0.029 A 
ATOM     31  N   UNL A   1      44.485  30.877  28.835  1.00  0.00    -0.354 N 
ATOM     32  N   UNL A   1      41.812  31.638  29.926  1.00  0.00    -0.248 NA
ATOM     33  C   UNL A   1      40.417  33.238  30.904  1.00  0.00     0.031 C 
ATOM     34  C   UNL A   1      46.128  32.353  29.017  1.00  0.00     0.029 A 
ATOM     35  C   UNL A   1      44.776  32.163  29.254  1.00  0.00     0.049 A 
ATOM     36  H   UNL A   1      43.604  30.445  28.913  1.00  0.00     0.167 HD
ATOM     37  C   UNL A   1      42.521  32.823  30.083  1.00  0.00     0.074 A 
ATOM     38  C   UNL A   1      41.598  33.785  30.653  1.00  0.00     0.031 C 
ATOM     39  C   UNL A   1      43.820  33.097  29.796  1.00  0.00     0.034 A 
BRANCH  26  40
ATOM     40  C   UNL A   1      46.921  28.407  27.127  1.00  0.00     0.023 A 
ATOM     41  C   UNL A   1      47.210  28.433  25.751  1.00  0.00     0.031 A 
ATOM     42  C   UNL A   1      47.816  27.718  27.966  1.00  0.00     0.131 A 
ATOM     43  C   UNL A   1      48.261  27.656  25.241  1.00  0.00     0.055 A 
ATOM     44  C   UNL A   1      48.935  27.048  27.462  1.00  0.00     0.041 A 
ATOM     45  F   UNL A   1      47.597  27.644  29.288  1.00  0.00    -0.206 F 
ATOM     46  C   UNL A   1      49.145  26.987  26.088  1.00  0.00     0.022 A 
BRANCH  43  47
ATOM     47  S   UNL A   1      48.305  27.355  23.451  1.00  0.00     0.124 S 
ATOM     48  O   UNL A   1      49.632  27.870  23.104  1.00  0.00    -0.237 OA
ATOM     49  O   UNL A   1      48.135  25.920  23.362  1.00  0.00    -0.237 OA
ATOM     50  O   UNL A   1      47.187  28.159  22.943  1.00  0.00    -0.744 OA
ENDBRANCH  43  47
ENDBRANCH  26  40
BRANCH  27  51
ATOM     51  C   UNL A   1      38.123  31.403  31.055  1.00  0.00     0.023 A 
ATOM     52  C   UNL A   1      37.118  31.981  30.262  1.00  0.00     0.031 A 
ATOM     53  C   UNL A   1      37.886  31.298  32.437  1.00  0.00     0.131 A 
ATOM     54  C   UNL A   1      35.946  32.475  30.857  1.00  0.00     0.055 A 
ATOM     55  C   UNL A   1      36.695  31.742  33.018  1.00  0.00     0.041 A 
ATOM     56  F   UNL A   1      38.805  30.748  33.245  1.00  0.00    -0.206 F 
ATOM     57  C   UNL A   1      35.723  32.348  32.229  1.00  0.00     0.022 A 
BRANCH  54  58
ATOM     58  S   UNL A   1      34.754  33.370  29.822  1.00  0.00     0.124 S 
ATOM     59  O   UNL A   1      35.624  34.279  29.083  1.00  0.00    -0.237 OA
ATOM     60  O   UNL A   1      34.153  32.289  29.048  1.00  0.00    -0.237 OA
ATOM     61  O   UNL A   1      33.868  34.007  30.795  1.00  0.00    -0.744 OA
ENDBRANCH  54  58
ENDBRANCH  27  51
BRANCH  39  62
ATOM     62  C   UNL A   1      44.278  34.511  30.033  1.00  0.00     0.023 A 
ATOM     63  C   UNL A   1      44.839  34.908  31.257  1.00  0.00     0.031 A 
ATOM     64  C   UNL A   1      44.132  35.474  29.020  1.00  0.00     0.131 A 
ATOM     65  C   UNL A   1      45.186  36.251  31.459  1.00  0.00     0.055 A 
ATOM     66  C   UNL A   1      44.527  36.798  29.209  1.00  0.00     0.041 A 
ATOM     67  F   UNL A   1      43.601  35.141  27.832  1.00  0.00    -0.206 F 
ATOM     68  C   UNL A   1      45.046  37.195  30.438  1.00  0.00     0.022 A 
BRANCH  65  69
ATOM     69  S   UNL A   1      45.748  36.764  33.104  1.00  0.00     0.124 S 
ATOM     70  O   UNL A   1      46.998  37.453  32.798  1.00  0.00    -0.237 OA
ATOM     71  O   UNL A   1      44.649  37.609  33.559  1.00  0.00    -0.237 OA
ATOM     72  O   UNL A   1      45.897  35.501  33.824  1.00  0.00    -0.744 OA
ENDBRANCH  65  69
ENDBRANCH  39  62
ENDBRANCH  13  14
ENDBRANCH   6   8
ENDBRANCH   5   6
ENDBRANCH   4   5
ENDBRANCH   3   4
ENDBRANCH   2   3
ENDBRANCH   1   2
BRANCH   1  73
ATOM     73  C   UNL A   1      34.393  23.454  23.110  1.00  0.00     0.188 C 
BRANCH  73  74
ATOM     74  O   UNL A   1      34.260  24.626  22.303  1.00  0.00    -0.376 OA
BRANCH  74  75
ATOM     75  C   UNL A   1      33.057  24.752  21.547  1.00  0.00     0.202 C 
BRANCH  75  76
ATOM     76  C   UNL A   1      32.072  25.829  22.014  1.00  0.00     0.261 C 
BRANCH  76  77
ATOM     77  O   UNL A   1      30.936  25.339  22.749  1.00  0.00    -0.459 OA
BRANCH  77  78
ATOM     78  C   UNL A   1      30.411  26.214  23.653  1.00  0.00     0.366 C 
ATOM     79  O   UNL A   1      29.934  27.311  23.373  1.00  0.00    -0.245 OA
BRANCH  78  80
ATOM     80  C   UNL A   1      30.565  25.724  25.100  1.00  0.00     0.313 C 
ATOM     81  C   UNL A   1      31.529  24.495  25.110  1.00  0.00     0.197 C 
ATOM     82  N   UNL A   1      29.171  25.459  25.590  1.00  0.00    -0.332 N 
ATOM     83  N   UNL A   1      31.364  23.696  26.329  1.00  0.00    -0.328 N 
ATOM     84  C   UNL A   1      29.205  24.689  26.843  1.00  0.00     0.283 C 
ATOM     85  H   UNL A   1      28.662  24.930  24.883  1.00  0.00     0.347 HD
ATOM     86  H   UNL A   1      28.707  26.352  25.762  1.00  0.00     0.347 HD
ATOM     87  C   UNL A   1      29.993  23.377  26.707  1.00  0.00     0.181 C 
BRANCH  83  88
ATOM     88  C   UNL A   1      32.269  22.674  26.544  1.00  0.00     0.227 A 
ATOM     89  N   UNL A   1      33.130  22.787  27.572  1.00  0.00    -0.221 NA
ATOM     90  N   UNL A   1      32.333  21.693  25.631  1.00  0.00    -0.196 NA
ATOM     91  C   UNL A   1      34.094  21.859  27.661  1.00  0.00     0.119 A 
ATOM     92  C   UNL A   1      33.328  20.790  25.734  1.00  0.00     0.134 A 
ATOM     93  C   UNL A   1      34.237  20.832  26.768  1.00  0.00     0.067 A 
BRANCH  92  94
ATOM     94  N   UNL A   1      33.511  19.864  24.733  1.00  0.00    -0.356 N 
ATOM     95  C   UNL A   1      34.791  19.212  24.526  1.00  0.00     0.121 C 
ATOM     96  C   UNL A   1      32.356  19.394  23.987  1.00  0.00     0.121 C 
ATOM     97  C   UNL A   1      34.645  17.707  24.740  1.00  0.00     0.053 C 
ATOM     98  C   UNL A   1      32.191  17.898  24.185  1.00  0.00     0.053 C 
ATOM     99  C   UNL A   1      33.489  17.136  23.920  1.00  0.00     0.118 C 
BRANCH  99 100
ATOM    100  O   UNL A   1      33.821  17.186  22.531  1.00  0.00    -0.393 OA
ATOM    101  H   UNL A   1      33.119  16.760  22.015  1.00  0.00     0.210 HD
ENDBRANCH  99 100
ENDBRANCH  92  94
ENDBRANCH  83  88
ENDBRANCH  78  80
ENDBRANCH  77  78
ENDBRANCH  76  77
ENDBRANCH  75  76
ENDBRANCH  74  75
ENDBRANCH  73  74
ENDBRANCH   1  73
TORSDOF 23
ENDMDL
MODEL 3
REMARK VINA RESULT:      -9.7      6.494     11.452
REMARK SMILES O=C(OCCOCCOCCOC(=O)[C@@H]1CN(c2nccc(N3CCC(O)CC3)n2)CC[NH2+]1)c1ccc(-c2c3nc(c(-c4cc(S(=O)(=O)[O-])ccc4F)c4ccc([nH]4)c(-c4cc(S(=O)(=O)[O-])ccc4F)c4nc(c(-c5cc(S(=O)(=O)[O-])ccc5F)c5ccc2[nH]5)C=C4)C=C3)cc1
REMARK SMILES IDX 7 1 6 2 5 3 4 4 3 5 2 6 1 7 34 8 35 9 96 10 36 11 95 12
REMARK SMILES IDX 37 13 38 14 39 15 89 16 40 17 94 18 88 19 90 20 41 21 93 22
REMARK SMILES IDX 87 23 86 24 42 26 74 27 54 28 73 29 55 30 58 31 72 32 91 33
REMARK SMILES IDX 56 34 57 35 71 37 92 38 59 39 43 40 44 41 52 42 45 43 51 44
REMARK SMILES IDX 53 45 50 46 46 47 47 48 48 49 49 50 75 51 76 52 84 53 77 54
REMARK SMILES IDX 83 55 85 56 82 57 78 58 79 59 80 60 81 61 60 62 61 63 69 64
REMARK SMILES IDX 62 65 68 66 70 67 67 68 63 69 64 70 65 71 66 72 8 73 9 74
REMARK SMILES IDX 10 75 11 76 12 77 13 78 14 79 15 80 16 81 33 82 17 83 32 84
REMARK SMILES IDX 31 87 18 88 19 89 30 90 20 91 22 92 21 93 23 94 24 95 29 96
REMARK SMILES IDX 25 97 28 98 26 99 27 100
REMARK H PARENT 90 25 58 36 33 85 33 86 27 101
REMARK Flexibility Score: inf
ROOT
ATOM      1  C   UNL A   1      34.538  32.709  29.032  1.00  0.00     0.188 C 
ENDROOT
BRANCH   1   2
ATOM      2  O   UNL A   1      34.532  32.425  30.436  1.00  0.00    -0.376 OA
BRANCH   2   3
ATOM      3  C   UNL A   1      35.458  33.199  31.202  1.00  0.00     0.202 C 
BRANCH   3   4
ATOM      4  C   UNL A   1      36.815  32.531  31.452  1.00  0.00     0.261 C 
BRANCH   4   5
ATOM      5  O   UNL A   1      36.695  31.351  32.263  1.00  0.00    -0.460 OA
BRANCH   5   6
ATOM      6  C   UNL A   1      37.081  30.103  31.891  1.00  0.00     0.338 C 
ATOM      7  O   UNL A   1      36.296  29.365  31.300  1.00  0.00    -0.246 OA
BRANCH   6   8
ATOM      8  C   UNL A   1      38.477  29.648  32.099  1.00  0.00     0.060 A 
ATOM      9  C   UNL A   1      39.574  30.507  32.186  1.00  0.00     0.016 A 
ATOM     10  C   UNL A   1      38.680  28.280  32.252  1.00  0.00     0.016 A 
ATOM     11  C   UNL A   1      40.872  30.004  32.272  1.00  0.00     0.010 A 
ATOM     12  C   UNL A   1      39.972  27.787  32.446  1.00  0.00     0.010 A 
ATOM     13  C   UNL A   1      41.093  28.634  32.420  1.00  0.00    -0.014 A 
BRANCH  13  14
ATOM     14  C   UNL A   1      42.473  28.064  32.445  1.00  0.00     0.031 A 
ATOM     15  C   UNL A   1      43.062  27.661  33.775  1.00  0.00     0.074 A 
ATOM     16  C   UNL A   1      43.201  27.910  31.319  1.00  0.00     0.049 A 
ATOM     17  N   UNL A   1      44.304  27.419  34.100  1.00  0.00    -0.248 NA
ATOM     18  C   UNL A   1      42.130  27.615  34.910  1.00  0.00     0.031 C 
ATOM     19  C   UNL A   1      42.767  28.261  29.964  1.00  0.00     0.029 A 
ATOM     20  N   UNL A   1      44.457  27.390  31.131  1.00  0.00    -0.354 N 
ATOM     21  C   UNL A   1      44.315  27.328  35.491  1.00  0.00     0.074 A 
ATOM     22  C   UNL A   1      42.964  27.593  35.934  1.00  0.00     0.031 C 
ATOM     23  C   UNL A   1      43.696  27.857  29.083  1.00  0.00     0.029 A 
ATOM     24  C   UNL A   1      44.834  27.311  29.809  1.00  0.00     0.049 A 
ATOM     25  H   UNL A   1      45.035  27.098  31.873  1.00  0.00     0.167 HD
ATOM     26  C   UNL A   1      45.353  27.030  36.313  1.00  0.00     0.034 A 
ATOM     27  C   UNL A   1      45.977  26.860  29.253  1.00  0.00     0.034 A 
ATOM     28  C   UNL A   1      46.644  26.619  35.819  1.00  0.00     0.049 A 
ATOM     29  C   UNL A   1      47.073  26.386  30.177  1.00  0.00     0.074 A 
ATOM     30  C   UNL A   1      47.773  26.251  36.528  1.00  0.00     0.029 A 
ATOM     31  N   UNL A   1      46.954  26.469  34.471  1.00  0.00    -0.354 N 
ATOM     32  N   UNL A   1      47.101  26.384  31.491  1.00  0.00    -0.248 NA
ATOM     33  C   UNL A   1      48.289  25.859  29.547  1.00  0.00     0.031 C 
ATOM     34  C   UNL A   1      48.766  25.886  35.608  1.00  0.00     0.029 A 
ATOM     35  C   UNL A   1      48.243  25.984  34.329  1.00  0.00     0.049 A 
ATOM     36  H   UNL A   1      46.344  26.677  33.727  1.00  0.00     0.167 HD
ATOM     37  C   UNL A   1      48.329  25.834  31.843  1.00  0.00     0.074 A 
ATOM     38  C   UNL A   1      48.999  25.493  30.603  1.00  0.00     0.031 C 
ATOM     39  C   UNL A   1      48.865  25.636  33.075  1.00  0.00     0.034 A 
BRANCH  26  40
ATOM     40  C   UNL A   1      45.119  27.174  37.801  1.00  0.00     0.023 A 
ATOM     41  C   UNL A   1      45.475  28.341  38.502  1.00  0.00     0.031 A 
ATOM     42  C   UNL A   1      44.653  26.081  38.554  1.00  0.00     0.131 A 
ATOM     43  C   UNL A   1      45.512  28.331  39.904  1.00  0.00     0.055 A 
ATOM     44  C   UNL A   1      44.575  26.123  39.949  1.00  0.00     0.041 A 
ATOM     45  F   UNL A   1      44.306  24.932  37.952  1.00  0.00    -0.206 F 
ATOM     46  C   UNL A   1      45.037  27.242  40.635  1.00  0.00     0.022 A 
BRANCH  43  47
ATOM     47  S   UNL A   1      46.406  29.673  40.740  1.00  0.00     0.124 S 
ATOM     48  O   UNL A   1      47.799  29.279  40.508  1.00  0.00    -0.237 OA
ATOM     49  O   UNL A   1      45.951  30.852  40.034  1.00  0.00    -0.237 OA
ATOM     50  O   UNL A   1      45.965  29.559  42.135  1.00  0.00    -0.744 OA
ENDBRANCH  43  47
ENDBRANCH  26  40
BRANCH  27  51
ATOM     51  C   UNL A   1      46.153  26.826  27.770  1.00  0.00     0.023 A 
ATOM     52  C   UNL A   1      45.948  25.638  27.049  1.00  0.00     0.031 A 
ATOM     53  C   UNL A   1      46.563  27.964  27.053  1.00  0.00     0.131 A 
ATOM     54  C   UNL A   1      46.199  25.599  25.668  1.00  0.00     0.055 A 
ATOM     55  C   UNL A   1      46.760  27.934  25.670  1.00  0.00     0.041 A 
ATOM     56  F   UNL A   1      46.769  29.129  27.686  1.00  0.00    -0.206 F 
ATOM     57  C   UNL A   1      46.592  26.743  24.971  1.00  0.00     0.022 A 
BRANCH  54  58
ATOM     58  S   UNL A   1      46.091  24.004  24.808  1.00  0.00     0.124 S 
ATOM     59  O   UNL A   1      44.704  24.003  24.355  1.00  0.00    -0.237 OA
ATOM     60  O   UNL A   1      47.104  24.152  23.769  1.00  0.00    -0.237 OA
ATOM     61  O   UNL A   1      46.407  23.032  25.853  1.00  0.00    -0.744 OA
ENDBRANCH  54  58
ENDBRANCH  27  51
BRANCH  39  62
ATOM     62  C   UNL A   1      50.208  24.958  33.123  1.00  0.00     0.023 A 
ATOM     63  C   UNL A   1      50.326  23.559  33.157  1.00  0.00     0.031 A 
ATOM     64  C   UNL A   1      51.381  25.730  33.150  1.00  0.00     0.131 A 
ATOM     65  C   UNL A   1      51.593  22.972  33.274  1.00  0.00     0.055 A 
ATOM     66  C   UNL A   1      52.643  25.139  33.215  1.00  0.00     0.041 A 
ATOM     67  F   UNL A   1      51.318  27.071  33.118  1.00  0.00    -0.206 F 
ATOM     68  C   UNL A   1      52.753  23.753  33.289  1.00  0.00     0.022 A 
BRANCH  65  69
ATOM     69  S   UNL A   1      51.702  21.176  33.488  1.00  0.00     0.124 S 
ATOM     70  O   UNL A   1      52.764  20.821  32.552  1.00  0.00    -0.237 OA
ATOM     71  O   UNL A   1      52.031  21.050  34.904  1.00  0.00    -0.237 OA
ATOM     72  O   UNL A   1      50.368  20.706  33.118  1.00  0.00    -0.744 OA
ENDBRANCH  65  69
ENDBRANCH  39  62
ENDBRANCH  13  14
ENDBRANCH   6   8
ENDBRANCH   5   6
ENDBRANCH   4   5
ENDBRANCH   3   4
ENDBRANCH   2   3
ENDBRANCH   1   2
BRANCH   1  73
ATOM     73  C   UNL A   1      35.097  31.518  28.251  1.00  0.00     0.188 C 
BRANCH  73  74
ATOM     74  O   UNL A   1      34.121  30.749  27.545  1.00  0.00    -0.376 OA
BRANCH  74  75
ATOM     75  C   UNL A   1      34.403  29.362  27.367  1.00  0.00     0.202 C 
BRANCH  75  76
ATOM     76  C   UNL A   1      33.362  28.552  26.588  1.00  0.00     0.261 C 
BRANCH  76  77
ATOM     77  O   UNL A   1      33.830  27.984  25.353  1.00  0.00    -0.459 OA
BRANCH  77  78
ATOM     78  C   UNL A   1      33.070  26.966  24.858  1.00  0.00     0.366 C 
ATOM     79  O   UNL A   1      32.455  27.002  23.794  1.00  0.00    -0.245 OA
BRANCH  78  80
ATOM     80  C   UNL A   1      32.976  25.780  25.828  1.00  0.00     0.313 C 
ATOM     81  C   UNL A   1      33.946  24.658  25.339  1.00  0.00     0.197 C 
ATOM     82  N   UNL A   1      31.523  25.407  25.873  1.00  0.00    -0.332 N 
ATOM     83  N   UNL A   1      33.585  23.354  25.905  1.00  0.00    -0.328 N 
ATOM     84  C   UNL A   1      31.350  24.093  26.514  1.00  0.00     0.283 C 
ATOM     85  H   UNL A   1      31.156  25.368  24.922  1.00  0.00     0.347 HD
ATOM     86  H   UNL A   1      31.018  26.109  26.415  1.00  0.00     0.347 HD
ATOM     87  C   UNL A   1      32.175  22.992  25.832  1.00  0.00     0.181 C 
BRANCH  83  88
ATOM     88  C   UNL A   1      34.457  22.304  25.687  1.00  0.00     0.227 A 
ATOM     89  N   UNL A   1      35.771  22.576  25.584  1.00  0.00    -0.221 NA
ATOM     90  N   UNL A   1      33.931  21.093  25.448  1.00  0.00    -0.196 NA
ATOM     91  C   UNL A   1      36.572  21.565  25.217  1.00  0.00     0.119 A 
ATOM     92  C   UNL A   1      34.759  20.105  25.059  1.00  0.00     0.134 A 
ATOM     93  C   UNL A   1      36.118  20.302  24.946  1.00  0.00     0.067 A 
BRANCH  92  94
ATOM     94  N   UNL A   1      34.234  18.896  24.662  1.00  0.00    -0.356 N 
ATOM     95  C   UNL A   1      35.088  17.795  24.253  1.00  0.00     0.121 C 
ATOM     96  C   UNL A   1      32.811  18.655  24.831  1.00  0.00     0.121 C 
ATOM     97  C   UNL A   1      34.897  16.613  25.200  1.00  0.00     0.053 C 
ATOM     98  C   UNL A   1      32.597  17.482  25.771  1.00  0.00     0.053 C 
ATOM     99  C   UNL A   1      33.419  16.260  25.362  1.00  0.00     0.118 C 
BRANCH  99 100
ATOM    100  O   UNL A   1      32.924  15.714  24.138  1.00  0.00    -0.393 OA
ATOM    101  H   UNL A   1      32.346  14.960  24.330  1.00  0.00     0.210 HD
ENDBRANCH  99 100
ENDBRANCH  92  94
ENDBRANCH  83  88
ENDBRANCH  78  80
ENDBRANCH  77  78
ENDBRANCH  76  77
ENDBRANCH  75  76
ENDBRANCH  74  75
ENDBRANCH  73  74
ENDBRANCH   1  73
TORSDOF 23
ENDMDL
