MODEL 1
REMARK VINA RESULT:     -10.3      0.000      0.000
REMARK SMILES CCOc1ccc(N2C[C@H](C(=O)OCCOCCOCCOC(=O)c3ccc(-c4c5nc(c(-c6cc(S(=O)(=O)[O-])ccc6F)c6ccc([nH]6)c(-c6cc(S(=O)(=O)[O-])ccc6F)c6nc(c(-c7cc(S(=O)(=O)[O-])ccc7F)c7ccc4[nH]7)C=C6)C=C5)cc3)CC2=O)cc1C(F)(F)F
REMARK SMILES IDX 17 1 16 2 15 3 14 4 13 5 11 6 12 7 10 8 8 9 9 10 89 11 88 12
REMARK SMILES IDX 90 13 7 14 4 15 5 16 92 17 6 18 91 19 3 20 2 21 1 22 93 23
REMARK SMILES IDX 94 24 95 25 96 26 18 27 19 28 20 29 21 30 22 31 23 32 24 33
REMARK SMILES IDX 25 34 26 35 87 36 27 37 86 38 28 39 29 40 30 41 80 42 31 43
REMARK SMILES IDX 85 44 79 45 81 46 32 47 84 48 78 49 77 50 33 52 65 53 45 54
REMARK SMILES IDX 64 55 46 56 49 57 63 58 82 59 47 60 48 61 62 63 83 64 50 65
REMARK SMILES IDX 34 66 35 67 43 68 36 69 42 70 44 71 41 72 37 73 38 74 39 75
REMARK SMILES IDX 40 76 66 77 67 78 75 79 68 80 74 81 76 82 73 83 69 84 70 85
REMARK SMILES IDX 71 86 72 87 51 88 52 89 60 90 53 91 59 92 61 93 58 94 54 95
REMARK SMILES IDX 55 96 56 97 57 98
REMARK H PARENT 81 51 49 62
REMARK Flexibility Score: inf
ROOT
ATOM      1  C   UNL A   1      32.941  29.000  26.294  1.00  0.00     0.188 C 
ENDROOT
BRANCH   1   2
ATOM      2  O   UNL A   1      33.159  29.323  24.930  1.00  0.00    -0.376 OA
BRANCH   2   3
ATOM      3  C   UNL A   1      33.557  28.283  24.048  1.00  0.00     0.202 C 
BRANCH   3   4
ATOM      4  C   UNL A   1      33.039  28.402  22.614  1.00  0.00     0.261 C 
BRANCH   4   5
ATOM      5  O   UNL A   1      32.155  27.308  22.277  1.00  0.00    -0.463 OA
BRANCH   5   6
ATOM      6  C   UNL A   1      30.865  27.400  22.689  1.00  0.00     0.311 C 
ATOM      7  O   UNL A   1      30.094  28.287  22.346  1.00  0.00    -0.252 OA
BRANCH   6   8
ATOM      8  C   UNL A   1      30.420  26.254  23.577  1.00  0.00     0.128 C 
ATOM      9  N   UNL A   1      31.497  24.388  24.567  1.00  0.00    -0.312 N 
ATOM     10  C   UNL A   1      31.278  25.026  23.290  1.00  0.00     0.141 C 
ATOM     11  C   UNL A   1      30.996  25.135  25.626  1.00  0.00     0.227 C 
ATOM     12  C   UNL A   1      30.499  26.453  25.086  1.00  0.00     0.117 C 
ATOM     13  O   UNL A   1      31.019  24.871  26.822  1.00  0.00    -0.274 OA
BRANCH   9  14
ATOM     14  C   UNL A   1      32.240  23.190  24.722  1.00  0.00     0.044 A 
ATOM     15  C   UNL A   1      33.666  20.764  24.912  1.00  0.00     0.131 A 
ATOM     16  C   UNL A   1      32.277  20.762  24.904  1.00  0.00     0.049 A 
ATOM     17  C   UNL A   1      34.366  21.963  24.777  1.00  0.00     0.100 A 
ATOM     18  C   UNL A   1      31.578  21.972  24.850  1.00  0.00     0.030 A 
ATOM     19  C   UNL A   1      33.638  23.173  24.684  1.00  0.00     0.043 A 
BRANCH  15  20
ATOM     20  O   UNL A   1      34.327  19.572  24.929  1.00  0.00    -0.493 OA
BRANCH  20  21
ATOM     21  C   UNL A   1      33.624  18.524  24.245  1.00  0.00     0.226 C 
ATOM     22  C   UNL A   1      34.582  17.374  23.998  1.00  0.00     0.049 C 
ENDBRANCH  20  21
ENDBRANCH  15  20
BRANCH  17  23
ATOM     23  C   UNL A   1      35.870  22.002  24.773  1.00  0.00     0.420 C 
ATOM     24  F   UNL A   1      36.362  23.047  25.504  1.00  0.00    -0.166 F 
ATOM     25  F   UNL A   1      36.410  20.886  25.343  1.00  0.00    -0.166 F 
ATOM     26  F   UNL A   1      36.452  22.123  23.551  1.00  0.00    -0.166 F 
ENDBRANCH  17  23
ENDBRANCH   9  14
ENDBRANCH   6   8
ENDBRANCH   5   6
ENDBRANCH   4   5
ENDBRANCH   3   4
ENDBRANCH   2   3
ENDBRANCH   1   2
BRANCH   1  27
ATOM     27  C   UNL A   1      32.512  30.122  27.265  1.00  0.00     0.188 C 
BRANCH  27  28
ATOM     28  O   UNL A   1      33.098  31.405  27.122  1.00  0.00    -0.376 OA
BRANCH  28  29
ATOM     29  C   UNL A   1      32.247  32.526  27.331  1.00  0.00     0.202 C 
BRANCH  29  30
ATOM     30  C   UNL A   1      32.962  33.831  27.676  1.00  0.00     0.261 C 
BRANCH  30  31
ATOM     31  O   UNL A   1      32.416  34.436  28.865  1.00  0.00    -0.460 OA
BRANCH  31  32
ATOM     32  C   UNL A   1      33.361  34.898  29.718  1.00  0.00     0.338 C 
ATOM     33  O   UNL A   1      33.300  35.941  30.350  1.00  0.00    -0.246 OA
BRANCH  32  34
ATOM     34  C   UNL A   1      34.504  33.964  29.855  1.00  0.00     0.060 A 
ATOM     35  C   UNL A   1      34.456  32.884  30.732  1.00  0.00     0.016 A 
ATOM     36  C   UNL A   1      35.725  34.322  29.288  1.00  0.00     0.016 A 
ATOM     37  C   UNL A   1      35.641  32.292  31.184  1.00  0.00     0.010 A 
ATOM     38  C   UNL A   1      36.898  33.657  29.665  1.00  0.00     0.010 A 
ATOM     39  C   UNL A   1      36.887  32.696  30.692  1.00  0.00    -0.014 A 
BRANCH  39  40
ATOM     40  C   UNL A   1      38.166  32.242  31.329  1.00  0.00     0.031 A 
ATOM     41  C   UNL A   1      39.004  31.180  30.643  1.00  0.00     0.074 A 
ATOM     42  C   UNL A   1      38.625  32.784  32.478  1.00  0.00     0.049 A 
ATOM     43  N   UNL A   1      39.989  30.461  31.118  1.00  0.00    -0.248 NA
ATOM     44  C   UNL A   1      38.685  30.886  29.235  1.00  0.00     0.031 C 
ATOM     45  C   UNL A   1      38.002  33.891  33.208  1.00  0.00     0.029 A 
ATOM     46  N   UNL A   1      39.726  32.471  33.243  1.00  0.00    -0.354 N 
ATOM     47  C   UNL A   1      40.355  29.584  30.098  1.00  0.00     0.074 A 
ATOM     48  C   UNL A   1      39.495  29.870  28.971  1.00  0.00     0.031 C 
ATOM     49  C   UNL A   1      38.738  34.179  34.290  1.00  0.00     0.029 A 
ATOM     50  C   UNL A   1      39.802  33.192  34.417  1.00  0.00     0.049 A 
ATOM     51  H   UNL A   1      40.394  31.798  32.978  1.00  0.00     0.167 HD
ATOM     52  C   UNL A   1      41.312  28.624  30.106  1.00  0.00     0.034 A 
ATOM     53  C   UNL A   1      40.570  33.028  35.514  1.00  0.00     0.034 A 
ATOM     54  C   UNL A   1      42.191  28.377  31.223  1.00  0.00     0.049 A 
ATOM     55  C   UNL A   1      41.558  31.890  35.543  1.00  0.00     0.074 A 
ATOM     56  C   UNL A   1      43.185  27.420  31.341  1.00  0.00     0.029 A 
ATOM     57  N   UNL A   1      42.187  29.091  32.412  1.00  0.00    -0.354 N 
ATOM     58  N   UNL A   1      41.825  31.003  34.610  1.00  0.00    -0.248 NA
ATOM     59  C   UNL A   1      42.337  31.721  36.775  1.00  0.00     0.031 C 
ATOM     60  C   UNL A   1      43.733  27.512  32.625  1.00  0.00     0.029 A 
ATOM     61  C   UNL A   1      43.140  28.579  33.278  1.00  0.00     0.049 A 
ATOM     62  H   UNL A   1      41.593  29.851  32.611  1.00  0.00     0.167 HD
ATOM     63  C   UNL A   1      42.817  30.183  35.143  1.00  0.00     0.074 A 
ATOM     64  C   UNL A   1      43.118  30.699  36.461  1.00  0.00     0.031 C 
ATOM     65  C   UNL A   1      43.422  29.099  34.594  1.00  0.00     0.034 A 
BRANCH  52  66
ATOM     66  C   UNL A   1      41.408  27.707  28.910  1.00  0.00     0.023 A 
ATOM     67  C   UNL A   1      42.364  27.879  27.895  1.00  0.00     0.031 A 
ATOM     68  C   UNL A   1      40.526  26.613  28.809  1.00  0.00     0.131 A 
ATOM     69  C   UNL A   1      42.394  26.988  26.808  1.00  0.00     0.055 A 
ATOM     70  C   UNL A   1      40.600  25.699  27.758  1.00  0.00     0.041 A 
ATOM     71  F   UNL A   1      39.580  26.413  29.739  1.00  0.00    -0.206 F 
ATOM     72  C   UNL A   1      41.534  25.887  26.745  1.00  0.00     0.022 A 
BRANCH  69  73
ATOM     73  S   UNL A   1      43.521  27.328  25.428  1.00  0.00     0.124 S 
ATOM     74  O   UNL A   1      44.359  28.384  25.991  1.00  0.00    -0.237 OA
ATOM     75  O   UNL A   1      44.167  26.037  25.226  1.00  0.00    -0.237 OA
ATOM     76  O   UNL A   1      42.628  27.755  24.352  1.00  0.00    -0.744 OA
ENDBRANCH  69  73
ENDBRANCH  52  66
BRANCH  53  77
ATOM     77  C   UNL A   1      40.349  33.873  36.728  1.00  0.00     0.023 A 
ATOM     78  C   UNL A   1      41.195  34.950  37.039  1.00  0.00     0.031 A 
ATOM     79  C   UNL A   1      39.315  33.571  37.636  1.00  0.00     0.131 A 
ATOM     80  C   UNL A   1      41.019  35.653  38.243  1.00  0.00     0.055 A 
ATOM     81  C   UNL A   1      39.101  34.319  38.793  1.00  0.00     0.041 A 
ATOM     82  F   UNL A   1      38.484  32.542  37.403  1.00  0.00    -0.206 F 
ATOM     83  C   UNL A   1      39.965  35.359  39.111  1.00  0.00     0.022 A 
BRANCH  80  84
ATOM     84  S   UNL A   1      42.260  36.888  38.719  1.00  0.00     0.124 S 
ATOM     85  O   UNL A   1      41.432  37.924  39.324  1.00  0.00    -0.237 OA
ATOM     86  O   UNL A   1      43.106  36.127  39.633  1.00  0.00    -0.237 OA
ATOM     87  O   UNL A   1      42.885  37.249  37.449  1.00  0.00    -0.744 OA
ENDBRANCH  80  84
ENDBRANCH  53  77
BRANCH  65  88
ATOM     88  C   UNL A   1      44.510  28.444  35.409  1.00  0.00     0.023 A 
ATOM     89  C   UNL A   1      44.227  27.428  36.338  1.00  0.00     0.031 A 
ATOM     90  C   UNL A   1      45.842  28.878  35.287  1.00  0.00     0.131 A 
ATOM     91  C   UNL A   1      45.247  26.934  37.164  1.00  0.00     0.055 A 
ATOM     92  C   UNL A   1      46.866  28.333  36.062  1.00  0.00     0.041 A 
ATOM     93  F   UNL A   1      46.168  29.847  34.416  1.00  0.00    -0.206 F 
ATOM     94  C   UNL A   1      46.568  27.369  37.021  1.00  0.00     0.022 A 
BRANCH  91  95
ATOM     95  S   UNL A   1      44.803  25.809  38.515  1.00  0.00     0.124 S 
ATOM     96  O   UNL A   1      44.610  24.548  37.808  1.00  0.00    -0.237 OA
ATOM     97  O   UNL A   1      45.977  25.882  39.379  1.00  0.00    -0.237 OA
ATOM     98  O   UNL A   1      43.587  26.401  39.070  1.00  0.00    -0.744 OA
ENDBRANCH  91  95
ENDBRANCH  65  88
ENDBRANCH  39  40
ENDBRANCH  32  34
ENDBRANCH  31  32
ENDBRANCH  30  31
ENDBRANCH  29  30
ENDBRANCH  28  29
ENDBRANCH  27  28
ENDBRANCH   1  27
TORSDOF 24
ENDMDL
MODEL 2
REMARK VINA RESULT:     -10.2      2.422      7.797
REMARK SMILES CCOc1ccc(N2C[C@H](C(=O)OCCOCCOCCOC(=O)c3ccc(-c4c5nc(c(-c6cc(S(=O)(=O)[O-])ccc6F)c6ccc([nH]6)c(-c6cc(S(=O)(=O)[O-])ccc6F)c6nc(c(-c7cc(S(=O)(=O)[O-])ccc7F)c7ccc4[nH]7)C=C6)C=C5)cc3)CC2=O)cc1C(F)(F)F
REMARK SMILES IDX 17 1 16 2 15 3 14 4 13 5 11 6 12 7 10 8 8 9 9 10 89 11 88 12
REMARK SMILES IDX 90 13 7 14 4 15 5 16 92 17 6 18 91 19 3 20 2 21 1 22 93 23
REMARK SMILES IDX 94 24 95 25 96 26 18 27 19 28 20 29 21 30 22 31 23 32 24 33
REMARK SMILES IDX 25 34 26 35 87 36 27 37 86 38 28 39 29 40 30 41 80 42 31 43
REMARK SMILES IDX 85 44 79 45 81 46 32 47 84 48 78 49 77 50 33 52 65 53 45 54
REMARK SMILES IDX 64 55 46 56 49 57 63 58 82 59 47 60 48 61 62 63 83 64 50 65
REMARK SMILES IDX 34 66 35 67 43 68 36 69 42 70 44 71 41 72 37 73 38 74 39 75
REMARK SMILES IDX 40 76 66 77 67 78 75 79 68 80 74 81 76 82 73 83 69 84 70 85
REMARK SMILES IDX 71 86 72 87 51 88 52 89 60 90 53 91 59 92 61 93 58 94 54 95
REMARK SMILES IDX 55 96 56 97 57 98
REMARK H PARENT 81 51 49 62
REMARK Flexibility Score: inf
ROOT
ATOM      1  C   UNL A   1      33.450  29.024  26.027  1.00  0.00     0.188 C 
ENDROOT
BRANCH   1   2
ATOM      2  O   UNL A   1      33.065  29.327  24.695  1.00  0.00    -0.376 OA
BRANCH   2   3
ATOM      3  C   UNL A   1      31.833  28.805  24.217  1.00  0.00     0.202 C 
BRANCH   3   4
ATOM      4  C   UNL A   1      31.771  28.541  22.712  1.00  0.00     0.261 C 
BRANCH   4   5
ATOM      5  O   UNL A   1      30.990  27.360  22.413  1.00  0.00    -0.463 OA
BRANCH   5   6
ATOM      6  C   UNL A   1      29.848  27.173  23.122  1.00  0.00     0.311 C 
ATOM      7  O   UNL A   1      28.899  27.946  23.116  1.00  0.00    -0.252 OA
BRANCH   6   8
ATOM      8  C   UNL A   1      29.810  25.867  23.892  1.00  0.00     0.128 C 
ATOM      9  N   UNL A   1      31.437  24.294  24.601  1.00  0.00    -0.312 N 
ATOM     10  C   UNL A   1      30.948  24.966  23.420  1.00  0.00     0.141 C 
ATOM     11  C   UNL A   1      30.837  24.762  25.765  1.00  0.00     0.227 C 
ATOM     12  C   UNL A   1      29.954  25.931  25.408  1.00  0.00     0.117 C 
ATOM     13  O   UNL A   1      31.029  24.399  26.918  1.00  0.00    -0.274 OA
BRANCH   9  14
ATOM     14  C   UNL A   1      32.492  23.346  24.577  1.00  0.00     0.044 A 
ATOM     15  C   UNL A   1      34.622  21.500  24.654  1.00  0.00     0.131 A 
ATOM     16  C   UNL A   1      34.870  22.863  24.765  1.00  0.00     0.049 A 
ATOM     17  C   UNL A   1      33.312  21.033  24.552  1.00  0.00     0.100 A 
ATOM     18  C   UNL A   1      33.812  23.773  24.686  1.00  0.00     0.030 A 
ATOM     19  C   UNL A   1      32.253  21.970  24.514  1.00  0.00     0.043 A 
BRANCH  15  20
ATOM     20  O   UNL A   1      35.664  20.629  24.771  1.00  0.00    -0.493 OA
BRANCH  20  21
ATOM     21  C   UNL A   1      36.948  21.260  24.658  1.00  0.00     0.226 C 
ATOM     22  C   UNL A   1      38.022  20.246  24.999  1.00  0.00     0.049 C 
ENDBRANCH  20  21
ENDBRANCH  15  20
BRANCH  17  23
ATOM     23  C   UNL A   1      33.005  19.564  24.439  1.00  0.00     0.420 C 
ATOM     24  F   UNL A   1      32.435  19.246  23.238  1.00  0.00    -0.166 F 
ATOM     25  F   UNL A   1      34.135  18.801  24.508  1.00  0.00    -0.166 F 
ATOM     26  F   UNL A   1      32.154  19.067  25.374  1.00  0.00    -0.166 F 
ENDBRANCH  17  23
ENDBRANCH   9  14
ENDBRANCH   6   8
ENDBRANCH   5   6
ENDBRANCH   4   5
ENDBRANCH   3   4
ENDBRANCH   2   3
ENDBRANCH   1   2
BRANCH   1  27
ATOM     27  C   UNL A   1      32.784  29.799  27.187  1.00  0.00     0.188 C 
BRANCH  27  28
ATOM     28  O   UNL A   1      31.533  30.423  26.958  1.00  0.00    -0.376 OA
BRANCH  28  29
ATOM     29  C   UNL A   1      31.561  31.720  26.374  1.00  0.00     0.202 C 
BRANCH  29  30
ATOM     30  C   UNL A   1      31.830  32.867  27.347  1.00  0.00     0.261 C 
BRANCH  30  31
ATOM     31  O   UNL A   1      32.989  33.630  26.958  1.00  0.00    -0.460 OA
BRANCH  31  32
ATOM     32  C   UNL A   1      33.767  33.999  28.002  1.00  0.00     0.338 C 
ATOM     33  O   UNL A   1      33.504  34.876  28.811  1.00  0.00    -0.246 OA
BRANCH  32  34
ATOM     34  C   UNL A   1      34.999  33.181  28.108  1.00  0.00     0.060 A 
ATOM     35  C   UNL A   1      34.957  31.793  28.010  1.00  0.00     0.016 A 
ATOM     36  C   UNL A   1      36.165  33.792  28.561  1.00  0.00     0.016 A 
ATOM     37  C   UNL A   1      35.996  31.018  28.538  1.00  0.00     0.010 A 
ATOM     38  C   UNL A   1      37.247  33.014  28.993  1.00  0.00     0.010 A 
ATOM     39  C   UNL A   1      37.141  31.614  29.078  1.00  0.00    -0.014 A 
BRANCH  39  40
ATOM     40  C   UNL A   1      38.148  30.817  29.852  1.00  0.00     0.031 A 
ATOM     41  C   UNL A   1      38.339  31.091  31.332  1.00  0.00     0.074 A 
ATOM     42  C   UNL A   1      38.864  29.822  29.283  1.00  0.00     0.049 A 
ATOM     43  N   UNL A   1      39.306  30.719  32.131  1.00  0.00    -0.248 NA
ATOM     44  C   UNL A   1      37.302  31.898  31.998  1.00  0.00     0.031 C 
ATOM     45  C   UNL A   1      38.724  29.353  27.902  1.00  0.00     0.029 A 
ATOM     46  N   UNL A   1      39.863  29.025  29.796  1.00  0.00    -0.354 N 
ATOM     47  C   UNL A   1      39.035  31.304  33.366  1.00  0.00     0.074 A 
ATOM     48  C   UNL A   1      37.803  32.046  33.217  1.00  0.00     0.031 C 
ATOM     49  C   UNL A   1      39.578  28.343  27.689  1.00  0.00     0.029 A 
ATOM     50  C   UNL A   1      40.427  28.183  28.862  1.00  0.00     0.049 A 
ATOM     51  H   UNL A   1      40.146  29.055  30.738  1.00  0.00     0.167 HD
ATOM     52  C   UNL A   1      39.753  31.236  34.514  1.00  0.00     0.034 A 
ATOM     53  C   UNL A   1      41.550  27.436  28.900  1.00  0.00     0.034 A 
ATOM     54  C   UNL A   1      40.959  30.459  34.661  1.00  0.00     0.049 A 
ATOM     55  C   UNL A   1      42.390  27.455  30.151  1.00  0.00     0.074 A 
ATOM     56  C   UNL A   1      41.772  30.331  35.775  1.00  0.00     0.029 A 
ATOM     57  N   UNL A   1      41.525  29.673  33.667  1.00  0.00    -0.354 N 
ATOM     58  N   UNL A   1      42.177  28.093  31.280  1.00  0.00    -0.248 NA
ATOM     59  C   UNL A   1      43.628  26.666  30.130  1.00  0.00     0.031 C 
ATOM     60  C   UNL A   1      42.864  29.525  35.433  1.00  0.00     0.029 A 
ATOM     61  C   UNL A   1      42.689  29.082  34.133  1.00  0.00     0.049 A 
ATOM     62  H   UNL A   1      41.153  29.553  32.763  1.00  0.00     0.167 HD
ATOM     63  C   UNL A   1      43.249  27.764  32.107  1.00  0.00     0.074 A 
ATOM     64  C   UNL A   1      44.087  26.853  31.357  1.00  0.00     0.031 C 
ATOM     65  C   UNL A   1      43.520  28.182  33.370  1.00  0.00     0.034 A 
BRANCH  52  66
ATOM     66  C   UNL A   1      39.312  32.089  35.679  1.00  0.00     0.023 A 
ATOM     67  C   UNL A   1      39.737  33.416  35.856  1.00  0.00     0.031 A 
ATOM     68  C   UNL A   1      38.414  31.552  36.623  1.00  0.00     0.131 A 
ATOM     69  C   UNL A   1      39.287  34.150  36.966  1.00  0.00     0.055 A 
ATOM     70  C   UNL A   1      37.927  32.306  37.691  1.00  0.00     0.041 A 
ATOM     71  F   UNL A   1      37.992  30.283  36.517  1.00  0.00    -0.206 F 
ATOM     72  C   UNL A   1      38.368  33.612  37.872  1.00  0.00     0.022 A 
BRANCH  69  73
ATOM     73  S   UNL A   1      39.981  35.800  37.264  1.00  0.00     0.124 S 
ATOM     74  O   UNL A   1      39.662  36.479  36.011  1.00  0.00    -0.237 OA
ATOM     75  O   UNL A   1      39.240  36.243  38.440  1.00  0.00    -0.237 OA
ATOM     76  O   UNL A   1      41.403  35.540  37.483  1.00  0.00    -0.744 OA
ENDBRANCH  69  73
ENDBRANCH  52  66
BRANCH  53  77
ATOM     77  C   UNL A   1      42.023  26.714  27.678  1.00  0.00     0.023 A 
ATOM     78  C   UNL A   1      41.805  25.338  27.506  1.00  0.00     0.031 A 
ATOM     79  C   UNL A   1      42.764  27.387  26.687  1.00  0.00     0.131 A 
ATOM     80  C   UNL A   1      42.357  24.674  26.396  1.00  0.00     0.055 A 
ATOM     81  C   UNL A   1      43.247  26.738  25.551  1.00  0.00     0.041 A 
ATOM     82  F   UNL A   1      43.021  28.700  26.804  1.00  0.00    -0.206 F 
ATOM     83  C   UNL A   1      43.058  25.369  25.408  1.00  0.00     0.022 A 
BRANCH  80  84
ATOM     84  S   UNL A   1      42.247  22.865  26.320  1.00  0.00     0.124 S 
ATOM     85  O   UNL A   1      42.643  22.601  24.942  1.00  0.00    -0.237 OA
ATOM     86  O   UNL A   1      43.198  22.462  27.351  1.00  0.00    -0.237 OA
ATOM     87  O   UNL A   1      40.844  22.598  26.630  1.00  0.00    -0.744 OA
ENDBRANCH  80  84
ENDBRANCH  53  77
BRANCH  65  88
ATOM     88  C   UNL A   1      44.746  27.601  34.028  1.00  0.00     0.023 A 
ATOM     89  C   UNL A   1      46.002  28.225  33.932  1.00  0.00     0.031 A 
ATOM     90  C   UNL A   1      44.665  26.380  34.722  1.00  0.00     0.131 A 
ATOM     91  C   UNL A   1      47.139  27.588  34.451  1.00  0.00     0.055 A 
ATOM     92  C   UNL A   1      45.788  25.786  35.298  1.00  0.00     0.041 A 
ATOM     93  F   UNL A   1      43.490  25.740  34.842  1.00  0.00    -0.206 F 
ATOM     94  C   UNL A   1      47.037  26.380  35.147  1.00  0.00     0.022 A 
BRANCH  91  95
ATOM     95  S   UNL A   1      48.770  28.295  34.093  1.00  0.00     0.124 S 
ATOM     96  O   UNL A   1      49.526  27.933  35.287  1.00  0.00    -0.237 OA
ATOM     97  O   UNL A   1      49.147  27.603  32.865  1.00  0.00    -0.237 OA
ATOM     98  O   UNL A   1      48.499  29.724  33.942  1.00  0.00    -0.744 OA
ENDBRANCH  91  95
ENDBRANCH  65  88
ENDBRANCH  39  40
ENDBRANCH  32  34
ENDBRANCH  31  32
ENDBRANCH  30  31
ENDBRANCH  29  30
ENDBRANCH  28  29
ENDBRANCH  27  28
ENDBRANCH   1  27
TORSDOF 24
ENDMDL
MODEL 3
REMARK VINA RESULT:     -10.2      2.199      2.684
REMARK SMILES CCOc1ccc(N2C[C@H](C(=O)OCCOCCOCCOC(=O)c3ccc(-c4c5nc(c(-c6cc(S(=O)(=O)[O-])ccc6F)c6ccc([nH]6)c(-c6cc(S(=O)(=O)[O-])ccc6F)c6nc(c(-c7cc(S(=O)(=O)[O-])ccc7F)c7ccc4[nH]7)C=C6)C=C5)cc3)CC2=O)cc1C(F)(F)F
REMARK SMILES IDX 17 1 16 2 15 3 14 4 13 5 11 6 12 7 10 8 8 9 9 10 89 11 88 12
REMARK SMILES IDX 90 13 7 14 4 15 5 16 92 17 6 18 91 19 3 20 2 21 1 22 93 23
REMARK SMILES IDX 94 24 95 25 96 26 18 27 19 28 20 29 21 30 22 31 23 32 24 33
REMARK SMILES IDX 25 34 26 35 87 36 27 37 86 38 28 39 29 40 30 41 80 42 31 43
REMARK SMILES IDX 85 44 79 45 81 46 32 47 84 48 78 49 77 50 33 52 65 53 45 54
REMARK SMILES IDX 64 55 46 56 49 57 63 58 82 59 47 60 48 61 62 63 83 64 50 65
REMARK SMILES IDX 34 66 35 67 43 68 36 69 42 70 44 71 41 72 37 73 38 74 39 75
REMARK SMILES IDX 40 76 66 77 67 78 75 79 68 80 74 81 76 82 73 83 69 84 70 85
REMARK SMILES IDX 71 86 72 87 51 88 52 89 60 90 53 91 59 92 61 93 58 94 54 95
REMARK SMILES IDX 55 96 56 97 57 98
REMARK H PARENT 81 51 49 62
REMARK Flexibility Score: inf
ROOT
ATOM      1  C   UNL A   1      33.829  28.935  25.735  1.00  0.00     0.188 C 
ENDROOT
BRANCH   1   2
ATOM      2  O   UNL A   1      33.173  29.008  24.478  1.00  0.00    -0.376 OA
BRANCH   2   3
ATOM      3  C   UNL A   1      32.047  28.171  24.259  1.00  0.00     0.202 C 
BRANCH   3   4
ATOM      4  C   UNL A   1      31.448  28.230  22.854  1.00  0.00     0.261 C 
BRANCH   4   5
ATOM      5  O   UNL A   1      30.599  27.087  22.591  1.00  0.00    -0.463 OA
BRANCH   5   6
ATOM      6  C   UNL A   1      29.546  26.890  23.423  1.00  0.00     0.311 C 
ATOM      7  O   UNL A   1      28.588  27.647  23.515  1.00  0.00    -0.252 OA
BRANCH   6   8
ATOM      8  C   UNL A   1      29.614  25.592  24.205  1.00  0.00     0.128 C 
ATOM      9  N   UNL A   1      31.347  24.085  24.798  1.00  0.00    -0.312 N 
ATOM     10  C   UNL A   1      30.744  24.726  23.652  1.00  0.00     0.141 C 
ATOM     11  C   UNL A   1      30.822  24.544  26.000  1.00  0.00     0.227 C 
ATOM     12  C   UNL A   1      29.873  25.677  25.704  1.00  0.00     0.117 C 
ATOM     13  O   UNL A   1      31.117  24.200  27.138  1.00  0.00    -0.274 OA
BRANCH   9  14
ATOM     14  C   UNL A   1      32.430  23.175  24.699  1.00  0.00     0.044 A 
ATOM     15  C   UNL A   1      34.628  21.409  24.623  1.00  0.00     0.131 A 
ATOM     16  C   UNL A   1      34.833  22.783  24.664  1.00  0.00     0.049 A 
ATOM     17  C   UNL A   1      33.334  20.892  24.669  1.00  0.00     0.100 A 
ATOM     18  C   UNL A   1      33.738  23.652  24.661  1.00  0.00     0.030 A 
ATOM     19  C   UNL A   1      32.240  21.790  24.705  1.00  0.00     0.043 A 
BRANCH  15  20
ATOM     20  O   UNL A   1      35.709  20.580  24.663  1.00  0.00    -0.493 OA
BRANCH  20  21
ATOM     21  C   UNL A   1      36.948  21.272  24.885  1.00  0.00     0.226 C 
ATOM     22  C   UNL A   1      38.036  20.250  25.151  1.00  0.00     0.049 C 
ENDBRANCH  20  21
ENDBRANCH  15  20
BRANCH  17  23
ATOM     23  C   UNL A   1      33.074  19.410  24.635  1.00  0.00     0.420 C 
ATOM     24  F   UNL A   1      32.453  18.968  25.770  1.00  0.00    -0.166 F 
ATOM     25  F   UNL A   1      32.235  19.064  23.615  1.00  0.00    -0.166 F 
ATOM     26  F   UNL A   1      34.173  18.623  24.506  1.00  0.00    -0.166 F 
ENDBRANCH  17  23
ENDBRANCH   9  14
ENDBRANCH   6   8
ENDBRANCH   5   6
ENDBRANCH   4   5
ENDBRANCH   3   4
ENDBRANCH   2   3
ENDBRANCH   1   2
BRANCH   1  27
ATOM     27  C   UNL A   1      33.309  29.812  26.896  1.00  0.00     0.188 C 
BRANCH  27  28
ATOM     28  O   UNL A   1      31.943  30.187  26.906  1.00  0.00    -0.376 OA
BRANCH  28  29
ATOM     29  C   UNL A   1      31.625  31.468  26.376  1.00  0.00     0.202 C 
BRANCH  29  30
ATOM     30  C   UNL A   1      31.556  32.598  27.401  1.00  0.00     0.261 C 
BRANCH  30  31
ATOM     31  O   UNL A   1      32.640  33.533  27.232  1.00  0.00    -0.460 OA
BRANCH  31  32
ATOM     32  C   UNL A   1      33.310  33.794  28.380  1.00  0.00     0.338 C 
ATOM     33  O   UNL A   1      32.960  34.585  29.243  1.00  0.00    -0.246 OA
BRANCH  32  34
ATOM     34  C   UNL A   1      34.532  32.969  28.523  1.00  0.00     0.060 A 
ATOM     35  C   UNL A   1      34.531  31.794  29.268  1.00  0.00     0.016 A 
ATOM     36  C   UNL A   1      35.750  33.511  28.117  1.00  0.00     0.016 A 
ATOM     37  C   UNL A   1      35.731  31.272  29.764  1.00  0.00     0.010 A 
ATOM     38  C   UNL A   1      36.954  32.925  28.529  1.00  0.00     0.010 A 
ATOM     39  C   UNL A   1      36.962  31.853  29.439  1.00  0.00    -0.014 A 
BRANCH  39  40
ATOM     40  C   UNL A   1      38.225  31.455  30.142  1.00  0.00     0.031 A 
ATOM     41  C   UNL A   1      39.125  30.404  29.519  1.00  0.00     0.074 A 
ATOM     42  C   UNL A   1      38.617  32.039  31.295  1.00  0.00     0.049 A 
ATOM     43  N   UNL A   1      40.110  29.729  30.054  1.00  0.00    -0.248 NA
ATOM     44  C   UNL A   1      38.876  30.066  28.107  1.00  0.00     0.031 C 
ATOM     45  C   UNL A   1      37.929  33.143  31.969  1.00  0.00     0.029 A 
ATOM     46  N   UNL A   1      39.693  31.781  32.114  1.00  0.00    -0.354 N 
ATOM     47  C   UNL A   1      40.547  28.840  29.074  1.00  0.00     0.074 A 
ATOM     48  C   UNL A   1      39.728  29.071  27.904  1.00  0.00     0.031 C 
ATOM     49  C   UNL A   1      38.608  33.480  33.074  1.00  0.00     0.029 A 
ATOM     50  C   UNL A   1      39.696  32.531  33.271  1.00  0.00     0.049 A 
ATOM     51  H   UNL A   1      40.392  31.123  31.896  1.00  0.00     0.167 HD
ATOM     52  C   UNL A   1      41.532  27.911  29.147  1.00  0.00     0.034 A 
ATOM     53  C   UNL A   1      40.420  32.419  34.404  1.00  0.00     0.034 A 
ATOM     54  C   UNL A   1      42.369  27.719  30.306  1.00  0.00     0.049 A 
ATOM     55  C   UNL A   1      41.440  31.314  34.504  1.00  0.00     0.074 A 
ATOM     56  C   UNL A   1      43.386  26.798  30.491  1.00  0.00     0.029 A 
ATOM     57  N   UNL A   1      42.291  28.462  31.476  1.00  0.00    -0.354 N 
ATOM     58  N   UNL A   1      41.775  30.414  33.607  1.00  0.00    -0.248 NA
ATOM     59  C   UNL A   1      42.170  31.199  35.772  1.00  0.00     0.031 C 
ATOM     60  C   UNL A   1      43.874  26.939  31.795  1.00  0.00     0.029 A 
ATOM     61  C   UNL A   1      43.220  28.002  32.395  1.00  0.00     0.049 A 
ATOM     62  H   UNL A   1      41.666  29.207  31.629  1.00  0.00     0.167 HD
ATOM     63  C   UNL A   1      42.768  29.639  34.202  1.00  0.00     0.074 A 
ATOM     64  C   UNL A   1      42.995  30.196  35.519  1.00  0.00     0.031 C 
ATOM     65  C   UNL A   1      43.429  28.562  33.708  1.00  0.00     0.034 A 
BRANCH  52  66
ATOM     66  C   UNL A   1      41.708  26.969  27.981  1.00  0.00     0.023 A 
ATOM     67  C   UNL A   1      41.171  25.671  27.962  1.00  0.00     0.031 A 
ATOM     68  C   UNL A   1      42.416  27.407  26.843  1.00  0.00     0.131 A 
ATOM     69  C   UNL A   1      41.376  24.847  26.843  1.00  0.00     0.055 A 
ATOM     70  C   UNL A   1      42.566  26.604  25.713  1.00  0.00     0.041 A 
ATOM     71  F   UNL A   1      42.969  28.629  26.814  1.00  0.00    -0.206 F 
ATOM     72  C   UNL A   1      42.050  25.313  25.709  1.00  0.00     0.022 A 
BRANCH  69  73
ATOM     73  S   UNL A   1      40.822  23.122  26.912  1.00  0.00     0.124 S 
ATOM     74  O   UNL A   1      41.430  22.573  25.703  1.00  0.00    -0.237 OA
ATOM     75  O   UNL A   1      41.383  22.662  28.177  1.00  0.00    -0.237 OA
ATOM     76  O   UNL A   1      39.364  23.227  26.878  1.00  0.00    -0.744 OA
ENDBRANCH  69  73
ENDBRANCH  52  66
BRANCH  53  77
ATOM     77  C   UNL A   1      40.121  33.286  35.586  1.00  0.00     0.023 A 
ATOM     78  C   UNL A   1      39.349  32.823  36.663  1.00  0.00     0.031 A 
ATOM     79  C   UNL A   1      40.556  34.625  35.622  1.00  0.00     0.131 A 
ATOM     80  C   UNL A   1      39.000  33.701  37.704  1.00  0.00     0.055 A 
ATOM     81  C   UNL A   1      40.268  35.472  36.692  1.00  0.00     0.041 A 
ATOM     82  F   UNL A   1      41.282  35.133  34.612  1.00  0.00    -0.206 F 
ATOM     83  C   UNL A   1      39.473  35.015  37.736  1.00  0.00     0.022 A 
BRANCH  80  84
ATOM     84  S   UNL A   1      37.821  33.136  38.962  1.00  0.00     0.124 S 
ATOM     85  O   UNL A   1      36.577  33.093  38.204  1.00  0.00    -0.237 OA
ATOM     86  O   UNL A   1      38.386  31.845  39.344  1.00  0.00    -0.237 OA
ATOM     87  O   UNL A   1      37.896  34.175  39.987  1.00  0.00    -0.744 OA
ENDBRANCH  80  84
ENDBRANCH  53  77
BRANCH  65  88
ATOM     88  C   UNL A   1      44.500  27.962  34.585  1.00  0.00     0.023 A 
ATOM     89  C   UNL A   1      44.197  27.014  35.578  1.00  0.00     0.031 A 
ATOM     90  C   UNL A   1      45.836  28.381  34.456  1.00  0.00     0.131 A 
ATOM     91  C   UNL A   1      45.201  26.576  36.454  1.00  0.00     0.055 A 
ATOM     92  C   UNL A   1      46.845  27.889  35.284  1.00  0.00     0.041 A 
ATOM     93  F   UNL A   1      46.181  29.286  33.525  1.00  0.00    -0.206 F 
ATOM     94  C   UNL A   1      46.526  26.996  36.303  1.00  0.00     0.022 A 
BRANCH  91  95
ATOM     95  S   UNL A   1      44.729  25.550  37.873  1.00  0.00     0.124 S 
ATOM     96  O   UNL A   1      43.974  26.493  38.691  1.00  0.00    -0.237 OA
ATOM     97  O   UNL A   1      43.951  24.488  37.243  1.00  0.00    -0.237 OA
ATOM     98  O   UNL A   1      46.011  25.131  38.435  1.00  0.00    -0.744 OA
ENDBRANCH  91  95
ENDBRANCH  65  88
ENDBRANCH  39  40
ENDBRANCH  32  34
ENDBRANCH  31  32
ENDBRANCH  30  31
ENDBRANCH  29  30
ENDBRANCH  28  29
ENDBRANCH  27  28
ENDBRANCH   1  27
TORSDOF 24
ENDMDL
