MODEL 1
REMARK VINA RESULT:     -11.1      0.000      0.000
REMARK SMILES Cc1nn(CC(=O)OCCOCCOCCOC(=O)c2ccc(-c3c4nc(c(-c5cc(S(=O)(=O)[O-])ccc5F)c5ccc([nH]5)c(-c5cc(S(=O)(=O)[O-])ccc5F)c5nc(c(-c6cc(S(=O)(=O)[O-])ccc6F)c6ccc3[nH]6)C=C5)C=C4)cc2)c(C)c1S(=O)(=O)N1CCC(C)(C)C1
REMARK SMILES IDX 12 1 11 2 10 3 9 4 8 5 6 6 7 7 5 8 4 9 1 10 2 11 3 12 85 13
REMARK SMILES IDX 83 14 84 15 86 16 87 17 88 18 89 19 90 20 95 21 91 22 92 23
REMARK SMILES IDX 93 24 94 25 13 26 14 27 15 28 16 29 17 30 18 31 19 32 20 33
REMARK SMILES IDX 21 34 82 35 22 36 81 37 23 38 24 39 25 40 75 41 26 42 80 43
REMARK SMILES IDX 74 44 76 45 27 46 79 47 73 48 72 49 28 51 60 52 40 53 59 54
REMARK SMILES IDX 41 55 44 56 58 57 77 58 42 59 43 60 57 62 78 63 45 64 29 65
REMARK SMILES IDX 30 66 38 67 31 68 37 69 39 70 36 71 32 72 33 73 34 74 35 75
REMARK SMILES IDX 61 76 62 77 70 78 63 79 69 80 71 81 68 82 64 83 65 84 66 85
REMARK SMILES IDX 67 86 46 87 47 88 55 89 48 90 54 91 56 92 53 93 49 94 50 95
REMARK SMILES IDX 51 96 52 97
REMARK H PARENT 76 50 44 61
REMARK Flexibility Score: inf
ROOT
ATOM      1  C   UNL A   1      34.171  30.896  27.489  1.00  0.00     0.188 C 
ENDROOT
BRANCH   1   2
ATOM      2  O   UNL A   1      32.931  30.210  27.351  1.00  0.00    -0.376 OA
BRANCH   2   3
ATOM      3  C   UNL A   1      32.724  29.499  26.126  1.00  0.00     0.202 C 
BRANCH   3   4
ATOM      4  C   UNL A   1      31.685  30.072  25.128  1.00  0.00     0.261 C 
BRANCH   4   5
ATOM      5  O   UNL A   1      30.680  29.121  24.681  1.00  0.00    -0.462 OA
BRANCH   5   6
ATOM      6  C   UNL A   1      30.055  29.350  23.503  1.00  0.00     0.327 C 
ATOM      7  O   UNL A   1      29.421  30.379  23.271  1.00  0.00    -0.250 OA
BRANCH   6   8
ATOM      8  C   UNL A   1      30.341  28.348  22.409  1.00  0.00     0.266 C 
BRANCH   8   9
ATOM      9  N   UNL A   1      31.026  27.103  22.750  1.00  0.00    -0.257 N 
ATOM     10  C   UNL A   1      30.613  23.892  24.156  1.00  0.00     0.070 C 
ATOM     11  C   UNL A   1      31.174  25.164  23.645  1.00  0.00     0.080 A 
ATOM     12  N   UNL A   1      30.303  26.135  23.342  1.00  0.00    -0.176 NA
ATOM     13  C   UNL A   1      32.498  25.612  23.456  1.00  0.00     0.126 A 
ATOM     14  C   UNL A   1      32.375  26.891  22.909  1.00  0.00     0.056 A 
ATOM     15  C   UNL A   1      33.394  27.915  22.574  1.00  0.00     0.068 C 
BRANCH  13  16
ATOM     16  S   UNL A   1      33.985  24.835  23.873  1.00  0.00     0.246 S 
ATOM     17  O   UNL A   1      34.676  24.748  22.603  1.00  0.00    -0.207 OA
ATOM     18  O   UNL A   1      34.491  25.675  24.940  1.00  0.00    -0.207 OA
BRANCH  16  19
ATOM     19  N   UNL A   1      33.835  23.298  24.481  1.00  0.00    -0.197 NA
ATOM     20  C   UNL A   1      33.587  23.018  25.895  1.00  0.00     0.103 C 
ATOM     21  C   UNL A   1      33.623  22.120  23.633  1.00  0.00     0.109 C 
ATOM     22  C   UNL A   1      32.902  21.655  25.895  1.00  0.00     0.024 C 
ATOM     23  C   UNL A   1      33.412  20.955  24.624  1.00  0.00    -0.020 C 
ATOM     24  C   UNL A   1      34.731  20.218  24.906  1.00  0.00     0.012 C 
ATOM     25  C   UNL A   1      32.379  19.956  24.095  1.00  0.00     0.012 C 
ENDBRANCH  16  19
ENDBRANCH  13  16
ENDBRANCH   8   9
ENDBRANCH   6   8
ENDBRANCH   5   6
ENDBRANCH   4   5
ENDBRANCH   3   4
ENDBRANCH   2   3
ENDBRANCH   1   2
BRANCH   1  26
ATOM     26  C   UNL A   1      34.122  32.298  28.115  1.00  0.00     0.188 C 
BRANCH  26  27
ATOM     27  O   UNL A   1      34.136  32.264  29.529  1.00  0.00    -0.376 OA
BRANCH  27  28
ATOM     28  C   UNL A   1      35.247  32.600  30.340  1.00  0.00     0.202 C 
BRANCH  28  29
ATOM     29  C   UNL A   1      36.621  32.031  29.991  1.00  0.00     0.261 C 
BRANCH  29  30
ATOM     30  O   UNL A   1      36.591  30.678  29.596  1.00  0.00    -0.460 OA
BRANCH  30  31
ATOM     31  C   UNL A   1      37.018  29.783  30.503  1.00  0.00     0.338 C 
ATOM     32  O   UNL A   1      36.833  29.810  31.718  1.00  0.00    -0.246 OA
BRANCH  31  33
ATOM     33  C   UNL A   1      37.725  28.737  29.758  1.00  0.00     0.060 A 
ATOM     34  C   UNL A   1      38.236  27.671  30.492  1.00  0.00     0.016 A 
ATOM     35  C   UNL A   1      38.093  28.985  28.423  1.00  0.00     0.016 A 
ATOM     36  C   UNL A   1      39.390  27.097  30.027  1.00  0.00     0.010 A 
ATOM     37  C   UNL A   1      39.259  28.442  27.976  1.00  0.00     0.010 A 
ATOM     38  C   UNL A   1      39.947  27.619  28.857  1.00  0.00    -0.014 A 
BRANCH  38  39
ATOM     39  C   UNL A   1      41.335  27.353  28.599  1.00  0.00     0.031 A 
ATOM     40  C   UNL A   1      41.542  26.083  27.897  1.00  0.00     0.074 A 
ATOM     41  C   UNL A   1      42.281  28.257  28.907  1.00  0.00     0.049 A 
ATOM     42  N   UNL A   1      41.964  24.976  28.402  1.00  0.00    -0.248 NA
ATOM     43  C   UNL A   1      40.981  25.962  26.543  1.00  0.00     0.031 C 
ATOM     44  C   UNL A   1      42.110  29.650  29.330  1.00  0.00     0.029 A 
ATOM     45  N   UNL A   1      43.625  28.137  28.792  1.00  0.00    -0.354 N 
ATOM     46  C   UNL A   1      41.982  24.091  27.335  1.00  0.00     0.074 A 
ATOM     47  C   UNL A   1      41.112  24.651  26.341  1.00  0.00     0.031 C 
ATOM     48  C   UNL A   1      43.293  30.299  29.198  1.00  0.00     0.029 A 
ATOM     49  C   UNL A   1      44.314  29.342  28.802  1.00  0.00     0.049 A 
ATOM     50  H   UNL A   1      44.077  27.266  28.709  1.00  0.00     0.167 HD
ATOM     51  C   UNL A   1      42.962  23.158  27.229  1.00  0.00     0.034 A 
ATOM     52  C   UNL A   1      45.601  29.528  28.402  1.00  0.00     0.034 A 
ATOM     53  C   UNL A   1      43.630  22.963  28.501  1.00  0.00     0.049 A 
ATOM     54  C   UNL A   1      46.258  28.191  28.446  1.00  0.00     0.074 A 
ATOM     55  C   UNL A   1      43.198  22.620  29.770  1.00  0.00     0.029 A 
ATOM     56  N   UNL A   1      44.879  23.522  28.677  1.00  0.00    -0.354 N 
ATOM     57  N   UNL A   1      46.457  27.524  29.553  1.00  0.00    -0.248 NA
ATOM     58  C   UNL A   1      46.224  27.372  27.239  1.00  0.00     0.031 C 
ATOM     59  C   UNL A   1      43.970  23.426  30.657  1.00  0.00     0.029 A 
ATOM     60  C   UNL A   1      44.885  24.158  29.897  1.00  0.00     0.049 A 
ATOM     61  H   UNL A   1      45.631  23.475  28.044  1.00  0.00     0.167 HD
ATOM     62  C   UNL A   1      46.147  26.206  29.247  1.00  0.00     0.074 A 
ATOM     63  C   UNL A   1      46.102  26.158  27.787  1.00  0.00     0.031 C 
ATOM     64  C   UNL A   1      45.660  25.350  30.197  1.00  0.00     0.034 A 
BRANCH  51  65
ATOM     65  C   UNL A   1      43.568  22.729  25.912  1.00  0.00     0.023 A 
ATOM     66  C   UNL A   1      43.778  21.352  25.739  1.00  0.00     0.031 A 
ATOM     67  C   UNL A   1      44.192  23.568  24.956  1.00  0.00     0.131 A 
ATOM     68  C   UNL A   1      44.651  20.875  24.749  1.00  0.00     0.055 A 
ATOM     69  C   UNL A   1      45.001  23.083  23.926  1.00  0.00     0.041 A 
ATOM     70  F   UNL A   1      44.143  24.903  25.001  1.00  0.00    -0.206 F 
ATOM     71  C   UNL A   1      45.266  21.731  23.840  1.00  0.00     0.022 A 
BRANCH  68  72
ATOM     72  S   UNL A   1      45.115  19.130  24.801  1.00  0.00     0.124 S 
ATOM     73  O   UNL A   1      46.224  19.151  25.749  1.00  0.00    -0.237 OA
ATOM     74  O   UNL A   1      43.879  18.510  25.268  1.00  0.00    -0.237 OA
ATOM     75  O   UNL A   1      45.479  18.837  23.418  1.00  0.00    -0.744 OA
ENDBRANCH  68  72
ENDBRANCH  51  65
BRANCH  52  76
ATOM     76  C   UNL A   1      46.133  30.693  27.640  1.00  0.00     0.023 A 
ATOM     77  C   UNL A   1      45.310  31.539  26.870  1.00  0.00     0.031 A 
ATOM     78  C   UNL A   1      47.463  31.129  27.851  1.00  0.00     0.131 A 
ATOM     79  C   UNL A   1      45.823  32.751  26.345  1.00  0.00     0.055 A 
ATOM     80  C   UNL A   1      47.967  32.320  27.324  1.00  0.00     0.041 A 
ATOM     81  F   UNL A   1      48.300  30.453  28.653  1.00  0.00    -0.206 F 
ATOM     82  C   UNL A   1      47.145  33.142  26.574  1.00  0.00     0.022 A 
BRANCH  79  83
ATOM     83  S   UNL A   1      44.741  33.892  25.425  1.00  0.00     0.124 S 
ATOM     84  O   UNL A   1      44.286  33.062  24.317  1.00  0.00    -0.237 OA
ATOM     85  O   UNL A   1      43.741  34.250  26.424  1.00  0.00    -0.237 OA
ATOM     86  O   UNL A   1      45.640  34.983  25.045  1.00  0.00    -0.744 OA
ENDBRANCH  79  83
ENDBRANCH  52  76
BRANCH  64  87
ATOM     87  C   UNL A   1      45.741  25.764  31.655  1.00  0.00     0.023 A 
ATOM     88  C   UNL A   1      46.868  25.581  32.491  1.00  0.00     0.031 A 
ATOM     89  C   UNL A   1      44.659  26.496  32.176  1.00  0.00     0.131 A 
ATOM     90  C   UNL A   1      46.876  26.120  33.794  1.00  0.00     0.055 A 
ATOM     91  C   UNL A   1      44.677  27.042  33.459  1.00  0.00     0.041 A 
ATOM     92  F   UNL A   1      43.571  26.730  31.423  1.00  0.00    -0.206 F 
ATOM     93  C   UNL A   1      45.784  26.851  34.276  1.00  0.00     0.022 A 
BRANCH  90  94
ATOM     94  S   UNL A   1      48.304  25.872  34.900  1.00  0.00     0.124 S 
ATOM     95  O   UNL A   1      49.348  25.383  34.008  1.00  0.00    -0.237 OA
ATOM     96  O   UNL A   1      48.509  27.207  35.455  1.00  0.00    -0.237 OA
ATOM     97  O   UNL A   1      47.818  24.884  35.867  1.00  0.00    -0.744 OA
ENDBRANCH  90  94
ENDBRANCH  64  87
ENDBRANCH  38  39
ENDBRANCH  31  33
ENDBRANCH  30  31
ENDBRANCH  29  30
ENDBRANCH  28  29
ENDBRANCH  27  28
ENDBRANCH  26  27
ENDBRANCH   1  26
TORSDOF 23
ENDMDL
MODEL 2
REMARK VINA RESULT:     -10.9      1.734      2.440
REMARK SMILES Cc1nn(CC(=O)OCCOCCOCCOC(=O)c2ccc(-c3c4nc(c(-c5cc(S(=O)(=O)[O-])ccc5F)c5ccc([nH]5)c(-c5cc(S(=O)(=O)[O-])ccc5F)c5nc(c(-c6cc(S(=O)(=O)[O-])ccc6F)c6ccc3[nH]6)C=C5)C=C4)cc2)c(C)c1S(=O)(=O)N1CCC(C)(C)C1
REMARK SMILES IDX 12 1 11 2 10 3 9 4 8 5 6 6 7 7 5 8 4 9 1 10 2 11 3 12 85 13
REMARK SMILES IDX 83 14 84 15 86 16 87 17 88 18 89 19 90 20 95 21 91 22 92 23
REMARK SMILES IDX 93 24 94 25 13 26 14 27 15 28 16 29 17 30 18 31 19 32 20 33
REMARK SMILES IDX 21 34 82 35 22 36 81 37 23 38 24 39 25 40 75 41 26 42 80 43
REMARK SMILES IDX 74 44 76 45 27 46 79 47 73 48 72 49 28 51 60 52 40 53 59 54
REMARK SMILES IDX 41 55 44 56 58 57 77 58 42 59 43 60 57 62 78 63 45 64 29 65
REMARK SMILES IDX 30 66 38 67 31 68 37 69 39 70 36 71 32 72 33 73 34 74 35 75
REMARK SMILES IDX 61 76 62 77 70 78 63 79 69 80 71 81 68 82 64 83 65 84 66 85
REMARK SMILES IDX 67 86 46 87 47 88 55 89 48 90 54 91 56 92 53 93 49 94 50 95
REMARK SMILES IDX 51 96 52 97
REMARK H PARENT 76 50 44 61
REMARK Flexibility Score: inf
ROOT
ATOM      1  C   UNL A   1      34.978  31.366  27.630  1.00  0.00     0.188 C 
ENDROOT
BRANCH   1   2
ATOM      2  O   UNL A   1      33.941  30.800  26.833  1.00  0.00    -0.376 OA
BRANCH   2   3
ATOM      3  C   UNL A   1      33.318  29.615  27.339  1.00  0.00     0.202 C 
BRANCH   3   4
ATOM      4  C   UNL A   1      33.546  28.294  26.560  1.00  0.00     0.261 C 
BRANCH   4   5
ATOM      5  O   UNL A   1      32.491  27.952  25.619  1.00  0.00    -0.462 OA
BRANCH   5   6
ATOM      6  C   UNL A   1      32.814  27.219  24.529  1.00  0.00     0.327 C 
ATOM      7  O   UNL A   1      33.574  27.624  23.651  1.00  0.00    -0.250 OA
BRANCH   6   8
ATOM      8  C   UNL A   1      32.336  25.785  24.545  1.00  0.00     0.266 C 
BRANCH   8   9
ATOM      9  N   UNL A   1      33.314  24.715  24.721  1.00  0.00    -0.257 N 
ATOM     10  C   UNL A   1      36.170  23.178  23.326  1.00  0.00     0.070 C 
ATOM     11  C   UNL A   1      34.948  23.474  24.110  1.00  0.00     0.080 A 
ATOM     12  N   UNL A   1      34.261  24.573  23.775  1.00  0.00    -0.176 NA
ATOM     13  C   UNL A   1      34.291  22.778  25.146  1.00  0.00     0.126 A 
ATOM     14  C   UNL A   1      33.210  23.586  25.500  1.00  0.00     0.056 A 
ATOM     15  C   UNL A   1      32.096  23.370  26.454  1.00  0.00     0.068 C 
BRANCH  13  16
ATOM     16  S   UNL A   1      34.644  21.221  25.813  1.00  0.00     0.246 S 
ATOM     17  O   UNL A   1      36.060  21.066  25.546  1.00  0.00    -0.207 OA
ATOM     18  O   UNL A   1      34.152  21.341  27.170  1.00  0.00    -0.207 OA
BRANCH  16  19
ATOM     19  N   UNL A   1      33.847  19.951  25.105  1.00  0.00    -0.197 NA
ATOM     20  C   UNL A   1      32.592  20.104  24.370  1.00  0.00     0.103 C 
ATOM     21  C   UNL A   1      34.469  18.641  24.880  1.00  0.00     0.109 C 
ATOM     22  C   UNL A   1      32.575  18.924  23.403  1.00  0.00     0.024 C 
ATOM     23  C   UNL A   1      33.415  17.836  24.090  1.00  0.00    -0.020 C 
ATOM     24  C   UNL A   1      32.539  16.992  25.031  1.00  0.00     0.012 C 
ATOM     25  C   UNL A   1      34.077  16.918  23.058  1.00  0.00     0.012 C 
ENDBRANCH  16  19
ENDBRANCH  13  16
ENDBRANCH   8   9
ENDBRANCH   6   8
ENDBRANCH   5   6
ENDBRANCH   4   5
ENDBRANCH   3   4
ENDBRANCH   2   3
ENDBRANCH   1   2
BRANCH   1  26
ATOM     26  C   UNL A   1      34.662  32.691  28.340  1.00  0.00     0.188 C 
BRANCH  26  27
ATOM     27  O   UNL A   1      34.125  32.500  29.635  1.00  0.00    -0.376 OA
BRANCH  27  28
ATOM     28  C   UNL A   1      34.887  32.397  30.824  1.00  0.00     0.202 C 
BRANCH  28  29
ATOM     29  C   UNL A   1      36.316  31.862  30.747  1.00  0.00     0.261 C 
BRANCH  29  30
ATOM     30  O   UNL A   1      36.392  30.499  30.395  1.00  0.00    -0.460 OA
BRANCH  30  31
ATOM     31  C   UNL A   1      37.204  29.734  31.146  1.00  0.00     0.338 C 
ATOM     32  O   UNL A   1      37.357  29.786  32.365  1.00  0.00    -0.246 OA
BRANCH  31  33
ATOM     33  C   UNL A   1      37.854  28.792  30.232  1.00  0.00     0.060 A 
ATOM     34  C   UNL A   1      38.332  27.605  30.778  1.00  0.00     0.016 A 
ATOM     35  C   UNL A   1      38.211  29.231  28.943  1.00  0.00     0.016 A 
ATOM     36  C   UNL A   1      39.454  27.067  30.204  1.00  0.00     0.010 A 
ATOM     37  C   UNL A   1      39.347  28.721  28.391  1.00  0.00     0.010 A 
ATOM     38  C   UNL A   1      40.014  27.744  29.117  1.00  0.00    -0.014 A 
BRANCH  38  39
ATOM     39  C   UNL A   1      41.385  27.469  28.790  1.00  0.00     0.031 A 
ATOM     40  C   UNL A   1      41.548  26.195  28.085  1.00  0.00     0.074 A 
ATOM     41  C   UNL A   1      42.351  28.368  29.045  1.00  0.00     0.049 A 
ATOM     42  N   UNL A   1      41.990  25.087  28.573  1.00  0.00    -0.248 NA
ATOM     43  C   UNL A   1      40.919  26.070  26.762  1.00  0.00     0.031 C 
ATOM     44  C   UNL A   1      42.210  29.764  29.469  1.00  0.00     0.029 A 
ATOM     45  N   UNL A   1      43.687  28.239  28.863  1.00  0.00    -0.354 N 
ATOM     46  C   UNL A   1      41.948  24.197  27.510  1.00  0.00     0.074 A 
ATOM     47  C   UNL A   1      41.031  24.758  26.560  1.00  0.00     0.031 C 
ATOM     48  C   UNL A   1      43.388  30.405  29.274  1.00  0.00     0.029 A 
ATOM     49  C   UNL A   1      44.382  29.440  28.831  1.00  0.00     0.049 A 
ATOM     50  H   UNL A   1      44.129  27.365  28.760  1.00  0.00     0.167 HD
ATOM     51  C   UNL A   1      42.916  23.257  27.359  1.00  0.00     0.034 A 
ATOM     52  C   UNL A   1      45.648  29.616  28.366  1.00  0.00     0.034 A 
ATOM     53  C   UNL A   1      43.647  23.064  28.596  1.00  0.00     0.049 A 
ATOM     54  C   UNL A   1      46.298  28.276  28.382  1.00  0.00     0.074 A 
ATOM     55  C   UNL A   1      43.278  22.730  29.887  1.00  0.00     0.029 A 
ATOM     56  N   UNL A   1      44.906  23.617  28.706  1.00  0.00    -0.354 N 
ATOM     57  N   UNL A   1      46.550  27.613  29.481  1.00  0.00    -0.248 NA
ATOM     58  C   UNL A   1      46.198  27.452  27.183  1.00  0.00     0.031 C 
ATOM     59  C   UNL A   1      44.098  23.535  30.730  1.00  0.00     0.029 A 
ATOM     60  C   UNL A   1      44.979  24.258  29.921  1.00  0.00     0.049 A 
ATOM     61  H   UNL A   1      45.625  23.562  28.035  1.00  0.00     0.167 HD
ATOM     62  C   UNL A   1      46.217  26.295  29.198  1.00  0.00     0.074 A 
ATOM     63  C   UNL A   1      46.097  26.241  27.742  1.00  0.00     0.031 C 
ATOM     64  C   UNL A   1      45.775  25.446  30.175  1.00  0.00     0.034 A 
BRANCH  51  65
ATOM     65  C   UNL A   1      43.451  22.819  26.015  1.00  0.00     0.023 A 
ATOM     66  C   UNL A   1      43.546  21.435  25.800  1.00  0.00     0.031 A 
ATOM     67  C   UNL A   1      44.116  23.633  25.064  1.00  0.00     0.131 A 
ATOM     68  C   UNL A   1      44.352  20.919  24.775  1.00  0.00     0.055 A 
ATOM     69  C   UNL A   1      44.856  23.114  24.000  1.00  0.00     0.041 A 
ATOM     70  F   UNL A   1      44.175  24.966  25.145  1.00  0.00    -0.206 F 
ATOM     71  C   UNL A   1      45.010  21.748  23.871  1.00  0.00     0.022 A 
BRANCH  68  72
ATOM     72  S   UNL A   1      44.676  19.141  24.769  1.00  0.00     0.124 S 
ATOM     73  O   UNL A   1      43.387  18.609  25.201  1.00  0.00    -0.237 OA
ATOM     74  O   UNL A   1      45.034  18.911  23.374  1.00  0.00    -0.237 OA
ATOM     75  O   UNL A   1      45.767  18.995  25.728  1.00  0.00    -0.744 OA
ENDBRANCH  68  72
ENDBRANCH  51  65
BRANCH  52  76
ATOM     76  C   UNL A   1      46.147  30.775  27.572  1.00  0.00     0.023 A 
ATOM     77  C   UNL A   1      45.294  31.604  26.815  1.00  0.00     0.031 A 
ATOM     78  C   UNL A   1      47.479  31.224  27.736  1.00  0.00     0.131 A 
ATOM     79  C   UNL A   1      45.782  32.812  26.259  1.00  0.00     0.055 A 
ATOM     80  C   UNL A   1      47.957  32.412  27.178  1.00  0.00     0.041 A 
ATOM     81  F   UNL A   1      48.346  30.567  28.522  1.00  0.00    -0.206 F 
ATOM     82  C   UNL A   1      47.106  33.217  26.442  1.00  0.00     0.022 A 
BRANCH  79  83
ATOM     83  S   UNL A   1      44.663  33.932  25.356  1.00  0.00     0.124 S 
ATOM     84  O   UNL A   1      44.171  33.079  24.281  1.00  0.00    -0.237 OA
ATOM     85  O   UNL A   1      43.698  34.306  26.383  1.00  0.00    -0.237 OA
ATOM     86  O   UNL A   1      45.544  35.018  24.923  1.00  0.00    -0.744 OA
ENDBRANCH  79  83
ENDBRANCH  52  76
BRANCH  64  87
ATOM     87  C   UNL A   1      45.932  25.867  31.625  1.00  0.00     0.023 A 
ATOM     88  C   UNL A   1      44.870  26.243  32.482  1.00  0.00     0.031 A 
ATOM     89  C   UNL A   1      47.214  25.751  32.193  1.00  0.00     0.131 A 
ATOM     90  C   UNL A   1      45.119  26.493  33.848  1.00  0.00     0.055 A 
ATOM     91  C   UNL A   1      47.452  25.981  33.547  1.00  0.00     0.041 A 
ATOM     92  F   UNL A   1      48.259  25.368  31.440  1.00  0.00    -0.206 F 
ATOM     93  C   UNL A   1      46.406  26.359  34.379  1.00  0.00     0.022 A 
BRANCH  90  94
ATOM     94  S   UNL A   1      43.773  27.009  34.963  1.00  0.00     0.124 S 
ATOM     95  O   UNL A   1      44.293  28.216  35.594  1.00  0.00    -0.237 OA
ATOM     96  O   UNL A   1      42.655  27.198  34.043  1.00  0.00    -0.237 OA
ATOM     97  O   UNL A   1      43.624  25.866  35.868  1.00  0.00    -0.744 OA
ENDBRANCH  90  94
ENDBRANCH  64  87
ENDBRANCH  38  39
ENDBRANCH  31  33
ENDBRANCH  30  31
ENDBRANCH  29  30
ENDBRANCH  28  29
ENDBRANCH  27  28
ENDBRANCH  26  27
ENDBRANCH   1  26
TORSDOF 23
ENDMDL
MODEL 3
REMARK VINA RESULT:     -10.7      1.619      2.012
REMARK SMILES Cc1nn(CC(=O)OCCOCCOCCOC(=O)c2ccc(-c3c4nc(c(-c5cc(S(=O)(=O)[O-])ccc5F)c5ccc([nH]5)c(-c5cc(S(=O)(=O)[O-])ccc5F)c5nc(c(-c6cc(S(=O)(=O)[O-])ccc6F)c6ccc3[nH]6)C=C5)C=C4)cc2)c(C)c1S(=O)(=O)N1CCC(C)(C)C1
REMARK SMILES IDX 12 1 11 2 10 3 9 4 8 5 6 6 7 7 5 8 4 9 1 10 2 11 3 12 85 13
REMARK SMILES IDX 83 14 84 15 86 16 87 17 88 18 89 19 90 20 95 21 91 22 92 23
REMARK SMILES IDX 93 24 94 25 13 26 14 27 15 28 16 29 17 30 18 31 19 32 20 33
REMARK SMILES IDX 21 34 82 35 22 36 81 37 23 38 24 39 25 40 75 41 26 42 80 43
REMARK SMILES IDX 74 44 76 45 27 46 79 47 73 48 72 49 28 51 60 52 40 53 59 54
REMARK SMILES IDX 41 55 44 56 58 57 77 58 42 59 43 60 57 62 78 63 45 64 29 65
REMARK SMILES IDX 30 66 38 67 31 68 37 69 39 70 36 71 32 72 33 73 34 74 35 75
REMARK SMILES IDX 61 76 62 77 70 78 63 79 69 80 71 81 68 82 64 83 65 84 66 85
REMARK SMILES IDX 67 86 46 87 47 88 55 89 48 90 54 91 56 92 53 93 49 94 50 95
REMARK SMILES IDX 51 96 52 97
REMARK H PARENT 76 50 44 61
REMARK Flexibility Score: inf
ROOT
ATOM      1  C   UNL A   1      35.077  30.590  27.503  1.00  0.00     0.188 C 
ENDROOT
BRANCH   1   2
ATOM      2  O   UNL A   1      34.106  30.536  26.462  1.00  0.00    -0.376 OA
BRANCH   2   3
ATOM      3  C   UNL A   1      32.754  30.287  26.858  1.00  0.00     0.202 C 
BRANCH   3   4
ATOM      4  C   UNL A   1      32.129  28.923  26.468  1.00  0.00     0.261 C 
BRANCH   4   5
ATOM      5  O   UNL A   1      31.030  29.005  25.519  1.00  0.00    -0.462 OA
BRANCH   5   6
ATOM      6  C   UNL A   1      31.179  28.417  24.310  1.00  0.00     0.327 C 
ATOM      7  O   UNL A   1      32.172  28.581  23.603  1.00  0.00    -0.250 OA
BRANCH   6   8
ATOM      8  C   UNL A   1      30.133  27.384  23.957  1.00  0.00     0.266 C 
BRANCH   8   9
ATOM      9  N   UNL A   1      30.383  25.983  24.286  1.00  0.00    -0.257 N 
ATOM     10  C   UNL A   1      30.222  23.564  26.852  1.00  0.00     0.070 C 
ATOM     11  C   UNL A   1      30.541  24.311  25.613  1.00  0.00     0.080 A 
ATOM     12  N   UNL A   1      30.132  25.584  25.546  1.00  0.00    -0.176 NA
ATOM     13  C   UNL A   1      31.271  23.966  24.456  1.00  0.00     0.126 A 
ATOM     14  C   UNL A   1      31.186  25.083  23.625  1.00  0.00     0.056 A 
ATOM     15  C   UNL A   1      31.815  25.381  22.316  1.00  0.00     0.068 C 
BRANCH  13  16
ATOM     16  S   UNL A   1      32.172  22.528  24.120  1.00  0.00     0.246 S 
ATOM     17  O   UNL A   1      31.636  21.577  25.074  1.00  0.00    -0.207 OA
ATOM     18  O   UNL A   1      31.964  22.351  22.697  1.00  0.00    -0.207 OA
BRANCH  16  19
ATOM     19  N   UNL A   1      33.808  22.642  24.373  1.00  0.00    -0.197 NA
ATOM     20  C   UNL A   1      34.428  23.737  25.118  1.00  0.00     0.103 C 
ATOM     21  C   UNL A   1      34.730  21.522  24.155  1.00  0.00     0.109 C 
ATOM     22  C   UNL A   1      35.731  23.144  25.644  1.00  0.00     0.024 C 
ATOM     23  C   UNL A   1      36.101  22.043  24.638  1.00  0.00    -0.020 C 
ATOM     24  C   UNL A   1      36.915  22.628  23.473  1.00  0.00     0.012 C 
ATOM     25  C   UNL A   1      36.911  20.932  25.311  1.00  0.00     0.012 C 
ENDBRANCH  16  19
ENDBRANCH  13  16
ENDBRANCH   8   9
ENDBRANCH   6   8
ENDBRANCH   5   6
ENDBRANCH   4   5
ENDBRANCH   3   4
ENDBRANCH   2   3
ENDBRANCH   1   2
BRANCH   1  26
ATOM     26  C   UNL A   1      35.431  31.981  28.049  1.00  0.00     0.188 C 
BRANCH  26  27
ATOM     27  O   UNL A   1      34.576  32.386  29.102  1.00  0.00    -0.376 OA
BRANCH  27  28
ATOM     28  C   UNL A   1      34.910  32.360  30.477  1.00  0.00     0.202 C 
BRANCH  28  29
ATOM     29  C   UNL A   1      36.216  31.696  30.912  1.00  0.00     0.261 C 
BRANCH  29  30
ATOM     30  O   UNL A   1      36.208  30.292  30.784  1.00  0.00    -0.460 OA
BRANCH  30  31
ATOM     31  C   UNL A   1      37.175  29.629  31.441  1.00  0.00     0.338 C 
ATOM     32  O   UNL A   1      37.448  29.706  32.636  1.00  0.00    -0.246 OA
BRANCH  31  33
ATOM     33  C   UNL A   1      37.825  28.757  30.458  1.00  0.00     0.060 A 
ATOM     34  C   UNL A   1      38.304  27.533  30.914  1.00  0.00     0.016 A 
ATOM     35  C   UNL A   1      38.181  29.292  29.206  1.00  0.00     0.016 A 
ATOM     36  C   UNL A   1      39.425  27.040  30.302  1.00  0.00     0.010 A 
ATOM     37  C   UNL A   1      39.317  28.825  28.617  1.00  0.00     0.010 A 
ATOM     38  C   UNL A   1      39.985  27.796  29.268  1.00  0.00    -0.014 A 
BRANCH  38  39
ATOM     39  C   UNL A   1      41.356  27.547  28.921  1.00  0.00     0.031 A 
ATOM     40  C   UNL A   1      41.532  26.281  28.204  1.00  0.00     0.074 A 
ATOM     41  C   UNL A   1      42.310  28.461  29.171  1.00  0.00     0.049 A 
ATOM     42  N   UNL A   1      41.998  25.178  28.677  1.00  0.00    -0.248 NA
ATOM     43  C   UNL A   1      40.887  26.156  26.888  1.00  0.00     0.031 C 
ATOM     44  C   UNL A   1      42.151  29.851  29.608  1.00  0.00     0.029 A 
ATOM     45  N   UNL A   1      43.645  28.356  28.970  1.00  0.00    -0.354 N 
ATOM     46  C   UNL A   1      41.957  24.296  27.609  1.00  0.00     0.074 A 
ATOM     47  C   UNL A   1      41.019  24.848  26.675  1.00  0.00     0.031 C 
ATOM     48  C   UNL A   1      43.315  30.514  29.402  1.00  0.00     0.029 A 
ATOM     49  C   UNL A   1      44.319  29.569  28.938  1.00  0.00     0.049 A 
ATOM     50  H   UNL A   1      44.100  27.491  28.855  1.00  0.00     0.167 HD
ATOM     51  C   UNL A   1      42.939  23.373  27.438  1.00  0.00     0.034 A 
ATOM     52  C   UNL A   1      45.576  29.770  28.458  1.00  0.00     0.034 A 
ATOM     53  C   UNL A   1      43.689  23.183  28.664  1.00  0.00     0.049 A 
ATOM     54  C   UNL A   1      46.249  28.441  28.456  1.00  0.00     0.074 A 
ATOM     55  C   UNL A   1      43.343  22.833  29.956  1.00  0.00     0.029 A 
ATOM     56  N   UNL A   1      44.941  23.756  28.761  1.00  0.00    -0.354 N 
ATOM     57  N   UNL A   1      46.526  27.774  29.546  1.00  0.00    -0.248 NA
ATOM     58  C   UNL A   1      46.147  27.625  27.251  1.00  0.00     0.031 C 
ATOM     59  C   UNL A   1      44.161  23.645  30.795  1.00  0.00     0.029 A 
ATOM     60  C   UNL A   1      45.018  24.390  29.980  1.00  0.00     0.049 A 
ATOM     61  H   UNL A   1      45.651  23.719  28.081  1.00  0.00     0.167 HD
ATOM     62  C   UNL A   1      46.212  26.453  29.257  1.00  0.00     0.074 A 
ATOM     63  C   UNL A   1      46.074  26.408  27.802  1.00  0.00     0.031 C 
ATOM     64  C   UNL A   1      45.797  25.590  30.233  1.00  0.00     0.034 A 
BRANCH  51  65
ATOM     65  C   UNL A   1      43.464  22.955  26.084  1.00  0.00     0.023 A 
ATOM     66  C   UNL A   1      43.461  21.578  25.809  1.00  0.00     0.031 A 
ATOM     67  C   UNL A   1      44.202  23.757  25.178  1.00  0.00     0.131 A 
ATOM     68  C   UNL A   1      44.245  21.048  24.774  1.00  0.00     0.055 A 
ATOM     69  C   UNL A   1      44.921  23.231  24.103  1.00  0.00     0.041 A 
ATOM     70  F   UNL A   1      44.358  25.077  25.318  1.00  0.00    -0.206 F 
ATOM     71  C   UNL A   1      44.977  21.864  23.917  1.00  0.00     0.022 A 
BRANCH  68  72
ATOM     72  S   UNL A   1      44.437  19.253  24.694  1.00  0.00     0.124 S 
ATOM     73  O   UNL A   1      44.571  19.037  23.257  1.00  0.00    -0.237 OA
ATOM     74  O   UNL A   1      45.641  19.049  25.493  1.00  0.00    -0.237 OA
ATOM     75  O   UNL A   1      43.200  18.755  25.289  1.00  0.00    -0.744 OA
ENDBRANCH  68  72
ENDBRANCH  51  65
BRANCH  52  76
ATOM     76  C   UNL A   1      46.045  30.943  27.667  1.00  0.00     0.023 A 
ATOM     77  C   UNL A   1      45.206  31.648  26.780  1.00  0.00     0.031 A 
ATOM     78  C   UNL A   1      47.298  31.535  27.954  1.00  0.00     0.131 A 
ATOM     79  C   UNL A   1      45.631  32.879  26.221  1.00  0.00     0.055 A 
ATOM     80  C   UNL A   1      47.716  32.744  27.393  1.00  0.00     0.041 A 
ATOM     81  F   UNL A   1      48.130  31.003  28.863  1.00  0.00    -0.206 F 
ATOM     82  C   UNL A   1      46.879  33.427  26.528  1.00  0.00     0.022 A 
BRANCH  79  83
ATOM     83  S   UNL A   1      44.517  33.840  25.146  1.00  0.00     0.124 S 
ATOM     84  O   UNL A   1      43.721  32.795  24.512  1.00  0.00    -0.237 OA
ATOM     85  O   UNL A   1      43.824  34.698  26.099  1.00  0.00    -0.237 OA
ATOM     86  O   UNL A   1      45.434  34.543  24.246  1.00  0.00    -0.744 OA
ENDBRANCH  79  83
ENDBRANCH  52  76
BRANCH  64  87
ATOM     87  C   UNL A   1      45.966  26.001  31.685  1.00  0.00     0.023 A 
ATOM     88  C   UNL A   1      44.921  26.441  32.532  1.00  0.00     0.031 A 
ATOM     89  C   UNL A   1      47.234  25.811  32.263  1.00  0.00     0.131 A 
ATOM     90  C   UNL A   1      45.173  26.677  33.899  1.00  0.00     0.055 A 
ATOM     91  C   UNL A   1      47.474  26.028  33.619  1.00  0.00     0.041 A 
ATOM     92  F   UNL A   1      48.261  25.367  31.519  1.00  0.00    -0.206 F 
ATOM     93  C   UNL A   1      46.445  26.468  34.442  1.00  0.00     0.022 A 
BRANCH  90  94
ATOM     94  S   UNL A   1      43.850  27.272  35.003  1.00  0.00     0.124 S 
ATOM     95  O   UNL A   1      43.390  28.496  34.359  1.00  0.00    -0.237 OA
ATOM     96  O   UNL A   1      42.910  26.154  35.000  1.00  0.00    -0.237 OA
ATOM     97  O   UNL A   1      44.539  27.478  36.280  1.00  0.00    -0.744 OA
ENDBRANCH  90  94
ENDBRANCH  64  87
ENDBRANCH  38  39
ENDBRANCH  31  33
ENDBRANCH  30  31
ENDBRANCH  29  30
ENDBRANCH  28  29
ENDBRANCH  27  28
ENDBRANCH  26  27
ENDBRANCH   1  26
TORSDOF 23
ENDMDL
