MODEL 1
REMARK VINA RESULT:     -11.6      0.000      0.000
REMARK SMILES Cc1c(NCc2ccccn2)cccc1C(=O)N1CCOC[C@@H]1CC(=O)OCCOCCOCCOC(=O)c1ccc(-c2c3nc(c(-c4cc(S(=O)(=O)[O-])ccc4F)c4ccc([nH]4)c(-c4cc(S(=O)(=O)[O-])ccc4F)c4nc(c(-c5cc(S(=O)(=O)[O-])ccc5F)c5ccc2[nH]5)C=C4)C=C3)cc1
REMARK SMILES IDX 30 1 29 2 28 3 27 4 25 5 26 6 24 7 23 8 18 9 19 10 20 11
REMARK SMILES IDX 22 12 21 13 16 14 17 15 15 16 1 17 2 18 3 19 12 20 14 21
REMARK SMILES IDX 13 22 4 23 5 25 6 26 7 27 11 28 8 29 10 30 9 31 31 32 32 33
REMARK SMILES IDX 33 34 34 35 35 36 36 37 37 38 38 39 39 40 40 41 101 42 41 43
REMARK SMILES IDX 100 44 42 45 43 46 44 47 94 48 45 49 99 50 93 51 95 52 46 53
REMARK SMILES IDX 98 54 92 55 91 56 47 58 79 59 59 60 78 61 60 62 63 63 77 64
REMARK SMILES IDX 96 65 61 66 62 67 76 69 97 70 64 71 48 72 49 73 57 74 50 75
REMARK SMILES IDX 56 76 58 77 55 78 51 79 52 80 53 81 54 82 80 83 81 84 89 85
REMARK SMILES IDX 82 86 88 87 90 88 87 89 83 90 84 91 85 92 86 93 65 94 66 95
REMARK SMILES IDX 74 96 67 97 73 98 75 99 72 100 68 101 69 102 70 103 71 104
REMARK H PARENT 4 24 95 57 63 68
REMARK Flexibility Score: inf
ROOT
ATOM      1  O   UNL A   1      34.027  33.475  28.148  1.00  0.00    -0.376 OA
ENDROOT
BRANCH   1   2
ATOM      2  C   UNL A   1      35.153  32.603  28.000  1.00  0.00     0.202 C 
BRANCH   2   3
ATOM      3  C   UNL A   1      34.869  31.107  27.740  1.00  0.00     0.261 C 
BRANCH   3   4
ATOM      4  O   UNL A   1      33.510  30.788  27.294  1.00  0.00    -0.463 OA
BRANCH   4   5
ATOM      5  C   UNL A   1      33.418  29.565  26.687  1.00  0.00     0.308 C 
ATOM      6  O   UNL A   1      34.410  28.882  26.442  1.00  0.00    -0.252 OA
BRANCH   5   7
ATOM      7  C   UNL A   1      32.019  28.959  26.503  1.00  0.00     0.150 C 
BRANCH   7   8
ATOM      8  C   UNL A   1      31.161  28.460  25.334  1.00  0.00     0.122 C 
ATOM      9  N   UNL A   1      31.272  27.074  24.899  1.00  0.00    -0.330 N 
ATOM     10  C   UNL A   1      30.371  26.741  23.795  1.00  0.00     0.148 C 
ATOM     11  C   UNL A   1      30.514  27.732  22.645  1.00  0.00     0.181 C 
ATOM     12  C   UNL A   1      31.122  29.445  24.128  1.00  0.00     0.185 C 
ATOM     13  O   UNL A   1      30.179  29.044  23.114  1.00  0.00    -0.377 OA
BRANCH   9  14
ATOM     14  C   UNL A   1      31.406  26.099  25.874  1.00  0.00     0.254 C 
ATOM     15  O   UNL A   1      30.652  26.030  26.840  1.00  0.00    -0.269 OA
BRANCH  14  16
ATOM     16  C   UNL A   1      32.506  25.112  25.672  1.00  0.00     0.045 A 
ATOM     17  C   UNL A   1      30.961  23.083  25.891  1.00  0.00     0.047 C 
ATOM     18  C   UNL A   1      32.319  23.704  25.660  1.00  0.00    -0.015 A 
ATOM     19  C   UNL A   1      33.426  22.873  25.372  1.00  0.00     0.038 A 
ATOM     20  C   UNL A   1      34.672  23.462  25.107  1.00  0.00     0.026 A 
ATOM     21  C   UNL A   1      33.765  25.668  25.398  1.00  0.00     0.014 A 
ATOM     22  C   UNL A   1      34.838  24.844  25.091  1.00  0.00     0.003 A 
BRANCH  19  23
ATOM     23  N   UNL A   1      33.289  21.495  25.395  1.00  0.00    -0.379 N 
ATOM     24  H   UNL A   1      32.392  21.124  25.560  1.00  0.00     0.160 HD
BRANCH  23  25
ATOM     25  C   UNL A   1      34.385  20.564  25.194  1.00  0.00     0.169 C 
BRANCH  25  26
ATOM     26  C   UNL A   1      33.987  19.304  24.440  1.00  0.00     0.059 A 
ATOM     27  C   UNL A   1      32.850  19.240  23.630  1.00  0.00     0.026 A 
ATOM     28  N   UNL A   1      34.772  18.211  24.638  1.00  0.00    -0.259 NA
ATOM     29  C   UNL A   1      32.522  18.051  22.989  1.00  0.00     0.004 A 
ATOM     30  C   UNL A   1      34.421  17.065  24.014  1.00  0.00     0.111 A 
ATOM     31  C   UNL A   1      33.321  16.937  23.185  1.00  0.00     0.020 A 
ENDBRANCH  25  26
ENDBRANCH  23  25
ENDBRANCH  19  23
ENDBRANCH  14  16
ENDBRANCH   9  14
ENDBRANCH   7   8
ENDBRANCH   5   7
ENDBRANCH   4   5
ENDBRANCH   3   4
ENDBRANCH   2   3
ENDBRANCH   1   2
BRANCH   1  32
ATOM     32  C   UNL A   1      34.292  34.867  28.294  1.00  0.00     0.188 C 
BRANCH  32  33
ATOM     33  C   UNL A   1      33.112  35.740  28.752  1.00  0.00     0.188 C 
BRANCH  33  34
ATOM     34  O   UNL A   1      32.665  35.349  30.059  1.00  0.00    -0.376 OA
BRANCH  34  35
ATOM     35  C   UNL A   1      32.940  36.299  31.090  1.00  0.00     0.202 C 
BRANCH  35  36
ATOM     36  C   UNL A   1      32.724  35.784  32.531  1.00  0.00     0.261 C 
BRANCH  36  37
ATOM     37  O   UNL A   1      33.935  35.171  33.028  1.00  0.00    -0.460 OA
BRANCH  37  38
ATOM     38  C   UNL A   1      33.943  33.797  33.061  1.00  0.00     0.338 C 
ATOM     39  O   UNL A   1      32.968  33.108  33.240  1.00  0.00    -0.246 OA
BRANCH  38  40
ATOM     40  C   UNL A   1      35.323  33.297  32.739  1.00  0.00     0.060 A 
ATOM     41  C   UNL A   1      35.891  33.222  31.451  1.00  0.00     0.016 A 
ATOM     42  C   UNL A   1      36.061  32.787  33.778  1.00  0.00     0.016 A 
ATOM     43  C   UNL A   1      37.175  32.607  31.224  1.00  0.00     0.010 A 
ATOM     44  C   UNL A   1      37.261  32.163  33.521  1.00  0.00     0.010 A 
ATOM     45  C   UNL A   1      37.890  32.054  32.285  1.00  0.00    -0.014 A 
BRANCH  45  46
ATOM     46  C   UNL A   1      39.011  31.054  32.371  1.00  0.00     0.031 A 
ATOM     47  C   UNL A   1      39.099  29.711  31.677  1.00  0.00     0.074 A 
ATOM     48  C   UNL A   1      40.193  31.720  32.482  1.00  0.00     0.049 A 
ATOM     49  N   UNL A   1      40.222  29.250  31.233  1.00  0.00    -0.248 NA
ATOM     50  C   UNL A   1      38.017  28.777  31.356  1.00  0.00     0.031 C 
ATOM     51  C   UNL A   1      41.515  31.455  31.916  1.00  0.00     0.029 A 
ATOM     52  N   UNL A   1      40.406  32.884  33.191  1.00  0.00    -0.354 N 
ATOM     53  C   UNL A   1      40.034  28.193  30.381  1.00  0.00     0.074 A 
ATOM     54  C   UNL A   1      38.623  27.914  30.505  1.00  0.00     0.031 C 
ATOM     55  C   UNL A   1      42.426  32.246  32.497  1.00  0.00     0.029 A 
ATOM     56  C   UNL A   1      41.756  32.931  33.573  1.00  0.00     0.049 A 
ATOM     57  H   UNL A   1      39.726  33.566  33.396  1.00  0.00     0.167 HD
ATOM     58  C   UNL A   1      41.123  27.752  29.668  1.00  0.00     0.034 A 
ATOM     59  C   UNL A   1      41.972  32.713  34.906  1.00  0.00     0.034 A 
ATOM     60  C   UNL A   1      42.355  28.099  30.391  1.00  0.00     0.049 A 
ATOM     61  C   UNL A   1      42.338  31.237  35.144  1.00  0.00     0.074 A 
ATOM     62  C   UNL A   1      43.501  28.855  30.253  1.00  0.00     0.029 A 
ATOM     63  N   UNL A   1      42.381  27.648  31.689  1.00  0.00    -0.354 N 
ATOM     64  N   UNL A   1      42.982  30.468  34.292  1.00  0.00    -0.248 NA
ATOM     65  C   UNL A   1      41.915  30.490  36.328  1.00  0.00     0.031 C 
ATOM     66  C   UNL A   1      44.083  28.994  31.574  1.00  0.00     0.029 A 
ATOM     67  C   UNL A   1      43.318  28.268  32.474  1.00  0.00     0.049 A 
ATOM     68  H   UNL A   1      41.782  26.942  32.025  1.00  0.00     0.167 HD
ATOM     69  C   UNL A   1      42.869  29.150  34.686  1.00  0.00     0.074 A 
ATOM     70  C   UNL A   1      42.252  29.232  36.004  1.00  0.00     0.031 C 
ATOM     71  C   UNL A   1      43.165  28.052  33.910  1.00  0.00     0.034 A 
BRANCH  58  72
ATOM     72  C   UNL A   1      41.153  26.949  28.384  1.00  0.00     0.023 A 
ATOM     73  C   UNL A   1      41.506  25.574  28.426  1.00  0.00     0.031 A 
ATOM     74  C   UNL A   1      40.994  27.493  27.096  1.00  0.00     0.131 A 
ATOM     75  C   UNL A   1      41.689  24.816  27.249  1.00  0.00     0.055 A 
ATOM     76  C   UNL A   1      41.156  26.731  25.925  1.00  0.00     0.041 A 
ATOM     77  F   UNL A   1      40.702  28.788  26.910  1.00  0.00    -0.206 F 
ATOM     78  C   UNL A   1      41.506  25.389  25.995  1.00  0.00     0.022 A 
BRANCH  75  79
ATOM     79  S   UNL A   1      42.203  23.074  27.368  1.00  0.00     0.124 S 
ATOM     80  O   UNL A   1      43.465  23.068  26.634  1.00  0.00    -0.237 OA
ATOM     81  O   UNL A   1      42.294  22.867  28.809  1.00  0.00    -0.237 OA
ATOM     82  O   UNL A   1      41.113  22.348  26.716  1.00  0.00    -0.744 OA
ENDBRANCH  75  79
ENDBRANCH  58  72
BRANCH  59  83
ATOM     83  C   UNL A   1      41.013  33.645  35.636  1.00  0.00     0.023 A 
ATOM     84  C   UNL A   1      39.752  33.048  35.949  1.00  0.00     0.031 A 
ATOM     85  C   UNL A   1      41.449  34.682  36.483  1.00  0.00     0.131 A 
ATOM     86  C   UNL A   1      39.109  33.325  37.169  1.00  0.00     0.055 A 
ATOM     87  C   UNL A   1      40.737  35.026  37.648  1.00  0.00     0.041 A 
ATOM     88  F   UNL A   1      42.651  35.253  36.321  1.00  0.00    -0.206 F 
ATOM     89  C   UNL A   1      39.599  34.311  38.023  1.00  0.00     0.022 A 
BRANCH  86  90
ATOM     90  S   UNL A   1      37.851  32.167  37.813  1.00  0.00     0.124 S 
ATOM     91  O   UNL A   1      37.918  31.075  36.850  1.00  0.00    -0.237 OA
ATOM     92  O   UNL A   1      38.325  31.864  39.160  1.00  0.00    -0.237 OA
ATOM     93  O   UNL A   1      36.627  32.967  37.786  1.00  0.00    -0.744 OA
ENDBRANCH  86  90
ENDBRANCH  59  83
BRANCH  71  94
ATOM     94  C   UNL A   1      43.133  26.632  34.487  1.00  0.00     0.023 A 
ATOM     95  C   UNL A   1      44.321  25.890  34.541  1.00  0.00     0.031 A 
ATOM     96  C   UNL A   1      41.977  25.942  34.939  1.00  0.00     0.131 A 
ATOM     97  C   UNL A   1      44.366  24.630  35.159  1.00  0.00     0.055 A 
ATOM     98  C   UNL A   1      42.005  24.637  35.446  1.00  0.00     0.041 A 
ATOM     99  F   UNL A   1      40.761  26.503  34.970  1.00  0.00    -0.206 F 
ATOM    100  C   UNL A   1      43.213  23.980  35.586  1.00  0.00     0.022 A 
BRANCH  97 101
ATOM    101  S   UNL A   1      45.991  23.930  35.528  1.00  0.00     0.124 S 
ATOM    102  O   UNL A   1      46.839  25.114  35.608  1.00  0.00    -0.237 OA
ATOM    103  O   UNL A   1      45.726  23.251  36.794  1.00  0.00    -0.237 OA
ATOM    104  O   UNL A   1      46.251  23.050  34.392  1.00  0.00    -0.744 OA
ENDBRANCH  97 101
ENDBRANCH  71  94
ENDBRANCH  45  46
ENDBRANCH  38  40
ENDBRANCH  37  38
ENDBRANCH  36  37
ENDBRANCH  35  36
ENDBRANCH  34  35
ENDBRANCH  33  34
ENDBRANCH  32  33
ENDBRANCH   1  32
TORSDOF 26
ENDMDL
MODEL 2
REMARK VINA RESULT:     -11.3      1.740      2.093
REMARK SMILES Cc1c(NCc2ccccn2)cccc1C(=O)N1CCOC[C@@H]1CC(=O)OCCOCCOCCOC(=O)c1ccc(-c2c3nc(c(-c4cc(S(=O)(=O)[O-])ccc4F)c4ccc([nH]4)c(-c4cc(S(=O)(=O)[O-])ccc4F)c4nc(c(-c5cc(S(=O)(=O)[O-])ccc5F)c5ccc2[nH]5)C=C4)C=C3)cc1
REMARK SMILES IDX 30 1 29 2 28 3 27 4 25 5 26 6 24 7 23 8 18 9 19 10 20 11
REMARK SMILES IDX 22 12 21 13 16 14 17 15 15 16 1 17 2 18 3 19 12 20 14 21
REMARK SMILES IDX 13 22 4 23 5 25 6 26 7 27 11 28 8 29 10 30 9 31 31 32 32 33
REMARK SMILES IDX 33 34 34 35 35 36 36 37 37 38 38 39 39 40 40 41 101 42 41 43
REMARK SMILES IDX 100 44 42 45 43 46 44 47 94 48 45 49 99 50 93 51 95 52 46 53
REMARK SMILES IDX 98 54 92 55 91 56 47 58 79 59 59 60 78 61 60 62 63 63 77 64
REMARK SMILES IDX 96 65 61 66 62 67 76 69 97 70 64 71 48 72 49 73 57 74 50 75
REMARK SMILES IDX 56 76 58 77 55 78 51 79 52 80 53 81 54 82 80 83 81 84 89 85
REMARK SMILES IDX 82 86 88 87 90 88 87 89 83 90 84 91 85 92 86 93 65 94 66 95
REMARK SMILES IDX 74 96 67 97 73 98 75 99 72 100 68 101 69 102 70 103 71 104
REMARK H PARENT 4 24 95 57 63 68
REMARK Flexibility Score: inf
ROOT
ATOM      1  O   UNL A   1      35.820  33.102  28.185  1.00  0.00    -0.376 OA
ENDROOT
BRANCH   1   2
ATOM      2  C   UNL A   1      35.366  31.836  28.675  1.00  0.00     0.202 C 
BRANCH   2   3
ATOM      3  C   UNL A   1      35.498  30.617  27.734  1.00  0.00     0.261 C 
BRANCH   3   4
ATOM      4  O   UNL A   1      34.400  30.432  26.781  1.00  0.00    -0.463 OA
BRANCH   4   5
ATOM      5  C   UNL A   1      33.922  29.150  26.757  1.00  0.00     0.308 C 
ATOM      6  O   UNL A   1      33.568  28.566  27.778  1.00  0.00    -0.252 OA
BRANCH   5   7
ATOM      7  C   UNL A   1      33.636  28.517  25.387  1.00  0.00     0.150 C 
BRANCH   7   8
ATOM      8  C   UNL A   1      32.396  28.159  24.557  1.00  0.00     0.122 C 
ATOM      9  N   UNL A   1      32.031  26.761  24.375  1.00  0.00    -0.330 N 
ATOM     10  C   UNL A   1      30.811  26.581  23.587  1.00  0.00     0.148 C 
ATOM     11  C   UNL A   1      30.884  27.348  22.270  1.00  0.00     0.181 C 
ATOM     12  C   UNL A   1      32.283  28.967  23.230  1.00  0.00     0.185 C 
ATOM     13  O   UNL A   1      31.032  28.745  22.550  1.00  0.00    -0.377 OA
BRANCH   9  14
ATOM     14  C   UNL A   1      32.172  25.909  25.458  1.00  0.00     0.254 C 
ATOM     15  O   UNL A   1      31.611  26.113  26.529  1.00  0.00    -0.269 OA
BRANCH  14  16
ATOM     16  C   UNL A   1      33.027  24.706  25.242  1.00  0.00     0.045 A 
ATOM     17  C   UNL A   1      31.064  23.222  24.536  1.00  0.00     0.047 C 
ATOM     18  C   UNL A   1      32.534  23.450  24.798  1.00  0.00    -0.015 A 
ATOM     19  C   UNL A   1      33.457  22.407  24.546  1.00  0.00     0.038 A 
ATOM     20  C   UNL A   1      34.826  22.645  24.742  1.00  0.00     0.026 A 
ATOM     21  C   UNL A   1      34.403  24.910  25.424  1.00  0.00     0.014 A 
ATOM     22  C   UNL A   1      35.301  23.888  25.149  1.00  0.00     0.003 A 
BRANCH  19  23
ATOM     23  N   UNL A   1      33.007  21.157  24.154  1.00  0.00    -0.379 N 
ATOM     24  H   UNL A   1      33.130  20.898  23.213  1.00  0.00     0.160 HD
BRANCH  23  25
ATOM     25  C   UNL A   1      32.362  20.208  25.045  1.00  0.00     0.169 C 
BRANCH  25  26
ATOM     26  C   UNL A   1      33.032  18.842  25.070  1.00  0.00     0.059 A 
ATOM     27  C   UNL A   1      34.245  18.588  24.425  1.00  0.00     0.026 A 
ATOM     28  N   UNL A   1      32.356  17.853  25.714  1.00  0.00    -0.259 NA
ATOM     29  C   UNL A   1      34.793  17.310  24.460  1.00  0.00     0.004 A 
ATOM     30  C   UNL A   1      32.905  16.618  25.719  1.00  0.00     0.111 A 
ATOM     31  C   UNL A   1      34.110  16.301  25.118  1.00  0.00     0.020 A 
ENDBRANCH  25  26
ENDBRANCH  23  25
ENDBRANCH  19  23
ENDBRANCH  14  16
ENDBRANCH   9  14
ENDBRANCH   7   8
ENDBRANCH   5   7
ENDBRANCH   4   5
ENDBRANCH   3   4
ENDBRANCH   2   3
ENDBRANCH   1   2
BRANCH   1  32
ATOM     32  C   UNL A   1      34.880  34.173  28.171  1.00  0.00     0.188 C 
BRANCH  32  33
ATOM     33  C   UNL A   1      33.402  33.780  28.018  1.00  0.00     0.188 C 
BRANCH  33  34
ATOM     34  O   UNL A   1      32.593  34.443  29.001  1.00  0.00    -0.376 OA
BRANCH  34  35
ATOM     35  C   UNL A   1      33.064  35.736  29.384  1.00  0.00     0.202 C 
BRANCH  35  36
ATOM     36  C   UNL A   1      32.751  36.143  30.842  1.00  0.00     0.261 C 
BRANCH  36  37
ATOM     37  O   UNL A   1      33.246  35.140  31.757  1.00  0.00    -0.460 OA
BRANCH  37  38
ATOM     38  C   UNL A   1      34.274  35.533  32.579  1.00  0.00     0.338 C 
ATOM     39  O   UNL A   1      34.373  36.626  33.083  1.00  0.00    -0.246 OA
BRANCH  38  40
ATOM     40  C   UNL A   1      35.188  34.367  32.829  1.00  0.00     0.060 A 
ATOM     41  C   UNL A   1      35.401  33.742  34.075  1.00  0.00     0.016 A 
ATOM     42  C   UNL A   1      35.946  33.927  31.773  1.00  0.00     0.016 A 
ATOM     43  C   UNL A   1      36.395  32.710  34.245  1.00  0.00     0.010 A 
ATOM     44  C   UNL A   1      36.920  32.977  31.979  1.00  0.00     0.010 A 
ATOM     45  C   UNL A   1      37.187  32.310  33.170  1.00  0.00    -0.014 A 
BRANCH  45  46
ATOM     46  C   UNL A   1      38.502  31.586  33.064  1.00  0.00     0.031 A 
ATOM     47  C   UNL A   1      38.741  30.188  32.534  1.00  0.00     0.074 A 
ATOM     48  C   UNL A   1      39.481  32.485  32.772  1.00  0.00     0.049 A 
ATOM     49  N   UNL A   1      39.803  29.893  31.859  1.00  0.00    -0.248 NA
ATOM     50  C   UNL A   1      37.870  29.014  32.630  1.00  0.00     0.031 C 
ATOM     51  C   UNL A   1      40.654  32.397  31.903  1.00  0.00     0.029 A 
ATOM     52  N   UNL A   1      39.572  33.774  33.256  1.00  0.00    -0.354 N 
ATOM     53  C   UNL A   1      39.677  28.687  31.220  1.00  0.00     0.074 A 
ATOM     54  C   UNL A   1      38.445  28.156  31.753  1.00  0.00     0.031 C 
ATOM     55  C   UNL A   1      41.461  33.445  32.119  1.00  0.00     0.029 A 
ATOM     56  C   UNL A   1      40.922  34.158  33.249  1.00  0.00     0.049 A 
ATOM     57  H   UNL A   1      38.817  34.331  33.557  1.00  0.00     0.167 HD
ATOM     58  C   UNL A   1      40.638  28.357  30.294  1.00  0.00     0.034 A 
ATOM     59  C   UNL A   1      41.495  34.225  34.490  1.00  0.00     0.034 A 
ATOM     60  C   UNL A   1      41.886  29.065  30.610  1.00  0.00     0.049 A 
ATOM     61  C   UNL A   1      42.250  32.917  34.790  1.00  0.00     0.074 A 
ATOM     62  C   UNL A   1      42.751  30.000  30.078  1.00  0.00     0.029 A 
ATOM     63  N   UNL A   1      42.328  28.862  31.895  1.00  0.00    -0.354 N 
ATOM     64  N   UNL A   1      42.838  32.156  33.891  1.00  0.00    -0.248 NA
ATOM     65  C   UNL A   1      42.313  32.318  36.122  1.00  0.00     0.031 C 
ATOM     66  C   UNL A   1      43.579  30.482  31.167  1.00  0.00     0.029 A 
ATOM     67  C   UNL A   1      43.248  29.786  32.319  1.00  0.00     0.049 A 
ATOM     68  H   UNL A   1      42.014  28.120  32.461  1.00  0.00     0.167 HD
ATOM     69  C   UNL A   1      43.141  30.933  34.451  1.00  0.00     0.074 A 
ATOM     70  C   UNL A   1      42.854  31.118  35.868  1.00  0.00     0.031 C 
ATOM     71  C   UNL A   1      43.498  29.798  33.757  1.00  0.00     0.034 A 
BRANCH  58  72
ATOM     72  C   UNL A   1      40.553  27.364  29.153  1.00  0.00     0.023 A 
ATOM     73  C   UNL A   1      41.636  26.478  28.913  1.00  0.00     0.031 A 
ATOM     74  C   UNL A   1      39.524  27.335  28.192  1.00  0.00     0.131 A 
ATOM     75  C   UNL A   1      41.672  25.635  27.781  1.00  0.00     0.055 A 
ATOM     76  C   UNL A   1      39.551  26.478  27.077  1.00  0.00     0.041 A 
ATOM     77  F   UNL A   1      38.462  28.149  28.273  1.00  0.00    -0.206 F 
ATOM     78  C   UNL A   1      40.626  25.625  26.864  1.00  0.00     0.022 A 
BRANCH  75  79
ATOM     79  S   UNL A   1      43.119  24.567  27.496  1.00  0.00     0.124 S 
ATOM     80  O   UNL A   1      43.849  25.297  26.463  1.00  0.00    -0.237 OA
ATOM     81  O   UNL A   1      43.742  24.519  28.814  1.00  0.00    -0.237 OA
ATOM     82  O   UNL A   1      42.531  23.303  27.052  1.00  0.00    -0.744 OA
ENDBRANCH  75  79
ENDBRANCH  58  72
BRANCH  59  83
ATOM     83  C   UNL A   1      40.543  35.057  35.339  1.00  0.00     0.023 A 
ATOM     84  C   UNL A   1      39.482  34.302  35.927  1.00  0.00     0.031 A 
ATOM     85  C   UNL A   1      40.945  36.221  36.022  1.00  0.00     0.131 A 
ATOM     86  C   UNL A   1      39.037  34.584  37.231  1.00  0.00     0.055 A 
ATOM     87  C   UNL A   1      40.413  36.553  37.281  1.00  0.00     0.041 A 
ATOM     88  F   UNL A   1      41.981  36.955  35.593  1.00  0.00    -0.206 F 
ATOM     89  C   UNL A   1      39.502  35.706  37.914  1.00  0.00     0.022 A 
BRANCH  86  90
ATOM     90  S   UNL A   1      38.135  33.306  38.176  1.00  0.00     0.124 S 
ATOM     91  O   UNL A   1      36.803  33.374  37.590  1.00  0.00    -0.237 OA
ATOM     92  O   UNL A   1      38.892  32.086  37.909  1.00  0.00    -0.237 OA
ATOM     93  O   UNL A   1      38.250  33.777  39.556  1.00  0.00    -0.744 OA
ENDBRANCH  86  90
ENDBRANCH  59  83
BRANCH  71  94
ATOM     94  C   UNL A   1      43.946  28.523  34.482  1.00  0.00     0.023 A 
ATOM     95  C   UNL A   1      43.186  28.048  35.560  1.00  0.00     0.031 A 
ATOM     96  C   UNL A   1      45.119  27.775  34.203  1.00  0.00     0.131 A 
ATOM     97  C   UNL A   1      43.491  26.829  36.186  1.00  0.00     0.055 A 
ATOM     98  C   UNL A   1      45.486  26.622  34.908  1.00  0.00     0.041 A 
ATOM     99  F   UNL A   1      45.954  28.078  33.201  1.00  0.00    -0.206 F 
ATOM    100  C   UNL A   1      44.654  26.124  35.891  1.00  0.00     0.022 A 
BRANCH  97 101
ATOM    101  S   UNL A   1      42.250  26.112  37.286  1.00  0.00     0.124 S 
ATOM    102  O   UNL A   1      42.936  26.089  38.572  1.00  0.00    -0.237 OA
ATOM    103  O   UNL A   1      41.166  27.084  37.162  1.00  0.00    -0.237 OA
ATOM    104  O   UNL A   1      41.983  24.803  36.696  1.00  0.00    -0.744 OA
ENDBRANCH  97 101
ENDBRANCH  71  94
ENDBRANCH  45  46
ENDBRANCH  38  40
ENDBRANCH  37  38
ENDBRANCH  36  37
ENDBRANCH  35  36
ENDBRANCH  34  35
ENDBRANCH  33  34
ENDBRANCH  32  33
ENDBRANCH   1  32
TORSDOF 26
ENDMDL
MODEL 3
REMARK VINA RESULT:     -10.5      2.595      4.822
REMARK SMILES Cc1c(NCc2ccccn2)cccc1C(=O)N1CCOC[C@@H]1CC(=O)OCCOCCOCCOC(=O)c1ccc(-c2c3nc(c(-c4cc(S(=O)(=O)[O-])ccc4F)c4ccc([nH]4)c(-c4cc(S(=O)(=O)[O-])ccc4F)c4nc(c(-c5cc(S(=O)(=O)[O-])ccc5F)c5ccc2[nH]5)C=C4)C=C3)cc1
REMARK SMILES IDX 30 1 29 2 28 3 27 4 25 5 26 6 24 7 23 8 18 9 19 10 20 11
REMARK SMILES IDX 22 12 21 13 16 14 17 15 15 16 1 17 2 18 3 19 12 20 14 21
REMARK SMILES IDX 13 22 4 23 5 25 6 26 7 27 11 28 8 29 10 30 9 31 31 32 32 33
REMARK SMILES IDX 33 34 34 35 35 36 36 37 37 38 38 39 39 40 40 41 101 42 41 43
REMARK SMILES IDX 100 44 42 45 43 46 44 47 94 48 45 49 99 50 93 51 95 52 46 53
REMARK SMILES IDX 98 54 92 55 91 56 47 58 79 59 59 60 78 61 60 62 63 63 77 64
REMARK SMILES IDX 96 65 61 66 62 67 76 69 97 70 64 71 48 72 49 73 57 74 50 75
REMARK SMILES IDX 56 76 58 77 55 78 51 79 52 80 53 81 54 82 80 83 81 84 89 85
REMARK SMILES IDX 82 86 88 87 90 88 87 89 83 90 84 91 85 92 86 93 65 94 66 95
REMARK SMILES IDX 74 96 67 97 73 98 75 99 72 100 68 101 69 102 70 103 71 104
REMARK H PARENT 4 24 95 57 63 68
REMARK Flexibility Score: inf
ROOT
ATOM      1  O   UNL A   1      31.479  31.589  26.463  1.00  0.00    -0.376 OA
ENDROOT
BRANCH   1   2
ATOM      2  C   UNL A   1      30.708  31.232  25.310  1.00  0.00     0.202 C 
BRANCH   2   3
ATOM      3  C   UNL A   1      31.177  30.012  24.487  1.00  0.00     0.261 C 
BRANCH   3   4
ATOM      4  O   UNL A   1      30.158  28.988  24.236  1.00  0.00    -0.463 OA
BRANCH   4   5
ATOM      5  C   UNL A   1      30.346  28.325  23.053  1.00  0.00     0.308 C 
ATOM      6  O   UNL A   1      30.665  28.910  22.021  1.00  0.00    -0.252 OA
BRANCH   5   7
ATOM      7  C   UNL A   1      30.355  26.790  23.086  1.00  0.00     0.150 C 
BRANCH   7   8
ATOM      8  C   UNL A   1      31.364  25.671  22.796  1.00  0.00     0.122 C 
ATOM      9  N   UNL A   1      32.282  25.240  23.842  1.00  0.00    -0.330 N 
ATOM     10  C   UNL A   1      33.160  24.147  23.424  1.00  0.00     0.148 C 
ATOM     11  C   UNL A   1      33.871  24.476  22.115  1.00  0.00     0.181 C 
ATOM     12  C   UNL A   1      32.080  25.821  21.421  1.00  0.00     0.185 C 
ATOM     13  O   UNL A   1      32.892  24.678  21.090  1.00  0.00    -0.377 OA
BRANCH   9  14
ATOM     14  C   UNL A   1      31.793  25.151  25.135  1.00  0.00     0.254 C 
ATOM     15  O   UNL A   1      31.208  24.155  25.548  1.00  0.00    -0.269 OA
BRANCH  14  16
ATOM     16  C   UNL A   1      32.043  26.329  26.015  1.00  0.00     0.045 A 
ATOM     17  C   UNL A   1      34.361  26.792  25.031  1.00  0.00     0.047 C 
ATOM     18  C   UNL A   1      33.225  27.116  25.973  1.00  0.00    -0.015 A 
ATOM     19  C   UNL A   1      33.309  28.262  26.799  1.00  0.00     0.038 A 
ATOM     20  C   UNL A   1      32.226  28.585  27.631  1.00  0.00     0.026 A 
ATOM     21  C   UNL A   1      30.978  26.683  26.857  1.00  0.00     0.014 A 
ATOM     22  C   UNL A   1      31.061  27.824  27.643  1.00  0.00     0.003 A 
BRANCH  19  23
ATOM     23  N   UNL A   1      34.463  29.027  26.814  1.00  0.00    -0.379 N 
ATOM     24  H   UNL A   1      35.280  28.637  26.426  1.00  0.00     0.160 HD
BRANCH  23  25
ATOM     25  C   UNL A   1      34.545  30.367  27.368  1.00  0.00     0.169 C 
BRANCH  25  26
ATOM     26  C   UNL A   1      35.895  30.691  27.990  1.00  0.00     0.059 A 
ATOM     27  C   UNL A   1      36.221  31.967  28.456  1.00  0.00     0.026 A 
ATOM     28  N   UNL A   1      36.801  29.677  28.023  1.00  0.00    -0.259 NA
ATOM     29  C   UNL A   1      37.483  32.208  28.988  1.00  0.00     0.004 A 
ATOM     30  C   UNL A   1      38.023  29.944  28.531  1.00  0.00     0.111 A 
ATOM     31  C   UNL A   1      38.407  31.178  29.026  1.00  0.00     0.020 A 
ENDBRANCH  25  26
ENDBRANCH  23  25
ENDBRANCH  19  23
ENDBRANCH  14  16
ENDBRANCH   9  14
ENDBRANCH   7   8
ENDBRANCH   5   7
ENDBRANCH   4   5
ENDBRANCH   3   4
ENDBRANCH   2   3
ENDBRANCH   1   2
BRANCH   1  32
ATOM     32  C   UNL A   1      31.646  32.978  26.735  1.00  0.00     0.188 C 
BRANCH  32  33
ATOM     33  C   UNL A   1      32.792  33.352  27.688  1.00  0.00     0.188 C 
BRANCH  33  34
ATOM     34  O   UNL A   1      32.565  34.641  28.277  1.00  0.00    -0.376 OA
BRANCH  34  35
ATOM     35  C   UNL A   1      33.633  35.115  29.098  1.00  0.00     0.202 C 
BRANCH  35  36
ATOM     36  C   UNL A   1      33.195  35.848  30.387  1.00  0.00     0.261 C 
BRANCH  36  37
ATOM     37  O   UNL A   1      34.101  35.539  31.469  1.00  0.00    -0.460 OA
BRANCH  37  38
ATOM     38  C   UNL A   1      33.606  34.712  32.448  1.00  0.00     0.338 C 
ATOM     39  O   UNL A   1      32.450  34.669  32.794  1.00  0.00    -0.246 OA
BRANCH  38  40
ATOM     40  C   UNL A   1      34.701  33.810  32.942  1.00  0.00     0.060 A 
ATOM     41  C   UNL A   1      35.236  33.803  34.247  1.00  0.00     0.016 A 
ATOM     42  C   UNL A   1      35.293  32.981  32.021  1.00  0.00     0.016 A 
ATOM     43  C   UNL A   1      36.375  32.990  34.594  1.00  0.00     0.010 A 
ATOM     44  C   UNL A   1      36.408  32.256  32.372  1.00  0.00     0.010 A 
ATOM     45  C   UNL A   1      36.990  32.189  33.633  1.00  0.00    -0.014 A 
BRANCH  45  46
ATOM     46  C   UNL A   1      38.346  31.543  33.535  1.00  0.00     0.031 A 
ATOM     47  C   UNL A   1      38.688  30.217  32.889  1.00  0.00     0.074 A 
ATOM     48  C   UNL A   1      39.290  32.513  33.388  1.00  0.00     0.049 A 
ATOM     49  N   UNL A   1      39.798  30.042  32.251  1.00  0.00    -0.248 NA
ATOM     50  C   UNL A   1      37.877  28.999  32.821  1.00  0.00     0.031 C 
ATOM     51  C   UNL A   1      40.511  32.567  32.584  1.00  0.00     0.029 A 
ATOM     52  N   UNL A   1      39.285  33.751  33.997  1.00  0.00    -0.354 N 
ATOM     53  C   UNL A   1      39.771  28.900  31.494  1.00  0.00     0.074 A 
ATOM     54  C   UNL A   1      38.543  28.260  31.902  1.00  0.00     0.031 C 
ATOM     55  C   UNL A   1      41.247  33.626  32.945  1.00  0.00     0.029 A 
ATOM     56  C   UNL A   1      40.612  34.198  34.105  1.00  0.00     0.049 A 
ATOM     57  H   UNL A   1      38.487  34.238  34.305  1.00  0.00     0.167 HD
ATOM     58  C   UNL A   1      40.796  28.709  30.598  1.00  0.00     0.034 A 
ATOM     59  C   UNL A   1      41.113  34.170  35.377  1.00  0.00     0.034 A 
ATOM     60  C   UNL A   1      41.986  29.441  31.052  1.00  0.00     0.049 A 
ATOM     61  C   UNL A   1      41.920  32.877  35.595  1.00  0.00     0.074 A 
ATOM     62  C   UNL A   1      42.827  30.465  30.664  1.00  0.00     0.029 A 
ATOM     63  N   UNL A   1      42.370  29.135  32.336  1.00  0.00    -0.354 N 
ATOM     64  N   UNL A   1      42.595  32.238  34.663  1.00  0.00    -0.248 NA
ATOM     65  C   UNL A   1      41.944  32.154  36.865  1.00  0.00     0.031 C 
ATOM     66  C   UNL A   1      43.569  30.877  31.839  1.00  0.00     0.029 A 
ATOM     67  C   UNL A   1      43.214  30.056  32.898  1.00  0.00     0.049 A 
ATOM     68  H   UNL A   1      42.066  28.327  32.809  1.00  0.00     0.167 HD
ATOM     69  C   UNL A   1      42.933  30.981  35.120  1.00  0.00     0.074 A 
ATOM     70  C   UNL A   1      42.562  31.012  36.529  1.00  0.00     0.031 C 
ATOM     71  C   UNL A   1      43.387  29.938  34.343  1.00  0.00     0.034 A 
BRANCH  58  72
ATOM     72  C   UNL A   1      40.825  27.830  29.364  1.00  0.00     0.023 A 
ATOM     73  C   UNL A   1      41.794  28.072  28.355  1.00  0.00     0.031 A 
ATOM     74  C   UNL A   1      39.859  26.855  29.053  1.00  0.00     0.131 A 
ATOM     75  C   UNL A   1      41.777  27.380  27.124  1.00  0.00     0.055 A 
ATOM     76  C   UNL A   1      39.855  26.150  27.836  1.00  0.00     0.041 A 
ATOM     77  F   UNL A   1      38.862  26.557  29.899  1.00  0.00    -0.206 F 
ATOM     78  C   UNL A   1      40.813  26.411  26.864  1.00  0.00     0.022 A 
BRANCH  75  79
ATOM     79  S   UNL A   1      43.009  27.780  25.846  1.00  0.00     0.124 S 
ATOM     80  O   UNL A   1      42.172  28.090  24.689  1.00  0.00    -0.237 OA
ATOM     81  O   UNL A   1      43.729  28.901  26.439  1.00  0.00    -0.237 OA
ATOM     82  O   UNL A   1      43.789  26.549  25.723  1.00  0.00    -0.744 OA
ENDBRANCH  75  79
ENDBRANCH  58  72
BRANCH  59  83
ATOM     83  C   UNL A   1      40.075  34.869  36.245  1.00  0.00     0.023 A 
ATOM     84  C   UNL A   1      39.224  33.972  36.964  1.00  0.00     0.031 A 
ATOM     85  C   UNL A   1      40.284  36.137  36.819  1.00  0.00     0.131 A 
ATOM     86  C   UNL A   1      38.820  34.264  38.279  1.00  0.00     0.055 A 
ATOM     87  C   UNL A   1      39.781  36.458  38.094  1.00  0.00     0.041 A 
ATOM     88  F   UNL A   1      41.125  37.021  36.263  1.00  0.00    -0.206 F 
ATOM     89  C   UNL A   1      39.099  35.504  38.849  1.00  0.00     0.022 A 
BRANCH  86  90
ATOM     90  S   UNL A   1      38.251  32.914  39.372  1.00  0.00     0.124 S 
ATOM     91  O   UNL A   1      39.498  32.232  39.691  1.00  0.00    -0.237 OA
ATOM     92  O   UNL A   1      37.605  33.619  40.475  1.00  0.00    -0.237 OA
ATOM     93  O   UNL A   1      37.319  32.175  38.521  1.00  0.00    -0.744 OA
ENDBRANCH  86  90
ENDBRANCH  59  83
BRANCH  71  94
ATOM     94  C   UNL A   1      43.863  28.622  34.968  1.00  0.00     0.023 A 
ATOM     95  C   UNL A   1      42.920  27.632  35.277  1.00  0.00     0.031 A 
ATOM     96  C   UNL A   1      45.199  28.307  35.330  1.00  0.00     0.131 A 
ATOM     97  C   UNL A   1      43.315  26.370  35.748  1.00  0.00     0.055 A 
ATOM     98  C   UNL A   1      45.576  27.090  35.911  1.00  0.00     0.041 A 
ATOM     99  F   UNL A   1      46.229  29.131  35.096  1.00  0.00    -0.206 F 
ATOM    100  C   UNL A   1      44.633  26.097  36.098  1.00  0.00     0.022 A 
BRANCH  97 101
ATOM    101  S   UNL A   1      42.085  25.046  35.745  1.00  0.00     0.124 S 
ATOM    102  O   UNL A   1      40.848  25.758  35.445  1.00  0.00    -0.237 OA
ATOM    103  O   UNL A   1      42.596  24.186  34.680  1.00  0.00    -0.237 OA
ATOM    104  O   UNL A   1      42.176  24.490  37.092  1.00  0.00    -0.744 OA
ENDBRANCH  97 101
ENDBRANCH  71  94
ENDBRANCH  45  46
ENDBRANCH  38  40
ENDBRANCH  37  38
ENDBRANCH  36  37
ENDBRANCH  35  36
ENDBRANCH  34  35
ENDBRANCH  33  34
ENDBRANCH  32  33
ENDBRANCH   1  32
TORSDOF 26
ENDMDL
