MODEL 1
REMARK VINA RESULT:     -10.9      0.000      0.000
REMARK SMILES Cc1ccc(C(=O)NC2CC2)cc1NC(=O)[C@@H]1[C@@H](C(=O)OCCOCCOCCOC(=O)c2ccc(-c3c4nc(c(-c5cc(S(=O)(=O)[O-])ccc5F)c5ccc([nH]5)c(-c5cc(S(=O)(=O)[O-])ccc5F)c5nc(c(-c6cc(S(=O)(=O)[O-])ccc6F)c6ccc3[nH]6)C=C5)C=C4)cc2)[C@H]2C=C[C@@H]1C2
REMARK SMILES IDX 25 1 24 2 23 3 22 4 21 5 19 6 20 7 18 8 17 9 99 10 96 11
REMARK SMILES IDX 98 12 100 13 97 14 15 15 14 16 16 18 13 19 1 20 2 21 3 22
REMARK SMILES IDX 4 23 12 24 5 25 6 26 7 27 8 28 9 30 10 31 11 32 26 33 27 34
REMARK SMILES IDX 28 35 29 36 30 37 31 38 32 39 33 40 34 41 95 42 35 43 94 44
REMARK SMILES IDX 36 45 37 46 38 47 88 48 39 49 93 50 87 51 89 52 40 53 92 54
REMARK SMILES IDX 86 55 85 56 41 58 73 59 53 60 72 61 54 62 57 63 71 64 90 65
REMARK SMILES IDX 55 66 56 67 70 69 91 70 58 71 42 72 43 73 51 74 44 75 50 76
REMARK SMILES IDX 52 77 49 78 45 79 46 80 47 81 48 82 74 83 75 84 83 85 76 86
REMARK SMILES IDX 82 87 84 88 81 89 77 90 78 91 79 92 80 93 59 94 60 95 68 96
REMARK SMILES IDX 61 97 67 98 69 99 66 100 62 101 63 102 64 103 65 104
REMARK H PARENT 14 17 8 29 89 57 57 68
REMARK Flexibility Score: inf
ROOT
ATOM      1  C   UNL A   1      39.222  23.504  27.108  1.00  0.00     0.188 C 
ENDROOT
BRANCH   1   2
ATOM      2  O   UNL A   1      38.322  23.415  26.012  1.00  0.00    -0.376 OA
BRANCH   2   3
ATOM      3  C   UNL A   1      38.213  22.064  25.575  1.00  0.00     0.202 C 
BRANCH   3   4
ATOM      4  C   UNL A   1      37.240  21.881  24.388  1.00  0.00     0.261 C 
BRANCH   4   5
ATOM      5  O   UNL A   1      35.867  22.656  24.401  1.00  0.00    -0.463 OA
BRANCH   5   6
ATOM      6  C   UNL A   1      34.856  23.490  24.762  1.00  0.00     0.310 C 
ATOM      7  O   UNL A   1      35.287  24.558  25.228  1.00  0.00    -0.252 OA
BRANCH   6   8
ATOM      8  C   UNL A   1      33.248  23.466  24.645  1.00  0.00     0.119 C 
ATOM      9  C   UNL A   1      32.660  24.902  24.320  1.00  0.00     0.100 C 
ATOM     10  C   UNL A   1      31.102  24.728  24.336  1.00  0.00     0.025 C 
ATOM     11  C   UNL A   1      31.916  22.903  25.343  1.00  0.00     0.027 C 
ATOM     12  C   UNL A   1      30.615  24.768  25.750  1.00  0.00    -0.027 C 
ATOM     13  C   UNL A   1      30.930  23.220  24.178  1.00  0.00     0.017 C 
ATOM     14  C   UNL A   1      31.165  23.716  26.365  1.00  0.00    -0.027 C 
BRANCH   9  15
ATOM     15  C   UNL A   1      33.069  25.462  22.989  1.00  0.00     0.228 C 
ATOM     16  N   UNL A   1      32.598  26.660  22.534  1.00  0.00    -0.326 N 
ATOM     17  H   UNL A   1      32.960  26.892  21.649  1.00  0.00     0.169 HD
ATOM     18  O   UNL A   1      33.719  24.771  22.194  1.00  0.00    -0.274 OA
BRANCH  16  19
ATOM     19  C   UNL A   1      31.714  27.648  23.030  1.00  0.00     0.044 A 
ATOM     20  C   UNL A   1      33.608  28.499  24.550  1.00  0.00     0.046 C 
ATOM     21  C   UNL A   1      32.221  28.569  23.971  1.00  0.00    -0.027 A 
ATOM     22  C   UNL A   1      31.391  29.599  24.452  1.00  0.00     0.006 A 
ATOM     23  C   UNL A   1      30.084  29.739  23.999  1.00  0.00     0.014 A 
ATOM     24  C   UNL A   1      30.363  27.758  22.670  1.00  0.00     0.040 A 
ATOM     25  C   UNL A   1      29.552  28.821  23.098  1.00  0.00     0.041 A 
BRANCH  25  26
ATOM     26  C   UNL A   1      28.120  29.021  22.718  1.00  0.00     0.251 C 
ATOM     27  O   UNL A   1      27.283  28.240  23.169  1.00  0.00    -0.269 OA
ATOM     28  N   UNL A   1      27.712  30.082  21.944  1.00  0.00    -0.349 N 
ATOM     29  H   UNL A   1      26.738  30.214  21.880  1.00  0.00     0.164 HD
BRANCH  28  30
ATOM     30  C   UNL A   1      28.505  31.009  21.222  1.00  0.00     0.082 C 
ATOM     31  C   UNL A   1      27.797  32.168  20.600  1.00  0.00     0.027 C 
ATOM     32  C   UNL A   1      28.743  32.409  21.706  1.00  0.00     0.027 C 
ENDBRANCH  28  30
ENDBRANCH  25  26
ENDBRANCH  16  19
ENDBRANCH   9  15
ENDBRANCH   6   8
ENDBRANCH   5   6
ENDBRANCH   4   5
ENDBRANCH   3   4
ENDBRANCH   2   3
ENDBRANCH   1   2
BRANCH   1  33
ATOM     33  C   UNL A   1      40.683  23.323  26.690  1.00  0.00     0.188 C 
BRANCH  33  34
ATOM     34  O   UNL A   1      41.228  22.024  26.883  1.00  0.00    -0.376 OA
BRANCH  34  35
ATOM     35  C   UNL A   1      42.164  21.573  25.908  1.00  0.00     0.202 C 
BRANCH  35  36
ATOM     36  C   UNL A   1      42.785  22.828  25.302  1.00  0.00     0.261 C 
BRANCH  36  37
ATOM     37  O   UNL A   1      44.082  23.066  25.896  1.00  0.00    -0.460 OA
BRANCH  37  38
ATOM     38  C   UNL A   1      44.198  24.276  26.494  1.00  0.00     0.338 C 
ATOM     39  O   UNL A   1      44.084  25.358  25.926  1.00  0.00    -0.246 OA
BRANCH  38  40
ATOM     40  C   UNL A   1      44.651  24.096  27.905  1.00  0.00     0.060 A 
ATOM     41  C   UNL A   1      43.877  23.303  28.709  1.00  0.00     0.016 A 
ATOM     42  C   UNL A   1      45.671  24.835  28.525  1.00  0.00     0.016 A 
ATOM     43  C   UNL A   1      44.023  23.400  30.100  1.00  0.00     0.010 A 
ATOM     44  C   UNL A   1      45.746  24.956  29.946  1.00  0.00     0.010 A 
ATOM     45  C   UNL A   1      44.822  24.326  30.799  1.00  0.00    -0.014 A 
BRANCH  45  46
ATOM     46  C   UNL A   1      44.774  24.761  32.318  1.00  0.00     0.031 A 
ATOM     47  C   UNL A   1      44.236  26.126  32.611  1.00  0.00     0.074 A 
ATOM     48  C   UNL A   1      45.006  24.124  33.549  1.00  0.00     0.049 A 
ATOM     49  N   UNL A   1      44.203  26.651  33.801  1.00  0.00    -0.248 NA
ATOM     50  C   UNL A   1      43.826  27.062  31.567  1.00  0.00     0.031 C 
ATOM     51  C   UNL A   1      43.932  24.141  34.573  1.00  0.00     0.029 A 
ATOM     52  N   UNL A   1      45.836  23.145  34.141  1.00  0.00    -0.354 N 
ATOM     53  C   UNL A   1      43.358  27.713  33.710  1.00  0.00     0.074 A 
ATOM     54  C   UNL A   1      43.454  28.100  32.325  1.00  0.00     0.031 C 
ATOM     55  C   UNL A   1      44.260  23.397  35.638  1.00  0.00     0.029 A 
ATOM     56  C   UNL A   1      45.592  22.856  35.478  1.00  0.00     0.049 A 
ATOM     57  H   UNL A   1      46.548  22.693  33.635  1.00  0.00     0.167 HD
ATOM     58  C   UNL A   1      42.455  27.950  34.705  1.00  0.00     0.034 A 
ATOM     59  C   UNL A   1      46.410  22.334  36.452  1.00  0.00     0.034 A 
ATOM     60  C   UNL A   1      42.664  27.143  35.933  1.00  0.00     0.049 A 
ATOM     61  C   UNL A   1      46.241  23.185  37.738  1.00  0.00     0.074 A 
ATOM     62  C   UNL A   1      41.882  26.210  36.599  1.00  0.00     0.029 A 
ATOM     63  N   UNL A   1      43.876  27.155  36.627  1.00  0.00    -0.354 N 
ATOM     64  N   UNL A   1      45.221  23.978  37.951  1.00  0.00    -0.248 NA
ATOM     65  C   UNL A   1      47.285  23.408  38.743  1.00  0.00     0.031 C 
ATOM     66  C   UNL A   1      42.618  25.692  37.704  1.00  0.00     0.029 A 
ATOM     67  C   UNL A   1      43.850  26.320  37.748  1.00  0.00     0.049 A 
ATOM     68  H   UNL A   1      44.658  27.690  36.357  1.00  0.00     0.167 HD
ATOM     69  C   UNL A   1      45.616  25.022  38.762  1.00  0.00     0.074 A 
ATOM     70  C   UNL A   1      46.849  24.528  39.355  1.00  0.00     0.031 C 
ATOM     71  C   UNL A   1      44.993  26.255  38.693  1.00  0.00     0.034 A 
BRANCH  58  72
ATOM     72  C   UNL A   1      41.182  28.764  34.482  1.00  0.00     0.023 A 
ATOM     73  C   UNL A   1      40.357  28.430  33.390  1.00  0.00     0.031 A 
ATOM     74  C   UNL A   1      40.771  29.916  35.199  1.00  0.00     0.131 A 
ATOM     75  C   UNL A   1      39.222  29.201  33.062  1.00  0.00     0.055 A 
ATOM     76  C   UNL A   1      39.594  30.622  34.931  1.00  0.00     0.041 A 
ATOM     77  F   UNL A   1      41.511  30.496  36.148  1.00  0.00    -0.206 F 
ATOM     78  C   UNL A   1      38.815  30.273  33.850  1.00  0.00     0.022 A 
BRANCH  75  79
ATOM     79  S   UNL A   1      38.328  28.852  31.528  1.00  0.00     0.124 S 
ATOM     80  O   UNL A   1      36.943  29.077  31.931  1.00  0.00    -0.237 OA
ATOM     81  O   UNL A   1      38.904  29.822  30.604  1.00  0.00    -0.237 OA
ATOM     82  O   UNL A   1      38.667  27.457  31.251  1.00  0.00    -0.744 OA
ENDBRANCH  75  79
ENDBRANCH  58  72
BRANCH  59  83
ATOM     83  C   UNL A   1      47.656  21.566  36.029  1.00  0.00     0.023 A 
ATOM     84  C   UNL A   1      48.526  22.123  35.058  1.00  0.00     0.031 A 
ATOM     85  C   UNL A   1      48.134  20.392  36.642  1.00  0.00     0.131 A 
ATOM     86  C   UNL A   1      49.834  21.613  34.860  1.00  0.00     0.055 A 
ATOM     87  C   UNL A   1      49.457  19.942  36.511  1.00  0.00     0.041 A 
ATOM     88  F   UNL A   1      47.333  19.614  37.375  1.00  0.00    -0.206 F 
ATOM     89  C   UNL A   1      50.330  20.580  35.648  1.00  0.00     0.022 A 
BRANCH  86  90
ATOM     90  S   UNL A   1      50.951  22.240  33.567  1.00  0.00     0.124 S 
ATOM     91  O   UNL A   1      50.151  23.297  32.956  1.00  0.00    -0.237 OA
ATOM     92  O   UNL A   1      52.117  22.691  34.319  1.00  0.00    -0.237 OA
ATOM     93  O   UNL A   1      51.171  21.069  32.721  1.00  0.00    -0.744 OA
ENDBRANCH  86  90
ENDBRANCH  59  83
BRANCH  71  94
ATOM     94  C   UNL A   1      45.442  27.561  39.383  1.00  0.00     0.023 A 
ATOM     95  C   UNL A   1      44.896  28.097  40.564  1.00  0.00     0.031 A 
ATOM     96  C   UNL A   1      46.510  28.327  38.837  1.00  0.00     0.131 A 
ATOM     97  C   UNL A   1      45.387  29.299  41.131  1.00  0.00     0.055 A 
ATOM     98  C   UNL A   1      47.032  29.483  39.429  1.00  0.00     0.041 A 
ATOM     99  F   UNL A   1      47.103  27.996  37.681  1.00  0.00    -0.206 F 
ATOM    100  C   UNL A   1      46.464  29.985  40.582  1.00  0.00     0.022 A 
BRANCH  97 101
ATOM    101  S   UNL A   1      44.522  30.028  42.554  1.00  0.00     0.124 S 
ATOM    102  O   UNL A   1      43.487  30.831  41.909  1.00  0.00    -0.237 OA
ATOM    103  O   UNL A   1      44.065  28.841  43.264  1.00  0.00    -0.237 OA
ATOM    104  O   UNL A   1      45.565  30.798  43.232  1.00  0.00    -0.744 OA
ENDBRANCH  97 101
ENDBRANCH  71  94
ENDBRANCH  45  46
ENDBRANCH  38  40
ENDBRANCH  37  38
ENDBRANCH  36  37
ENDBRANCH  35  36
ENDBRANCH  34  35
ENDBRANCH  33  34
ENDBRANCH   1  33
TORSDOF 24
ENDMDL
MODEL 2
REMARK VINA RESULT:     -10.6      1.540      2.472
REMARK SMILES Cc1ccc(C(=O)NC2CC2)cc1NC(=O)[C@@H]1[C@@H](C(=O)OCCOCCOCCOC(=O)c2ccc(-c3c4nc(c(-c5cc(S(=O)(=O)[O-])ccc5F)c5ccc([nH]5)c(-c5cc(S(=O)(=O)[O-])ccc5F)c5nc(c(-c6cc(S(=O)(=O)[O-])ccc6F)c6ccc3[nH]6)C=C5)C=C4)cc2)[C@H]2C=C[C@@H]1C2
REMARK SMILES IDX 25 1 24 2 23 3 22 4 21 5 19 6 20 7 18 8 17 9 99 10 96 11
REMARK SMILES IDX 98 12 100 13 97 14 15 15 14 16 16 18 13 19 1 20 2 21 3 22
REMARK SMILES IDX 4 23 12 24 5 25 6 26 7 27 8 28 9 30 10 31 11 32 26 33 27 34
REMARK SMILES IDX 28 35 29 36 30 37 31 38 32 39 33 40 34 41 95 42 35 43 94 44
REMARK SMILES IDX 36 45 37 46 38 47 88 48 39 49 93 50 87 51 89 52 40 53 92 54
REMARK SMILES IDX 86 55 85 56 41 58 73 59 53 60 72 61 54 62 57 63 71 64 90 65
REMARK SMILES IDX 55 66 56 67 70 69 91 70 58 71 42 72 43 73 51 74 44 75 50 76
REMARK SMILES IDX 52 77 49 78 45 79 46 80 47 81 48 82 74 83 75 84 83 85 76 86
REMARK SMILES IDX 82 87 84 88 81 89 77 90 78 91 79 92 80 93 59 94 60 95 68 96
REMARK SMILES IDX 61 97 67 98 69 99 66 100 62 101 63 102 64 103 65 104
REMARK H PARENT 14 17 8 29 89 57 57 68
REMARK Flexibility Score: inf
ROOT
ATOM      1  C   UNL A   1      41.645  19.159  25.846  1.00  0.00     0.188 C 
ENDROOT
BRANCH   1   2
ATOM      2  O   UNL A   1      40.846  19.857  26.791  1.00  0.00    -0.376 OA
BRANCH   2   3
ATOM      3  C   UNL A   1      39.809  20.570  26.126  1.00  0.00     0.202 C 
BRANCH   3   4
ATOM      4  C   UNL A   1      39.768  22.072  26.491  1.00  0.00     0.261 C 
BRANCH   4   5
ATOM      5  O   UNL A   1      38.466  22.900  26.168  1.00  0.00    -0.463 OA
BRANCH   5   6
ATOM      6  C   UNL A   1      37.165  23.237  25.962  1.00  0.00     0.310 C 
ATOM      7  O   UNL A   1      37.050  24.413  25.582  1.00  0.00    -0.252 OA
BRANCH   6   8
ATOM      8  C   UNL A   1      35.755  22.454  26.002  1.00  0.00     0.119 C 
ATOM      9  C   UNL A   1      34.593  23.301  25.333  1.00  0.00     0.100 C 
ATOM     10  C   UNL A   1      33.290  22.455  25.539  1.00  0.00     0.025 C 
ATOM     11  C   UNL A   1      34.794  21.585  26.949  1.00  0.00     0.027 C 
ATOM     12  C   UNL A   1      32.763  22.686  26.920  1.00  0.00    -0.027 C 
ATOM     13  C   UNL A   1      33.836  21.062  25.836  1.00  0.00     0.017 C 
ATOM     14  C   UNL A   1      33.700  22.232  27.758  1.00  0.00    -0.027 C 
BRANCH   9  15
ATOM     15  C   UNL A   1      34.772  23.564  23.867  1.00  0.00     0.228 C 
ATOM     16  N   UNL A   1      33.903  24.346  23.162  1.00  0.00    -0.326 N 
ATOM     17  H   UNL A   1      34.156  24.426  22.214  1.00  0.00     0.169 HD
ATOM     18  O   UNL A   1      35.625  22.942  23.220  1.00  0.00    -0.274 OA
BRANCH  16  19
ATOM     19  C   UNL A   1      32.725  25.069  23.467  1.00  0.00     0.044 A 
ATOM     20  C   UNL A   1      31.361  22.939  22.994  1.00  0.00     0.046 C 
ATOM     21  C   UNL A   1      31.499  24.373  23.432  1.00  0.00    -0.027 A 
ATOM     22  C   UNL A   1      30.309  25.040  23.778  1.00  0.00     0.006 A 
ATOM     23  C   UNL A   1      30.322  26.373  24.174  1.00  0.00     0.014 A 
ATOM     24  C   UNL A   1      32.690  26.438  23.775  1.00  0.00     0.040 A 
ATOM     25  C   UNL A   1      31.515  27.090  24.181  1.00  0.00     0.041 A 
BRANCH  25  26
ATOM     26  C   UNL A   1      31.418  28.532  24.564  1.00  0.00     0.251 C 
ATOM     27  O   UNL A   1      31.831  28.869  25.673  1.00  0.00    -0.269 OA
ATOM     28  N   UNL A   1      30.949  29.488  23.694  1.00  0.00    -0.349 N 
ATOM     29  H   UNL A   1      31.072  30.422  23.980  1.00  0.00     0.164 HD
BRANCH  28  30
ATOM     30  C   UNL A   1      30.312  29.310  22.441  1.00  0.00     0.082 C 
ATOM     31  C   UNL A   1      28.821  29.212  22.445  1.00  0.00     0.027 C 
ATOM     32  C   UNL A   1      29.466  30.378  21.810  1.00  0.00     0.027 C 
ENDBRANCH  28  30
ENDBRANCH  25  26
ENDBRANCH  16  19
ENDBRANCH   9  15
ENDBRANCH   6   8
ENDBRANCH   5   6
ENDBRANCH   4   5
ENDBRANCH   3   4
ENDBRANCH   2   3
ENDBRANCH   1   2
BRANCH   1  33
ATOM     33  C   UNL A   1      43.081  19.685  25.782  1.00  0.00     0.188 C 
BRANCH  33  34
ATOM     34  O   UNL A   1      43.282  20.851  24.995  1.00  0.00    -0.376 OA
BRANCH  34  35
ATOM     35  C   UNL A   1      43.473  22.074  25.701  1.00  0.00     0.202 C 
BRANCH  35  36
ATOM     36  C   UNL A   1      44.943  22.440  25.526  1.00  0.00     0.261 C 
BRANCH  36  37
ATOM     37  O   UNL A   1      45.343  23.366  26.563  1.00  0.00    -0.460 OA
BRANCH  37  38
ATOM     38  C   UNL A   1      44.990  24.651  26.319  1.00  0.00     0.338 C 
ATOM     39  O   UNL A   1      45.103  25.219  25.238  1.00  0.00    -0.246 OA
BRANCH  38  40
ATOM     40  C   UNL A   1      44.604  25.316  27.598  1.00  0.00     0.060 A 
ATOM     41  C   UNL A   1      45.506  26.196  28.137  1.00  0.00     0.016 A 
ATOM     42  C   UNL A   1      43.505  24.958  28.394  1.00  0.00     0.016 A 
ATOM     43  C   UNL A   1      45.383  26.549  29.487  1.00  0.00     0.010 A 
ATOM     44  C   UNL A   1      43.450  25.288  29.782  1.00  0.00     0.010 A 
ATOM     45  C   UNL A   1      44.477  26.006  30.421  1.00  0.00    -0.014 A 
BRANCH  45  46
ATOM     46  C   UNL A   1      44.501  26.053  32.001  1.00  0.00     0.031 A 
ATOM     47  C   UNL A   1      44.109  27.347  32.642  1.00  0.00     0.074 A 
ATOM     48  C   UNL A   1      44.690  25.112  33.027  1.00  0.00     0.049 A 
ATOM     49  N   UNL A   1      44.151  27.561  33.924  1.00  0.00    -0.248 NA
ATOM     50  C   UNL A   1      43.777  28.546  31.877  1.00  0.00     0.031 C 
ATOM     51  C   UNL A   1      43.643  24.974  34.069  1.00  0.00     0.029 A 
ATOM     52  N   UNL A   1      45.429  23.944  33.325  1.00  0.00    -0.354 N 
ATOM     53  C   UNL A   1      43.416  28.686  34.132  1.00  0.00     0.074 A 
ATOM     54  C   UNL A   1      43.526  29.394  32.881  1.00  0.00     0.031 C 
ATOM     55  C   UNL A   1      43.914  23.962  34.903  1.00  0.00     0.029 A 
ATOM     56  C   UNL A   1      45.180  23.356  34.560  1.00  0.00     0.049 A 
ATOM     57  H   UNL A   1      46.082  23.567  32.693  1.00  0.00     0.167 HD
ATOM     58  C   UNL A   1      42.560  28.752  35.192  1.00  0.00     0.034 A 
ATOM     59  C   UNL A   1      45.959  22.535  35.340  1.00  0.00     0.034 A 
ATOM     60  C   UNL A   1      42.709  27.650  36.176  1.00  0.00     0.049 A 
ATOM     61  C   UNL A   1      45.901  23.052  36.801  1.00  0.00     0.074 A 
ATOM     62  C   UNL A   1      41.849  26.658  36.625  1.00  0.00     0.029 A 
ATOM     63  N   UNL A   1      43.929  27.377  36.798  1.00  0.00    -0.354 N 
ATOM     64  N   UNL A   1      44.970  23.860  37.245  1.00  0.00    -0.248 NA
ATOM     65  C   UNL A   1      46.980  22.921  37.785  1.00  0.00     0.031 C 
ATOM     66  C   UNL A   1      42.549  25.816  37.537  1.00  0.00     0.029 A 
ATOM     67  C   UNL A   1      43.839  26.295  37.681  1.00  0.00     0.049 A 
ATOM     68  H   UNL A   1      44.756  27.887  36.635  1.00  0.00     0.167 HD
ATOM     69  C   UNL A   1      45.483  24.628  38.269  1.00  0.00     0.074 A 
ATOM     70  C   UNL A   1      46.671  23.890  38.670  1.00  0.00     0.031 C 
ATOM     71  C   UNL A   1      44.987  25.892  38.532  1.00  0.00     0.034 A 
BRANCH  58  72
ATOM     72  C   UNL A   1      41.371  29.711  35.230  1.00  0.00     0.023 A 
ATOM     73  C   UNL A   1      40.275  29.451  34.384  1.00  0.00     0.031 A 
ATOM     74  C   UNL A   1      41.279  30.926  35.957  1.00  0.00     0.131 A 
ATOM     75  C   UNL A   1      39.190  30.347  34.290  1.00  0.00     0.055 A 
ATOM     76  C   UNL A   1      40.161  31.764  35.934  1.00  0.00     0.041 A 
ATOM     77  F   UNL A   1      42.288  31.435  36.669  1.00  0.00    -0.206 F 
ATOM     78  C   UNL A   1      39.109  31.484  35.089  1.00  0.00     0.022 A 
BRANCH  75  79
ATOM     79  S   UNL A   1      37.918  30.068  33.034  1.00  0.00     0.124 S 
ATOM     80  O   UNL A   1      38.672  30.256  31.798  1.00  0.00    -0.237 OA
ATOM     81  O   UNL A   1      37.479  28.711  33.331  1.00  0.00    -0.237 OA
ATOM     82  O   UNL A   1      36.933  31.112  33.315  1.00  0.00    -0.744 OA
ENDBRANCH  75  79
ENDBRANCH  58  72
BRANCH  59  83
ATOM     83  C   UNL A   1      47.114  21.783  34.689  1.00  0.00     0.023 A 
ATOM     84  C   UNL A   1      48.276  22.492  34.293  1.00  0.00     0.031 A 
ATOM     85  C   UNL A   1      47.214  20.383  34.583  1.00  0.00     0.131 A 
ATOM     86  C   UNL A   1      49.481  21.814  33.978  1.00  0.00     0.055 A 
ATOM     87  C   UNL A   1      48.429  19.715  34.358  1.00  0.00     0.041 A 
ATOM     88  F   UNL A   1      46.136  19.600  34.666  1.00  0.00    -0.206 F 
ATOM     89  C   UNL A   1      49.582  20.432  34.097  1.00  0.00     0.022 A 
BRANCH  86  90
ATOM     90  S   UNL A   1      50.969  22.677  33.382  1.00  0.00     0.124 S 
ATOM     91  O   UNL A   1      51.467  23.309  34.600  1.00  0.00    -0.237 OA
ATOM     92  O   UNL A   1      51.796  21.597  32.853  1.00  0.00    -0.237 OA
ATOM     93  O   UNL A   1      50.439  23.602  32.382  1.00  0.00    -0.744 OA
ENDBRANCH  86  90
ENDBRANCH  59  83
BRANCH  71  94
ATOM     94  C   UNL A   1      45.577  26.939  39.501  1.00  0.00     0.023 A 
ATOM     95  C   UNL A   1      44.969  27.402  40.681  1.00  0.00     0.031 A 
ATOM     96  C   UNL A   1      46.857  27.509  39.244  1.00  0.00     0.131 A 
ATOM     97  C   UNL A   1      45.599  28.358  41.517  1.00  0.00     0.055 A 
ATOM     98  C   UNL A   1      47.503  28.409  40.100  1.00  0.00     0.041 A 
ATOM     99  F   UNL A   1      47.549  27.228  38.132  1.00  0.00    -0.206 F 
ATOM    100  C   UNL A   1      46.869  28.849  41.244  1.00  0.00     0.022 A 
BRANCH  97 101
ATOM    101  S   UNL A   1      44.682  29.045  42.929  1.00  0.00     0.124 S 
ATOM    102  O   UNL A   1      44.797  27.980  43.921  1.00  0.00    -0.237 OA
ATOM    103  O   UNL A   1      45.431  30.264  43.205  1.00  0.00    -0.237 OA
ATOM    104  O   UNL A   1      43.334  29.248  42.397  1.00  0.00    -0.744 OA
ENDBRANCH  97 101
ENDBRANCH  71  94
ENDBRANCH  45  46
ENDBRANCH  38  40
ENDBRANCH  37  38
ENDBRANCH  36  37
ENDBRANCH  35  36
ENDBRANCH  34  35
ENDBRANCH  33  34
ENDBRANCH   1  33
TORSDOF 24
ENDMDL
MODEL 3
REMARK VINA RESULT:     -10.5      1.828      2.079
REMARK SMILES Cc1ccc(C(=O)NC2CC2)cc1NC(=O)[C@@H]1[C@@H](C(=O)OCCOCCOCCOC(=O)c2ccc(-c3c4nc(c(-c5cc(S(=O)(=O)[O-])ccc5F)c5ccc([nH]5)c(-c5cc(S(=O)(=O)[O-])ccc5F)c5nc(c(-c6cc(S(=O)(=O)[O-])ccc6F)c6ccc3[nH]6)C=C5)C=C4)cc2)[C@H]2C=C[C@@H]1C2
REMARK SMILES IDX 25 1 24 2 23 3 22 4 21 5 19 6 20 7 18 8 17 9 99 10 96 11
REMARK SMILES IDX 98 12 100 13 97 14 15 15 14 16 16 18 13 19 1 20 2 21 3 22
REMARK SMILES IDX 4 23 12 24 5 25 6 26 7 27 8 28 9 30 10 31 11 32 26 33 27 34
REMARK SMILES IDX 28 35 29 36 30 37 31 38 32 39 33 40 34 41 95 42 35 43 94 44
REMARK SMILES IDX 36 45 37 46 38 47 88 48 39 49 93 50 87 51 89 52 40 53 92 54
REMARK SMILES IDX 86 55 85 56 41 58 73 59 53 60 72 61 54 62 57 63 71 64 90 65
REMARK SMILES IDX 55 66 56 67 70 69 91 70 58 71 42 72 43 73 51 74 44 75 50 76
REMARK SMILES IDX 52 77 49 78 45 79 46 80 47 81 48 82 74 83 75 84 83 85 76 86
REMARK SMILES IDX 82 87 84 88 81 89 77 90 78 91 79 92 80 93 59 94 60 95 68 96
REMARK SMILES IDX 61 97 67 98 69 99 66 100 62 101 63 102 64 103 65 104
REMARK H PARENT 14 17 8 29 89 57 57 68
REMARK Flexibility Score: inf
ROOT
ATOM      1  C   UNL A   1      38.800  23.512  26.847  1.00  0.00     0.188 C 
ENDROOT
BRANCH   1   2
ATOM      2  O   UNL A   1      38.408  23.223  25.512  1.00  0.00    -0.376 OA
BRANCH   2   3
ATOM      3  C   UNL A   1      37.967  21.873  25.412  1.00  0.00     0.202 C 
BRANCH   3   4
ATOM      4  C   UNL A   1      37.008  21.629  24.224  1.00  0.00     0.261 C 
BRANCH   4   5
ATOM      5  O   UNL A   1      35.763  22.579  24.042  1.00  0.00    -0.463 OA
BRANCH   5   6
ATOM      6  C   UNL A   1      34.743  23.439  24.304  1.00  0.00     0.310 C 
ATOM      7  O   UNL A   1      35.160  24.529  24.729  1.00  0.00    -0.252 OA
BRANCH   6   8
ATOM      8  C   UNL A   1      33.142  23.418  24.108  1.00  0.00     0.119 C 
ATOM      9  C   UNL A   1      32.558  24.875  23.881  1.00  0.00     0.100 C 
ATOM     10  C   UNL A   1      31.002  24.693  23.808  1.00  0.00     0.025 C 
ATOM     11  C   UNL A   1      31.784  22.790  24.690  1.00  0.00     0.027 C 
ATOM     12  C   UNL A   1      30.449  24.607  25.195  1.00  0.00    -0.027 C 
ATOM     13  C   UNL A   1      30.851  23.204  23.511  1.00  0.00     0.017 C 
ATOM     14  C   UNL A   1      30.978  23.508  25.742  1.00  0.00    -0.027 C 
BRANCH   9  15
ATOM     15  C   UNL A   1      33.025  25.550  22.626  1.00  0.00     0.228 C 
ATOM     16  N   UNL A   1      32.588  26.793  22.269  1.00  0.00    -0.326 N 
ATOM     17  H   UNL A   1      32.987  27.101  21.424  1.00  0.00     0.169 HD
ATOM     18  O   UNL A   1      33.695  24.926  21.793  1.00  0.00    -0.274 OA
BRANCH  16  19
ATOM     19  C   UNL A   1      31.700  27.746  22.824  1.00  0.00     0.044 A 
ATOM     20  C   UNL A   1      33.590  28.511  24.393  1.00  0.00     0.046 C 
ATOM     21  C   UNL A   1      32.202  28.610  23.819  1.00  0.00    -0.027 A 
ATOM     22  C   UNL A   1      31.368  29.605  24.362  1.00  0.00     0.006 A 
ATOM     23  C   UNL A   1      30.060  29.767  23.918  1.00  0.00     0.014 A 
ATOM     24  C   UNL A   1      30.348  27.871  22.471  1.00  0.00     0.040 A 
ATOM     25  C   UNL A   1      29.532  28.902  22.963  1.00  0.00     0.041 A 
BRANCH  25  26
ATOM     26  C   UNL A   1      28.100  29.118  22.595  1.00  0.00     0.251 C 
ATOM     27  O   UNL A   1      27.265  28.311  23.003  1.00  0.00    -0.269 OA
ATOM     28  N   UNL A   1      27.687  30.219  21.881  1.00  0.00    -0.349 N 
ATOM     29  H   UNL A   1      26.713  30.352  21.826  1.00  0.00     0.164 HD
BRANCH  28  30
ATOM     30  C   UNL A   1      28.477  31.187  21.211  1.00  0.00     0.082 C 
ATOM     31  C   UNL A   1      27.785  32.052  20.209  1.00  0.00     0.027 C 
ATOM     32  C   UNL A   1      28.312  32.660  21.446  1.00  0.00     0.027 C 
ENDBRANCH  28  30
ENDBRANCH  25  26
ENDBRANCH  16  19
ENDBRANCH   9  15
ENDBRANCH   6   8
ENDBRANCH   5   6
ENDBRANCH   4   5
ENDBRANCH   3   4
ENDBRANCH   2   3
ENDBRANCH   1   2
BRANCH   1  33
ATOM     33  C   UNL A   1      40.214  23.023  27.168  1.00  0.00     0.188 C 
BRANCH  33  34
ATOM     34  O   UNL A   1      40.435  21.626  27.028  1.00  0.00    -0.376 OA
BRANCH  34  35
ATOM     35  C   UNL A   1      41.637  21.232  26.370  1.00  0.00     0.202 C 
BRANCH  35  36
ATOM     36  C   UNL A   1      42.127  22.461  25.611  1.00  0.00     0.261 C 
BRANCH  36  37
ATOM     37  O   UNL A   1      43.527  22.687  25.898  1.00  0.00    -0.460 OA
BRANCH  37  38
ATOM     38  C   UNL A   1      43.800  23.936  26.346  1.00  0.00     0.338 C 
ATOM     39  O   UNL A   1      43.769  24.953  25.661  1.00  0.00    -0.246 OA
BRANCH  38  40
ATOM     40  C   UNL A   1      44.308  23.865  27.749  1.00  0.00     0.060 A 
ATOM     41  C   UNL A   1      43.597  23.093  28.628  1.00  0.00     0.016 A 
ATOM     42  C   UNL A   1      45.313  24.685  28.284  1.00  0.00     0.016 A 
ATOM     43  C   UNL A   1      43.784  23.284  30.003  1.00  0.00     0.010 A 
ATOM     44  C   UNL A   1      45.429  24.899  29.691  1.00  0.00     0.010 A 
ATOM     45  C   UNL A   1      44.563  24.287  30.615  1.00  0.00    -0.014 A 
BRANCH  45  46
ATOM     46  C   UNL A   1      44.546  24.816  32.105  1.00  0.00     0.031 A 
ATOM     47  C   UNL A   1      44.067  26.217  32.316  1.00  0.00     0.074 A 
ATOM     48  C   UNL A   1      44.763  24.246  33.371  1.00  0.00     0.049 A 
ATOM     49  N   UNL A   1      44.066  26.815  33.472  1.00  0.00    -0.248 NA
ATOM     50  C   UNL A   1      43.688  27.104  31.219  1.00  0.00     0.031 C 
ATOM     51  C   UNL A   1      43.699  24.370  34.398  1.00  0.00     0.029 A 
ATOM     52  N   UNL A   1      45.557  23.271  34.017  1.00  0.00    -0.354 N 
ATOM     53  C   UNL A   1      43.265  27.904  33.321  1.00  0.00     0.074 A 
ATOM     54  C   UNL A   1      43.366  28.201  31.913  1.00  0.00     0.031 C 
ATOM     55  C   UNL A   1      44.005  23.680  35.504  1.00  0.00     0.029 A 
ATOM     56  C   UNL A   1      45.312  23.075  35.371  1.00  0.00     0.049 A 
ATOM     57  H   UNL A   1      46.245  22.759  33.535  1.00  0.00     0.167 HD
ATOM     58  C   UNL A   1      42.381  28.238  34.304  1.00  0.00     0.034 A 
ATOM     59  C   UNL A   1      46.116  22.580  36.370  1.00  0.00     0.034 A 
ATOM     60  C   UNL A   1      42.568  27.500  35.579  1.00  0.00     0.049 A 
ATOM     61  C   UNL A   1      45.994  23.514  37.602  1.00  0.00     0.074 A 
ATOM     62  C   UNL A   1      41.753  26.642  36.305  1.00  0.00     0.029 A 
ATOM     63  N   UNL A   1      43.785  27.504  36.263  1.00  0.00    -0.354 N 
ATOM     64  N   UNL A   1      45.009  24.360  37.771  1.00  0.00    -0.248 NA
ATOM     65  C   UNL A   1      47.054  23.754  38.585  1.00  0.00     0.031 C 
ATOM     66  C   UNL A   1      42.477  26.163  37.436  1.00  0.00     0.029 A 
ATOM     67  C   UNL A   1      43.733  26.740  37.434  1.00  0.00     0.049 A 
ATOM     68  H   UNL A   1      44.586  27.989  35.956  1.00  0.00     0.167 HD
ATOM     69  C   UNL A   1      45.453  25.435  38.514  1.00  0.00     0.074 A 
ATOM     70  C   UNL A   1      46.670  24.927  39.129  1.00  0.00     0.031 C 
ATOM     71  C   UNL A   1      44.881  26.686  38.374  1.00  0.00     0.034 A 
BRANCH  58  72
ATOM     72  C   UNL A   1      41.141  29.090  34.039  1.00  0.00     0.023 A 
ATOM     73  C   UNL A   1      40.940  30.241  34.826  1.00  0.00     0.031 A 
ATOM     74  C   UNL A   1      40.081  28.796  33.145  1.00  0.00     0.131 A 
ATOM     75  C   UNL A   1      39.768  31.017  34.708  1.00  0.00     0.055 A 
ATOM     76  C   UNL A   1      38.965  29.618  32.962  1.00  0.00     0.041 A 
ATOM     77  F   UNL A   1      39.999  27.658  32.448  1.00  0.00    -0.206 F 
ATOM     78  C   UNL A   1      38.796  30.733  33.754  1.00  0.00     0.022 A 
BRANCH  75  79
ATOM     79  S   UNL A   1      39.470  32.356  35.889  1.00  0.00     0.124 S 
ATOM     80  O   UNL A   1      38.176  32.864  35.445  1.00  0.00    -0.237 OA
ATOM     81  O   UNL A   1      39.493  31.655  37.167  1.00  0.00    -0.237 OA
ATOM     82  O   UNL A   1      40.595  33.261  35.661  1.00  0.00    -0.744 OA
ENDBRANCH  75  79
ENDBRANCH  58  72
BRANCH  59  83
ATOM     83  C   UNL A   1      47.326  21.736  35.987  1.00  0.00     0.023 A 
ATOM     84  C   UNL A   1      48.274  22.249  35.065  1.00  0.00     0.031 A 
ATOM     85  C   UNL A   1      47.696  20.523  36.598  1.00  0.00     0.131 A 
ATOM     86  C   UNL A   1      49.552  21.654  34.915  1.00  0.00     0.055 A 
ATOM     87  C   UNL A   1      48.991  19.986  36.517  1.00  0.00     0.041 A 
ATOM     88  F   UNL A   1      46.814  19.789  37.281  1.00  0.00    -0.206 F 
ATOM     89  C   UNL A   1      49.942  20.578  35.705  1.00  0.00     0.022 A 
BRANCH  86  90
ATOM     90  S   UNL A   1      50.766  22.225  33.685  1.00  0.00     0.124 S 
ATOM     91  O   UNL A   1      51.776  22.864  34.522  1.00  0.00    -0.237 OA
ATOM     92  O   UNL A   1      51.184  20.992  33.027  1.00  0.00    -0.237 OA
ATOM     93  O   UNL A   1      49.988  23.141  32.852  1.00  0.00    -0.744 OA
ENDBRANCH  86  90
ENDBRANCH  59  83
BRANCH  71  94
ATOM     94  C   UNL A   1      45.389  28.012  38.980  1.00  0.00     0.023 A 
ATOM     95  C   UNL A   1      45.792  29.147  38.252  1.00  0.00     0.031 A 
ATOM     96  C   UNL A   1      45.461  28.172  40.393  1.00  0.00     0.131 A 
ATOM     97  C   UNL A   1      46.230  30.328  38.901  1.00  0.00     0.055 A 
ATOM     98  C   UNL A   1      45.839  29.359  41.032  1.00  0.00     0.041 A 
ATOM     99  F   UNL A   1      45.175  27.170  41.236  1.00  0.00    -0.206 F 
ATOM    100  C   UNL A   1      46.237  30.448  40.285  1.00  0.00     0.022 A 
BRANCH  97 101
ATOM    101  S   UNL A   1      46.904  31.691  37.904  1.00  0.00     0.124 S 
ATOM    102  O   UNL A   1      45.754  32.580  37.775  1.00  0.00    -0.237 OA
ATOM    103  O   UNL A   1      47.993  32.166  38.747  1.00  0.00    -0.237 OA
ATOM    104  O   UNL A   1      47.318  31.037  36.662  1.00  0.00    -0.744 OA
ENDBRANCH  97 101
ENDBRANCH  71  94
ENDBRANCH  45  46
ENDBRANCH  38  40
ENDBRANCH  37  38
ENDBRANCH  36  37
ENDBRANCH  35  36
ENDBRANCH  34  35
ENDBRANCH  33  34
ENDBRANCH   1  33
TORSDOF 24
ENDMDL
