MODEL 1
REMARK VINA RESULT:     -10.8      0.000      0.000
REMARK SMILES Cc1cccc(C[N@@H+](C)C[C@]2(C(=O)OCCOCCOCCOC(=O)c3ccc(-c4c5nc(c(-c6cc(S(=O)(=O)[O-])ccc6F)c6ccc([nH]6)c(-c6cc(S(=O)(=O)[O-])ccc6F)c6nc(c(-c7cc(S(=O)(=O)[O-])ccc7F)c7ccc4[nH]7)C=C6)C=C5)cc3)CCOC2)n1
REMARK SMILES IDX 18 1 17 2 16 3 15 4 14 5 12 6 13 7 11 8 89 9 92 10 90 11
REMARK SMILES IDX 91 12 10 13 8 14 9 15 7 17 6 18 1 19 2 20 3 21 93 22 4 23
REMARK SMILES IDX 5 24 19 25 20 26 21 27 22 28 23 29 24 30 25 31 26 32 27 33
REMARK SMILES IDX 88 34 28 35 87 36 29 37 30 38 31 39 81 40 32 41 86 42 80 43
REMARK SMILES IDX 82 44 33 45 85 46 79 47 78 48 34 50 66 51 46 52 65 53 47 54
REMARK SMILES IDX 50 55 64 56 83 57 48 58 49 59 63 61 84 62 51 63 35 64 36 65
REMARK SMILES IDX 44 66 37 67 43 68 45 69 42 70 38 71 39 72 40 73 41 74 67 75
REMARK SMILES IDX 68 76 76 77 69 78 75 79 77 80 74 81 70 82 71 83 72 84 73 85
REMARK SMILES IDX 52 86 53 87 61 88 54 89 60 90 62 91 59 92 55 93 56 94 57 95
REMARK SMILES IDX 58 96
REMARK H PARENT 8 16 82 49 50 60
REMARK Flexibility Score: inf
ROOT
ATOM      1  C   UNL A   1      39.075  21.427  25.878  1.00  0.00     0.188 C 
ENDROOT
BRANCH   1   2
ATOM      2  O   UNL A   1      38.133  21.013  24.897  1.00  0.00    -0.376 OA
BRANCH   2   3
ATOM      3  C   UNL A   1      36.821  20.725  25.353  1.00  0.00     0.202 C 
BRANCH   3   4
ATOM      4  C   UNL A   1      35.782  21.673  24.758  1.00  0.00     0.261 C 
BRANCH   4   5
ATOM      5  O   UNL A   1      34.957  22.245  25.791  1.00  0.00    -0.463 OA
BRANCH   5   6
ATOM      6  C   UNL A   1      34.609  23.555  25.670  1.00  0.00     0.320 C 
ATOM      7  O   UNL A   1      35.402  24.472  25.661  1.00  0.00    -0.251 OA
BRANCH   6   8
ATOM      8  C   UNL A   1      33.100  23.722  25.558  1.00  0.00     0.142 C 
ATOM      9  C   UNL A   1      32.283  22.806  26.464  1.00  0.00     0.055 C 
ATOM     10  C   UNL A   1      32.770  25.070  26.220  1.00  0.00     0.185 C 
ATOM     11  C   UNL A   1      31.035  23.608  26.744  1.00  0.00     0.161 C 
ATOM     12  O   UNL A   1      31.445  24.979  26.774  1.00  0.00    -0.380 OA
BRANCH   8  13
ATOM     13  C   UNL A   1      32.652  23.792  24.071  1.00  0.00     0.283 C 
BRANCH  13  14
ATOM     14  N   UNL A   1      31.778  24.840  23.568  1.00  0.00    -0.331 N 
ATOM     15  C   UNL A   1      30.400  24.516  23.294  1.00  0.00     0.333 C 
ATOM     16  H   UNL A   1      31.790  25.226  24.511  1.00  0.00     0.348 HD
BRANCH  14  17
ATOM     17  C   UNL A   1      32.294  26.070  22.972  1.00  0.00     0.319 C 
BRANCH  17  18
ATOM     18  C   UNL A   1      31.487  27.329  23.230  1.00  0.00     0.095 A 
ATOM     19  C   UNL A   1      31.596  30.108  25.639  1.00  0.00     0.067 C 
ATOM     20  C   UNL A   1      31.185  29.274  24.463  1.00  0.00     0.038 A 
ATOM     21  C   UNL A   1      30.093  29.645  23.683  1.00  0.00     0.023 A 
ATOM     22  N   UNL A   1      31.878  28.130  24.249  1.00  0.00    -0.252 NA
ATOM     23  C   UNL A   1      29.690  28.806  22.653  1.00  0.00     0.004 A 
ATOM     24  C   UNL A   1      30.384  27.625  22.434  1.00  0.00     0.030 A 
ENDBRANCH  17  18
ENDBRANCH  14  17
ENDBRANCH  13  14
ENDBRANCH   8  13
ENDBRANCH   6   8
ENDBRANCH   5   6
ENDBRANCH   4   5
ENDBRANCH   3   4
ENDBRANCH   2   3
ENDBRANCH   1   2
BRANCH   1  25
ATOM     25  C   UNL A   1      40.147  20.365  26.155  1.00  0.00     0.188 C 
BRANCH  25  26
ATOM     26  O   UNL A   1      41.358  20.793  26.766  1.00  0.00    -0.376 OA
BRANCH  26  27
ATOM     27  C   UNL A   1      42.580  20.446  26.122  1.00  0.00     0.202 C 
BRANCH  27  28
ATOM     28  C   UNL A   1      43.444  21.620  25.661  1.00  0.00     0.261 C 
BRANCH  28  29
ATOM     29  O   UNL A   1      42.684  22.666  25.019  1.00  0.00    -0.460 OA
BRANCH  29  30
ATOM     30  C   UNL A   1      43.288  23.880  25.020  1.00  0.00     0.338 C 
ATOM     31  O   UNL A   1      44.335  24.172  24.459  1.00  0.00    -0.246 OA
BRANCH  30  32
ATOM     32  C   UNL A   1      42.519  24.880  25.784  1.00  0.00     0.060 A 
ATOM     33  C   UNL A   1      42.904  26.222  25.739  1.00  0.00     0.016 A 
ATOM     34  C   UNL A   1      41.590  24.455  26.736  1.00  0.00     0.016 A 
ATOM     35  C   UNL A   1      42.394  27.128  26.676  1.00  0.00     0.010 A 
ATOM     36  C   UNL A   1      41.062  25.372  27.656  1.00  0.00     0.010 A 
ATOM     37  C   UNL A   1      41.484  26.714  27.658  1.00  0.00    -0.014 A 
BRANCH  37  38
ATOM     38  C   UNL A   1      41.115  27.634  28.775  1.00  0.00     0.031 A 
ATOM     39  C   UNL A   1      41.987  27.682  30.005  1.00  0.00     0.074 A 
ATOM     40  C   UNL A   1      40.066  28.475  28.685  1.00  0.00     0.049 A 
ATOM     41  N   UNL A   1      41.778  28.261  31.158  1.00  0.00    -0.248 NA
ATOM     42  C   UNL A   1      43.278  26.984  29.907  1.00  0.00     0.031 C 
ATOM     43  C   UNL A   1      39.222  28.650  27.505  1.00  0.00     0.029 A 
ATOM     44  N   UNL A   1      39.533  29.348  29.607  1.00  0.00    -0.354 N 
ATOM     45  C   UNL A   1      42.894  27.970  31.939  1.00  0.00     0.074 A 
ATOM     46  C   UNL A   1      43.771  27.154  31.124  1.00  0.00     0.031 C 
ATOM     47  C   UNL A   1      38.280  29.570  27.773  1.00  0.00     0.029 A 
ATOM     48  C   UNL A   1      38.395  29.989  29.167  1.00  0.00     0.049 A 
ATOM     49  H   UNL A   1      39.927  29.500  30.496  1.00  0.00     0.167 HD
ATOM     50  C   UNL A   1      43.158  28.342  33.218  1.00  0.00     0.034 A 
ATOM     51  C   UNL A   1      37.517  30.776  29.825  1.00  0.00     0.034 A 
ATOM     52  C   UNL A   1      42.274  29.162  34.014  1.00  0.00     0.049 A 
ATOM     53  C   UNL A   1      37.751  31.061  31.292  1.00  0.00     0.074 A 
ATOM     54  C   UNL A   1      42.411  29.553  35.335  1.00  0.00     0.029 A 
ATOM     55  N   UNL A   1      41.083  29.717  33.561  1.00  0.00    -0.354 N 
ATOM     56  N   UNL A   1      38.754  30.694  32.058  1.00  0.00    -0.248 NA
ATOM     57  C   UNL A   1      36.727  31.854  31.988  1.00  0.00     0.031 C 
ATOM     58  C   UNL A   1      41.273  30.282  35.699  1.00  0.00     0.029 A 
ATOM     59  C   UNL A   1      40.462  30.419  34.584  1.00  0.00     0.049 A 
ATOM     60  H   UNL A   1      40.731  29.626  32.646  1.00  0.00     0.167 HD
ATOM     61  C   UNL A   1      38.493  31.237  33.315  1.00  0.00     0.074 A 
ATOM     62  C   UNL A   1      37.247  31.967  33.201  1.00  0.00     0.031 C 
ATOM     63  C   UNL A   1      39.216  31.140  34.460  1.00  0.00     0.034 A 
BRANCH  50  64
ATOM     64  C   UNL A   1      44.406  27.777  33.854  1.00  0.00     0.023 A 
ATOM     65  C   UNL A   1      44.406  26.558  34.555  1.00  0.00     0.031 A 
ATOM     66  C   UNL A   1      45.606  28.512  33.815  1.00  0.00     0.131 A 
ATOM     67  C   UNL A   1      45.554  26.156  35.258  1.00  0.00     0.055 A 
ATOM     68  C   UNL A   1      46.769  28.064  34.445  1.00  0.00     0.041 A 
ATOM     69  F   UNL A   1      45.663  29.694  33.181  1.00  0.00    -0.206 F 
ATOM     70  C   UNL A   1      46.742  26.888  35.189  1.00  0.00     0.022 A 
BRANCH  67  71
ATOM     71  S   UNL A   1      45.424  24.753  36.402  1.00  0.00     0.124 S 
ATOM     72  O   UNL A   1      44.030  24.851  36.831  1.00  0.00    -0.237 OA
ATOM     73  O   UNL A   1      45.753  23.618  35.550  1.00  0.00    -0.237 OA
ATOM     74  O   UNL A   1      46.408  25.063  37.438  1.00  0.00    -0.744 OA
ENDBRANCH  67  71
ENDBRANCH  50  64
BRANCH  51  75
ATOM     75  C   UNL A   1      36.277  31.271  29.149  1.00  0.00     0.023 A 
ATOM     76  C   UNL A   1      35.876  32.614  29.239  1.00  0.00     0.031 A 
ATOM     77  C   UNL A   1      35.425  30.379  28.471  1.00  0.00     0.131 A 
ATOM     78  C   UNL A   1      34.641  33.016  28.699  1.00  0.00     0.055 A 
ATOM     79  C   UNL A   1      34.230  30.796  27.882  1.00  0.00     0.041 A 
ATOM     80  F   UNL A   1      35.743  29.079  28.368  1.00  0.00    -0.206 F 
ATOM     81  C   UNL A   1      33.825  32.119  28.006  1.00  0.00     0.022 A 
BRANCH  78  82
ATOM     82  S   UNL A   1      34.061  34.709  29.001  1.00  0.00     0.124 S 
ATOM     83  O   UNL A   1      32.633  34.587  28.727  1.00  0.00    -0.237 OA
ATOM     84  O   UNL A   1      34.433  34.913  30.397  1.00  0.00    -0.237 OA
ATOM     85  O   UNL A   1      34.816  35.505  28.035  1.00  0.00    -0.744 OA
ENDBRANCH  78  82
ENDBRANCH  51  75
BRANCH  63  86
ATOM     86  C   UNL A   1      38.704  31.892  35.666  1.00  0.00     0.023 A 
ATOM     87  C   UNL A   1      38.087  31.236  36.745  1.00  0.00     0.031 A 
ATOM     88  C   UNL A   1      38.836  33.292  35.732  1.00  0.00     0.131 A 
ATOM     89  C   UNL A   1      37.578  31.983  37.819  1.00  0.00     0.055 A 
ATOM     90  C   UNL A   1      38.383  34.023  36.831  1.00  0.00     0.041 A 
ATOM     91  F   UNL A   1      39.416  33.971  34.729  1.00  0.00    -0.206 F 
ATOM     92  C   UNL A   1      37.739  33.371  37.877  1.00  0.00     0.022 A 
BRANCH  89  93
ATOM     93  S   UNL A   1      36.625  31.129  39.106  1.00  0.00     0.124 S 
ATOM     94  O   UNL A   1      37.562  31.125  40.225  1.00  0.00    -0.237 OA
ATOM     95  O   UNL A   1      35.458  31.992  39.256  1.00  0.00    -0.237 OA
ATOM     96  O   UNL A   1      36.353  29.818  38.520  1.00  0.00    -0.744 OA
ENDBRANCH  89  93
ENDBRANCH  63  86
ENDBRANCH  37  38
ENDBRANCH  30  32
ENDBRANCH  29  30
ENDBRANCH  28  29
ENDBRANCH  27  28
ENDBRANCH  26  27
ENDBRANCH  25  26
ENDBRANCH   1  25
TORSDOF 24
ENDMDL
MODEL 2
REMARK VINA RESULT:     -10.2      2.006      2.358
REMARK SMILES Cc1cccc(C[N@@H+](C)C[C@]2(C(=O)OCCOCCOCCOC(=O)c3ccc(-c4c5nc(c(-c6cc(S(=O)(=O)[O-])ccc6F)c6ccc([nH]6)c(-c6cc(S(=O)(=O)[O-])ccc6F)c6nc(c(-c7cc(S(=O)(=O)[O-])ccc7F)c7ccc4[nH]7)C=C6)C=C5)cc3)CCOC2)n1
REMARK SMILES IDX 18 1 17 2 16 3 15 4 14 5 12 6 13 7 11 8 89 9 92 10 90 11
REMARK SMILES IDX 91 12 10 13 8 14 9 15 7 17 6 18 1 19 2 20 3 21 93 22 4 23
REMARK SMILES IDX 5 24 19 25 20 26 21 27 22 28 23 29 24 30 25 31 26 32 27 33
REMARK SMILES IDX 88 34 28 35 87 36 29 37 30 38 31 39 81 40 32 41 86 42 80 43
REMARK SMILES IDX 82 44 33 45 85 46 79 47 78 48 34 50 66 51 46 52 65 53 47 54
REMARK SMILES IDX 50 55 64 56 83 57 48 58 49 59 63 61 84 62 51 63 35 64 36 65
REMARK SMILES IDX 44 66 37 67 43 68 45 69 42 70 38 71 39 72 40 73 41 74 67 75
REMARK SMILES IDX 68 76 76 77 69 78 75 79 77 80 74 81 70 82 71 83 72 84 73 85
REMARK SMILES IDX 52 86 53 87 61 88 54 89 60 90 62 91 59 92 55 93 56 94 57 95
REMARK SMILES IDX 58 96
REMARK H PARENT 8 16 82 49 50 60
REMARK Flexibility Score: inf
ROOT
ATOM      1  C   UNL A   1      38.771  20.385  25.943  1.00  0.00     0.188 C 
ENDROOT
BRANCH   1   2
ATOM      2  O   UNL A   1      37.861  20.048  24.905  1.00  0.00    -0.376 OA
BRANCH   2   3
ATOM      3  C   UNL A   1      36.878  21.018  24.577  1.00  0.00     0.202 C 
BRANCH   3   4
ATOM      4  C   UNL A   1      35.856  21.204  25.695  1.00  0.00     0.261 C 
BRANCH   4   5
ATOM      5  O   UNL A   1      35.081  22.401  25.490  1.00  0.00    -0.463 OA
BRANCH   5   6
ATOM      6  C   UNL A   1      34.189  22.751  26.456  1.00  0.00     0.320 C 
ATOM      7  O   UNL A   1      34.262  22.394  27.612  1.00  0.00    -0.251 OA
BRANCH   6   8
ATOM      8  C   UNL A   1      33.085  23.639  25.898  1.00  0.00     0.142 C 
ATOM      9  C   UNL A   1      32.237  22.999  24.803  1.00  0.00     0.055 C 
ATOM     10  C   UNL A   1      32.018  23.737  27.002  1.00  0.00     0.185 C 
ATOM     11  C   UNL A   1      30.891  23.664  24.965  1.00  0.00     0.161 C 
ATOM     12  O   UNL A   1      30.739  23.912  26.366  1.00  0.00    -0.380 OA
BRANCH   8  13
ATOM     13  C   UNL A   1      33.611  25.072  25.606  1.00  0.00     0.283 C 
BRANCH  13  14
ATOM     14  N   UNL A   1      33.561  25.667  24.280  1.00  0.00    -0.331 N 
ATOM     15  C   UNL A   1      34.035  24.893  23.160  1.00  0.00     0.333 C 
ATOM     16  H   UNL A   1      32.553  25.520  24.312  1.00  0.00     0.348 HD
BRANCH  14  17
ATOM     17  C   UNL A   1      33.425  27.107  24.072  1.00  0.00     0.319 C 
BRANCH  17  18
ATOM     18  C   UNL A   1      32.073  27.588  23.579  1.00  0.00     0.095 A 
ATOM     19  C   UNL A   1      28.579  26.484  23.904  1.00  0.00     0.067 C 
ATOM     20  C   UNL A   1      29.766  27.324  23.540  1.00  0.00     0.038 A 
ATOM     21  C   UNL A   1      29.609  28.466  22.761  1.00  0.00     0.023 A 
ATOM     22  N   UNL A   1      30.979  26.880  23.947  1.00  0.00    -0.252 NA
ATOM     23  C   UNL A   1      30.739  29.174  22.375  1.00  0.00     0.004 A 
ATOM     24  C   UNL A   1      31.988  28.720  22.773  1.00  0.00     0.030 A 
ENDBRANCH  17  18
ENDBRANCH  14  17
ENDBRANCH  13  14
ENDBRANCH   8  13
ENDBRANCH   6   8
ENDBRANCH   5   6
ENDBRANCH   4   5
ENDBRANCH   3   4
ENDBRANCH   2   3
ENDBRANCH   1   2
BRANCH   1  25
ATOM     25  C   UNL A   1      40.184  19.839  25.692  1.00  0.00     0.188 C 
BRANCH  25  26
ATOM     26  O   UNL A   1      41.112  19.892  26.768  1.00  0.00    -0.376 OA
BRANCH  26  27
ATOM     27  C   UNL A   1      42.494  19.997  26.441  1.00  0.00     0.202 C 
BRANCH  27  28
ATOM     28  C   UNL A   1      43.051  21.418  26.355  1.00  0.00     0.261 C 
BRANCH  28  29
ATOM     29  O   UNL A   1      42.379  22.232  25.370  1.00  0.00    -0.460 OA
BRANCH  29  30
ATOM     30  C   UNL A   1      42.974  23.424  25.126  1.00  0.00     0.338 C 
ATOM     31  O   UNL A   1      43.935  23.622  24.396  1.00  0.00    -0.246 OA
BRANCH  30  32
ATOM     32  C   UNL A   1      42.313  24.530  25.844  1.00  0.00     0.060 A 
ATOM     33  C   UNL A   1      42.847  25.818  25.762  1.00  0.00     0.016 A 
ATOM     34  C   UNL A   1      41.328  24.244  26.793  1.00  0.00     0.016 A 
ATOM     35  C   UNL A   1      42.429  26.807  26.661  1.00  0.00     0.010 A 
ATOM     36  C   UNL A   1      40.894  25.246  27.674  1.00  0.00     0.010 A 
ATOM     37  C   UNL A   1      41.465  26.531  27.640  1.00  0.00    -0.014 A 
BRANCH  37  38
ATOM     38  C   UNL A   1      41.187  27.525  28.720  1.00  0.00     0.031 A 
ATOM     39  C   UNL A   1      42.081  27.557  29.934  1.00  0.00     0.074 A 
ATOM     40  C   UNL A   1      40.204  28.440  28.608  1.00  0.00     0.049 A 
ATOM     41  N   UNL A   1      41.936  28.200  31.064  1.00  0.00    -0.248 NA
ATOM     42  C   UNL A   1      43.312  26.758  29.850  1.00  0.00     0.031 C 
ATOM     43  C   UNL A   1      39.356  28.628  27.432  1.00  0.00     0.029 A 
ATOM     44  N   UNL A   1      39.756  29.390  29.497  1.00  0.00    -0.354 N 
ATOM     45  C   UNL A   1      43.040  27.858  31.841  1.00  0.00     0.074 A 
ATOM     46  C   UNL A   1      43.838  26.942  31.051  1.00  0.00     0.031 C 
ATOM     47  C   UNL A   1      38.492  29.629  27.672  1.00  0.00     0.029 A 
ATOM     48  C   UNL A   1      38.663  30.097  29.045  1.00  0.00     0.049 A 
ATOM     49  H   UNL A   1      40.175  29.549  30.373  1.00  0.00     0.167 HD
ATOM     50  C   UNL A   1      43.353  28.262  33.099  1.00  0.00     0.034 A 
ATOM     51  C   UNL A   1      37.859  30.978  29.679  1.00  0.00     0.034 A 
ATOM     52  C   UNL A   1      42.548  29.181  33.870  1.00  0.00     0.049 A 
ATOM     53  C   UNL A   1      38.139  31.307  31.129  1.00  0.00     0.074 A 
ATOM     54  C   UNL A   1      42.738  29.618  35.171  1.00  0.00     0.029 A 
ATOM     55  N   UNL A   1      41.396  29.807  33.409  1.00  0.00    -0.354 N 
ATOM     56  N   UNL A   1      39.124  30.896  31.896  1.00  0.00    -0.248 NA
ATOM     57  C   UNL A   1      37.191  32.205  31.803  1.00  0.00     0.031 C 
ATOM     58  C   UNL A   1      41.665  30.447  35.518  1.00  0.00     0.029 A 
ATOM     59  C   UNL A   1      40.849  30.599  34.409  1.00  0.00     0.049 A 
ATOM     60  H   UNL A   1      41.023  29.705  32.504  1.00  0.00     0.167 HD
ATOM     61  C   UNL A   1      38.926  31.511  33.131  1.00  0.00     0.074 A 
ATOM     62  C   UNL A   1      37.739  32.330  33.002  1.00  0.00     0.031 C 
ATOM     63  C   UNL A   1      39.660  31.408  34.270  1.00  0.00     0.034 A 
BRANCH  50  64
ATOM     64  C   UNL A   1      44.565  27.631  33.743  1.00  0.00     0.023 A 
ATOM     65  C   UNL A   1      44.516  26.367  34.358  1.00  0.00     0.031 A 
ATOM     66  C   UNL A   1      45.779  28.341  33.800  1.00  0.00     0.131 A 
ATOM     67  C   UNL A   1      45.627  25.895  35.075  1.00  0.00     0.055 A 
ATOM     68  C   UNL A   1      46.907  27.828  34.441  1.00  0.00     0.041 A 
ATOM     69  F   UNL A   1      45.882  29.562  33.250  1.00  0.00    -0.206 F 
ATOM     70  C   UNL A   1      46.830  26.606  35.102  1.00  0.00     0.022 A 
BRANCH  67  71
ATOM     71  S   UNL A   1      45.427  24.422  36.116  1.00  0.00     0.124 S 
ATOM     72  O   UNL A   1      44.016  24.104  35.909  1.00  0.00    -0.237 OA
ATOM     73  O   UNL A   1      46.385  23.490  35.534  1.00  0.00    -0.237 OA
ATOM     74  O   UNL A   1      45.758  24.901  37.457  1.00  0.00    -0.744 OA
ENDBRANCH  67  71
ENDBRANCH  50  64
BRANCH  51  75
ATOM     75  C   UNL A   1      36.649  31.538  29.000  1.00  0.00     0.023 A 
ATOM     76  C   UNL A   1      35.592  30.713  28.580  1.00  0.00     0.031 A 
ATOM     77  C   UNL A   1      36.575  32.908  28.683  1.00  0.00     0.131 A 
ATOM     78  C   UNL A   1      34.532  31.257  27.833  1.00  0.00     0.055 A 
ATOM     79  C   UNL A   1      35.489  33.453  27.995  1.00  0.00     0.041 A 
ATOM     80  F   UNL A   1      37.562  33.744  29.040  1.00  0.00    -0.206 F 
ATOM     81  C   UNL A   1      34.465  32.623  27.554  1.00  0.00     0.022 A 
BRANCH  78  82
ATOM     82  S   UNL A   1      33.285  30.136  27.137  1.00  0.00     0.124 S 
ATOM     83  O   UNL A   1      33.777  29.952  25.777  1.00  0.00    -0.237 OA
ATOM     84  O   UNL A   1      33.389  28.980  28.021  1.00  0.00    -0.237 OA
ATOM     85  O   UNL A   1      32.042  30.896  27.255  1.00  0.00    -0.744 OA
ENDBRANCH  78  82
ENDBRANCH  51  75
BRANCH  63  86
ATOM     86  C   UNL A   1      39.228  32.249  35.449  1.00  0.00     0.023 A 
ATOM     87  C   UNL A   1      39.652  33.580  35.609  1.00  0.00     0.031 A 
ATOM     88  C   UNL A   1      38.378  31.703  36.429  1.00  0.00     0.131 A 
ATOM     89  C   UNL A   1      39.267  34.303  36.750  1.00  0.00     0.055 A 
ATOM     90  C   UNL A   1      37.950  32.448  37.529  1.00  0.00     0.041 A 
ATOM     91  F   UNL A   1      37.944  30.437  36.328  1.00  0.00    -0.206 F 
ATOM     92  C   UNL A   1      38.405  33.751  37.701  1.00  0.00     0.022 A 
BRANCH  89  93
ATOM     93  S   UNL A   1      39.978  35.951  37.021  1.00  0.00     0.124 S 
ATOM     94  O   UNL A   1      39.888  36.542  35.690  1.00  0.00    -0.237 OA
ATOM     95  O   UNL A   1      39.087  36.513  38.030  1.00  0.00    -0.237 OA
ATOM     96  O   UNL A   1      41.336  35.668  37.484  1.00  0.00    -0.744 OA
ENDBRANCH  89  93
ENDBRANCH  63  86
ENDBRANCH  37  38
ENDBRANCH  30  32
ENDBRANCH  29  30
ENDBRANCH  28  29
ENDBRANCH  27  28
ENDBRANCH  26  27
ENDBRANCH  25  26
ENDBRANCH   1  25
TORSDOF 24
ENDMDL
MODEL 3
REMARK VINA RESULT:      -9.6      2.406      9.085
REMARK SMILES Cc1cccc(C[N@@H+](C)C[C@]2(C(=O)OCCOCCOCCOC(=O)c3ccc(-c4c5nc(c(-c6cc(S(=O)(=O)[O-])ccc6F)c6ccc([nH]6)c(-c6cc(S(=O)(=O)[O-])ccc6F)c6nc(c(-c7cc(S(=O)(=O)[O-])ccc7F)c7ccc4[nH]7)C=C6)C=C5)cc3)CCOC2)n1
REMARK SMILES IDX 18 1 17 2 16 3 15 4 14 5 12 6 13 7 11 8 89 9 92 10 90 11
REMARK SMILES IDX 91 12 10 13 8 14 9 15 7 17 6 18 1 19 2 20 3 21 93 22 4 23
REMARK SMILES IDX 5 24 19 25 20 26 21 27 22 28 23 29 24 30 25 31 26 32 27 33
REMARK SMILES IDX 88 34 28 35 87 36 29 37 30 38 31 39 81 40 32 41 86 42 80 43
REMARK SMILES IDX 82 44 33 45 85 46 79 47 78 48 34 50 66 51 46 52 65 53 47 54
REMARK SMILES IDX 50 55 64 56 83 57 48 58 49 59 63 61 84 62 51 63 35 64 36 65
REMARK SMILES IDX 44 66 37 67 43 68 45 69 42 70 38 71 39 72 40 73 41 74 67 75
REMARK SMILES IDX 68 76 76 77 69 78 75 79 77 80 74 81 70 82 71 83 72 84 73 85
REMARK SMILES IDX 52 86 53 87 61 88 54 89 60 90 62 91 59 92 55 93 56 94 57 95
REMARK SMILES IDX 58 96
REMARK H PARENT 8 16 82 49 50 60
REMARK Flexibility Score: inf
ROOT
ATOM      1  C   UNL A   1      34.060  30.000  26.824  1.00  0.00     0.188 C 
ENDROOT
BRANCH   1   2
ATOM      2  O   UNL A   1      33.799  28.720  27.384  1.00  0.00    -0.376 OA
BRANCH   2   3
ATOM      3  C   UNL A   1      33.640  27.644  26.473  1.00  0.00     0.202 C 
BRANCH   3   4
ATOM      4  C   UNL A   1      32.202  27.133  26.431  1.00  0.00     0.261 C 
BRANCH   4   5
ATOM      5  O   UNL A   1      31.421  27.873  25.474  1.00  0.00    -0.463 OA
BRANCH   5   6
ATOM      6  C   UNL A   1      30.429  27.211  24.819  1.00  0.00     0.320 C 
ATOM      7  O   UNL A   1      29.895  26.204  25.231  1.00  0.00    -0.251 OA
BRANCH   6   8
ATOM      8  C   UNL A   1      30.082  27.891  23.501  1.00  0.00     0.142 C 
ATOM      9  C   UNL A   1      28.591  27.965  23.188  1.00  0.00     0.055 C 
ATOM     10  C   UNL A   1      30.359  29.389  23.709  1.00  0.00     0.185 C 
ATOM     11  C   UNL A   1      28.466  29.223  22.362  1.00  0.00     0.161 C 
ATOM     12  O   UNL A   1      29.454  30.127  22.868  1.00  0.00    -0.380 OA
BRANCH   8  13
ATOM     13  C   UNL A   1      30.999  27.385  22.352  1.00  0.00     0.283 C 
BRANCH  13  14
ATOM     14  N   UNL A   1      32.303  26.790  22.598  1.00  0.00    -0.331 N 
ATOM     15  C   UNL A   1      33.459  27.651  22.625  1.00  0.00     0.333 C 
ATOM     16  H   UNL A   1      32.011  26.688  23.569  1.00  0.00     0.348 HD
BRANCH  14  17
ATOM     17  C   UNL A   1      32.554  25.360  22.438  1.00  0.00     0.319 C 
BRANCH  17  18
ATOM     18  C   UNL A   1      33.192  24.655  23.621  1.00  0.00     0.095 A 
ATOM     19  C   UNL A   1      32.034  23.248  26.817  1.00  0.00     0.067 C 
ATOM     20  C   UNL A   1      32.940  23.605  25.677  1.00  0.00     0.038 A 
ATOM     21  C   UNL A   1      34.300  23.321  25.743  1.00  0.00     0.023 A 
ATOM     22  N   UNL A   1      32.382  24.267  24.634  1.00  0.00    -0.252 NA
ATOM     23  C   UNL A   1      35.123  23.740  24.706  1.00  0.00     0.004 A 
ATOM     24  C   UNL A   1      34.566  24.431  23.640  1.00  0.00     0.030 A 
ENDBRANCH  17  18
ENDBRANCH  14  17
ENDBRANCH  13  14
ENDBRANCH   8  13
ENDBRANCH   6   8
ENDBRANCH   5   6
ENDBRANCH   4   5
ENDBRANCH   3   4
ENDBRANCH   2   3
ENDBRANCH   1   2
BRANCH   1  25
ATOM     25  C   UNL A   1      33.567  31.149  27.714  1.00  0.00     0.188 C 
BRANCH  25  26
ATOM     26  O   UNL A   1      32.853  32.208  27.090  1.00  0.00    -0.376 OA
BRANCH  26  27
ATOM     27  C   UNL A   1      32.633  33.392  27.850  1.00  0.00     0.202 C 
BRANCH  27  28
ATOM     28  C   UNL A   1      33.713  34.468  27.730  1.00  0.00     0.261 C 
BRANCH  28  29
ATOM     29  O   UNL A   1      33.785  35.330  28.887  1.00  0.00    -0.460 OA
BRANCH  29  30
ATOM     30  C   UNL A   1      33.864  34.674  30.071  1.00  0.00     0.338 C 
ATOM     31  O   UNL A   1      33.140  34.839  31.043  1.00  0.00    -0.246 OA
BRANCH  30  32
ATOM     32  C   UNL A   1      34.948  33.674  30.079  1.00  0.00     0.060 A 
ATOM     33  C   UNL A   1      34.785  32.493  30.806  1.00  0.00     0.016 A 
ATOM     34  C   UNL A   1      36.207  34.019  29.584  1.00  0.00     0.016 A 
ATOM     35  C   UNL A   1      35.893  31.681  31.077  1.00  0.00     0.010 A 
ATOM     36  C   UNL A   1      37.309  33.189  29.837  1.00  0.00     0.010 A 
ATOM     37  C   UNL A   1      37.170  32.026  30.616  1.00  0.00    -0.014 A 
BRANCH  37  38
ATOM     38  C   UNL A   1      38.369  31.271  31.090  1.00  0.00     0.031 A 
ATOM     39  C   UNL A   1      38.987  31.634  32.417  1.00  0.00     0.074 A 
ATOM     40  C   UNL A   1      38.870  30.228  30.399  1.00  0.00     0.049 A 
ATOM     41  N   UNL A   1      40.117  31.247  32.949  1.00  0.00    -0.248 NA
ATOM     42  C   UNL A   1      38.210  32.555  33.260  1.00  0.00     0.031 C 
ATOM     43  C   UNL A   1      38.293  29.666  29.180  1.00  0.00     0.029 A 
ATOM     44  N   UNL A   1      39.981  29.448  30.631  1.00  0.00    -0.354 N 
ATOM     45  C   UNL A   1      40.206  31.903  34.175  1.00  0.00     0.074 A 
ATOM     46  C   UNL A   1      39.016  32.719  34.297  1.00  0.00     0.031 C 
ATOM     47  C   UNL A   1      39.051  28.636  28.771  1.00  0.00     0.029 A 
ATOM     48  C   UNL A   1      40.215  28.514  29.645  1.00  0.00     0.049 A 
ATOM     49  H   UNL A   1      40.554  29.548  31.424  1.00  0.00     0.167 HD
ATOM     50  C   UNL A   1      41.193  31.837  35.105  1.00  0.00     0.034 A 
ATOM     51  C   UNL A   1      41.270  27.696  29.439  1.00  0.00     0.034 A 
ATOM     52  C   UNL A   1      42.371  31.012  34.968  1.00  0.00     0.049 A 
ATOM     53  C   UNL A   1      42.428  27.742  30.410  1.00  0.00     0.074 A 
ATOM     54  C   UNL A   1      43.459  30.908  35.818  1.00  0.00     0.029 A 
ATOM     55  N   UNL A   1      42.616  30.146  33.908  1.00  0.00    -0.354 N 
ATOM     56  N   UNL A   1      42.558  28.445  31.513  1.00  0.00    -0.248 NA
ATOM     57  C   UNL A   1      43.589  26.895  30.101  1.00  0.00     0.031 C 
ATOM     58  C   UNL A   1      44.390  30.038  35.238  1.00  0.00     0.029 A 
ATOM     59  C   UNL A   1      43.849  29.531  34.068  1.00  0.00     0.049 A 
ATOM     60  H   UNL A   1      42.002  29.991  33.154  1.00  0.00     0.167 HD
ATOM     61  C   UNL A   1      43.801  28.101  32.040  1.00  0.00     0.074 A 
ATOM     62  C   UNL A   1      44.375  27.119  31.144  1.00  0.00     0.031 C 
ATOM     63  C   UNL A   1      44.414  28.556  33.164  1.00  0.00     0.034 A 
BRANCH  50  64
ATOM     64  C   UNL A   1      41.076  32.757  36.297  1.00  0.00     0.023 A 
ATOM     65  C   UNL A   1      40.192  32.500  37.360  1.00  0.00     0.031 A 
ATOM     66  C   UNL A   1      41.818  33.952  36.335  1.00  0.00     0.131 A 
ATOM     67  C   UNL A   1      40.009  33.464  38.365  1.00  0.00     0.055 A 
ATOM     68  C   UNL A   1      41.695  34.867  37.383  1.00  0.00     0.041 A 
ATOM     69  F   UNL A   1      42.663  34.264  35.339  1.00  0.00    -0.206 F 
ATOM     70  C   UNL A   1      40.771  34.634  38.397  1.00  0.00     0.022 A 
BRANCH  67  71
ATOM     71  S   UNL A   1      38.640  33.246  39.538  1.00  0.00     0.124 S 
ATOM     72  O   UNL A   1      37.484  33.248  38.645  1.00  0.00    -0.237 OA
ATOM     73  O   UNL A   1      38.961  31.971  40.166  1.00  0.00    -0.237 OA
ATOM     74  O   UNL A   1      38.746  34.415  40.409  1.00  0.00    -0.744 OA
ENDBRANCH  67  71
ENDBRANCH  50  64
BRANCH  51  75
ATOM     75  C   UNL A   1      41.345  26.837  28.215  1.00  0.00     0.023 A 
ATOM     76  C   UNL A   1      41.213  25.441  28.287  1.00  0.00     0.031 A 
ATOM     77  C   UNL A   1      41.637  27.403  26.960  1.00  0.00     0.131 A 
ATOM     78  C   UNL A   1      41.415  24.656  27.137  1.00  0.00     0.055 A 
ATOM     79  C   UNL A   1      41.776  26.624  25.809  1.00  0.00     0.041 A 
ATOM     80  F   UNL A   1      41.795  28.729  26.830  1.00  0.00    -0.206 F 
ATOM     81  C   UNL A   1      41.678  25.241  25.896  1.00  0.00     0.022 A 
BRANCH  78  82
ATOM     82  S   UNL A   1      41.433  22.849  27.301  1.00  0.00     0.124 S 
ATOM     83  O   UNL A   1      41.920  22.437  25.989  1.00  0.00    -0.237 OA
ATOM     84  O   UNL A   1      42.352  22.654  28.418  1.00  0.00    -0.237 OA
ATOM     85  O   UNL A   1      40.038  22.519  27.582  1.00  0.00    -0.744 OA
ENDBRANCH  78  82
ENDBRANCH  51  75
BRANCH  63  86
ATOM     86  C   UNL A   1      45.753  27.949  33.515  1.00  0.00     0.023 A 
ATOM     87  C   UNL A   1      45.859  26.746  34.234  1.00  0.00     0.031 A 
ATOM     88  C   UNL A   1      46.941  28.592  33.123  1.00  0.00     0.131 A 
ATOM     89  C   UNL A   1      47.125  26.250  34.584  1.00  0.00     0.055 A 
ATOM     90  C   UNL A   1      48.197  28.062  33.421  1.00  0.00     0.041 A 
ATOM     91  F   UNL A   1      46.900  29.745  32.436  1.00  0.00    -0.206 F 
ATOM     92  C   UNL A   1      48.295  26.891  34.166  1.00  0.00     0.022 A 
BRANCH  89  93
ATOM     93  S   UNL A   1      47.227  24.798  35.668  1.00  0.00     0.124 S 
ATOM     94  O   UNL A   1      46.076  24.994  36.545  1.00  0.00    -0.237 OA
ATOM     95  O   UNL A   1      47.126  23.693  34.721  1.00  0.00    -0.237 OA
ATOM     96  O   UNL A   1      48.530  24.942  36.314  1.00  0.00    -0.744 OA
ENDBRANCH  89  93
ENDBRANCH  63  86
ENDBRANCH  37  38
ENDBRANCH  30  32
ENDBRANCH  29  30
ENDBRANCH  28  29
ENDBRANCH  27  28
ENDBRANCH  26  27
ENDBRANCH  25  26
ENDBRANCH   1  25
TORSDOF 24
ENDMDL
