MODEL 1
REMARK VINA RESULT:     -11.9      0.000      0.000
REMARK SMILES O=C(OCCOCCOCCOC(=O)[C@H]1CC=CC[C@H]1C(=O)Nc1ccc(S(=O)(=O)N2CCCC2)cc1)c1ccc(-c2c3nc(c(-c4cc(S(=O)(=O)[O-])ccc4F)c4ccc([nH]4)c(-c4cc(S(=O)(=O)[O-])ccc4F)c4nc(c(-c5cc(S(=O)(=O)[O-])ccc5F)c5ccc2[nH]5)C=C4)C=C3)cc1
REMARK SMILES IDX 8 1 7 2 6 3 5 4 4 5 3 6 2 7 1 8 38 9 39 10 100 11 40 12
REMARK SMILES IDX 99 13 41 14 42 15 43 16 93 17 44 18 98 19 92 20 94 21 45 22
REMARK SMILES IDX 97 23 91 24 90 25 46 27 78 28 58 29 77 30 59 31 62 32 76 33
REMARK SMILES IDX 95 34 60 35 61 36 75 38 96 39 63 40 47 41 48 42 56 43 49 44
REMARK SMILES IDX 55 45 57 46 54 47 50 48 51 49 52 50 53 51 79 52 80 53 88 54
REMARK SMILES IDX 81 55 87 56 89 57 86 58 82 59 83 60 84 61 85 62 64 63 65 64
REMARK SMILES IDX 73 65 66 66 72 67 74 68 71 69 67 70 68 71 69 72 70 73 9 74
REMARK SMILES IDX 10 75 11 76 12 77 13 78 14 79 15 80 16 81 20 82 17 83 19 84
REMARK SMILES IDX 18 85 21 86 22 87 23 88 24 90 25 91 37 92 26 93 36 94 27 95
REMARK SMILES IDX 28 96 29 97 30 98 31 99 32 100 35 101 33 102 34 103
REMARK H PARENT 94 26 62 37 23 89
REMARK Flexibility Score: inf
ROOT
ATOM      1  C   UNL A   1      40.059  22.218  26.452  1.00  0.00     0.188 C 
ENDROOT
BRANCH   1   2
ATOM      2  C   UNL A   1      40.830  21.147  27.238  1.00  0.00     0.188 C 
BRANCH   2   3
ATOM      3  O   UNL A   1      41.502  20.193  26.398  1.00  0.00    -0.376 OA
BRANCH   3   4
ATOM      4  C   UNL A   1      42.178  19.183  27.168  1.00  0.00     0.202 C 
BRANCH   4   5
ATOM      5  C   UNL A   1      42.952  18.186  26.290  1.00  0.00     0.261 C 
BRANCH   5   6
ATOM      6  O   UNL A   1      43.265  18.810  25.027  1.00  0.00    -0.460 OA
BRANCH   6   7
ATOM      7  C   UNL A   1      44.394  19.484  24.706  1.00  0.00     0.338 C 
ATOM      8  O   UNL A   1      45.337  18.889  24.192  1.00  0.00    -0.246 OA
BRANCH   7   9
ATOM      9  C   UNL A   1      44.535  20.940  24.965  1.00  0.00     0.060 A 
ATOM     10  C   UNL A   1      43.964  21.907  24.135  1.00  0.00     0.016 A 
ATOM     11  C   UNL A   1      45.132  21.344  26.166  1.00  0.00     0.016 A 
ATOM     12  C   UNL A   1      44.078  23.269  24.448  1.00  0.00     0.010 A 
ATOM     13  C   UNL A   1      45.206  22.700  26.503  1.00  0.00     0.010 A 
ATOM     14  C   UNL A   1      44.701  23.680  25.634  1.00  0.00    -0.014 A 
BRANCH  14  15
ATOM     15  C   UNL A   1      44.877  25.121  25.970  1.00  0.00     0.031 A 
ATOM     16  C   UNL A   1      46.200  25.775  25.713  1.00  0.00     0.074 A 
ATOM     17  C   UNL A   1      43.890  25.835  26.541  1.00  0.00     0.049 A 
ATOM     18  N   UNL A   1      46.665  26.911  26.161  1.00  0.00    -0.248 NA
ATOM     19  C   UNL A   1      47.140  25.017  24.879  1.00  0.00     0.031 C 
ATOM     20  C   UNL A   1      42.566  25.312  26.842  1.00  0.00     0.029 A 
ATOM     21  N   UNL A   1      43.834  27.141  26.961  1.00  0.00    -0.354 N 
ATOM     22  C   UNL A   1      47.993  26.958  25.757  1.00  0.00     0.074 A 
ATOM     23  C   UNL A   1      48.234  25.753  24.985  1.00  0.00     0.031 C 
ATOM     24  C   UNL A   1      41.798  26.308  27.314  1.00  0.00     0.029 A 
ATOM     25  C   UNL A   1      42.603  27.515  27.452  1.00  0.00     0.049 A 
ATOM     26  H   UNL A   1      44.605  27.753  26.916  1.00  0.00     0.167 HD
ATOM     27  C   UNL A   1      48.928  27.894  26.062  1.00  0.00     0.034 A 
ATOM     28  C   UNL A   1      42.182  28.679  27.991  1.00  0.00     0.034 A 
ATOM     29  C   UNL A   1      48.641  29.081  26.834  1.00  0.00     0.049 A 
ATOM     30  C   UNL A   1      43.215  29.749  28.250  1.00  0.00     0.074 A 
ATOM     31  C   UNL A   1      49.509  30.062  27.279  1.00  0.00     0.029 A 
ATOM     32  N   UNL A   1      47.373  29.450  27.273  1.00  0.00    -0.354 N 
ATOM     33  N   UNL A   1      44.501  29.731  27.981  1.00  0.00    -0.248 NA
ATOM     34  C   UNL A   1      42.763  30.962  28.944  1.00  0.00     0.031 C 
ATOM     35  C   UNL A   1      48.776  30.993  28.028  1.00  0.00     0.029 A 
ATOM     36  C   UNL A   1      47.438  30.634  27.991  1.00  0.00     0.049 A 
ATOM     37  H   UNL A   1      46.547  28.942  27.101  1.00  0.00     0.167 HD
ATOM     38  C   UNL A   1      45.018  30.909  28.507  1.00  0.00     0.074 A 
ATOM     39  C   UNL A   1      43.897  31.642  29.062  1.00  0.00     0.031 C 
ATOM     40  C   UNL A   1      46.306  31.335  28.553  1.00  0.00     0.034 A 
BRANCH  27  41
ATOM     41  C   UNL A   1      50.352  27.567  25.677  1.00  0.00     0.023 A 
ATOM     42  C   UNL A   1      50.868  27.863  24.404  1.00  0.00     0.031 A 
ATOM     43  C   UNL A   1      51.153  26.806  26.551  1.00  0.00     0.131 A 
ATOM     44  C   UNL A   1      52.080  27.285  23.994  1.00  0.00     0.055 A 
ATOM     45  C   UNL A   1      52.408  26.327  26.173  1.00  0.00     0.041 A 
ATOM     46  F   UNL A   1      50.706  26.469  27.771  1.00  0.00    -0.206 F 
ATOM     47  C   UNL A   1      52.866  26.540  24.877  1.00  0.00     0.022 A 
BRANCH  44  48
ATOM     48  S   UNL A   1      52.489  27.314  22.225  1.00  0.00     0.124 S 
ATOM     49  O   UNL A   1      51.201  26.973  21.621  1.00  0.00    -0.237 OA
ATOM     50  O   UNL A   1      52.942  28.686  22.029  1.00  0.00    -0.237 OA
ATOM     51  O   UNL A   1      53.520  26.288  22.093  1.00  0.00    -0.744 OA
ENDBRANCH  44  48
ENDBRANCH  27  41
BRANCH  28  52
ATOM     52  C   UNL A   1      40.754  28.867  28.401  1.00  0.00     0.023 A 
ATOM     53  C   UNL A   1      40.358  28.728  29.744  1.00  0.00     0.031 A 
ATOM     54  C   UNL A   1      39.758  29.184  27.459  1.00  0.00     0.131 A 
ATOM     55  C   UNL A   1      39.008  28.899  30.100  1.00  0.00     0.055 A 
ATOM     56  C   UNL A   1      38.432  29.416  27.828  1.00  0.00     0.041 A 
ATOM     57  F   UNL A   1      40.067  29.307  26.158  1.00  0.00    -0.206 F 
ATOM     58  C   UNL A   1      38.048  29.267  29.156  1.00  0.00     0.022 A 
BRANCH  55  59
ATOM     59  S   UNL A   1      38.501  28.572  31.813  1.00  0.00     0.124 S 
ATOM     60  O   UNL A   1      37.155  29.136  31.836  1.00  0.00    -0.237 OA
ATOM     61  O   UNL A   1      38.589  27.118  31.888  1.00  0.00    -0.237 OA
ATOM     62  O   UNL A   1      39.492  29.295  32.607  1.00  0.00    -0.744 OA
ENDBRANCH  55  59
ENDBRANCH  28  52
BRANCH  40  63
ATOM     63  C   UNL A   1      46.564  32.660  29.223  1.00  0.00     0.023 A 
ATOM     64  C   UNL A   1      46.771  32.756  30.610  1.00  0.00     0.031 A 
ATOM     65  C   UNL A   1      46.637  33.834  28.453  1.00  0.00     0.131 A 
ATOM     66  C   UNL A   1      47.017  34.010  31.191  1.00  0.00     0.055 A 
ATOM     67  C   UNL A   1      46.920  35.072  29.032  1.00  0.00     0.041 A 
ATOM     68  F   UNL A   1      46.448  33.791  27.125  1.00  0.00    -0.206 F 
ATOM     69  C   UNL A   1      47.107  35.166  30.409  1.00  0.00     0.022 A 
BRANCH  66  70
ATOM     70  S   UNL A   1      47.189  34.124  32.994  1.00  0.00     0.124 S 
ATOM     71  O   UNL A   1      48.396  33.341  33.234  1.00  0.00    -0.237 OA
ATOM     72  O   UNL A   1      47.309  35.563  33.207  1.00  0.00    -0.237 OA
ATOM     73  O   UNL A   1      45.953  33.528  33.496  1.00  0.00    -0.744 OA
ENDBRANCH  66  70
ENDBRANCH  40  63
ENDBRANCH  14  15
ENDBRANCH   7   9
ENDBRANCH   6   7
ENDBRANCH   5   6
ENDBRANCH   4   5
ENDBRANCH   3   4
ENDBRANCH   2   3
ENDBRANCH   1   2
BRANCH   1  74
ATOM     74  O   UNL A   1      38.692  22.013  26.073  1.00  0.00    -0.376 OA
BRANCH  74  75
ATOM     75  C   UNL A   1      38.280  20.800  25.424  1.00  0.00     0.202 C 
BRANCH  75  76
ATOM     76  C   UNL A   1      36.616  20.613  25.057  1.00  0.00     0.261 C 
BRANCH  76  77
ATOM     77  O   UNL A   1      35.367  21.958  24.240  1.00  0.00    -0.463 OA
BRANCH  77  78
ATOM     78  C   UNL A   1      34.548  22.706  23.347  1.00  0.00     0.310 C 
ATOM     79  O   UNL A   1      34.987  23.373  22.413  1.00  0.00    -0.252 OA
BRANCH  78  80
ATOM     80  C   UNL A   1      33.126  22.937  23.971  1.00  0.00     0.116 C 
ATOM     81  C   UNL A   1      32.131  23.076  22.809  1.00  0.00     0.043 C 
ATOM     82  C   UNL A   1      32.574  21.846  24.895  1.00  0.00     0.097 C 
ATOM     83  C   UNL A   1      31.907  21.752  22.141  1.00  0.00    -0.030 C 
ATOM     84  C   UNL A   1      32.645  20.485  24.192  1.00  0.00     0.041 C 
ATOM     85  C   UNL A   1      32.183  20.587  22.752  1.00  0.00    -0.030 C 
BRANCH  82  86
ATOM     86  C   UNL A   1      32.910  21.866  26.396  1.00  0.00     0.228 C 
ATOM     87  O   UNL A   1      33.769  21.115  26.866  1.00  0.00    -0.274 OA
ATOM     88  N   UNL A   1      32.206  22.658  27.269  1.00  0.00    -0.326 N 
ATOM     89  H   UNL A   1      31.963  22.315  28.159  1.00  0.00     0.169 HD
BRANCH  88  90
ATOM     90  C   UNL A   1      31.836  23.949  26.897  1.00  0.00     0.041 A 
ATOM     91  C   UNL A   1      33.210  25.030  26.488  1.00  0.00     0.027 A 
ATOM     92  C   UNL A   1      30.212  24.223  26.145  1.00  0.00     0.027 A 
ATOM     93  C   UNL A   1      33.016  26.345  25.304  1.00  0.00     0.024 A 
ATOM     94  C   UNL A   1      30.000  25.583  24.928  1.00  0.00     0.024 A 
ATOM     95  C   UNL A   1      31.413  26.667  24.556  1.00  0.00     0.082 A 
BRANCH  95  96
ATOM     96  S   UNL A   1      31.335  28.269  23.789  1.00  0.00     0.243 S 
ATOM     97  O   UNL A   1      31.174  29.201  24.889  1.00  0.00    -0.207 OA
ATOM     98  O   UNL A   1      32.501  28.366  22.934  1.00  0.00    -0.207 OA
BRANCH  96  99
ATOM     99  N   UNL A   1      30.003  28.367  22.819  1.00  0.00    -0.198 NA
ATOM    100  C   UNL A   1      29.852  29.405  21.815  1.00  0.00     0.102 C 
ATOM    101  C   UNL A   1      28.690  27.892  23.259  1.00  0.00     0.102 C 
ATOM    102  C   UNL A   1      28.526  30.053  22.145  1.00  0.00     0.018 C 
ATOM    103  C   UNL A   1      27.745  29.048  22.976  1.00  0.00     0.018 C 
ENDBRANCH  96  99
ENDBRANCH  95  96
ENDBRANCH  88  90
ENDBRANCH  82  86
ENDBRANCH  78  80
ENDBRANCH  77  78
ENDBRANCH  76  77
ENDBRANCH  75  76
ENDBRANCH  74  75
ENDBRANCH   1  74
TORSDOF 24
ENDMDL
MODEL 2
REMARK VINA RESULT:     -11.5      1.796      2.037
REMARK SMILES O=C(OCCOCCOCCOC(=O)[C@H]1CC=CC[C@H]1C(=O)Nc1ccc(S(=O)(=O)N2CCCC2)cc1)c1ccc(-c2c3nc(c(-c4cc(S(=O)(=O)[O-])ccc4F)c4ccc([nH]4)c(-c4cc(S(=O)(=O)[O-])ccc4F)c4nc(c(-c5cc(S(=O)(=O)[O-])ccc5F)c5ccc2[nH]5)C=C4)C=C3)cc1
REMARK SMILES IDX 8 1 7 2 6 3 5 4 4 5 3 6 2 7 1 8 38 9 39 10 100 11 40 12
REMARK SMILES IDX 99 13 41 14 42 15 43 16 93 17 44 18 98 19 92 20 94 21 45 22
REMARK SMILES IDX 97 23 91 24 90 25 46 27 78 28 58 29 77 30 59 31 62 32 76 33
REMARK SMILES IDX 95 34 60 35 61 36 75 38 96 39 63 40 47 41 48 42 56 43 49 44
REMARK SMILES IDX 55 45 57 46 54 47 50 48 51 49 52 50 53 51 79 52 80 53 88 54
REMARK SMILES IDX 81 55 87 56 89 57 86 58 82 59 83 60 84 61 85 62 64 63 65 64
REMARK SMILES IDX 73 65 66 66 72 67 74 68 71 69 67 70 68 71 69 72 70 73 9 74
REMARK SMILES IDX 10 75 11 76 12 77 13 78 14 79 15 80 16 81 20 82 17 83 19 84
REMARK SMILES IDX 18 85 21 86 22 87 23 88 24 90 25 91 37 92 26 93 36 94 27 95
REMARK SMILES IDX 28 96 29 97 30 98 31 99 32 100 35 101 33 102 34 103
REMARK H PARENT 94 26 62 37 23 89
REMARK Flexibility Score: inf
ROOT
ATOM      1  C   UNL A   1      40.009  22.014  26.232  1.00  0.00     0.188 C 
ENDROOT
BRANCH   1   2
ATOM      2  C   UNL A   1      40.651  20.801  26.922  1.00  0.00     0.188 C 
BRANCH   2   3
ATOM      3  O   UNL A   1      41.555  20.073  26.073  1.00  0.00    -0.376 OA
BRANCH   3   4
ATOM      4  C   UNL A   1      42.426  19.214  26.831  1.00  0.00     0.202 C 
BRANCH   4   5
ATOM      5  C   UNL A   1      43.197  18.221  25.945  1.00  0.00     0.261 C 
BRANCH   5   6
ATOM      6  O   UNL A   1      43.547  18.867  24.703  1.00  0.00    -0.460 OA
BRANCH   6   7
ATOM      7  C   UNL A   1      44.697  19.522  24.417  1.00  0.00     0.338 C 
ATOM      8  O   UNL A   1      45.642  18.912  23.924  1.00  0.00    -0.246 OA
BRANCH   7   9
ATOM      9  C   UNL A   1      44.860  20.972  24.692  1.00  0.00     0.060 A 
ATOM     10  C   UNL A   1      44.253  21.955  23.907  1.00  0.00     0.016 A 
ATOM     11  C   UNL A   1      45.519  21.354  25.867  1.00  0.00     0.016 A 
ATOM     12  C   UNL A   1      44.391  23.311  24.235  1.00  0.00     0.010 A 
ATOM     13  C   UNL A   1      45.618  22.704  26.221  1.00  0.00     0.010 A 
ATOM     14  C   UNL A   1      45.075  23.700  25.395  1.00  0.00    -0.014 A 
BRANCH  14  15
ATOM     15  C   UNL A   1      45.277  25.135  25.743  1.00  0.00     0.031 A 
ATOM     16  C   UNL A   1      46.595  25.781  25.445  1.00  0.00     0.074 A 
ATOM     17  C   UNL A   1      44.318  25.848  26.361  1.00  0.00     0.049 A 
ATOM     18  N   UNL A   1      47.086  26.907  25.891  1.00  0.00    -0.248 NA
ATOM     19  C   UNL A   1      47.496  25.028  24.566  1.00  0.00     0.031 C 
ATOM     20  C   UNL A   1      43.002  25.332  26.704  1.00  0.00     0.029 A 
ATOM     21  N   UNL A   1      44.290  27.149  26.801  1.00  0.00    -0.354 N 
ATOM     22  C   UNL A   1      48.398  26.949  25.438  1.00  0.00     0.074 A 
ATOM     23  C   UNL A   1      48.599  25.754  24.640  1.00  0.00     0.031 C 
ATOM     24  C   UNL A   1      42.261  26.328  27.219  1.00  0.00     0.029 A 
ATOM     25  C   UNL A   1      43.081  27.526  27.343  1.00  0.00     0.049 A 
ATOM     26  H   UNL A   1      45.063  27.756  26.736  1.00  0.00     0.167 HD
ATOM     27  C   UNL A   1      49.352  27.873  25.720  1.00  0.00     0.034 A 
ATOM     28  C   UNL A   1      42.691  28.686  27.914  1.00  0.00     0.034 A 
ATOM     29  C   UNL A   1      49.105  29.051  26.519  1.00  0.00     0.049 A 
ATOM     30  C   UNL A   1      43.742  29.743  28.149  1.00  0.00     0.074 A 
ATOM     31  C   UNL A   1      49.998  30.019  26.944  1.00  0.00     0.029 A 
ATOM     32  N   UNL A   1      47.857  29.424  27.011  1.00  0.00    -0.354 N 
ATOM     33  N   UNL A   1      45.017  29.718  27.831  1.00  0.00    -0.248 NA
ATOM     34  C   UNL A   1      43.328  30.950  28.876  1.00  0.00     0.031 C 
ATOM     35  C   UNL A   1      49.301  30.945  27.733  1.00  0.00     0.029 A 
ATOM     36  C   UNL A   1      47.960  30.597  27.742  1.00  0.00     0.049 A 
ATOM     37  H   UNL A   1      47.021  28.926  26.862  1.00  0.00     0.167 HD
ATOM     38  C   UNL A   1      45.563  30.885  28.353  1.00  0.00     0.074 A 
ATOM     39  C   UNL A   1      44.471  31.619  28.961  1.00  0.00     0.031 C 
ATOM     40  C   UNL A   1      46.856  31.299  28.356  1.00  0.00     0.034 A 
BRANCH  27  41
ATOM     41  C   UNL A   1      50.757  27.540  25.277  1.00  0.00     0.023 A 
ATOM     42  C   UNL A   1      51.723  27.044  26.168  1.00  0.00     0.031 A 
ATOM     43  C   UNL A   1      51.175  27.874  23.974  1.00  0.00     0.131 A 
ATOM     44  C   UNL A   1      53.075  27.029  25.790  1.00  0.00     0.055 A 
ATOM     45  C   UNL A   1      52.506  27.751  23.570  1.00  0.00     0.041 A 
ATOM     46  F   UNL A   1      50.305  28.376  23.083  1.00  0.00    -0.206 F 
ATOM     47  C   UNL A   1      53.471  27.354  24.491  1.00  0.00     0.022 A 
BRANCH  44  48
ATOM     48  S   UNL A   1      54.326  26.817  27.089  1.00  0.00     0.124 S 
ATOM     49  O   UNL A   1      54.736  28.200  27.329  1.00  0.00    -0.237 OA
ATOM     50  O   UNL A   1      53.567  26.181  28.158  1.00  0.00    -0.237 OA
ATOM     51  O   UNL A   1      55.342  25.978  26.456  1.00  0.00    -0.744 OA
ENDBRANCH  44  48
ENDBRANCH  27  41
BRANCH  28  52
ATOM     52  C   UNL A   1      41.281  28.879  28.380  1.00  0.00     0.023 A 
ATOM     53  C   UNL A   1      40.949  28.806  29.745  1.00  0.00     0.031 A 
ATOM     54  C   UNL A   1      40.239  29.137  27.471  1.00  0.00     0.131 A 
ATOM     55  C   UNL A   1      39.615  28.980  30.156  1.00  0.00     0.055 A 
ATOM     56  C   UNL A   1      38.928  29.374  27.890  1.00  0.00     0.041 A 
ATOM     57  F   UNL A   1      40.486  29.196  26.153  1.00  0.00    -0.206 F 
ATOM     58  C   UNL A   1      38.609  29.289  29.240  1.00  0.00     0.022 A 
BRANCH  55  59
ATOM     59  S   UNL A   1      39.192  28.736  31.905  1.00  0.00     0.124 S 
ATOM     60  O   UNL A   1      38.858  30.095  32.320  1.00  0.00    -0.237 OA
ATOM     61  O   UNL A   1      38.079  27.797  31.825  1.00  0.00    -0.237 OA
ATOM     62  O   UNL A   1      40.422  28.195  32.482  1.00  0.00    -0.744 OA
ENDBRANCH  55  59
ENDBRANCH  28  52
BRANCH  40  63
ATOM     63  C   UNL A   1      47.151  32.613  29.034  1.00  0.00     0.023 A 
ATOM     64  C   UNL A   1      47.111  33.830  28.330  1.00  0.00     0.031 A 
ATOM     65  C   UNL A   1      47.439  32.646  30.409  1.00  0.00     0.131 A 
ATOM     66  C   UNL A   1      47.384  35.031  29.001  1.00  0.00     0.055 A 
ATOM     67  C   UNL A   1      47.672  33.848  31.079  1.00  0.00     0.041 A 
ATOM     68  F   UNL A   1      47.486  31.510  31.123  1.00  0.00    -0.206 F 
ATOM     69  C   UNL A   1      47.650  35.049  30.375  1.00  0.00     0.022 A 
BRANCH  66  70
ATOM     70  S   UNL A   1      47.420  36.579  28.056  1.00  0.00     0.124 S 
ATOM     71  O   UNL A   1      47.694  37.564  29.096  1.00  0.00    -0.237 OA
ATOM     72  O   UNL A   1      48.499  36.340  27.102  1.00  0.00    -0.237 OA
ATOM     73  O   UNL A   1      46.083  36.654  27.468  1.00  0.00    -0.744 OA
ENDBRANCH  66  70
ENDBRANCH  40  63
ENDBRANCH  14  15
ENDBRANCH   7   9
ENDBRANCH   6   7
ENDBRANCH   5   6
ENDBRANCH   4   5
ENDBRANCH   3   4
ENDBRANCH   2   3
ENDBRANCH   1   2
BRANCH   1  74
ATOM     74  O   UNL A   1      38.766  21.891  25.530  1.00  0.00    -0.376 OA
BRANCH  74  75
ATOM     75  C   UNL A   1      38.189  20.601  25.272  1.00  0.00     0.202 C 
BRANCH  75  76
ATOM     76  C   UNL A   1      36.494  20.514  25.033  1.00  0.00     0.261 C 
BRANCH  76  77
ATOM     77  O   UNL A   1      35.279  21.907  24.245  1.00  0.00    -0.463 OA
BRANCH  77  78
ATOM     78  C   UNL A   1      34.441  22.667  23.381  1.00  0.00     0.310 C 
ATOM     79  O   UNL A   1      34.862  23.383  22.475  1.00  0.00    -0.252 OA
BRANCH  78  80
ATOM     80  C   UNL A   1      33.013  22.835  24.011  1.00  0.00     0.116 C 
ATOM     81  C   UNL A   1      32.005  22.901  22.854  1.00  0.00     0.043 C 
ATOM     82  C   UNL A   1      32.524  21.733  24.958  1.00  0.00     0.097 C 
ATOM     83  C   UNL A   1      31.845  21.555  22.212  1.00  0.00    -0.030 C 
ATOM     84  C   UNL A   1      32.662  20.365  24.280  1.00  0.00     0.041 C 
ATOM     85  C   UNL A   1      32.187  20.417  22.841  1.00  0.00    -0.030 C 
BRANCH  82  86
ATOM     86  C   UNL A   1      32.868  21.799  26.457  1.00  0.00     0.228 C 
ATOM     87  O   UNL A   1      33.660  20.998  26.963  1.00  0.00    -0.274 OA
ATOM     88  N   UNL A   1      32.242  22.693  27.290  1.00  0.00    -0.326 N 
ATOM     89  H   UNL A   1      31.974  22.418  28.196  1.00  0.00     0.169 HD
BRANCH  88  90
ATOM     90  C   UNL A   1      31.987  23.992  26.853  1.00  0.00     0.041 A 
ATOM     91  C   UNL A   1      33.450  24.926  26.395  1.00  0.00     0.027 A 
ATOM     92  C   UNL A   1      30.392  24.370  26.084  1.00  0.00     0.027 A 
ATOM     93  C   UNL A   1      33.371  26.192  25.147  1.00  0.00     0.024 A 
ATOM     94  C   UNL A   1      30.299  25.681  24.801  1.00  0.00     0.024 A 
ATOM     95  C   UNL A   1      31.802  26.617  24.380  1.00  0.00     0.082 A 
BRANCH  95  96
ATOM     96  S   UNL A   1      31.864  28.180  23.535  1.00  0.00     0.243 S 
ATOM     97  O   UNL A   1      31.918  29.173  24.592  1.00  0.00    -0.207 OA
ATOM     98  O   UNL A   1      32.955  28.084  22.586  1.00  0.00    -0.207 OA
BRANCH  96  99
ATOM     99  N   UNL A   1      30.477  28.411  22.670  1.00  0.00    -0.198 NA
ATOM    100  C   UNL A   1      30.183  29.665  21.999  1.00  0.00     0.102 C 
ATOM    101  C   UNL A   1      29.236  27.709  22.998  1.00  0.00     0.102 C 
ATOM    102  C   UNL A   1      28.827  30.065  22.534  1.00  0.00     0.018 C 
ATOM    103  C   UNL A   1      28.182  28.800  23.075  1.00  0.00     0.018 C 
ENDBRANCH  96  99
ENDBRANCH  95  96
ENDBRANCH  88  90
ENDBRANCH  82  86
ENDBRANCH  78  80
ENDBRANCH  77  78
ENDBRANCH  76  77
ENDBRANCH  75  76
ENDBRANCH  74  75
ENDBRANCH   1  74
TORSDOF 24
ENDMDL
MODEL 3
REMARK VINA RESULT:     -11.4      5.938     10.040
REMARK SMILES O=C(OCCOCCOCCOC(=O)[C@H]1CC=CC[C@H]1C(=O)Nc1ccc(S(=O)(=O)N2CCCC2)cc1)c1ccc(-c2c3nc(c(-c4cc(S(=O)(=O)[O-])ccc4F)c4ccc([nH]4)c(-c4cc(S(=O)(=O)[O-])ccc4F)c4nc(c(-c5cc(S(=O)(=O)[O-])ccc5F)c5ccc2[nH]5)C=C4)C=C3)cc1
REMARK SMILES IDX 8 1 7 2 6 3 5 4 4 5 3 6 2 7 1 8 38 9 39 10 100 11 40 12
REMARK SMILES IDX 99 13 41 14 42 15 43 16 93 17 44 18 98 19 92 20 94 21 45 22
REMARK SMILES IDX 97 23 91 24 90 25 46 27 78 28 58 29 77 30 59 31 62 32 76 33
REMARK SMILES IDX 95 34 60 35 61 36 75 38 96 39 63 40 47 41 48 42 56 43 49 44
REMARK SMILES IDX 55 45 57 46 54 47 50 48 51 49 52 50 53 51 79 52 80 53 88 54
REMARK SMILES IDX 81 55 87 56 89 57 86 58 82 59 83 60 84 61 85 62 64 63 65 64
REMARK SMILES IDX 73 65 66 66 72 67 74 68 71 69 67 70 68 71 69 72 70 73 9 74
REMARK SMILES IDX 10 75 11 76 12 77 13 78 14 79 15 80 16 81 20 82 17 83 19 84
REMARK SMILES IDX 18 85 21 86 22 87 23 88 24 90 25 91 37 92 26 93 36 94 27 95
REMARK SMILES IDX 28 96 29 97 30 98 31 99 32 100 35 101 33 102 34 103
REMARK H PARENT 94 26 62 37 23 89
REMARK Flexibility Score: inf
ROOT
ATOM      1  C   UNL A   1      34.539  30.359  27.314  1.00  0.00     0.188 C 
ENDROOT
BRANCH   1   2
ATOM      2  C   UNL A   1      34.293  31.712  27.998  1.00  0.00     0.188 C 
BRANCH   2   3
ATOM      3  O   UNL A   1      35.324  32.680  27.740  1.00  0.00    -0.376 OA
BRANCH   3   4
ATOM      4  C   UNL A   1      34.857  34.027  27.935  1.00  0.00     0.202 C 
BRANCH   4   5
ATOM      5  C   UNL A   1      33.475  34.084  28.607  1.00  0.00     0.261 C 
BRANCH   5   6
ATOM      6  O   UNL A   1      33.547  34.940  29.766  1.00  0.00    -0.460 OA
BRANCH   6   7
ATOM      7  C   UNL A   1      33.741  34.562  31.052  1.00  0.00     0.338 C 
ATOM      8  O   UNL A   1      32.861  34.755  31.886  1.00  0.00    -0.246 OA
BRANCH   7   9
ATOM      9  C   UNL A   1      35.004  33.918  31.494  1.00  0.00     0.060 A 
ATOM     10  C   UNL A   1      35.057  32.589  31.921  1.00  0.00     0.016 A 
ATOM     11  C   UNL A   1      36.202  34.626  31.330  1.00  0.00     0.016 A 
ATOM     12  C   UNL A   1      36.282  32.006  32.279  1.00  0.00     0.010 A 
ATOM     13  C   UNL A   1      37.429  34.031  31.644  1.00  0.00     0.010 A 
ATOM     14  C   UNL A   1      37.479  32.721  32.146  1.00  0.00    -0.014 A 
BRANCH  14  15
ATOM     15  C   UNL A   1      38.789  32.144  32.562  1.00  0.00     0.031 A 
ATOM     16  C   UNL A   1      39.490  31.188  31.647  1.00  0.00     0.074 A 
ATOM     17  C   UNL A   1      39.332  32.429  33.760  1.00  0.00     0.049 A 
ATOM     18  N   UNL A   1      40.477  30.369  31.902  1.00  0.00    -0.248 NA
ATOM     19  C   UNL A   1      38.971  31.111  30.277  1.00  0.00     0.031 C 
ATOM     20  C   UNL A   1      38.747  33.338  34.733  1.00  0.00     0.029 A 
ATOM     21  N   UNL A   1      40.489  31.998  34.362  1.00  0.00    -0.354 N 
ATOM     22  C   UNL A   1      40.628  29.598  30.756  1.00  0.00     0.074 A 
ATOM     23  C   UNL A   1      39.659  30.089  29.795  1.00  0.00     0.031 C 
ATOM     24  C   UNL A   1      39.589  33.470  35.771  1.00  0.00     0.029 A 
ATOM     25  C   UNL A   1      40.724  32.574  35.591  1.00  0.00     0.049 A 
ATOM     26  H   UNL A   1      41.095  31.338  33.952  1.00  0.00     0.167 HD
ATOM     27  C   UNL A   1      41.459  28.542  30.562  1.00  0.00     0.034 A 
ATOM     28  C   UNL A   1      41.712  32.372  36.488  1.00  0.00     0.034 A 
ATOM     29  C   UNL A   1      42.410  28.088  31.551  1.00  0.00     0.049 A 
ATOM     30  C   UNL A   1      42.684  31.248  36.224  1.00  0.00     0.074 A 
ATOM     31  C   UNL A   1      43.249  26.988  31.512  1.00  0.00     0.029 A 
ATOM     32  N   UNL A   1      42.653  28.725  32.765  1.00  0.00    -0.354 N 
ATOM     33  N   UNL A   1      42.737  30.435  35.193  1.00  0.00    -0.248 NA
ATOM     34  C   UNL A   1      43.680  30.964  37.265  1.00  0.00     0.031 C 
ATOM     35  C   UNL A   1      43.958  26.932  32.721  1.00  0.00     0.029 A 
ATOM     36  C   UNL A   1      43.616  28.036  33.485  1.00  0.00     0.049 A 
ATOM     37  H   UNL A   1      42.203  29.546  33.070  1.00  0.00     0.167 HD
ATOM     38  C   UNL A   1      43.746  29.521  35.479  1.00  0.00     0.074 A 
ATOM     39  C   UNL A   1      44.311  29.914  36.755  1.00  0.00     0.031 C 
ATOM     40  C   UNL A   1      44.149  28.439  34.767  1.00  0.00     0.034 A 
BRANCH  27  41
ATOM     41  C   UNL A   1      41.244  27.746  29.297  1.00  0.00     0.023 A 
ATOM     42  C   UNL A   1      42.126  27.823  28.207  1.00  0.00     0.031 A 
ATOM     43  C   UNL A   1      40.050  27.017  29.126  1.00  0.00     0.131 A 
ATOM     44  C   UNL A   1      41.739  27.307  26.960  1.00  0.00     0.055 A 
ATOM     45  C   UNL A   1      39.722  26.411  27.912  1.00  0.00     0.041 A 
ATOM     46  F   UNL A   1      39.155  26.927  30.122  1.00  0.00    -0.206 F 
ATOM     47  C   UNL A   1      40.555  26.580  26.810  1.00  0.00     0.022 A 
BRANCH  44  48
ATOM     48  S   UNL A   1      42.680  27.812  25.492  1.00  0.00     0.124 S 
ATOM     49  O   UNL A   1      43.888  28.373  26.097  1.00  0.00    -0.237 OA
ATOM     50  O   UNL A   1      42.850  26.553  24.778  1.00  0.00    -0.237 OA
ATOM     51  O   UNL A   1      41.809  28.789  24.843  1.00  0.00    -0.744 OA
ENDBRANCH  44  48
ENDBRANCH  27  41
BRANCH  28  52
ATOM     52  C   UNL A   1      41.785  33.178  37.748  1.00  0.00     0.023 A 
ATOM     53  C   UNL A   1      41.093  32.783  38.907  1.00  0.00     0.031 A 
ATOM     54  C   UNL A   1      42.546  34.361  37.816  1.00  0.00     0.131 A 
ATOM     55  C   UNL A   1      41.171  33.564  40.074  1.00  0.00     0.055 A 
ATOM     56  C   UNL A   1      42.671  35.097  38.995  1.00  0.00     0.041 A 
ATOM     57  F   UNL A   1      43.211  34.804  36.738  1.00  0.00    -0.206 F 
ATOM     58  C   UNL A   1      41.975  34.703  40.133  1.00  0.00     0.022 A 
BRANCH  55  59
ATOM     59  S   UNL A   1      40.153  33.110  41.508  1.00  0.00     0.124 S 
ATOM     60  O   UNL A   1      41.087  33.316  42.610  1.00  0.00    -0.237 OA
ATOM     61  O   UNL A   1      39.049  34.059  41.415  1.00  0.00    -0.237 OA
ATOM     62  O   UNL A   1      39.797  31.716  41.247  1.00  0.00    -0.744 OA
ENDBRANCH  55  59
ENDBRANCH  28  52
BRANCH  40  63
ATOM     63  C   UNL A   1      45.262  27.610  35.355  1.00  0.00     0.023 A 
ATOM     64  C   UNL A   1      44.999  26.503  36.180  1.00  0.00     0.031 A 
ATOM     65  C   UNL A   1      46.600  27.914  35.053  1.00  0.00     0.131 A 
ATOM     66  C   UNL A   1      46.065  25.753  36.700  1.00  0.00     0.055 A 
ATOM     67  C   UNL A   1      47.654  27.142  35.541  1.00  0.00     0.041 A 
ATOM     68  F   UNL A   1      46.901  28.961  34.267  1.00  0.00    -0.206 F 
ATOM     69  C   UNL A   1      47.391  26.058  36.374  1.00  0.00     0.022 A 
BRANCH  66  70
ATOM     70  S   UNL A   1      45.707  24.386  37.838  1.00  0.00     0.124 S 
ATOM     71  O   UNL A   1      47.030  24.080  38.371  1.00  0.00    -0.237 OA
ATOM     72  O   UNL A   1      44.767  24.995  38.775  1.00  0.00    -0.237 OA
ATOM     73  O   UNL A   1      45.134  23.358  36.972  1.00  0.00    -0.744 OA
ENDBRANCH  66  70
ENDBRANCH  40  63
ENDBRANCH  14  15
ENDBRANCH   7   9
ENDBRANCH   6   7
ENDBRANCH   5   6
ENDBRANCH   4   5
ENDBRANCH   3   4
ENDBRANCH   2   3
ENDBRANCH   1   2
BRANCH   1  74
ATOM     74  O   UNL A   1      33.449  29.586  26.795  1.00  0.00    -0.376 OA
BRANCH  74  75
ATOM     75  C   UNL A   1      33.374  28.171  27.023  1.00  0.00     0.202 C 
BRANCH  75  76
ATOM     76  C   UNL A   1      33.790  27.128  25.728  1.00  0.00     0.261 C 
BRANCH  76  77
ATOM     77  O   UNL A   1      34.504  25.252  25.826  1.00  0.00    -0.463 OA
BRANCH  77  78
ATOM     78  C   UNL A   1      34.646  23.835  25.832  1.00  0.00     0.310 C 
ATOM     79  O   UNL A   1      35.249  23.212  26.704  1.00  0.00    -0.252 OA
BRANCH  78  80
ATOM     80  C   UNL A   1      34.355  23.249  24.406  1.00  0.00     0.116 C 
ATOM     81  C   UNL A   1      35.673  23.281  23.618  1.00  0.00     0.043 C 
ATOM     82  C   UNL A   1      33.830  21.811  24.326  1.00  0.00     0.097 C 
ATOM     83  C   UNL A   1      36.624  22.242  24.133  1.00  0.00    -0.030 C 
ATOM     84  C   UNL A   1      34.749  20.877  25.121  1.00  0.00     0.041 C 
ATOM     85  C   UNL A   1      36.209  21.184  24.850  1.00  0.00    -0.030 C 
BRANCH  82  86
ATOM     86  C   UNL A   1      32.318  21.538  24.421  1.00  0.00     0.228 C 
ATOM     87  O   UNL A   1      31.892  20.481  24.893  1.00  0.00    -0.274 OA
ATOM     88  N   UNL A   1      31.404  22.425  23.908  1.00  0.00    -0.326 N 
ATOM     89  H   UNL A   1      30.608  22.092  23.433  1.00  0.00     0.169 HD
BRANCH  88  90
ATOM     90  C   UNL A   1      31.601  23.796  24.060  1.00  0.00     0.041 A 
ATOM     91  C   UNL A   1      32.038  24.658  22.547  1.00  0.00     0.027 A 
ATOM     92  C   UNL A   1      30.737  24.674  25.386  1.00  0.00     0.027 A 
ATOM     93  C   UNL A   1      31.584  26.362  22.304  1.00  0.00     0.024 A 
ATOM     94  C   UNL A   1      30.272  26.435  25.148  1.00  0.00     0.024 A 
ATOM     95  C   UNL A   1      30.750  27.277  23.608  1.00  0.00     0.082 A 
BRANCH  95  96
ATOM     96  S   UNL A   1      30.814  29.034  23.347  1.00  0.00     0.243 S 
ATOM     97  O   UNL A   1      30.992  29.602  24.670  1.00  0.00    -0.207 OA
ATOM     98  O   UNL A   1      31.822  29.256  22.331  1.00  0.00    -0.207 OA
BRANCH  96  99
ATOM     99  N   UNL A   1      29.375  29.567  22.738  1.00  0.00    -0.198 NA
ATOM    100  C   UNL A   1      28.976  30.962  22.804  1.00  0.00     0.102 C 
ATOM    101  C   UNL A   1      28.194  28.705  22.676  1.00  0.00     0.102 C 
ATOM    102  C   UNL A   1      27.626  30.931  23.486  1.00  0.00     0.018 C 
ATOM    103  C   UNL A   1      27.084  29.522  23.313  1.00  0.00     0.018 C 
ENDBRANCH  96  99
ENDBRANCH  95  96
ENDBRANCH  88  90
ENDBRANCH  82  86
ENDBRANCH  78  80
ENDBRANCH  77  78
ENDBRANCH  76  77
ENDBRANCH  75  76
ENDBRANCH  74  75
ENDBRANCH   1  74
TORSDOF 24
ENDMDL
