MODEL 1
REMARK VINA RESULT:      -8.9      0.000      0.000
REMARK SMILES CS(=O)(=O)Nc1ccc(-c2cc(Cl)cc3c2O[C@H](C(F)(F)F)C(C(=O)OCCOCCOCCOC(=O)c2ccc(-c4c5nc(c(-c6cc(S(=O)(=O)[O-])ccc6F)c6ccc([nH]6)c(-c6cc(S(=O)(=O)[O-])ccc6F)c6nc(c(-c7cc(S(=O)(=O)[O-])ccc7F)c7ccc4[nH]7)C=C6)C=C5)cc2)=C3)cc1
REMARK SMILES IDX 30 1 29 2 28 3 27 4 26 5 24 6 25 7 23 8 10 9 11 10 16 11
REMARK SMILES IDX 12 12 15 13 17 14 13 15 14 16 101 17 18 18 9 19 6 20 7 21
REMARK SMILES IDX 103 22 8 23 102 24 5 25 2 27 1 28 3 29 4 30 19 31 20 32
REMARK SMILES IDX 21 33 22 34 31 35 32 36 33 37 34 38 35 39 36 40 37 41 38 42
REMARK SMILES IDX 39 43 100 44 40 45 99 46 41 47 42 48 43 49 93 50 44 51 98 52
REMARK SMILES IDX 92 53 94 54 45 55 97 56 91 57 90 58 46 60 78 61 58 62 77 63
REMARK SMILES IDX 59 64 62 65 76 66 95 67 60 68 61 69 75 71 96 72 63 73 47 74
REMARK SMILES IDX 48 75 56 76 49 77 55 78 57 79 54 80 50 81 51 82 52 83 53 84
REMARK SMILES IDX 79 85 80 86 88 87 81 88 87 89 89 90 86 91 82 92 83 93 84 94
REMARK SMILES IDX 85 95 64 96 65 97 73 98 66 99 72 100 74 101 71 102 67 103
REMARK SMILES IDX 68 104 69 105 70 106
REMARK H PARENT 5 26 94 59 62 70
REMARK Flexibility Score: inf
ROOT
ATOM      1  C   UNL A   1      41.156  23.540  27.951  1.00  0.00     0.188 C 
ENDROOT
BRANCH   1   2
ATOM      2  O   UNL A   1      40.706  24.532  27.044  1.00  0.00    -0.376 OA
BRANCH   2   3
ATOM      3  C   UNL A   1      39.648  25.358  27.520  1.00  0.00     0.202 C 
BRANCH   3   4
ATOM      4  C   UNL A   1      40.102  26.523  28.412  1.00  0.00     0.261 C 
BRANCH   4   5
ATOM      5  O   UNL A   1      39.010  27.432  28.728  1.00  0.00    -0.460 OA
BRANCH   5   6
ATOM      6  C   UNL A   1      39.306  28.745  28.602  1.00  0.00     0.338 C 
ATOM      7  O   UNL A   1      39.471  29.302  27.524  1.00  0.00    -0.246 OA
BRANCH   6   8
ATOM      8  C   UNL A   1      39.319  29.476  29.902  1.00  0.00     0.087 C 
ATOM      9  C   UNL A   1      36.206  31.787  31.366  1.00  0.00     0.026 A 
ATOM     10  C   UNL A   1      35.437  31.969  30.191  1.00  0.00     0.033 A 
ATOM     11  C   UNL A   1      37.463  31.196  31.139  1.00  0.00     0.135 A 
ATOM     12  C   UNL A   1      35.946  31.806  28.901  1.00  0.00     0.042 A 
ATOM     13  C   UNL A   1      38.049  31.287  29.857  1.00  0.00     0.019 A 
ATOM     14  O   UNL A   1      38.060  30.238  31.976  1.00  0.00    -0.475 OA
ATOM     15  Cl  UNL A   1      34.954  31.969  27.511  1.00  0.00    -0.084 Cl
ATOM     16  C   UNL A   1      37.288  31.557  28.730  1.00  0.00     0.032 A 
ATOM     17  C   UNL A   1      39.435  30.798  29.700  1.00  0.00     0.027 C 
ATOM     18  C   UNL A   1      38.583  29.051  31.173  1.00  0.00     0.316 C 
BRANCH   9  19
ATOM     19  C   UNL A   1      35.730  32.672  32.501  1.00  0.00    -0.014 A 
ATOM     20  C   UNL A   1      34.593  35.109  33.592  1.00  0.00     0.048 A 
ATOM     21  C   UNL A   1      33.799  33.995  33.312  1.00  0.00     0.027 A 
ATOM     22  C   UNL A   1      35.968  34.972  33.425  1.00  0.00     0.027 A 
ATOM     23  C   UNL A   1      34.360  32.798  32.804  1.00  0.00     0.011 A 
ATOM     24  C   UNL A   1      36.526  33.772  32.897  1.00  0.00     0.011 A 
BRANCH  20  25
ATOM     25  N   UNL A   1      33.938  36.373  33.802  1.00  0.00    -0.284 N 
ATOM     26  H   UNL A   1      34.060  36.821  34.670  1.00  0.00     0.180 HD
BRANCH  25  27
ATOM     27  S   UNL A   1      32.979  37.127  32.647  1.00  0.00     0.229 S 
ATOM     28  C   UNL A   1      33.305  36.215  31.153  1.00  0.00     0.183 C 
ATOM     29  O   UNL A   1      33.396  38.502  32.469  1.00  0.00    -0.207 OA
ATOM     30  O   UNL A   1      31.616  36.814  33.021  1.00  0.00    -0.207 OA
ENDBRANCH  25  27
ENDBRANCH  20  25
ENDBRANCH   9  19
BRANCH  18  31
ATOM     31  C   UNL A   1      39.537  28.155  31.976  1.00  0.00     0.430 C 
ATOM     32  F   UNL A   1      38.955  26.993  32.350  1.00  0.00    -0.167 F 
ATOM     33  F   UNL A   1      40.664  27.859  31.296  1.00  0.00    -0.167 F 
ATOM     34  F   UNL A   1      39.930  28.779  33.120  1.00  0.00    -0.167 F 
ENDBRANCH  18  31
ENDBRANCH   6   8
ENDBRANCH   5   6
ENDBRANCH   4   5
ENDBRANCH   3   4
ENDBRANCH   2   3
ENDBRANCH   1   2
BRANCH   1  35
ATOM     35  C   UNL A   1      42.586  23.765  28.492  1.00  0.00     0.188 C 
BRANCH  35  36
ATOM     36  O   UNL A   1      43.726  23.345  27.758  1.00  0.00    -0.376 OA
BRANCH  36  37
ATOM     37  C   UNL A   1      43.577  22.847  26.440  1.00  0.00     0.202 C 
BRANCH  37  38
ATOM     38  C   UNL A   1      44.625  23.162  25.361  1.00  0.00     0.261 C 
BRANCH  38  39
ATOM     39  O   UNL A   1      44.540  24.451  24.737  1.00  0.00    -0.460 OA
BRANCH  39  40
ATOM     40  C   UNL A   1      45.575  25.294  25.002  1.00  0.00     0.338 C 
ATOM     41  O   UNL A   1      46.641  25.342  24.427  1.00  0.00    -0.246 OA
BRANCH  40  42
ATOM     42  C   UNL A   1      45.150  26.288  26.013  1.00  0.00     0.060 A 
ATOM     43  C   UNL A   1      46.135  26.953  26.748  1.00  0.00     0.016 A 
ATOM     44  C   UNL A   1      43.799  26.517  26.283  1.00  0.00     0.016 A 
ATOM     45  C   UNL A   1      45.765  27.841  27.758  1.00  0.00     0.010 A 
ATOM     46  C   UNL A   1      43.433  27.398  27.312  1.00  0.00     0.010 A 
ATOM     47  C   UNL A   1      44.414  28.060  28.066  1.00  0.00    -0.014 A 
BRANCH  47  48
ATOM     48  C   UNL A   1      44.057  28.862  29.270  1.00  0.00     0.031 A 
ATOM     49  C   UNL A   1      43.660  30.294  29.089  1.00  0.00     0.074 A 
ATOM     50  C   UNL A   1      44.070  28.325  30.505  1.00  0.00     0.049 A 
ATOM     51  N   UNL A   1      43.223  31.150  29.974  1.00  0.00    -0.248 NA
ATOM     52  C   UNL A   1      43.833  30.843  27.738  1.00  0.00     0.031 C 
ATOM     53  C   UNL A   1      44.530  26.980  30.801  1.00  0.00     0.029 A 
ATOM     54  N   UNL A   1      43.645  28.803  31.722  1.00  0.00    -0.354 N 
ATOM     55  C   UNL A   1      43.143  32.367  29.305  1.00  0.00     0.074 A 
ATOM     56  C   UNL A   1      43.541  32.119  27.935  1.00  0.00     0.031 C 
ATOM     57  C   UNL A   1      44.217  26.675  32.072  1.00  0.00     0.029 A 
ATOM     58  C   UNL A   1      43.613  27.837  32.710  1.00  0.00     0.049 A 
ATOM     59  H   UNL A   1      43.389  29.741  31.876  1.00  0.00     0.167 HD
ATOM     60  C   UNL A   1      42.819  33.583  29.810  1.00  0.00     0.034 A 
ATOM     61  C   UNL A   1      43.138  27.878  33.972  1.00  0.00     0.034 A 
ATOM     62  C   UNL A   1      42.462  33.799  31.193  1.00  0.00     0.049 A 
ATOM     63  C   UNL A   1      42.649  29.212  34.487  1.00  0.00     0.074 A 
ATOM     64  C   UNL A   1      42.145  34.988  31.825  1.00  0.00     0.029 A 
ATOM     65  N   UNL A   1      42.392  32.804  32.165  1.00  0.00    -0.354 N 
ATOM     66  N   UNL A   1      42.492  30.341  33.831  1.00  0.00    -0.248 NA
ATOM     67  C   UNL A   1      42.298  29.291  35.909  1.00  0.00     0.031 C 
ATOM     68  C   UNL A   1      41.965  34.724  33.187  1.00  0.00     0.029 A 
ATOM     69  C   UNL A   1      42.069  33.356  33.396  1.00  0.00     0.049 A 
ATOM     70  H   UNL A   1      42.550  31.846  32.002  1.00  0.00     0.167 HD
ATOM     71  C   UNL A   1      42.066  31.278  34.773  1.00  0.00     0.074 A 
ATOM     72  C   UNL A   1      41.901  30.552  36.019  1.00  0.00     0.031 C 
ATOM     73  C   UNL A   1      41.872  32.617  34.629  1.00  0.00     0.034 A 
BRANCH  60  74
ATOM     74  C   UNL A   1      42.967  34.768  28.883  1.00  0.00     0.023 A 
ATOM     75  C   UNL A   1      44.222  35.322  28.572  1.00  0.00     0.031 A 
ATOM     76  C   UNL A   1      41.823  35.415  28.379  1.00  0.00     0.131 A 
ATOM     77  C   UNL A   1      44.296  36.536  27.871  1.00  0.00     0.055 A 
ATOM     78  C   UNL A   1      41.910  36.569  27.598  1.00  0.00     0.041 A 
ATOM     79  F   UNL A   1      40.595  34.955  28.665  1.00  0.00    -0.206 F 
ATOM     80  C   UNL A   1      43.151  37.149  27.358  1.00  0.00     0.022 A 
BRANCH  77  81
ATOM     81  S   UNL A   1      45.889  37.402  27.813  1.00  0.00     0.124 S 
ATOM     82  O   UNL A   1      45.798  38.262  28.992  1.00  0.00    -0.237 OA
ATOM     83  O   UNL A   1      46.847  36.306  27.894  1.00  0.00    -0.237 OA
ATOM     84  O   UNL A   1      45.850  38.107  26.533  1.00  0.00    -0.744 OA
ENDBRANCH  77  81
ENDBRANCH  60  74
BRANCH  61  85
ATOM     85  C   UNL A   1      43.100  26.648  34.833  1.00  0.00     0.023 A 
ATOM     86  C   UNL A   1      44.261  26.166  35.462  1.00  0.00     0.031 A 
ATOM     87  C   UNL A   1      41.915  25.927  35.049  1.00  0.00     0.131 A 
ATOM     88  C   UNL A   1      44.231  24.985  36.227  1.00  0.00     0.055 A 
ATOM     89  C   UNL A   1      41.872  24.791  35.867  1.00  0.00     0.041 A 
ATOM     90  F   UNL A   1      40.765  26.332  34.489  1.00  0.00    -0.206 F 
ATOM     91  C   UNL A   1      43.037  24.306  36.451  1.00  0.00     0.022 A 
BRANCH  88  92
ATOM     92  S   UNL A   1      45.783  24.314  36.895  1.00  0.00     0.124 S 
ATOM     93  O   UNL A   1      45.532  22.877  36.828  1.00  0.00    -0.237 OA
ATOM     94  O   UNL A   1      46.770  24.831  35.954  1.00  0.00    -0.237 OA
ATOM     95  O   UNL A   1      45.852  24.877  38.241  1.00  0.00    -0.744 OA
ENDBRANCH  88  92
ENDBRANCH  61  85
BRANCH  73  96
ATOM     96  C   UNL A   1      41.411  33.401  35.843  1.00  0.00     0.023 A 
ATOM     97  C   UNL A   1      42.318  33.993  36.741  1.00  0.00     0.031 A 
ATOM     98  C   UNL A   1      40.037  33.606  36.075  1.00  0.00     0.131 A 
ATOM     99  C   UNL A   1      41.845  34.708  37.853  1.00  0.00     0.055 A 
ATOM    100  C   UNL A   1      39.574  34.381  37.142  1.00  0.00     0.041 A 
ATOM    101  F   UNL A   1      39.117  33.083  35.249  1.00  0.00    -0.206 F 
ATOM    102  C   UNL A   1      40.479  34.926  38.046  1.00  0.00     0.022 A 
BRANCH  99 103
ATOM    103  S   UNL A   1      43.036  35.271  39.100  1.00  0.00     0.124 S 
ATOM    104  O   UNL A   1      43.391  34.020  39.764  1.00  0.00    -0.237 OA
ATOM    105  O   UNL A   1      44.083  35.878  38.284  1.00  0.00    -0.237 OA
ATOM    106  O   UNL A   1      42.265  36.207  39.916  1.00  0.00    -0.744 OA
ENDBRANCH  99 103
ENDBRANCH  73  96
ENDBRANCH  47  48
ENDBRANCH  40  42
ENDBRANCH  39  40
ENDBRANCH  38  39
ENDBRANCH  37  38
ENDBRANCH  36  37
ENDBRANCH  35  36
ENDBRANCH   1  35
TORSDOF 24
ENDMDL
MODEL 2
REMARK VINA RESULT:      -7.7      6.958     13.364
REMARK SMILES CS(=O)(=O)Nc1ccc(-c2cc(Cl)cc3c2O[C@H](C(F)(F)F)C(C(=O)OCCOCCOCCOC(=O)c2ccc(-c4c5nc(c(-c6cc(S(=O)(=O)[O-])ccc6F)c6ccc([nH]6)c(-c6cc(S(=O)(=O)[O-])ccc6F)c6nc(c(-c7cc(S(=O)(=O)[O-])ccc7F)c7ccc4[nH]7)C=C6)C=C5)cc2)=C3)cc1
REMARK SMILES IDX 30 1 29 2 28 3 27 4 26 5 24 6 25 7 23 8 10 9 11 10 16 11
REMARK SMILES IDX 12 12 15 13 17 14 13 15 14 16 101 17 18 18 9 19 6 20 7 21
REMARK SMILES IDX 103 22 8 23 102 24 5 25 2 27 1 28 3 29 4 30 19 31 20 32
REMARK SMILES IDX 21 33 22 34 31 35 32 36 33 37 34 38 35 39 36 40 37 41 38 42
REMARK SMILES IDX 39 43 100 44 40 45 99 46 41 47 42 48 43 49 93 50 44 51 98 52
REMARK SMILES IDX 92 53 94 54 45 55 97 56 91 57 90 58 46 60 78 61 58 62 77 63
REMARK SMILES IDX 59 64 62 65 76 66 95 67 60 68 61 69 75 71 96 72 63 73 47 74
REMARK SMILES IDX 48 75 56 76 49 77 55 78 57 79 54 80 50 81 51 82 52 83 53 84
REMARK SMILES IDX 79 85 80 86 88 87 81 88 87 89 89 90 86 91 82 92 83 93 84 94
REMARK SMILES IDX 85 95 64 96 65 97 73 98 66 99 72 100 74 101 71 102 67 103
REMARK SMILES IDX 68 104 69 105 70 106
REMARK H PARENT 5 26 94 59 62 70
REMARK Flexibility Score: inf
ROOT
ATOM      1  C   UNL A   1      46.434  39.571  28.027  1.00  0.00     0.188 C 
ENDROOT
BRANCH   1   2
ATOM      2  O   UNL A   1      45.268  38.985  27.470  1.00  0.00    -0.376 OA
BRANCH   2   3
ATOM      3  C   UNL A   1      44.795  39.591  26.271  1.00  0.00     0.202 C 
BRANCH   3   4
ATOM      4  C   UNL A   1      44.378  41.061  26.423  1.00  0.00     0.261 C 
BRANCH   4   5
ATOM      5  O   UNL A   1      44.833  41.880  25.309  1.00  0.00    -0.460 OA
BRANCH   5   6
ATOM      6  C   UNL A   1      44.512  43.190  25.395  1.00  0.00     0.338 C 
ATOM      7  O   UNL A   1      44.770  43.888  26.368  1.00  0.00    -0.246 OA
BRANCH   6   8
ATOM      8  C   UNL A   1      43.897  43.732  24.149  1.00  0.00     0.087 C 
ATOM      9  C   UNL A   1      45.896  44.324  20.568  1.00  0.00     0.026 A 
ATOM     10  C   UNL A   1      47.242  44.262  21.004  1.00  0.00     0.033 A 
ATOM     11  C   UNL A   1      44.958  44.359  21.616  1.00  0.00     0.135 A 
ATOM     12  C   UNL A   1      47.635  44.455  22.329  1.00  0.00     0.042 A 
ATOM     13  C   UNL A   1      45.363  44.811  22.892  1.00  0.00     0.019 A 
ATOM     14  O   UNL A   1      43.728  43.681  21.612  1.00  0.00    -0.475 OA
ATOM     15  Cl  UNL A   1      49.272  44.298  22.818  1.00  0.00    -0.084 Cl
ATOM     16  C   UNL A   1      46.699  44.827  23.265  1.00  0.00     0.032 A 
ATOM     17  C   UNL A   1      44.317  44.986  23.922  1.00  0.00     0.027 C 
ATOM     18  C   UNL A   1      43.513  42.916  22.915  1.00  0.00     0.316 C 
BRANCH   9  19
ATOM     19  C   UNL A   1      45.782  44.808  19.136  1.00  0.00    -0.014 A 
ATOM     20  C   UNL A   1      45.145  46.781  17.104  1.00  0.00     0.048 A 
ATOM     21  C   UNL A   1      46.443  46.635  17.598  1.00  0.00     0.027 A 
ATOM     22  C   UNL A   1      44.187  45.873  17.548  1.00  0.00     0.027 A 
ATOM     23  C   UNL A   1      46.757  45.655  18.571  1.00  0.00     0.011 A 
ATOM     24  C   UNL A   1      44.504  44.900  18.539  1.00  0.00     0.011 A 
BRANCH  20  25
ATOM     25  N   UNL A   1      44.829  47.977  16.369  1.00  0.00    -0.284 N 
ATOM     26  H   UNL A   1      45.329  48.158  15.540  1.00  0.00     0.180 HD
BRANCH  25  27
ATOM     27  S   UNL A   1      43.653  49.078  16.844  1.00  0.00     0.229 S 
ATOM     28  C   UNL A   1      43.819  49.149  18.615  1.00  0.00     0.183 C 
ATOM     29  O   UNL A   1      42.336  48.583  16.505  1.00  0.00    -0.207 OA
ATOM     30  O   UNL A   1      44.108  50.359  16.344  1.00  0.00    -0.207 OA
ENDBRANCH  25  27
ENDBRANCH  20  25
ENDBRANCH   9  19
BRANCH  18  31
ATOM     31  C   UNL A   1      42.062  42.452  23.107  1.00  0.00     0.430 C 
ATOM     32  F   UNL A   1      41.882  41.805  24.281  1.00  0.00    -0.167 F 
ATOM     33  F   UNL A   1      41.180  43.472  23.052  1.00  0.00    -0.167 F 
ATOM     34  F   UNL A   1      41.705  41.580  22.125  1.00  0.00    -0.167 F 
ENDBRANCH  18  31
ENDBRANCH   6   8
ENDBRANCH   5   6
ENDBRANCH   4   5
ENDBRANCH   3   4
ENDBRANCH   2   3
ENDBRANCH   1   2
BRANCH   1  35
ATOM     35  C   UNL A   1      47.743  39.226  27.281  1.00  0.00     0.188 C 
BRANCH  35  36
ATOM     36  O   UNL A   1      47.736  38.412  26.119  1.00  0.00    -0.376 OA
BRANCH  36  37
ATOM     37  C   UNL A   1      48.054  37.035  26.215  1.00  0.00     0.202 C 
BRANCH  37  38
ATOM     38  C   UNL A   1      46.976  35.964  25.982  1.00  0.00     0.261 C 
BRANCH  38  39
ATOM     39  O   UNL A   1      46.074  35.710  27.069  1.00  0.00    -0.460 OA
BRANCH  39  40
ATOM     40  C   UNL A   1      44.865  35.199  26.713  1.00  0.00     0.338 C 
ATOM     41  O   UNL A   1      44.514  34.862  25.604  1.00  0.00    -0.246 OA
BRANCH  40  42
ATOM     42  C   UNL A   1      44.063  34.946  27.932  1.00  0.00     0.060 A 
ATOM     43  C   UNL A   1      43.640  36.041  28.690  1.00  0.00     0.016 A 
ATOM     44  C   UNL A   1      43.786  33.646  28.362  1.00  0.00     0.016 A 
ATOM     45  C   UNL A   1      42.946  35.832  29.882  1.00  0.00     0.010 A 
ATOM     46  C   UNL A   1      43.103  33.442  29.571  1.00  0.00     0.010 A 
ATOM     47  C   UNL A   1      42.686  34.534  30.347  1.00  0.00    -0.014 A 
BRANCH  47  48
ATOM     48  C   UNL A   1      42.116  34.344  31.711  1.00  0.00     0.031 A 
ATOM     49  C   UNL A   1      43.030  34.447  32.893  1.00  0.00     0.074 A 
ATOM     50  C   UNL A   1      40.807  34.097  31.900  1.00  0.00     0.049 A 
ATOM     51  N   UNL A   1      42.742  34.412  34.167  1.00  0.00    -0.248 NA
ATOM     52  C   UNL A   1      44.463  34.551  32.591  1.00  0.00     0.031 C 
ATOM     53  C   UNL A   1      39.856  33.883  30.823  1.00  0.00     0.029 A 
ATOM     54  N   UNL A   1      40.035  34.039  33.037  1.00  0.00    -0.354 N 
ATOM     55  C   UNL A   1      43.967  34.408  34.824  1.00  0.00     0.074 A 
ATOM     56  C   UNL A   1      44.992  34.484  33.802  1.00  0.00     0.031 C 
ATOM     57  C   UNL A   1      38.610  33.878  31.327  1.00  0.00     0.029 A 
ATOM     58  C   UNL A   1      38.678  34.000  32.776  1.00  0.00     0.049 A 
ATOM     59  H   UNL A   1      40.411  34.025  33.946  1.00  0.00     0.167 HD
ATOM     60  C   UNL A   1      44.207  34.295  36.154  1.00  0.00     0.034 A 
ATOM     61  C   UNL A   1      37.616  34.072  33.606  1.00  0.00     0.034 A 
ATOM     62  C   UNL A   1      43.160  34.183  37.143  1.00  0.00     0.049 A 
ATOM     63  C   UNL A   1      37.895  34.085  35.092  1.00  0.00     0.074 A 
ATOM     64  C   UNL A   1      43.280  34.034  38.512  1.00  0.00     0.029 A 
ATOM     65  N   UNL A   1      41.795  34.191  36.865  1.00  0.00    -0.354 N 
ATOM     66  N   UNL A   1      39.052  34.168  35.713  1.00  0.00    -0.248 NA
ATOM     67  C   UNL A   1      36.739  33.987  35.989  1.00  0.00     0.031 C 
ATOM     68  C   UNL A   1      41.999  33.870  39.049  1.00  0.00     0.029 A 
ATOM     69  C   UNL A   1      41.065  34.018  38.032  1.00  0.00     0.049 A 
ATOM     70  H   UNL A   1      41.404  34.304  35.969  1.00  0.00     0.167 HD
ATOM     71  C   UNL A   1      38.765  34.087  37.076  1.00  0.00     0.074 A 
ATOM     72  C   UNL A   1      37.318  34.045  37.182  1.00  0.00     0.031 C 
ATOM     73  C   UNL A   1      39.618  34.012  38.132  1.00  0.00     0.034 A 
BRANCH  60  74
ATOM     74  C   UNL A   1      45.651  34.159  36.578  1.00  0.00     0.023 A 
ATOM     75  C   UNL A   1      46.448  35.275  36.888  1.00  0.00     0.031 A 
ATOM     76  C   UNL A   1      46.269  32.894  36.579  1.00  0.00     0.131 A 
ATOM     77  C   UNL A   1      47.830  35.117  37.083  1.00  0.00     0.055 A 
ATOM     78  C   UNL A   1      47.625  32.732  36.871  1.00  0.00     0.041 A 
ATOM     79  F   UNL A   1      45.572  31.791  36.261  1.00  0.00    -0.206 F 
ATOM     80  C   UNL A   1      48.419  33.851  37.103  1.00  0.00     0.022 A 
BRANCH  77  81
ATOM     81  S   UNL A   1      48.873  36.600  37.109  1.00  0.00     0.124 S 
ATOM     82  O   UNL A   1      49.309  36.677  35.717  1.00  0.00    -0.237 OA
ATOM     83  O   UNL A   1      47.941  37.633  37.544  1.00  0.00    -0.237 OA
ATOM     84  O   UNL A   1      49.925  36.263  38.067  1.00  0.00    -0.744 OA
ENDBRANCH  77  81
ENDBRANCH  60  74
BRANCH  61  85
ATOM     85  C   UNL A   1      36.214  34.135  33.076  1.00  0.00     0.023 A 
ATOM     86  C   UNL A   1      35.556  35.366  32.904  1.00  0.00     0.031 A 
ATOM     87  C   UNL A   1      35.496  32.979  32.729  1.00  0.00     0.131 A 
ATOM     88  C   UNL A   1      34.223  35.417  32.453  1.00  0.00     0.055 A 
ATOM     89  C   UNL A   1      34.195  33.035  32.215  1.00  0.00     0.041 A 
ATOM     90  F   UNL A   1      36.061  31.769  32.857  1.00  0.00    -0.206 F 
ATOM     91  C   UNL A   1      33.545  34.258  32.087  1.00  0.00     0.022 A 
BRANCH  88  92
ATOM     92  S   UNL A   1      33.362  37.016  32.391  1.00  0.00     0.124 S 
ATOM     93  O   UNL A   1      33.477  37.355  30.976  1.00  0.00    -0.237 OA
ATOM     94  O   UNL A   1      32.025  36.663  32.854  1.00  0.00    -0.237 OA
ATOM     95  O   UNL A   1      34.132  37.859  33.303  1.00  0.00    -0.744 OA
ENDBRANCH  88  92
ENDBRANCH  61  85
BRANCH  73  96
ATOM     96  C   UNL A   1      39.018  33.920  39.522  1.00  0.00     0.023 A 
ATOM     97  C   UNL A   1      38.597  32.697  40.077  1.00  0.00     0.031 A 
ATOM     98  C   UNL A   1      38.917  35.070  40.329  1.00  0.00     0.131 A 
ATOM     99  C   UNL A   1      38.045  32.661  41.368  1.00  0.00     0.055 A 
ATOM    100  C   UNL A   1      38.435  35.016  41.640  1.00  0.00     0.041 A 
ATOM    101  F   UNL A   1      39.315  36.267  39.868  1.00  0.00    -0.206 F 
ATOM    102  C   UNL A   1      37.984  33.808  42.162  1.00  0.00     0.022 A 
BRANCH  99 103
ATOM    103  S   UNL A   1      37.318  31.109  41.963  1.00  0.00     0.124 S 
ATOM    104  O   UNL A   1      37.986  30.121  41.120  1.00  0.00    -0.237 OA
ATOM    105  O   UNL A   1      37.698  31.104  43.372  1.00  0.00    -0.237 OA
ATOM    106  O   UNL A   1      35.889  31.276  41.707  1.00  0.00    -0.744 OA
ENDBRANCH  99 103
ENDBRANCH  73  96
ENDBRANCH  47  48
ENDBRANCH  40  42
ENDBRANCH  39  40
ENDBRANCH  38  39
ENDBRANCH  37  38
ENDBRANCH  36  37
ENDBRANCH  35  36
ENDBRANCH   1  35
TORSDOF 24
ENDMDL
MODEL 3
REMARK VINA RESULT:      -7.6      3.814     10.251
REMARK SMILES CS(=O)(=O)Nc1ccc(-c2cc(Cl)cc3c2O[C@H](C(F)(F)F)C(C(=O)OCCOCCOCCOC(=O)c2ccc(-c4c5nc(c(-c6cc(S(=O)(=O)[O-])ccc6F)c6ccc([nH]6)c(-c6cc(S(=O)(=O)[O-])ccc6F)c6nc(c(-c7cc(S(=O)(=O)[O-])ccc7F)c7ccc4[nH]7)C=C6)C=C5)cc2)=C3)cc1
REMARK SMILES IDX 30 1 29 2 28 3 27 4 26 5 24 6 25 7 23 8 10 9 11 10 16 11
REMARK SMILES IDX 12 12 15 13 17 14 13 15 14 16 101 17 18 18 9 19 6 20 7 21
REMARK SMILES IDX 103 22 8 23 102 24 5 25 2 27 1 28 3 29 4 30 19 31 20 32
REMARK SMILES IDX 21 33 22 34 31 35 32 36 33 37 34 38 35 39 36 40 37 41 38 42
REMARK SMILES IDX 39 43 100 44 40 45 99 46 41 47 42 48 43 49 93 50 44 51 98 52
REMARK SMILES IDX 92 53 94 54 45 55 97 56 91 57 90 58 46 60 78 61 58 62 77 63
REMARK SMILES IDX 59 64 62 65 76 66 95 67 60 68 61 69 75 71 96 72 63 73 47 74
REMARK SMILES IDX 48 75 56 76 49 77 55 78 57 79 54 80 50 81 51 82 52 83 53 84
REMARK SMILES IDX 79 85 80 86 88 87 81 88 87 89 89 90 86 91 82 92 83 93 84 94
REMARK SMILES IDX 85 95 64 96 65 97 73 98 66 99 72 100 74 101 71 102 67 103
REMARK SMILES IDX 68 104 69 105 70 106
REMARK H PARENT 5 26 94 59 62 70
REMARK Flexibility Score: inf
ROOT
ATOM      1  C   UNL A   1      33.489  36.102  32.593  1.00  0.00     0.188 C 
ENDROOT
BRANCH   1   2
ATOM      2  O   UNL A   1      34.734  36.093  33.272  1.00  0.00    -0.376 OA
BRANCH   2   3
ATOM      3  C   UNL A   1      34.864  35.106  34.291  1.00  0.00     0.202 C 
BRANCH   3   4
ATOM      4  C   UNL A   1      36.161  34.285  34.218  1.00  0.00     0.261 C 
BRANCH   4   5
ATOM      5  O   UNL A   1      37.311  35.103  33.863  1.00  0.00    -0.460 OA
BRANCH   5   6
ATOM      6  C   UNL A   1      38.459  34.778  34.497  1.00  0.00     0.338 C 
ATOM      7  O   UNL A   1      38.971  35.470  35.369  1.00  0.00    -0.246 OA
BRANCH   6   8
ATOM      8  C   UNL A   1      38.997  33.445  34.102  1.00  0.00     0.087 C 
ATOM      9  C   UNL A   1      43.018  32.452  33.937  1.00  0.00     0.026 A 
ATOM     10  C   UNL A   1      43.608  33.739  33.951  1.00  0.00     0.033 A 
ATOM     11  C   UNL A   1      41.620  32.468  33.778  1.00  0.00     0.135 A 
ATOM     12  C   UNL A   1      42.925  34.907  33.607  1.00  0.00     0.042 A 
ATOM     13  C   UNL A   1      41.003  33.590  33.181  1.00  0.00     0.019 A 
ATOM     14  O   UNL A   1      40.728  31.613  34.449  1.00  0.00    -0.475 OA
ATOM     15  Cl  UNL A   1      43.666  36.451  33.709  1.00  0.00    -0.084 Cl
ATOM     16  C   UNL A   1      41.639  34.821  33.125  1.00  0.00     0.032 A 
ATOM     17  C   UNL A   1      39.558  33.503  32.884  1.00  0.00     0.027 C 
ATOM     18  C   UNL A   1      39.566  32.393  35.056  1.00  0.00     0.316 C 
BRANCH   9  19
ATOM     19  C   UNL A   1      44.027  31.366  33.623  1.00  0.00    -0.014 A 
ATOM     20  C   UNL A   1      45.218  28.744  33.989  1.00  0.00     0.048 A 
ATOM     21  C   UNL A   1      44.246  28.975  33.014  1.00  0.00     0.027 A 
ATOM     22  C   UNL A   1      45.672  29.845  34.712  1.00  0.00     0.027 A 
ATOM     23  C   UNL A   1      43.685  30.260  32.820  1.00  0.00     0.011 A 
ATOM     24  C   UNL A   1      45.091  31.133  34.525  1.00  0.00     0.011 A 
BRANCH  20  25
ATOM     25  N   UNL A   1      45.515  27.382  34.344  1.00  0.00    -0.284 N 
ATOM     26  H   UNL A   1      44.912  26.925  34.974  1.00  0.00     0.180 HD
BRANCH  25  27
ATOM     27  S   UNL A   1      46.830  26.528  33.741  1.00  0.00     0.229 S 
ATOM     28  C   UNL A   1      46.666  26.674  31.974  1.00  0.00     0.183 C 
ATOM     29  O   UNL A   1      46.738  25.134  34.117  1.00  0.00    -0.207 OA
ATOM     30  O   UNL A   1      47.992  27.314  34.105  1.00  0.00    -0.207 OA
ENDBRANCH  25  27
ENDBRANCH  20  25
ENDBRANCH   9  19
BRANCH  18  31
ATOM     31  C   UNL A   1      38.401  31.493  35.491  1.00  0.00     0.430 C 
ATOM     32  F   UNL A   1      37.440  31.405  34.544  1.00  0.00    -0.167 F 
ATOM     33  F   UNL A   1      38.800  30.241  35.800  1.00  0.00    -0.167 F 
ATOM     34  F   UNL A   1      37.801  31.992  36.607  1.00  0.00    -0.167 F 
ENDBRANCH  18  31
ENDBRANCH   6   8
ENDBRANCH   5   6
ENDBRANCH   4   5
ENDBRANCH   3   4
ENDBRANCH   2   3
ENDBRANCH   1   2
BRANCH   1  35
ATOM     35  C   UNL A   1      33.580  36.445  31.089  1.00  0.00     0.188 C 
BRANCH  35  36
ATOM     36  O   UNL A   1      33.687  35.426  30.107  1.00  0.00    -0.376 OA
BRANCH  36  37
ATOM     37  C   UNL A   1      34.020  34.103  30.490  1.00  0.00     0.202 C 
BRANCH  37  38
ATOM     38  C   UNL A   1      35.490  33.665  30.595  1.00  0.00     0.261 C 
BRANCH  38  39
ATOM     39  O   UNL A   1      35.802  32.340  30.142  1.00  0.00    -0.460 OA
BRANCH  39  40
ATOM     40  C   UNL A   1      36.322  31.511  31.086  1.00  0.00     0.338 C 
ATOM     41  O   UNL A   1      35.711  30.899  31.936  1.00  0.00    -0.246 OA
BRANCH  40  42
ATOM     42  C   UNL A   1      37.767  31.320  30.827  1.00  0.00     0.060 A 
ATOM     43  C   UNL A   1      38.326  31.918  29.695  1.00  0.00     0.016 A 
ATOM     44  C   UNL A   1      38.552  30.508  31.651  1.00  0.00     0.016 A 
ATOM     45  C   UNL A   1      39.668  31.696  29.383  1.00  0.00     0.010 A 
ATOM     46  C   UNL A   1      39.896  30.274  31.323  1.00  0.00     0.010 A 
ATOM     47  C   UNL A   1      40.463  30.858  30.180  1.00  0.00    -0.014 A 
BRANCH  47  48
ATOM     48  C   UNL A   1      41.831  30.489  29.718  1.00  0.00     0.031 A 
ATOM     49  C   UNL A   1      42.915  31.520  29.785  1.00  0.00     0.074 A 
ATOM     50  C   UNL A   1      42.111  29.256  29.258  1.00  0.00     0.049 A 
ATOM     51  N   UNL A   1      44.190  31.397  29.528  1.00  0.00    -0.248 NA
ATOM     52  C   UNL A   1      42.489  32.880  30.139  1.00  0.00     0.031 C 
ATOM     53  C   UNL A   1      41.117  28.216  29.062  1.00  0.00     0.029 A 
ATOM     54  N   UNL A   1      43.297  28.643  28.927  1.00  0.00    -0.354 N 
ATOM     55  C   UNL A   1      44.710  32.684  29.610  1.00  0.00     0.074 A 
ATOM     56  C   UNL A   1      43.614  33.557  29.979  1.00  0.00     0.031 C 
ATOM     57  C   UNL A   1      41.738  27.052  28.804  1.00  0.00     0.029 A 
ATOM     58  C   UNL A   1      43.174  27.281  28.728  1.00  0.00     0.049 A 
ATOM     59  H   UNL A   1      44.150  29.127  28.841  1.00  0.00     0.167 HD
ATOM     60  C   UNL A   1      45.975  33.098  29.346  1.00  0.00     0.034 A 
ATOM     61  C   UNL A   1      44.108  26.329  28.526  1.00  0.00     0.034 A 
ATOM     62  C   UNL A   1      47.035  32.203  28.944  1.00  0.00     0.049 A 
ATOM     63  C   UNL A   1      45.541  26.784  28.369  1.00  0.00     0.074 A 
ATOM     64  C   UNL A   1      48.344  32.509  28.622  1.00  0.00     0.029 A 
ATOM     65  N   UNL A   1      46.902  30.826  28.792  1.00  0.00    -0.354 N 
ATOM     66  N   UNL A   1      46.046  27.987  28.532  1.00  0.00    -0.248 NA
ATOM     67  C   UNL A   1      46.525  25.769  27.977  1.00  0.00     0.031 C 
ATOM     68  C   UNL A   1      48.976  31.335  28.199  1.00  0.00     0.029 A 
ATOM     69  C   UNL A   1      48.096  30.273  28.350  1.00  0.00     0.049 A 
ATOM     70  H   UNL A   1      46.080  30.316  28.972  1.00  0.00     0.167 HD
ATOM     71  C   UNL A   1      47.402  27.883  28.218  1.00  0.00     0.074 A 
ATOM     72  C   UNL A   1      47.647  26.477  27.950  1.00  0.00     0.031 C 
ATOM     73  C   UNL A   1      48.341  28.862  28.119  1.00  0.00     0.034 A 
BRANCH  60  74
ATOM     74  C   UNL A   1      46.223  34.589  29.364  1.00  0.00     0.023 A 
ATOM     75  C   UNL A   1      46.121  35.378  28.205  1.00  0.00     0.031 A 
ATOM     76  C   UNL A   1      46.664  35.215  30.545  1.00  0.00     0.131 A 
ATOM     77  C   UNL A   1      46.551  36.714  28.228  1.00  0.00     0.055 A 
ATOM     78  C   UNL A   1      46.997  36.571  30.584  1.00  0.00     0.041 A 
ATOM     79  F   UNL A   1      46.814  34.511  31.678  1.00  0.00    -0.206 F 
ATOM     80  C   UNL A   1      46.963  37.324  29.415  1.00  0.00     0.022 A 
BRANCH  77  81
ATOM     81  S   UNL A   1      46.754  37.583  26.648  1.00  0.00     0.124 S 
ATOM     82  O   UNL A   1      46.928  36.467  25.721  1.00  0.00    -0.237 OA
ATOM     83  O   UNL A   1      45.502  38.321  26.531  1.00  0.00    -0.237 OA
ATOM     84  O   UNL A   1      47.946  38.402  26.857  1.00  0.00    -0.744 OA
ENDBRANCH  77  81
ENDBRANCH  60  74
BRANCH  61  85
ATOM     85  C   UNL A   1      43.740  24.875  28.457  1.00  0.00     0.023 A 
ATOM     86  C   UNL A   1      43.453  24.256  27.228  1.00  0.00     0.031 A 
ATOM     87  C   UNL A   1      43.665  24.070  29.605  1.00  0.00     0.131 A 
ATOM     88  C   UNL A   1      43.059  22.906  27.172  1.00  0.00     0.055 A 
ATOM     89  C   UNL A   1      43.341  22.710  29.542  1.00  0.00     0.041 A 
ATOM     90  F   UNL A   1      43.934  24.589  30.813  1.00  0.00    -0.206 F 
ATOM     91  C   UNL A   1      43.022  22.123  28.322  1.00  0.00     0.022 A 
BRANCH  88  92
ATOM     92  S   UNL A   1      42.550  22.189  25.582  1.00  0.00     0.124 S 
ATOM     93  O   UNL A   1      43.239  20.902  25.608  1.00  0.00    -0.237 OA
ATOM     94  O   UNL A   1      41.098  22.134  25.721  1.00  0.00    -0.237 OA
ATOM     95  O   UNL A   1      43.044  23.146  24.597  1.00  0.00    -0.744 OA
ENDBRANCH  88  92
ENDBRANCH  61  85
BRANCH  73  96
ATOM     96  C   UNL A   1      49.753  28.454  27.745  1.00  0.00     0.023 A 
ATOM     97  C   UNL A   1      50.227  28.523  26.421  1.00  0.00     0.031 A 
ATOM     98  C   UNL A   1      50.660  28.040  28.740  1.00  0.00     0.131 A 
ATOM     99  C   UNL A   1      51.542  28.132  26.122  1.00  0.00     0.055 A 
ATOM    100  C   UNL A   1      51.989  27.724  28.446  1.00  0.00     0.041 A 
ATOM    101  F   UNL A   1      50.279  27.967  30.025  1.00  0.00    -0.206 F 
ATOM    102  C   UNL A   1      52.433  27.756  27.129  1.00  0.00     0.022 A 
BRANCH  99 103
ATOM    103  S   UNL A   1      52.047  28.030  24.383  1.00  0.00     0.124 S 
ATOM    104  O   UNL A   1      53.244  28.866  24.366  1.00  0.00    -0.237 OA
ATOM    105  O   UNL A   1      52.268  26.599  24.203  1.00  0.00    -0.237 OA
ATOM    106  O   UNL A   1      50.901  28.577  23.657  1.00  0.00    -0.744 OA
ENDBRANCH  99 103
ENDBRANCH  73  96
ENDBRANCH  47  48
ENDBRANCH  40  42
ENDBRANCH  39  40
ENDBRANCH  38  39
ENDBRANCH  37  38
ENDBRANCH  36  37
ENDBRANCH  35  36
ENDBRANCH   1  35
TORSDOF 24
ENDMDL
