MODEL 1
REMARK VINA RESULT:     -11.2      0.000      0.000
REMARK SMILES O=C(OCCOCCOCCOC(=O)c1c[nH]c(=O)c(-c2cccc([N+](=O)[O-])c2)c1)c1ccc(-c2c3nc(c(-c4cc(S(=O)(=O)[O-])ccc4F)c4ccc([nH]4)c(-c4cc(S(=O)(=O)[O-])ccc4F)c4nc(c(-c5cc(S(=O)(=O)[O-])ccc5F)c5ccc2[nH]5)C=C4)C=C3)cc1
REMARK SMILES IDX 7 1 6 2 5 3 4 4 3 5 2 6 1 7 31 8 32 9 93 10 33 11 92 12
REMARK SMILES IDX 34 13 35 14 36 15 86 16 37 17 91 18 85 19 87 20 38 21 90 22
REMARK SMILES IDX 84 23 83 24 39 26 71 27 51 28 70 29 52 30 55 31 69 32 88 33
REMARK SMILES IDX 53 34 54 35 68 37 89 38 56 39 40 40 41 41 49 42 42 43 48 44
REMARK SMILES IDX 50 45 47 46 43 47 44 48 45 49 46 50 72 51 73 52 81 53 74 54
REMARK SMILES IDX 80 55 82 56 79 57 75 58 76 59 77 60 78 61 57 62 58 63 66 64
REMARK SMILES IDX 59 65 65 66 67 67 64 68 60 69 61 70 62 71 63 72 8 73 9 74
REMARK SMILES IDX 10 75 11 76 12 77 13 78 14 79 15 80 16 81 30 82 17 83 20 84
REMARK SMILES IDX 18 85 19 87 21 88 22 89 29 90 23 91 25 92 24 93 26 94 27 95
REMARK SMILES IDX 28 96
REMARK H PARENT 87 25 55 36 17 86
REMARK Flexibility Score: inf
ROOT
ATOM      1  C   UNL A   1      36.189  22.548  25.763  1.00  0.00     0.188 C 
ENDROOT
BRANCH   1   2
ATOM      2  O   UNL A   1      36.354  21.152  25.503  1.00  0.00    -0.376 OA
BRANCH   2   3
ATOM      3  C   UNL A   1      37.476  20.856  24.656  1.00  0.00     0.202 C 
BRANCH   3   4
ATOM      4  C   UNL A   1      38.170  19.506  24.920  1.00  0.00     0.261 C 
BRANCH   4   5
ATOM      5  O   UNL A   1      39.108  19.559  26.010  1.00  0.00    -0.460 OA
BRANCH   5   6
ATOM      6  C   UNL A   1      40.305  20.198  26.065  1.00  0.00     0.338 C 
ATOM      7  O   UNL A   1      41.290  19.633  25.587  1.00  0.00    -0.246 OA
BRANCH   6   8
ATOM      8  C   UNL A   1      40.506  21.545  26.685  1.00  0.00     0.060 A 
ATOM      9  C   UNL A   1      39.888  22.717  26.259  1.00  0.00     0.016 A 
ATOM     10  C   UNL A   1      41.357  21.626  27.803  1.00  0.00     0.016 A 
ATOM     11  C   UNL A   1      40.217  23.949  26.801  1.00  0.00     0.010 A 
ATOM     12  C   UNL A   1      41.647  22.859  28.403  1.00  0.00     0.010 A 
ATOM     13  C   UNL A   1      41.123  24.035  27.854  1.00  0.00    -0.014 A 
BRANCH  13  14
ATOM     14  C   UNL A   1      41.657  25.380  28.161  1.00  0.00     0.031 A 
ATOM     15  C   UNL A   1      43.013  25.731  27.609  1.00  0.00     0.074 A 
ATOM     16  C   UNL A   1      40.850  26.316  28.698  1.00  0.00     0.049 A 
ATOM     17  N   UNL A   1      43.680  26.851  27.684  1.00  0.00    -0.248 NA
ATOM     18  C   UNL A   1      43.702  24.677  26.843  1.00  0.00     0.031 C 
ATOM     19  C   UNL A   1      39.456  26.100  29.101  1.00  0.00     0.029 A 
ATOM     20  N   UNL A   1      41.055  27.650  28.928  1.00  0.00    -0.354 N 
ATOM     21  C   UNL A   1      44.870  26.628  26.996  1.00  0.00     0.074 A 
ATOM     22  C   UNL A   1      44.845  25.262  26.531  1.00  0.00     0.031 C 
ATOM     23  C   UNL A   1      38.916  27.276  29.465  1.00  0.00     0.029 A 
ATOM     24  C   UNL A   1      39.945  28.308  29.409  1.00  0.00     0.049 A 
ATOM     25  H   UNL A   1      41.917  28.097  28.766  1.00  0.00     0.167 HD
ATOM     26  C   UNL A   1      45.888  27.494  26.773  1.00  0.00     0.034 A 
ATOM     27  C   UNL A   1      39.805  29.593  29.788  1.00  0.00     0.034 A 
ATOM     28  C   UNL A   1      45.875  28.850  27.259  1.00  0.00     0.049 A 
ATOM     29  C   UNL A   1      41.032  30.469  29.723  1.00  0.00     0.074 A 
ATOM     30  C   UNL A   1      46.863  29.813  27.178  1.00  0.00     0.029 A 
ATOM     31  N   UNL A   1      44.805  29.432  27.931  1.00  0.00    -0.354 N 
ATOM     32  N   UNL A   1      42.202  30.219  29.180  1.00  0.00    -0.248 NA
ATOM     33  C   UNL A   1      40.928  31.785  30.360  1.00  0.00     0.031 C 
ATOM     34  C   UNL A   1      46.417  30.951  27.860  1.00  0.00     0.029 A 
ATOM     35  C   UNL A   1      45.118  30.729  28.295  1.00  0.00     0.049 A 
ATOM     36  H   UNL A   1      43.948  28.986  28.120  1.00  0.00     0.167 HD
ATOM     37  C   UNL A   1      42.960  31.370  29.371  1.00  0.00     0.074 A 
ATOM     38  C   UNL A   1      42.110  32.308  30.079  1.00  0.00     0.031 C 
ATOM     39  C   UNL A   1      44.236  31.639  28.989  1.00  0.00     0.034 A 
BRANCH  26  40
ATOM     40  C   UNL A   1      47.110  26.950  26.072  1.00  0.00     0.023 A 
ATOM     41  C   UNL A   1      48.113  26.238  26.756  1.00  0.00     0.031 A 
ATOM     42  C   UNL A   1      47.322  27.239  24.712  1.00  0.00     0.131 A 
ATOM     43  C   UNL A   1      49.315  25.920  26.104  1.00  0.00     0.055 A 
ATOM     44  C   UNL A   1      48.485  26.844  24.047  1.00  0.00     0.041 A 
ATOM     45  F   UNL A   1      46.418  27.943  24.014  1.00  0.00    -0.206 F 
ATOM     46  C   UNL A   1      49.499  26.197  24.746  1.00  0.00     0.022 A 
BRANCH  43  47
ATOM     47  S   UNL A   1      50.704  25.297  27.093  1.00  0.00     0.124 S 
ATOM     48  O   UNL A   1      50.043  24.305  27.938  1.00  0.00    -0.237 OA
ATOM     49  O   UNL A   1      51.607  24.770  26.076  1.00  0.00    -0.237 OA
ATOM     50  O   UNL A   1      51.184  26.484  27.798  1.00  0.00    -0.744 OA
ENDBRANCH  43  47
ENDBRANCH  26  40
BRANCH  27  51
ATOM     51  C   UNL A   1      38.532  30.119  30.371  1.00  0.00     0.023 A 
ATOM     52  C   UNL A   1      37.621  30.875  29.612  1.00  0.00     0.031 A 
ATOM     53  C   UNL A   1      38.275  29.984  31.746  1.00  0.00     0.131 A 
ATOM     54  C   UNL A   1      36.523  31.495  30.240  1.00  0.00     0.055 A 
ATOM     55  C   UNL A   1      37.165  30.570  32.355  1.00  0.00     0.041 A 
ATOM     56  F   UNL A   1      39.118  29.294  32.528  1.00  0.00    -0.206 F 
ATOM     57  C   UNL A   1      36.283  31.333  31.603  1.00  0.00     0.022 A 
BRANCH  54  58
ATOM     58  S   UNL A   1      35.471  32.622  29.284  1.00  0.00     0.124 S 
ATOM     59  O   UNL A   1      34.241  32.615  30.066  1.00  0.00    -0.237 OA
ATOM     60  O   UNL A   1      36.247  33.857  29.314  1.00  0.00    -0.237 OA
ATOM     61  O   UNL A   1      35.384  31.977  27.976  1.00  0.00    -0.744 OA
ENDBRANCH  54  58
ENDBRANCH  27  51
BRANCH  39  62
ATOM     62  C   UNL A   1      44.728  33.040  29.242  1.00  0.00     0.023 A 
ATOM     63  C   UNL A   1      44.619  34.054  28.278  1.00  0.00     0.031 A 
ATOM     64  C   UNL A   1      45.359  33.343  30.462  1.00  0.00     0.131 A 
ATOM     65  C   UNL A   1      45.201  35.306  28.521  1.00  0.00     0.055 A 
ATOM     66  C   UNL A   1      45.871  34.612  30.726  1.00  0.00     0.041 A 
ATOM     67  F   UNL A   1      45.492  32.405  31.414  1.00  0.00    -0.206 F 
ATOM     68  C   UNL A   1      45.809  35.597  29.746  1.00  0.00     0.022 A 
BRANCH  65  69
ATOM     69  S   UNL A   1      45.266  36.511  27.166  1.00  0.00     0.124 S 
ATOM     70  O   UNL A   1      46.401  37.341  27.555  1.00  0.00    -0.237 OA
ATOM     71  O   UNL A   1      45.469  35.657  26.001  1.00  0.00    -0.237 OA
ATOM     72  O   UNL A   1      43.963  37.170  27.233  1.00  0.00    -0.744 OA
ENDBRANCH  65  69
ENDBRANCH  39  62
ENDBRANCH  13  14
ENDBRANCH   6   8
ENDBRANCH   5   6
ENDBRANCH   4   5
ENDBRANCH   3   4
ENDBRANCH   2   3
ENDBRANCH   1   2
BRANCH   1  73
ATOM     73  C   UNL A   1      34.867  22.891  26.452  1.00  0.00     0.188 C 
BRANCH  73  74
ATOM     74  O   UNL A   1      33.715  22.162  26.041  1.00  0.00    -0.376 OA
BRANCH  74  75
ATOM     75  C   UNL A   1      32.668  22.899  25.417  1.00  0.00     0.202 C 
BRANCH  75  76
ATOM     76  C   UNL A   1      32.694  23.032  23.887  1.00  0.00     0.261 C 
BRANCH  76  77
ATOM     77  O   UNL A   1      33.771  23.828  23.361  1.00  0.00    -0.460 OA
BRANCH  77  78
ATOM     78  C   UNL A   1      33.388  24.790  22.488  1.00  0.00     0.339 C 
ATOM     79  O   UNL A   1      33.308  24.681  21.270  1.00  0.00    -0.246 OA
BRANCH  78  80
ATOM     80  C   UNL A   1      33.098  26.071  23.166  1.00  0.00     0.077 A 
ATOM     81  C   UNL A   1      33.813  26.438  24.240  1.00  0.00     0.101 A 
ATOM     82  C   UNL A   1      31.867  26.765  22.861  1.00  0.00     0.031 A 
ATOM     83  N   UNL A   1      33.352  27.433  25.063  1.00  0.00    -0.328 N 
ATOM     84  C   UNL A   1      31.324  27.672  23.698  1.00  0.00     0.048 A 
ATOM     85  C   UNL A   1      32.124  28.055  24.926  1.00  0.00     0.255 A 
ATOM     86  H   UNL A   1      33.934  27.727  25.800  1.00  0.00     0.169 HD
ATOM     87  O   UNL A   1      31.723  28.826  25.778  1.00  0.00    -0.269 OA
BRANCH  84  88
ATOM     88  C   UNL A   1      29.960  28.196  23.451  1.00  0.00    -0.006 A 
ATOM     89  C   UNL A   1      28.846  27.335  23.560  1.00  0.00     0.009 A 
ATOM     90  C   UNL A   1      29.725  29.552  23.187  1.00  0.00     0.094 A 
ATOM     91  C   UNL A   1      27.542  27.802  23.401  1.00  0.00     0.008 A 
ATOM     92  C   UNL A   1      28.411  30.026  23.070  1.00  0.00     0.270 A 
ATOM     93  C   UNL A   1      27.318  29.154  23.169  1.00  0.00     0.085 A 
BRANCH  92  94
ATOM     94  N   UNL A   1      28.166  31.461  22.869  1.00  0.00     0.062 N 
ATOM     95  O   UNL A   1      28.967  32.080  22.150  1.00  0.00    -0.258 OA
ATOM     96  O   UNL A   1      27.155  31.958  23.382  1.00  0.00    -0.258 OA
ENDBRANCH  92  94
ENDBRANCH  84  88
ENDBRANCH  78  80
ENDBRANCH  77  78
ENDBRANCH  76  77
ENDBRANCH  75  76
ENDBRANCH  74  75
ENDBRANCH  73  74
ENDBRANCH   1  73
TORSDOF 22
ENDMDL
MODEL 2
REMARK VINA RESULT:     -11.1      1.949      2.249
REMARK SMILES O=C(OCCOCCOCCOC(=O)c1c[nH]c(=O)c(-c2cccc([N+](=O)[O-])c2)c1)c1ccc(-c2c3nc(c(-c4cc(S(=O)(=O)[O-])ccc4F)c4ccc([nH]4)c(-c4cc(S(=O)(=O)[O-])ccc4F)c4nc(c(-c5cc(S(=O)(=O)[O-])ccc5F)c5ccc2[nH]5)C=C4)C=C3)cc1
REMARK SMILES IDX 7 1 6 2 5 3 4 4 3 5 2 6 1 7 31 8 32 9 93 10 33 11 92 12
REMARK SMILES IDX 34 13 35 14 36 15 86 16 37 17 91 18 85 19 87 20 38 21 90 22
REMARK SMILES IDX 84 23 83 24 39 26 71 27 51 28 70 29 52 30 55 31 69 32 88 33
REMARK SMILES IDX 53 34 54 35 68 37 89 38 56 39 40 40 41 41 49 42 42 43 48 44
REMARK SMILES IDX 50 45 47 46 43 47 44 48 45 49 46 50 72 51 73 52 81 53 74 54
REMARK SMILES IDX 80 55 82 56 79 57 75 58 76 59 77 60 78 61 57 62 58 63 66 64
REMARK SMILES IDX 59 65 65 66 67 67 64 68 60 69 61 70 62 71 63 72 8 73 9 74
REMARK SMILES IDX 10 75 11 76 12 77 13 78 14 79 15 80 16 81 30 82 17 83 20 84
REMARK SMILES IDX 18 85 19 87 21 88 22 89 29 90 23 91 25 92 24 93 26 94 27 95
REMARK SMILES IDX 28 96
REMARK H PARENT 87 25 55 36 17 86
REMARK Flexibility Score: inf
ROOT
ATOM      1  C   UNL A   1      35.954  22.384  25.765  1.00  0.00     0.188 C 
ENDROOT
BRANCH   1   2
ATOM      2  O   UNL A   1      36.403  21.035  25.614  1.00  0.00    -0.376 OA
BRANCH   2   3
ATOM      3  C   UNL A   1      37.494  20.894  24.691  1.00  0.00     0.202 C 
BRANCH   3   4
ATOM      4  C   UNL A   1      38.407  19.675  24.921  1.00  0.00     0.261 C 
BRANCH   4   5
ATOM      5  O   UNL A   1      39.255  19.816  26.076  1.00  0.00    -0.460 OA
BRANCH   5   6
ATOM      6  C   UNL A   1      40.441  20.468  26.178  1.00  0.00     0.338 C 
ATOM      7  O   UNL A   1      41.449  19.919  25.731  1.00  0.00    -0.246 OA
BRANCH   6   8
ATOM      8  C   UNL A   1      40.605  21.813  26.815  1.00  0.00     0.060 A 
ATOM      9  C   UNL A   1      39.894  22.955  26.455  1.00  0.00     0.016 A 
ATOM     10  C   UNL A   1      41.520  21.922  27.878  1.00  0.00     0.016 A 
ATOM     11  C   UNL A   1      40.187  24.194  27.003  1.00  0.00     0.010 A 
ATOM     12  C   UNL A   1      41.776  23.159  28.486  1.00  0.00     0.010 A 
ATOM     13  C   UNL A   1      41.152  24.312  27.998  1.00  0.00    -0.014 A 
BRANCH  13  14
ATOM     14  C   UNL A   1      41.627  25.679  28.302  1.00  0.00     0.031 A 
ATOM     15  C   UNL A   1      42.949  26.101  27.718  1.00  0.00     0.074 A 
ATOM     16  C   UNL A   1      40.790  26.572  28.867  1.00  0.00     0.049 A 
ATOM     17  N   UNL A   1      43.562  27.252  27.784  1.00  0.00    -0.248 NA
ATOM     18  C   UNL A   1      43.669  25.087  26.926  1.00  0.00     0.031 C 
ATOM     19  C   UNL A   1      39.418  26.284  29.305  1.00  0.00     0.029 A 
ATOM     20  N   UNL A   1      40.935  27.912  29.102  1.00  0.00    -0.354 N 
ATOM     21  C   UNL A   1      44.743  27.092  27.064  1.00  0.00     0.074 A 
ATOM     22  C   UNL A   1      44.773  25.730  26.590  1.00  0.00     0.031 C 
ATOM     23  C   UNL A   1      38.831  27.430  29.692  1.00  0.00     0.029 A 
ATOM     24  C   UNL A   1      39.807  28.511  29.616  1.00  0.00     0.049 A 
ATOM     25  H   UNL A   1      41.769  28.403  28.921  1.00  0.00     0.167 HD
ATOM     26  C   UNL A   1      45.711  28.009  26.821  1.00  0.00     0.034 A 
ATOM     27  C   UNL A   1      39.613  29.786  30.009  1.00  0.00     0.034 A 
ATOM     28  C   UNL A   1      45.644  29.359  27.318  1.00  0.00     0.049 A 
ATOM     29  C   UNL A   1      40.793  30.722  29.919  1.00  0.00     0.074 A 
ATOM     30  C   UNL A   1      46.582  30.370  27.218  1.00  0.00     0.029 A 
ATOM     31  N   UNL A   1      44.564  29.884  28.021  1.00  0.00    -0.354 N 
ATOM     32  N   UNL A   1      41.960  30.533  29.344  1.00  0.00    -0.248 NA
ATOM     33  C   UNL A   1      40.642  32.027  30.568  1.00  0.00     0.031 C 
ATOM     34  C   UNL A   1      46.097  31.481  27.921  1.00  0.00     0.029 A 
ATOM     35  C   UNL A   1      44.823  31.192  28.387  1.00  0.00     0.049 A 
ATOM     36  H   UNL A   1      43.736  29.394  28.229  1.00  0.00     0.167 HD
ATOM     37  C   UNL A   1      42.665  31.719  29.524  1.00  0.00     0.074 A 
ATOM     38  C   UNL A   1      41.789  32.609  30.261  1.00  0.00     0.031 C 
ATOM     39  C   UNL A   1      43.916  32.053  29.111  1.00  0.00     0.034 A 
BRANCH  26  40
ATOM     40  C   UNL A   1      46.939  27.531  26.085  1.00  0.00     0.023 A 
ATOM     41  C   UNL A   1      47.210  27.901  24.754  1.00  0.00     0.031 A 
ATOM     42  C   UNL A   1      47.803  26.603  26.695  1.00  0.00     0.131 A 
ATOM     43  C   UNL A   1      48.257  27.282  24.053  1.00  0.00     0.055 A 
ATOM     44  C   UNL A   1      48.895  26.055  26.018  1.00  0.00     0.041 A 
ATOM     45  F   UNL A   1      47.579  26.185  27.951  1.00  0.00    -0.206 F 
ATOM     46  C   UNL A   1      49.117  26.379  24.684  1.00  0.00     0.022 A 
BRANCH  43  47
ATOM     47  S   UNL A   1      48.376  27.539  22.260  1.00  0.00     0.124 S 
ATOM     48  O   UNL A   1      49.516  28.449  22.167  1.00  0.00    -0.237 OA
ATOM     49  O   UNL A   1      48.596  26.187  21.759  1.00  0.00    -0.237 OA
ATOM     50  O   UNL A   1      47.086  28.131  21.911  1.00  0.00    -0.744 OA
ENDBRANCH  43  47
ENDBRANCH  26  40
BRANCH  27  51
ATOM     51  C   UNL A   1      38.332  30.244  30.629  1.00  0.00     0.023 A 
ATOM     52  C   UNL A   1      37.357  30.944  29.894  1.00  0.00     0.031 A 
ATOM     53  C   UNL A   1      38.126  30.105  32.012  1.00  0.00     0.131 A 
ATOM     54  C   UNL A   1      36.247  31.506  30.553  1.00  0.00     0.055 A 
ATOM     55  C   UNL A   1      37.004  30.632  32.652  1.00  0.00     0.041 A 
ATOM     56  F   UNL A   1      39.029  29.468  32.770  1.00  0.00    -0.206 F 
ATOM     57  C   UNL A   1      36.059  31.340  31.924  1.00  0.00     0.022 A 
BRANCH  54  58
ATOM     58  S   UNL A   1      35.105  32.567  29.625  1.00  0.00     0.124 S 
ATOM     59  O   UNL A   1      36.017  33.534  29.026  1.00  0.00    -0.237 OA
ATOM     60  O   UNL A   1      34.484  31.615  28.711  1.00  0.00    -0.237 OA
ATOM     61  O   UNL A   1      34.220  33.100  30.659  1.00  0.00    -0.744 OA
ENDBRANCH  54  58
ENDBRANCH  27  51
BRANCH  39  62
ATOM     62  C   UNL A   1      44.345  33.475  29.362  1.00  0.00     0.023 A 
ATOM     63  C   UNL A   1      44.975  33.865  30.554  1.00  0.00     0.031 A 
ATOM     64  C   UNL A   1      44.072  34.461  28.396  1.00  0.00     0.131 A 
ATOM     65  C   UNL A   1      45.245  35.222  30.783  1.00  0.00     0.055 A 
ATOM     66  C   UNL A   1      44.409  35.798  28.600  1.00  0.00     0.041 A 
ATOM     67  F   UNL A   1      43.467  34.138  27.242  1.00  0.00    -0.206 F 
ATOM     68  C   UNL A   1      44.982  36.187  29.806  1.00  0.00     0.022 A 
BRANCH  65  69
ATOM     69  S   UNL A   1      45.823  35.726  32.426  1.00  0.00     0.124 S 
ATOM     70  O   UNL A   1      45.328  37.096  32.513  1.00  0.00    -0.237 OA
ATOM     71  O   UNL A   1      45.171  34.754  33.297  1.00  0.00    -0.237 OA
ATOM     72  O   UNL A   1      47.276  35.596  32.330  1.00  0.00    -0.744 OA
ENDBRANCH  65  69
ENDBRANCH  39  62
ENDBRANCH  13  14
ENDBRANCH   6   8
ENDBRANCH   5   6
ENDBRANCH   4   5
ENDBRANCH   3   4
ENDBRANCH   2   3
ENDBRANCH   1   2
BRANCH   1  73
ATOM     73  C   UNL A   1      34.432  22.518  25.837  1.00  0.00     0.188 C 
BRANCH  73  74
ATOM     74  O   UNL A   1      33.680  21.947  24.771  1.00  0.00    -0.376 OA
BRANCH  74  75
ATOM     75  C   UNL A   1      32.725  22.785  24.127  1.00  0.00     0.202 C 
BRANCH  75  76
ATOM     76  C   UNL A   1      32.959  23.142  22.652  1.00  0.00     0.261 C 
BRANCH  76  77
ATOM     77  O   UNL A   1      33.855  24.245  22.425  1.00  0.00    -0.460 OA
BRANCH  77  78
ATOM     78  C   UNL A   1      33.317  25.276  21.731  1.00  0.00     0.339 C 
ATOM     79  O   UNL A   1      33.121  25.318  20.522  1.00  0.00    -0.246 OA
BRANCH  78  80
ATOM     80  C   UNL A   1      33.007  26.429  22.601  1.00  0.00     0.077 A 
ATOM     81  C   UNL A   1      33.603  26.546  23.797  1.00  0.00     0.101 A 
ATOM     82  C   UNL A   1      31.855  27.249  22.298  1.00  0.00     0.031 A 
ATOM     83  N   UNL A   1      33.092  27.405  24.736  1.00  0.00    -0.328 N 
ATOM     84  C   UNL A   1      31.257  28.024  23.225  1.00  0.00     0.048 A 
ATOM     85  C   UNL A   1      31.920  28.123  24.583  1.00  0.00     0.255 A 
ATOM     86  H   UNL A   1      33.593  27.520  25.575  1.00  0.00     0.169 HD
ATOM     87  O   UNL A   1      31.455  28.752  25.516  1.00  0.00    -0.269 OA
BRANCH  84  88
ATOM     88  C   UNL A   1      29.959  28.675  22.931  1.00  0.00    -0.006 A 
ATOM     89  C   UNL A   1      28.754  28.033  23.290  1.00  0.00     0.009 A 
ATOM     90  C   UNL A   1      29.885  29.959  22.375  1.00  0.00     0.094 A 
ATOM     91  C   UNL A   1      27.514  28.640  23.093  1.00  0.00     0.008 A 
ATOM     92  C   UNL A   1      28.640  30.584  22.217  1.00  0.00     0.270 A 
ATOM     93  C   UNL A   1      27.453  29.925  22.567  1.00  0.00     0.085 A 
BRANCH  92  94
ATOM     94  N   UNL A   1      28.571  31.959  21.703  1.00  0.00     0.062 N 
ATOM     95  O   UNL A   1      28.938  32.870  22.463  1.00  0.00    -0.258 OA
ATOM     96  O   UNL A   1      28.200  32.127  20.534  1.00  0.00    -0.258 OA
ENDBRANCH  92  94
ENDBRANCH  84  88
ENDBRANCH  78  80
ENDBRANCH  77  78
ENDBRANCH  76  77
ENDBRANCH  75  76
ENDBRANCH  74  75
ENDBRANCH  73  74
ENDBRANCH   1  73
TORSDOF 22
ENDMDL
MODEL 3
REMARK VINA RESULT:     -10.6      1.669      2.061
REMARK SMILES O=C(OCCOCCOCCOC(=O)c1c[nH]c(=O)c(-c2cccc([N+](=O)[O-])c2)c1)c1ccc(-c2c3nc(c(-c4cc(S(=O)(=O)[O-])ccc4F)c4ccc([nH]4)c(-c4cc(S(=O)(=O)[O-])ccc4F)c4nc(c(-c5cc(S(=O)(=O)[O-])ccc5F)c5ccc2[nH]5)C=C4)C=C3)cc1
REMARK SMILES IDX 7 1 6 2 5 3 4 4 3 5 2 6 1 7 31 8 32 9 93 10 33 11 92 12
REMARK SMILES IDX 34 13 35 14 36 15 86 16 37 17 91 18 85 19 87 20 38 21 90 22
REMARK SMILES IDX 84 23 83 24 39 26 71 27 51 28 70 29 52 30 55 31 69 32 88 33
REMARK SMILES IDX 53 34 54 35 68 37 89 38 56 39 40 40 41 41 49 42 42 43 48 44
REMARK SMILES IDX 50 45 47 46 43 47 44 48 45 49 46 50 72 51 73 52 81 53 74 54
REMARK SMILES IDX 80 55 82 56 79 57 75 58 76 59 77 60 78 61 57 62 58 63 66 64
REMARK SMILES IDX 59 65 65 66 67 67 64 68 60 69 61 70 62 71 63 72 8 73 9 74
REMARK SMILES IDX 10 75 11 76 12 77 13 78 14 79 15 80 16 81 30 82 17 83 20 84
REMARK SMILES IDX 18 85 19 87 21 88 22 89 29 90 23 91 25 92 24 93 26 94 27 95
REMARK SMILES IDX 28 96
REMARK H PARENT 87 25 55 36 17 86
REMARK Flexibility Score: inf
ROOT
ATOM      1  C   UNL A   1      36.581  22.543  25.774  1.00  0.00     0.188 C 
ENDROOT
BRANCH   1   2
ATOM      2  O   UNL A   1      36.864  21.141  25.768  1.00  0.00    -0.376 OA
BRANCH   2   3
ATOM      3  C   UNL A   1      37.960  20.782  24.912  1.00  0.00     0.202 C 
BRANCH   3   4
ATOM      4  C   UNL A   1      38.845  19.626  25.416  1.00  0.00     0.261 C 
BRANCH   4   5
ATOM      5  O   UNL A   1      39.750  20.024  26.462  1.00  0.00    -0.460 OA
BRANCH   5   6
ATOM      6  C   UNL A   1      40.829  20.844  26.379  1.00  0.00     0.338 C 
ATOM      7  O   UNL A   1      41.820  20.443  25.767  1.00  0.00    -0.246 OA
BRANCH   6   8
ATOM      8  C   UNL A   1      40.896  22.204  27.001  1.00  0.00     0.060 A 
ATOM      9  C   UNL A   1      40.186  23.317  26.559  1.00  0.00     0.016 A 
ATOM     10  C   UNL A   1      41.712  22.360  28.137  1.00  0.00     0.016 A 
ATOM     11  C   UNL A   1      40.392  24.573  27.104  1.00  0.00     0.010 A 
ATOM     12  C   UNL A   1      41.877  23.615  28.740  1.00  0.00     0.010 A 
ATOM     13  C   UNL A   1      41.264  24.740  28.176  1.00  0.00    -0.014 A 
BRANCH  13  14
ATOM     14  C   UNL A   1      41.669  26.126  28.492  1.00  0.00     0.031 A 
ATOM     15  C   UNL A   1      43.040  26.567  28.051  1.00  0.00     0.074 A 
ATOM     16  C   UNL A   1      40.752  27.011  28.931  1.00  0.00     0.049 A 
ATOM     17  N   UNL A   1      43.614  27.734  28.152  1.00  0.00    -0.248 NA
ATOM     18  C   UNL A   1      43.868  25.551  27.376  1.00  0.00     0.031 C 
ATOM     19  C   UNL A   1      39.347  26.700  29.218  1.00  0.00     0.029 A 
ATOM     20  N   UNL A   1      40.839  28.361  29.142  1.00  0.00    -0.354 N 
ATOM     21  C   UNL A   1      44.873  27.587  27.576  1.00  0.00     0.074 A 
ATOM     22  C   UNL A   1      44.989  26.214  27.149  1.00  0.00     0.031 C 
ATOM     23  C   UNL A   1      38.693  27.839  29.502  1.00  0.00     0.029 A 
ATOM     24  C   UNL A   1      39.646  28.944  29.507  1.00  0.00     0.049 A 
ATOM     25  H   UNL A   1      41.677  28.868  29.043  1.00  0.00     0.167 HD
ATOM     26  C   UNL A   1      45.842  28.522  27.419  1.00  0.00     0.034 A 
ATOM     27  C   UNL A   1      39.379  30.223  29.837  1.00  0.00     0.034 A 
ATOM     28  C   UNL A   1      45.687  29.883  27.865  1.00  0.00     0.049 A 
ATOM     29  C   UNL A   1      40.540  31.186  29.855  1.00  0.00     0.074 A 
ATOM     30  C   UNL A   1      46.606  30.915  27.843  1.00  0.00     0.029 A 
ATOM     31  N   UNL A   1      44.522  30.397  28.425  1.00  0.00    -0.354 N 
ATOM     32  N   UNL A   1      41.769  31.013  29.423  1.00  0.00    -0.248 NA
ATOM     33  C   UNL A   1      40.285  32.504  30.444  1.00  0.00     0.031 C 
ATOM     34  C   UNL A   1      46.019  32.031  28.453  1.00  0.00     0.029 A 
ATOM     35  C   UNL A   1      44.707  31.721  28.780  1.00  0.00     0.049 A 
ATOM     36  H   UNL A   1      43.687  29.892  28.551  1.00  0.00     0.167 HD
ATOM     37  C   UNL A   1      42.422  32.221  29.647  1.00  0.00     0.074 A 
ATOM     38  C   UNL A   1      41.447  33.108  30.253  1.00  0.00     0.031 C 
ATOM     39  C   UNL A   1      43.704  32.577  29.370  1.00  0.00     0.034 A 
BRANCH  26  40
ATOM     40  C   UNL A   1      47.156  28.057  26.842  1.00  0.00     0.023 A 
ATOM     41  C   UNL A   1      47.395  28.010  25.455  1.00  0.00     0.031 A 
ATOM     42  C   UNL A   1      48.156  27.554  27.695  1.00  0.00     0.131 A 
ATOM     43  C   UNL A   1      48.556  27.393  24.963  1.00  0.00     0.055 A 
ATOM     44  C   UNL A   1      49.347  27.018  27.201  1.00  0.00     0.041 A 
ATOM     45  F   UNL A   1      47.974  27.540  29.025  1.00  0.00    -0.206 F 
ATOM     46  C   UNL A   1      49.546  26.918  25.828  1.00  0.00     0.022 A 
BRANCH  43  47
ATOM     47  S   UNL A   1      48.678  27.061  23.183  1.00  0.00     0.124 S 
ATOM     48  O   UNL A   1      50.090  27.337  22.927  1.00  0.00    -0.237 OA
ATOM     49  O   UNL A   1      48.275  25.663  23.092  1.00  0.00    -0.237 OA
ATOM     50  O   UNL A   1      47.747  28.019  22.589  1.00  0.00    -0.744 OA
ENDBRANCH  43  47
ENDBRANCH  26  40
BRANCH  27  51
ATOM     51  C   UNL A   1      38.025  30.663  30.293  1.00  0.00     0.023 A 
ATOM     52  C   UNL A   1      37.080  31.208  29.405  1.00  0.00     0.031 A 
ATOM     53  C   UNL A   1      37.707  30.671  31.662  1.00  0.00     0.131 A 
ATOM     54  C   UNL A   1      35.887  31.768  29.901  1.00  0.00     0.055 A 
ATOM     55  C   UNL A   1      36.506  31.192  32.143  1.00  0.00     0.041 A 
ATOM     56  F   UNL A   1      38.576  30.185  32.562  1.00  0.00    -0.206 F 
ATOM     57  C   UNL A   1      35.590  31.749  31.263  1.00  0.00     0.022 A 
BRANCH  54  58
ATOM     58  S   UNL A   1      34.772  32.639  28.764  1.00  0.00     0.124 S 
ATOM     59  O   UNL A   1      33.919  31.553  28.296  1.00  0.00    -0.237 OA
ATOM     60  O   UNL A   1      34.146  33.616  29.647  1.00  0.00    -0.237 OA
ATOM     61  O   UNL A   1      35.678  33.198  27.763  1.00  0.00    -0.744 OA
ENDBRANCH  54  58
ENDBRANCH  27  51
BRANCH  39  62
ATOM     62  C   UNL A   1      44.068  34.016  29.626  1.00  0.00     0.023 A 
ATOM     63  C   UNL A   1      43.883  35.016  28.659  1.00  0.00     0.031 A 
ATOM     64  C   UNL A   1      44.655  34.373  30.853  1.00  0.00     0.131 A 
ATOM     65  C   UNL A   1      44.350  36.314  28.906  1.00  0.00     0.055 A 
ATOM     66  C   UNL A   1      45.051  35.682  31.121  1.00  0.00     0.041 A 
ATOM     67  F   UNL A   1      44.857  33.451  31.808  1.00  0.00    -0.206 F 
ATOM     68  C   UNL A   1      44.915  36.658  30.138  1.00  0.00     0.022 A 
BRANCH  65  69
ATOM     69  S   UNL A   1      44.327  37.518  27.551  1.00  0.00     0.124 S 
ATOM     70  O   UNL A   1      43.129  37.125  26.818  1.00  0.00    -0.237 OA
ATOM     71  O   UNL A   1      44.251  38.788  28.265  1.00  0.00    -0.237 OA
ATOM     72  O   UNL A   1      45.589  37.273  26.855  1.00  0.00    -0.744 OA
ENDBRANCH  65  69
ENDBRANCH  39  62
ENDBRANCH  13  14
ENDBRANCH   6   8
ENDBRANCH   5   6
ENDBRANCH   4   5
ENDBRANCH   3   4
ENDBRANCH   2   3
ENDBRANCH   1   2
BRANCH   1  73
ATOM     73  C   UNL A   1      35.284  22.903  26.500  1.00  0.00     0.188 C 
BRANCH  73  74
ATOM     74  O   UNL A   1      34.407  21.831  26.829  1.00  0.00    -0.376 OA
BRANCH  74  75
ATOM     75  C   UNL A   1      33.009  22.081  26.729  1.00  0.00     0.202 C 
BRANCH  75  76
ATOM     76  C   UNL A   1      32.291  21.659  25.439  1.00  0.00     0.261 C 
BRANCH  76  77
ATOM     77  O   UNL A   1      33.145  21.496  24.291  1.00  0.00    -0.460 OA
BRANCH  77  78
ATOM     78  C   UNL A   1      32.643  22.002  23.139  1.00  0.00     0.339 C 
ATOM     79  O   UNL A   1      32.106  21.370  22.237  1.00  0.00    -0.246 OA
BRANCH  78  80
ATOM     80  C   UNL A   1      32.849  23.462  23.039  1.00  0.00     0.077 A 
ATOM     81  C   UNL A   1      34.032  23.998  23.375  1.00  0.00     0.101 A 
ATOM     82  C   UNL A   1      31.699  24.325  22.874  1.00  0.00     0.031 A 
ATOM     83  N   UNL A   1      34.133  25.346  23.604  1.00  0.00    -0.328 N 
ATOM     84  C   UNL A   1      31.729  25.634  23.192  1.00  0.00     0.048 A 
ATOM     85  C   UNL A   1      33.063  26.221  23.604  1.00  0.00     0.255 A 
ATOM     86  H   UNL A   1      35.028  25.716  23.778  1.00  0.00     0.169 HD
ATOM     87  O   UNL A   1      33.210  27.377  23.957  1.00  0.00    -0.269 OA
BRANCH  84  88
ATOM     88  C   UNL A   1      30.477  26.427  23.215  1.00  0.00    -0.006 A 
ATOM     89  C   UNL A   1      29.345  25.933  23.897  1.00  0.00     0.009 A 
ATOM     90  C   UNL A   1      30.401  27.704  22.642  1.00  0.00     0.094 A 
ATOM     91  C   UNL A   1      28.169  26.677  23.999  1.00  0.00     0.008 A 
ATOM     92  C   UNL A   1      29.233  28.466  22.783  1.00  0.00     0.270 A 
ATOM     93  C   UNL A   1      28.114  27.954  23.453  1.00  0.00     0.085 A 
BRANCH  92  94
ATOM     94  N   UNL A   1      29.183  29.833  22.246  1.00  0.00     0.062 N 
ATOM     95  O   UNL A   1      28.580  30.687  22.917  1.00  0.00    -0.258 OA
ATOM     96  O   UNL A   1      29.782  30.067  21.189  1.00  0.00    -0.258 OA
ENDBRANCH  92  94
ENDBRANCH  84  88
ENDBRANCH  78  80
ENDBRANCH  77  78
ENDBRANCH  76  77
ENDBRANCH  75  76
ENDBRANCH  74  75
ENDBRANCH  73  74
ENDBRANCH   1  73
TORSDOF 22
ENDMDL
