MODEL 1
REMARK VINA RESULT:     -13.8      0.000      0.000
REMARK SMILES Cc1ccc(-c2cc(Cl)cc3c2O[C@@H](C(F)(F)F)C(C(=O)OCCOCCOCCOC(=O)c2ccc(-c4c5nc(c(-c6cc(S(=O)(=O)[O-])ccc6F)c6ccc([nH]6)c(-c6cc(S(=O)(=O)[O-])ccc6F)c6nc(c(-c7cc(S(=O)(=O)[O-])ccc7F)c7ccc4[nH]7)C=C6)C=C5)cc2)=C3)cc1
REMARK SMILES IDX 27 1 26 2 25 3 24 4 23 5 22 6 20 7 21 8 19 9 6 10 7 11 12 12
REMARK SMILES IDX 8 13 11 14 13 15 9 16 10 17 97 18 14 19 5 20 1 21 2 22 3 23
REMARK SMILES IDX 99 24 4 25 98 26 15 27 16 28 17 29 18 30 28 31 29 32 30 33
REMARK SMILES IDX 31 34 32 35 33 36 34 37 35 38 96 39 36 40 95 41 37 42 38 43
REMARK SMILES IDX 39 44 89 45 40 46 94 47 88 48 90 49 41 50 93 51 87 52 86 53
REMARK SMILES IDX 42 55 74 56 54 57 73 58 55 59 58 60 72 61 91 62 56 63 57 64
REMARK SMILES IDX 71 66 92 67 59 68 43 69 44 70 52 71 45 72 51 73 53 74 50 75
REMARK SMILES IDX 46 76 47 77 48 78 49 79 75 80 76 81 84 82 77 83 83 84 85 85
REMARK SMILES IDX 82 86 78 87 79 88 80 89 81 90 60 91 61 92 69 93 62 94 68 95
REMARK SMILES IDX 70 96 67 97 63 98 64 99 65 100 66 101
REMARK H PARENT 90 54 58 65
REMARK Flexibility Score: inf
ROOT
ATOM      1  C   UNL A   1      35.116  32.953  27.959  1.00  0.00     0.188 C 
ENDROOT
BRANCH   1   2
ATOM      2  C   UNL A   1      34.027  31.982  28.338  1.00  0.00     0.188 C 
BRANCH   2   3
ATOM      3  O   UNL A   1      33.668  31.039  27.327  1.00  0.00    -0.376 OA
BRANCH   3   4
ATOM      4  C   UNL A   1      32.442  30.688  26.625  1.00  0.00     0.202 C 
BRANCH   4   5
ATOM      5  C   UNL A   1      31.674  29.534  25.408  1.00  0.00     0.261 C 
BRANCH   5   6
ATOM      6  O   UNL A   1      32.435  28.314  24.110  1.00  0.00    -0.460 OA
BRANCH   6   7
ATOM      7  C   UNL A   1      32.777  26.706  23.858  1.00  0.00     0.338 C 
ATOM      8  O   UNL A   1      33.935  26.274  23.780  1.00  0.00    -0.246 OA
BRANCH   7   9
ATOM      9  C   UNL A   1      31.886  25.442  23.692  1.00  0.00     0.087 C 
ATOM     10  C   UNL A   1      34.336  22.033  24.530  1.00  0.00     0.026 A 
ATOM     11  C   UNL A   1      33.880  20.773  24.218  1.00  0.00     0.033 A 
ATOM     12  C   UNL A   1      33.320  23.150  24.169  1.00  0.00     0.135 A 
ATOM     13  C   UNL A   1      32.680  20.683  23.482  1.00  0.00     0.042 A 
ATOM     14  C   UNL A   1      32.466  23.116  23.090  1.00  0.00     0.019 A 
ATOM     15  O   UNL A   1      32.346  23.729  25.321  1.00  0.00    -0.475 OA
ATOM     16  Cl  UNL A   1      31.945  19.119  23.363  1.00  0.00    -0.084 Cl
ATOM     17  C   UNL A   1      32.033  21.812  22.848  1.00  0.00     0.032 A 
ATOM     18  C   UNL A   1      32.024  24.522  22.658  1.00  0.00     0.027 C 
ATOM     19  C   UNL A   1      31.320  24.716  24.827  1.00  0.00     0.316 C 
BRANCH  10  20
ATOM     20  C   UNL A   1      36.112  22.242  24.833  1.00  0.00    -0.015 A 
ATOM     21  C   UNL A   1      40.651  23.118  27.160  1.00  0.00     0.044 C 
ATOM     22  C   UNL A   1      39.271  22.822  26.633  1.00  0.00    -0.051 A 
ATOM     23  C   UNL A   1      39.123  21.248  25.892  1.00  0.00     0.004 A 
ATOM     24  C   UNL A   1      37.993  24.064  26.514  1.00  0.00     0.004 A 
ATOM     25  C   UNL A   1      37.615  20.869  25.001  1.00  0.00     0.009 A 
ATOM     26  C   UNL A   1      36.442  23.832  25.646  1.00  0.00     0.009 A 
ENDBRANCH  10  20
BRANCH  19  27
ATOM     27  C   UNL A   1      30.502  25.777  25.601  1.00  0.00     0.430 C 
ATOM     28  F   UNL A   1      29.923  26.659  24.717  1.00  0.00    -0.167 F 
ATOM     29  F   UNL A   1      29.454  25.227  26.257  1.00  0.00    -0.167 F 
ATOM     30  F   UNL A   1      31.194  26.520  26.470  1.00  0.00    -0.167 F 
ENDBRANCH  19  27
ENDBRANCH   7   9
ENDBRANCH   6   7
ENDBRANCH   5   6
ENDBRANCH   4   5
ENDBRANCH   3   4
ENDBRANCH   2   3
ENDBRANCH   1   2
BRANCH   1  31
ATOM     31  O   UNL A   1      34.744  34.181  28.545  1.00  0.00    -0.376 OA
BRANCH  31  32
ATOM     32  C   UNL A   1      33.365  34.413  28.624  1.00  0.00     0.202 C 
BRANCH  32  33
ATOM     33  C   UNL A   1      33.042  35.426  29.720  1.00  0.00     0.261 C 
BRANCH  33  34
ATOM     34  O   UNL A   1      34.016  35.371  30.789  1.00  0.00    -0.460 OA
BRANCH  34  35
ATOM     35  C   UNL A   1      33.574  34.729  31.916  1.00  0.00     0.338 C 
ATOM     36  O   UNL A   1      32.555  35.010  32.516  1.00  0.00    -0.246 OA
BRANCH  35  37
ATOM     37  C   UNL A   1      34.583  33.741  32.342  1.00  0.00     0.060 A 
ATOM     38  C   UNL A   1      35.513  33.886  33.345  1.00  0.00     0.016 A 
ATOM     39  C   UNL A   1      34.684  32.560  31.700  1.00  0.00     0.016 A 
ATOM     40  C   UNL A   1      36.750  33.081  33.318  1.00  0.00     0.010 A 
ATOM     41  C   UNL A   1      35.928  31.912  31.792  1.00  0.00     0.010 A 
ATOM     42  C   UNL A   1      37.252  32.331  32.313  1.00  0.00    -0.014 A 
BRANCH  42  43
ATOM     43  C   UNL A   1      38.980  31.591  32.176  1.00  0.00     0.031 A 
ATOM     44  C   UNL A   1      39.456  30.076  31.161  1.00  0.00     0.074 A 
ATOM     45  C   UNL A   1      40.159  32.172  32.618  1.00  0.00     0.049 A 
ATOM     46  N   UNL A   1      40.598  29.456  31.159  1.00  0.00    -0.248 NA
ATOM     47  C   UNL A   1      38.486  29.060  30.317  1.00  0.00     0.031 C 
ATOM     48  C   UNL A   1      41.541  31.842  32.219  1.00  0.00     0.029 A 
ATOM     49  N   UNL A   1      40.424  33.198  33.546  1.00  0.00    -0.354 N 
ATOM     50  C   UNL A   1      40.503  28.313  30.360  1.00  0.00     0.074 A 
ATOM     51  C   UNL A   1      39.170  27.968  30.119  1.00  0.00     0.031 C 
ATOM     52  C   UNL A   1      42.417  32.362  33.101  1.00  0.00     0.029 A 
ATOM     53  C   UNL A   1      41.636  32.877  34.209  1.00  0.00     0.049 A 
ATOM     54  H   UNL A   1      39.869  33.995  33.705  1.00  0.00     0.167 HD
ATOM     55  C   UNL A   1      41.596  27.806  29.770  1.00  0.00     0.034 A 
ATOM     56  C   UNL A   1      41.698  32.505  35.535  1.00  0.00     0.034 A 
ATOM     57  C   UNL A   1      42.731  28.193  30.570  1.00  0.00     0.049 A 
ATOM     58  C   UNL A   1      42.367  31.082  35.638  1.00  0.00     0.074 A 
ATOM     59  C   UNL A   1      43.701  29.166  30.508  1.00  0.00     0.029 A 
ATOM     60  N   UNL A   1      42.663  27.809  31.893  1.00  0.00    -0.354 N 
ATOM     61  N   UNL A   1      42.838  30.388  34.623  1.00  0.00    -0.248 NA
ATOM     62  C   UNL A   1      42.520  30.320  36.879  1.00  0.00     0.031 C 
ATOM     63  C   UNL A   1      44.194  29.357  31.845  1.00  0.00     0.029 A 
ATOM     64  C   UNL A   1      43.550  28.472  32.695  1.00  0.00     0.049 A 
ATOM     65  H   UNL A   1      42.038  27.125  32.226  1.00  0.00     0.167 HD
ATOM     66  C   UNL A   1      43.175  29.107  35.001  1.00  0.00     0.074 A 
ATOM     67  C   UNL A   1      42.989  29.131  36.442  1.00  0.00     0.031 C 
ATOM     68  C   UNL A   1      43.526  28.115  34.111  1.00  0.00     0.034 A 
BRANCH  55  69
ATOM     69  C   UNL A   1      41.578  27.189  28.390  1.00  0.00     0.023 A 
ATOM     70  C   UNL A   1      42.552  26.211  28.187  1.00  0.00     0.031 A 
ATOM     71  C   UNL A   1      40.859  27.569  27.217  1.00  0.00     0.131 A 
ATOM     72  C   UNL A   1      42.840  25.715  26.909  1.00  0.00     0.055 A 
ATOM     73  C   UNL A   1      41.115  27.034  25.946  1.00  0.00     0.041 A 
ATOM     74  F   UNL A   1      39.904  28.506  27.184  1.00  0.00    -0.206 F 
ATOM     75  C   UNL A   1      42.131  26.116  25.781  1.00  0.00     0.022 A 
BRANCH  72  76
ATOM     76  S   UNL A   1      44.225  24.576  26.761  1.00  0.00     0.124 S 
ATOM     77  O   UNL A   1      44.107  23.802  27.994  1.00  0.00    -0.237 OA
ATOM     78  O   UNL A   1      43.906  23.875  25.522  1.00  0.00    -0.237 OA
ATOM     79  O   UNL A   1      45.383  25.462  26.694  1.00  0.00    -0.744 OA
ENDBRANCH  72  76
ENDBRANCH  55  69
BRANCH  56  80
ATOM     80  C   UNL A   1      40.384  33.006  36.401  1.00  0.00     0.023 A 
ATOM     81  C   UNL A   1      38.522  32.465  37.002  1.00  0.00     0.031 A 
ATOM     82  C   UNL A   1      41.149  34.255  37.440  1.00  0.00     0.131 A 
ATOM     83  C   UNL A   1      37.781  33.164  38.470  1.00  0.00     0.055 A 
ATOM     84  C   UNL A   1      40.218  34.812  38.875  1.00  0.00     0.041 A 
ATOM     85  F   UNL A   1      42.171  34.951  36.933  1.00  0.00    -0.206 F 
ATOM     86  C   UNL A   1      38.631  34.318  39.340  1.00  0.00     0.022 A 
BRANCH  83  87
ATOM     87  S   UNL A   1      36.772  32.104  39.566  1.00  0.00     0.124 S 
ATOM     88  O   UNL A   1      37.132  32.586  40.892  1.00  0.00    -0.237 OA
ATOM     89  O   UNL A   1      35.407  32.381  39.121  1.00  0.00    -0.237 OA
ATOM     90  O   UNL A   1      37.247  30.759  39.240  1.00  0.00    -0.744 OA
ENDBRANCH  83  87
ENDBRANCH  56  80
BRANCH  68  91
ATOM     91  C   UNL A   1      43.869  26.657  34.463  1.00  0.00     0.023 A 
ATOM     92  C   UNL A   1      45.172  26.168  34.341  1.00  0.00     0.031 A 
ATOM     93  C   UNL A   1      42.887  25.666  34.778  1.00  0.00     0.131 A 
ATOM     94  C   UNL A   1      45.453  24.797  34.534  1.00  0.00     0.055 A 
ATOM     95  C   UNL A   1      43.152  24.297  34.859  1.00  0.00     0.041 A 
ATOM     96  F   UNL A   1      41.620  25.968  35.091  1.00  0.00    -0.206 F 
ATOM     97  C   UNL A   1      44.450  23.851  34.744  1.00  0.00     0.022 A 
BRANCH  94  98
ATOM     98  S   UNL A   1      47.180  24.269  34.555  1.00  0.00     0.124 S 
ATOM     99  O   UNL A   1      47.068  22.819  34.447  1.00  0.00    -0.237 OA
ATOM    100  O   UNL A   1      47.708  24.956  33.379  1.00  0.00    -0.237 OA
ATOM    101  O   UNL A   1      47.679  24.763  35.836  1.00  0.00    -0.744 OA
ENDBRANCH  94  98
ENDBRANCH  68  91
ENDBRANCH  42  43
ENDBRANCH  35  37
ENDBRANCH  34  35
ENDBRANCH  33  34
ENDBRANCH  32  33
ENDBRANCH  31  32
ENDBRANCH   1  31
TORSDOF 22
ENDMDL
MODEL 2
REMARK VINA RESULT:     -12.3      2.377      3.426
REMARK SMILES Cc1ccc(-c2cc(Cl)cc3c2O[C@@H](C(F)(F)F)C(C(=O)OCCOCCOCCOC(=O)c2ccc(-c4c5nc(c(-c6cc(S(=O)(=O)[O-])ccc6F)c6ccc([nH]6)c(-c6cc(S(=O)(=O)[O-])ccc6F)c6nc(c(-c7cc(S(=O)(=O)[O-])ccc7F)c7ccc4[nH]7)C=C6)C=C5)cc2)=C3)cc1
REMARK SMILES IDX 27 1 26 2 25 3 24 4 23 5 22 6 20 7 21 8 19 9 6 10 7 11 12 12
REMARK SMILES IDX 8 13 11 14 13 15 9 16 10 17 97 18 14 19 5 20 1 21 2 22 3 23
REMARK SMILES IDX 99 24 4 25 98 26 15 27 16 28 17 29 18 30 28 31 29 32 30 33
REMARK SMILES IDX 31 34 32 35 33 36 34 37 35 38 96 39 36 40 95 41 37 42 38 43
REMARK SMILES IDX 39 44 89 45 40 46 94 47 88 48 90 49 41 50 93 51 87 52 86 53
REMARK SMILES IDX 42 55 74 56 54 57 73 58 55 59 58 60 72 61 91 62 56 63 57 64
REMARK SMILES IDX 71 66 92 67 59 68 43 69 44 70 52 71 45 72 51 73 53 74 50 75
REMARK SMILES IDX 46 76 47 77 48 78 49 79 75 80 76 81 84 82 77 83 83 84 85 85
REMARK SMILES IDX 82 86 78 87 79 88 80 89 81 90 60 91 61 92 69 93 62 94 68 95
REMARK SMILES IDX 70 96 67 97 63 98 64 99 65 100 66 101
REMARK H PARENT 90 54 58 65
REMARK Flexibility Score: inf
ROOT
ATOM      1  C   UNL A   1      33.009  32.869  27.769  1.00  0.00     0.188 C 
ENDROOT
BRANCH   1   2
ATOM      2  C   UNL A   1      31.788  32.850  26.886  1.00  0.00     0.188 C 
BRANCH   2   3
ATOM      3  O   UNL A   1      31.392  31.561  26.414  1.00  0.00    -0.376 OA
BRANCH   3   4
ATOM      4  C   UNL A   1      32.081  30.325  26.074  1.00  0.00     0.202 C 
BRANCH   4   5
ATOM      5  C   UNL A   1      32.822  29.333  24.707  1.00  0.00     0.261 C 
BRANCH   5   6
ATOM      6  O   UNL A   1      32.239  27.723  23.803  1.00  0.00    -0.460 OA
BRANCH   6   7
ATOM      7  C   UNL A   1      32.642  26.126  23.566  1.00  0.00     0.338 C 
ATOM      8  O   UNL A   1      33.787  25.765  23.265  1.00  0.00    -0.246 OA
BRANCH   7   9
ATOM      9  C   UNL A   1      31.835  24.800  23.659  1.00  0.00     0.087 C 
ATOM     10  C   UNL A   1      34.550  21.738  24.913  1.00  0.00     0.026 A 
ATOM     11  C   UNL A   1      34.171  20.418  24.837  1.00  0.00     0.033 A 
ATOM     12  C   UNL A   1      33.444  22.714  24.429  1.00  0.00     0.135 A 
ATOM     13  C   UNL A   1      32.949  20.132  24.194  1.00  0.00     0.042 A 
ATOM     14  C   UNL A   1      32.549  22.446  23.418  1.00  0.00     0.019 A 
ATOM     15  O   UNL A   1      32.483  23.416  25.520  1.00  0.00    -0.475 OA
ATOM     16  Cl  UNL A   1      32.321  18.528  24.373  1.00  0.00    -0.084 Cl
ATOM     17  C   UNL A   1      32.198  21.096  23.418  1.00  0.00     0.032 A 
ATOM     18  C   UNL A   1      31.992  23.730  22.785  1.00  0.00     0.027 C 
ATOM     19  C   UNL A   1      31.370  24.241  24.927  1.00  0.00     0.316 C 
BRANCH  10  20
ATOM     20  C   UNL A   1      36.319  22.104  25.080  1.00  0.00    -0.015 A 
ATOM     21  C   UNL A   1      40.926  23.395  27.055  1.00  0.00     0.044 C 
ATOM     22  C   UNL A   1      39.541  22.975  26.635  1.00  0.00    -0.051 A 
ATOM     23  C   UNL A   1      39.476  21.387  25.913  1.00  0.00     0.004 A 
ATOM     24  C   UNL A   1      38.154  24.099  26.608  1.00  0.00     0.004 A 
ATOM     25  C   UNL A   1      37.945  20.869  25.139  1.00  0.00     0.009 A 
ATOM     26  C   UNL A   1      36.569  23.724  25.861  1.00  0.00     0.009 A 
ENDBRANCH  10  20
BRANCH  19  27
ATOM     27  C   UNL A   1      30.515  25.365  25.559  1.00  0.00     0.430 C 
ATOM     28  F   UNL A   1      29.577  24.820  26.407  1.00  0.00    -0.167 F 
ATOM     29  F   UNL A   1      31.252  26.174  26.356  1.00  0.00    -0.167 F 
ATOM     30  F   UNL A   1      29.839  26.132  24.698  1.00  0.00    -0.167 F 
ENDBRANCH  19  27
ENDBRANCH   7   9
ENDBRANCH   6   7
ENDBRANCH   5   6
ENDBRANCH   4   5
ENDBRANCH   3   4
ENDBRANCH   2   3
ENDBRANCH   1   2
BRANCH   1  31
ATOM     31  O   UNL A   1      33.217  34.226  28.092  1.00  0.00    -0.376 OA
BRANCH  31  32
ATOM     32  C   UNL A   1      34.478  34.529  28.621  1.00  0.00     0.202 C 
BRANCH  32  33
ATOM     33  C   UNL A   1      35.548  33.603  28.047  1.00  0.00     0.261 C 
BRANCH  33  34
ATOM     34  O   UNL A   1      36.202  32.845  29.093  1.00  0.00    -0.460 OA
BRANCH  34  35
ATOM     35  C   UNL A   1      37.510  33.193  29.303  1.00  0.00     0.338 C 
ATOM     36  O   UNL A   1      37.983  34.284  29.052  1.00  0.00    -0.246 OA
BRANCH  35  37
ATOM     37  C   UNL A   1      38.263  32.008  29.758  1.00  0.00     0.060 A 
ATOM     38  C   UNL A   1      38.685  31.736  31.038  1.00  0.00     0.016 A 
ATOM     39  C   UNL A   1      38.641  31.067  28.870  1.00  0.00     0.016 A 
ATOM     40  C   UNL A   1      39.831  30.832  31.253  1.00  0.00     0.010 A 
ATOM     41  C   UNL A   1      39.742  30.277  29.240  1.00  0.00     0.010 A 
ATOM     42  C   UNL A   1      40.720  30.359  30.353  1.00  0.00    -0.014 A 
BRANCH  42  43
ATOM     43  C   UNL A   1      42.358  29.490  30.692  1.00  0.00     0.031 A 
ATOM     44  C   UNL A   1      42.881  27.813  30.008  1.00  0.00     0.074 A 
ATOM     45  C   UNL A   1      43.471  30.047  31.302  1.00  0.00     0.049 A 
ATOM     46  N   UNL A   1      43.933  27.123  30.335  1.00  0.00    -0.248 NA
ATOM     47  C   UNL A   1      42.011  26.754  29.111  1.00  0.00     0.031 C 
ATOM     48  C   UNL A   1      44.867  29.567  31.260  1.00  0.00     0.029 A 
ATOM     49  N   UNL A   1      43.640  31.177  32.125  1.00  0.00    -0.354 N 
ATOM     50  C   UNL A   1      43.892  25.885  29.688  1.00  0.00     0.074 A 
ATOM     51  C   UNL A   1      42.610  25.600  29.209  1.00  0.00     0.031 C 
ATOM     52  C   UNL A   1      45.589  30.149  32.237  1.00  0.00     0.029 A 
ATOM     53  C   UNL A   1      44.651  30.874  33.072  1.00  0.00     0.049 A 
ATOM     54  H   UNL A   1      43.145  32.025  32.056  1.00  0.00     0.167 HD
ATOM     55  C   UNL A   1      45.028  25.222  29.420  1.00  0.00     0.034 A 
ATOM     56  C   UNL A   1      44.401  30.697  34.416  1.00  0.00     0.034 A 
ATOM     57  C   UNL A   1      46.006  25.643  30.392  1.00  0.00     0.049 A 
ATOM     58  C   UNL A   1      44.891  29.262  34.845  1.00  0.00     0.074 A 
ATOM     59  C   UNL A   1      47.059  26.528  30.419  1.00  0.00     0.029 A 
ATOM     60  N   UNL A   1      45.629  25.463  31.706  1.00  0.00    -0.354 N 
ATOM     61  N   UNL A   1      45.490  28.396  34.055  1.00  0.00    -0.248 NA
ATOM     62  C   UNL A   1      44.709  28.681  36.176  1.00  0.00     0.031 C 
ATOM     63  C   UNL A   1      47.282  26.879  31.795  1.00  0.00     0.029 A 
ATOM     64  C   UNL A   1      46.392  26.174  32.590  1.00  0.00     0.049 A 
ATOM     65  H   UNL A   1      44.885  24.880  31.981  1.00  0.00     0.167 HD
ATOM     66  C   UNL A   1      45.615  27.164  34.658  1.00  0.00     0.074 A 
ATOM     67  C   UNL A   1      45.139  27.412  36.009  1.00  0.00     0.031 C 
ATOM     68  C   UNL A   1      46.043  26.031  34.001  1.00  0.00     0.034 A 
BRANCH  55  69
ATOM     69  C   UNL A   1      45.234  24.412  28.160  1.00  0.00     0.023 A 
ATOM     70  C   UNL A   1      46.097  25.002  27.235  1.00  0.00     0.031 A 
ATOM     71  C   UNL A   1      44.557  23.248  27.688  1.00  0.00     0.131 A 
ATOM     72  C   UNL A   1      46.210  24.519  25.926  1.00  0.00     0.055 A 
ATOM     73  C   UNL A   1      44.710  22.738  26.392  1.00  0.00     0.041 A 
ATOM     74  F   UNL A   1      43.667  22.548  28.402  1.00  0.00    -0.206 F 
ATOM     75  C   UNL A   1      45.524  23.390  25.490  1.00  0.00     0.022 A 
BRANCH  72  76
ATOM     76  S   UNL A   1      47.235  25.463  24.787  1.00  0.00     0.124 S 
ATOM     77  O   UNL A   1      48.369  25.822  25.634  1.00  0.00    -0.237 OA
ATOM     78  O   UNL A   1      47.493  24.486  23.735  1.00  0.00    -0.237 OA
ATOM     79  O   UNL A   1      46.371  26.576  24.402  1.00  0.00    -0.744 OA
ENDBRANCH  72  76
ENDBRANCH  55  69
BRANCH  56  80
ATOM     80  C   UNL A   1      42.993  31.409  34.904  1.00  0.00     0.023 A 
ATOM     81  C   UNL A   1      41.004  31.529  34.514  1.00  0.00     0.031 A 
ATOM     82  C   UNL A   1      43.433  31.858  36.586  1.00  0.00     0.131 A 
ATOM     83  C   UNL A   1      39.836  31.995  35.784  1.00  0.00     0.055 A 
ATOM     84  C   UNL A   1      42.086  32.289  37.699  1.00  0.00     0.041 A 
ATOM     85  F   UNL A   1      44.703  32.188  36.835  1.00  0.00    -0.206 F 
ATOM     86  C   UNL A   1      40.406  32.378  37.313  1.00  0.00     0.022 A 
BRANCH  83  87
ATOM     87  S   UNL A   1      38.206  31.169  35.860  1.00  0.00     0.124 S 
ATOM     88  O   UNL A   1      37.335  32.233  36.339  1.00  0.00    -0.237 OA
ATOM     89  O   UNL A   1      38.000  30.729  34.481  1.00  0.00    -0.237 OA
ATOM     90  O   UNL A   1      38.442  30.080  36.808  1.00  0.00    -0.744 OA
ENDBRANCH  83  87
ENDBRANCH  56  80
BRANCH  68  91
ATOM     91  C   UNL A   1      46.160  24.620  34.603  1.00  0.00     0.023 A 
ATOM     92  C   UNL A   1      47.369  23.921  34.584  1.00  0.00     0.031 A 
ATOM     93  C   UNL A   1      45.041  23.863  35.073  1.00  0.00     0.131 A 
ATOM     94  C   UNL A   1      47.437  22.577  35.013  1.00  0.00     0.055 A 
ATOM     95  C   UNL A   1      45.092  22.504  35.393  1.00  0.00     0.041 A 
ATOM     96  F   UNL A   1      43.841  24.408  35.314  1.00  0.00    -0.206 F 
ATOM     97  C   UNL A   1      46.303  21.849  35.372  1.00  0.00     0.022 A 
BRANCH  94  98
ATOM     98  S   UNL A   1      49.061  21.798  35.146  1.00  0.00     0.124 S 
ATOM     99  O   UNL A   1      49.850  22.547  34.173  1.00  0.00    -0.237 OA
ATOM    100  O   UNL A   1      49.386  22.039  36.549  1.00  0.00    -0.237 OA
ATOM    101  O   UNL A   1      48.806  20.401  34.801  1.00  0.00    -0.744 OA
ENDBRANCH  94  98
ENDBRANCH  68  91
ENDBRANCH  42  43
ENDBRANCH  35  37
ENDBRANCH  34  35
ENDBRANCH  33  34
ENDBRANCH  32  33
ENDBRANCH  31  32
ENDBRANCH   1  31
TORSDOF 22
ENDMDL
MODEL 3
REMARK VINA RESULT:     -11.8      3.518      5.632
REMARK SMILES Cc1ccc(-c2cc(Cl)cc3c2O[C@@H](C(F)(F)F)C(C(=O)OCCOCCOCCOC(=O)c2ccc(-c4c5nc(c(-c6cc(S(=O)(=O)[O-])ccc6F)c6ccc([nH]6)c(-c6cc(S(=O)(=O)[O-])ccc6F)c6nc(c(-c7cc(S(=O)(=O)[O-])ccc7F)c7ccc4[nH]7)C=C6)C=C5)cc2)=C3)cc1
REMARK SMILES IDX 27 1 26 2 25 3 24 4 23 5 22 6 20 7 21 8 19 9 6 10 7 11 12 12
REMARK SMILES IDX 8 13 11 14 13 15 9 16 10 17 97 18 14 19 5 20 1 21 2 22 3 23
REMARK SMILES IDX 99 24 4 25 98 26 15 27 16 28 17 29 18 30 28 31 29 32 30 33
REMARK SMILES IDX 31 34 32 35 33 36 34 37 35 38 96 39 36 40 95 41 37 42 38 43
REMARK SMILES IDX 39 44 89 45 40 46 94 47 88 48 90 49 41 50 93 51 87 52 86 53
REMARK SMILES IDX 42 55 74 56 54 57 73 58 55 59 58 60 72 61 91 62 56 63 57 64
REMARK SMILES IDX 71 66 92 67 59 68 43 69 44 70 52 71 45 72 51 73 53 74 50 75
REMARK SMILES IDX 46 76 47 77 48 78 49 79 75 80 76 81 84 82 77 83 83 84 85 85
REMARK SMILES IDX 82 86 78 87 79 88 80 89 81 90 60 91 61 92 69 93 62 94 68 95
REMARK SMILES IDX 70 96 67 97 63 98 64 99 65 100 66 101
REMARK H PARENT 90 54 58 65
REMARK Flexibility Score: inf
ROOT
ATOM      1  C   UNL A   1      33.276  34.566  28.464  1.00  0.00     0.188 C 
ENDROOT
BRANCH   1   2
ATOM      2  C   UNL A   1      34.694  34.097  28.260  1.00  0.00     0.188 C 
BRANCH   2   3
ATOM      3  O   UNL A   1      35.025  32.857  28.888  1.00  0.00    -0.376 OA
BRANCH   3   4
ATOM      4  C   UNL A   1      36.051  31.841  28.702  1.00  0.00     0.202 C 
BRANCH   4   5
ATOM      5  C   UNL A   1      36.469  30.248  27.871  1.00  0.00     0.261 C 
BRANCH   5   6
ATOM      6  O   UNL A   1      38.055  29.137  27.910  1.00  0.00    -0.460 OA
BRANCH   6   7
ATOM      7  C   UNL A   1      38.820  27.965  28.810  1.00  0.00     0.338 C 
ATOM      8  O   UNL A   1      38.491  27.697  29.972  1.00  0.00    -0.246 OA
BRANCH   7   9
ATOM      9  C   UNL A   1      39.986  26.982  28.506  1.00  0.00     0.087 C 
ATOM     10  C   UNL A   1      38.369  23.751  26.210  1.00  0.00     0.026 A 
ATOM     11  C   UNL A   1      39.116  22.614  26.014  1.00  0.00     0.033 A 
ATOM     12  C   UNL A   1      39.109  24.824  27.054  1.00  0.00     0.135 A 
ATOM     13  C   UNL A   1      40.330  22.507  26.724  1.00  0.00     0.042 A 
ATOM     14  C   UNL A   1      39.986  24.547  28.078  1.00  0.00     0.019 A 
ATOM     15  O   UNL A   1      39.879  26.026  26.298  1.00  0.00    -0.475 OA
ATOM     16  Cl  UNL A   1      41.413  21.242  26.247  1.00  0.00    -0.084 Cl
ATOM     17  C   UNL A   1      40.719  23.394  27.799  1.00  0.00     0.032 A 
ATOM     18  C   UNL A   1      40.104  25.716  29.068  1.00  0.00     0.027 C 
ATOM     19  C   UNL A   1      40.664  26.931  27.212  1.00  0.00     0.316 C 
BRANCH  10  20
ATOM     20  C   UNL A   1      36.582  23.656  25.907  1.00  0.00    -0.015 A 
ATOM     21  C   UNL A   1      31.962  22.258  24.041  1.00  0.00     0.044 C 
ATOM     22  C   UNL A   1      33.360  22.513  24.541  1.00  0.00    -0.051 A 
ATOM     23  C   UNL A   1      33.534  22.334  26.269  1.00  0.00     0.004 A 
ATOM     24  C   UNL A   1      34.643  23.213  23.514  1.00  0.00     0.004 A 
ATOM     25  C   UNL A   1      35.073  22.854  27.024  1.00  0.00     0.009 A 
ATOM     26  C   UNL A   1      36.224  23.787  24.131  1.00  0.00     0.009 A 
ENDBRANCH  10  20
BRANCH  19  27
ATOM     27  C   UNL A   1      41.183  28.371  26.985  1.00  0.00     0.430 C 
ATOM     28  F   UNL A   1      42.398  28.335  26.338  1.00  0.00    -0.167 F 
ATOM     29  F   UNL A   1      40.382  29.071  26.149  1.00  0.00    -0.167 F 
ATOM     30  F   UNL A   1      41.370  29.099  28.090  1.00  0.00    -0.167 F 
ENDBRANCH  19  27
ENDBRANCH   7   9
ENDBRANCH   6   7
ENDBRANCH   5   6
ENDBRANCH   4   5
ENDBRANCH   3   4
ENDBRANCH   2   3
ENDBRANCH   1   2
BRANCH   1  31
ATOM     31  O   UNL A   1      33.142  34.759  29.855  1.00  0.00    -0.376 OA
BRANCH  31  32
ATOM     32  C   UNL A   1      32.772  36.052  30.246  1.00  0.00     0.202 C 
BRANCH  32  33
ATOM     33  C   UNL A   1      32.188  36.050  31.657  1.00  0.00     0.261 C 
BRANCH  33  34
ATOM     34  O   UNL A   1      32.898  35.129  32.518  1.00  0.00    -0.460 OA
BRANCH  34  35
ATOM     35  C   UNL A   1      33.867  35.717  33.288  1.00  0.00     0.338 C 
ATOM     36  O   UNL A   1      33.787  36.832  33.766  1.00  0.00    -0.246 OA
BRANCH  35  37
ATOM     37  C   UNL A   1      35.051  34.839  33.338  1.00  0.00     0.060 A 
ATOM     38  C   UNL A   1      35.703  34.388  34.462  1.00  0.00     0.016 A 
ATOM     39  C   UNL A   1      35.630  34.423  32.193  1.00  0.00     0.016 A 
ATOM     40  C   UNL A   1      37.117  33.977  34.372  1.00  0.00     0.010 A 
ATOM     41  C   UNL A   1      36.981  34.048  32.287  1.00  0.00     0.010 A 
ATOM     42  C   UNL A   1      37.995  34.172  33.364  1.00  0.00    -0.014 A 
BRANCH  42  43
ATOM     43  C   UNL A   1      39.866  33.944  33.400  1.00  0.00     0.031 A 
ATOM     44  C   UNL A   1      40.898  33.068  32.089  1.00  0.00     0.074 A 
ATOM     45  C   UNL A   1      40.751  34.565  34.268  1.00  0.00     0.049 A 
ATOM     46  N   UNL A   1      42.161  32.767  32.153  1.00  0.00    -0.248 NA
ATOM     47  C   UNL A   1      40.393  32.252  30.761  1.00  0.00     0.031 C 
ATOM     48  C   UNL A   1      42.210  34.728  34.116  1.00  0.00     0.029 A 
ATOM     49  N   UNL A   1      40.575  35.201  35.512  1.00  0.00    -0.354 N 
ATOM     50  C   UNL A   1      42.514  32.016  31.028  1.00  0.00     0.074 A 
ATOM     51  C   UNL A   1      41.387  31.497  30.385  1.00  0.00     0.031 C 
ATOM     52  C   UNL A   1      42.767  35.062  35.297  1.00  0.00     0.029 A 
ATOM     53  C   UNL A   1      41.725  34.936  36.298  1.00  0.00     0.049 A 
ATOM     54  H   UNL A   1      39.795  35.734  35.788  1.00  0.00     0.167 HD
ATOM     55  C   UNL A   1      43.778  32.026  30.576  1.00  0.00     0.034 A 
ATOM     56  C   UNL A   1      41.711  34.118  37.409  1.00  0.00     0.034 A 
ATOM     57  C   UNL A   1      44.629  32.329  31.699  1.00  0.00     0.049 A 
ATOM     58  C   UNL A   1      42.747  32.950  37.198  1.00  0.00     0.074 A 
ATOM     59  C   UNL A   1      45.271  33.446  32.183  1.00  0.00     0.029 A 
ATOM     60  N   UNL A   1      44.497  31.474  32.772  1.00  0.00    -0.354 N 
ATOM     61  N   UNL A   1      43.534  32.811  36.152  1.00  0.00    -0.248 NA
ATOM     62  C   UNL A   1      42.946  31.833  38.125  1.00  0.00     0.031 C 
ATOM     63  C   UNL A   1      45.499  33.228  33.586  1.00  0.00     0.029 A 
ATOM     64  C   UNL A   1      45.032  31.969  33.929  1.00  0.00     0.049 A 
ATOM     65  H   UNL A   1      44.060  30.593  32.712  1.00  0.00     0.167 HD
ATOM     66  C   UNL A   1      44.177  31.592  36.162  1.00  0.00     0.074 A 
ATOM     67  C   UNL A   1      43.797  31.033  37.449  1.00  0.00     0.031 C 
ATOM     68  C   UNL A   1      44.921  31.112  35.107  1.00  0.00     0.034 A 
BRANCH  55  69
ATOM     69  C   UNL A   1      44.130  31.984  29.107  1.00  0.00     0.023 A 
ATOM     70  C   UNL A   1      44.124  33.230  28.480  1.00  0.00     0.031 A 
ATOM     71  C   UNL A   1      44.285  30.872  28.225  1.00  0.00     0.131 A 
ATOM     72  C   UNL A   1      44.184  33.351  27.086  1.00  0.00     0.055 A 
ATOM     73  C   UNL A   1      44.394  30.999  26.833  1.00  0.00     0.041 A 
ATOM     74  F   UNL A   1      44.290  29.592  28.614  1.00  0.00    -0.206 F 
ATOM     75  C   UNL A   1      44.319  32.247  26.251  1.00  0.00     0.022 A 
BRANCH  72  76
ATOM     76  S   UNL A   1      44.007  35.004  26.396  1.00  0.00     0.124 S 
ATOM     77  O   UNL A   1      43.534  35.761  27.552  1.00  0.00    -0.237 OA
ATOM     78  O   UNL A   1      45.365  35.288  25.945  1.00  0.00    -0.237 OA
ATOM     79  O   UNL A   1      43.025  34.820  25.331  1.00  0.00    -0.744 OA
ENDBRANCH  72  76
ENDBRANCH  55  69
BRANCH  56  80
ATOM     80  C   UNL A   1      40.203  33.950  38.060  1.00  0.00     0.023 A 
ATOM     81  C   UNL A   1      38.503  32.843  37.977  1.00  0.00     0.031 A 
ATOM     82  C   UNL A   1      40.435  34.811  39.618  1.00  0.00     0.131 A 
ATOM     83  C   UNL A   1      37.400  32.730  39.379  1.00  0.00     0.055 A 
ATOM     84  C   UNL A   1      39.196  34.545  40.895  1.00  0.00     0.041 A 
ATOM     85  F   UNL A   1      41.280  35.846  39.643  1.00  0.00    -0.206 F 
ATOM     86  C   UNL A   1      37.763  33.591  40.771  1.00  0.00     0.022 A 
BRANCH  83  87
ATOM     87  S   UNL A   1      36.588  31.138  39.764  1.00  0.00     0.124 S 
ATOM     88  O   UNL A   1      37.454  30.582  40.793  1.00  0.00    -0.237 OA
ATOM     89  O   UNL A   1      35.251  31.549  40.190  1.00  0.00    -0.237 OA
ATOM     90  O   UNL A   1      36.619  30.441  38.477  1.00  0.00    -0.744 OA
ENDBRANCH  83  87
ENDBRANCH  56  80
BRANCH  68  91
ATOM     91  C   UNL A   1      45.624  29.745  35.037  1.00  0.00     0.023 A 
ATOM     92  C   UNL A   1      44.975  28.621  34.521  1.00  0.00     0.031 A 
ATOM     93  C   UNL A   1      46.902  29.479  35.623  1.00  0.00     0.131 A 
ATOM     94  C   UNL A   1      45.575  27.344  34.585  1.00  0.00     0.055 A 
ATOM     95  C   UNL A   1      47.441  28.201  35.782  1.00  0.00     0.041 A 
ATOM     96  F   UNL A   1      47.737  30.448  36.021  1.00  0.00    -0.206 F 
ATOM     97  C   UNL A   1      46.778  27.116  35.252  1.00  0.00     0.022 A 
BRANCH  94  98
ATOM     98  S   UNL A   1      44.771  25.973  33.728  1.00  0.00     0.124 S 
ATOM     99  O   UNL A   1      44.421  25.077  34.825  1.00  0.00    -0.237 OA
ATOM    100  O   UNL A   1      43.652  26.652  33.079  1.00  0.00    -0.237 OA
ATOM    101  O   UNL A   1      45.803  25.476  32.821  1.00  0.00    -0.744 OA
ENDBRANCH  94  98
ENDBRANCH  68  91
ENDBRANCH  42  43
ENDBRANCH  35  37
ENDBRANCH  34  35
ENDBRANCH  33  34
ENDBRANCH  32  33
ENDBRANCH  31  32
ENDBRANCH   1  31
TORSDOF 22
ENDMDL
