MODEL 1
REMARK VINA RESULT:     -11.4      0.000      0.000
REMARK SMILES O=C(OCCOCCOCCOC(=O)c1cc(S(=O)(=O)NNC(=O)[C@H]2C=C(c3ccccc3)N=N2)ccc1F)c1ccc(-c2c3nc(c(-c4cc(S(=O)(=O)[O-])ccc4F)c4ccc([nH]4)c(-c4cc(S(=O)(=O)[O-])ccc4F)c4nc(c(-c5cc(S(=O)(=O)[O-])ccc5F)c5ccc2[nH]5)C=C4)C=C3)cc1
REMARK SMILES IDX 8 1 7 2 6 3 5 4 4 5 3 6 2 7 1 8 40 9 41 10 102 11 42 12
REMARK SMILES IDX 101 13 43 14 44 15 45 16 95 17 46 18 100 19 94 20 96 21
REMARK SMILES IDX 47 22 99 23 93 24 92 25 48 27 80 28 60 29 79 30 61 31 64 32
REMARK SMILES IDX 78 33 97 34 62 35 63 36 77 38 98 39 65 40 49 41 50 42 58 43
REMARK SMILES IDX 51 44 57 45 59 46 56 47 52 48 53 49 54 50 55 51 81 52 82 53
REMARK SMILES IDX 90 54 83 55 89 56 91 57 88 58 84 59 85 60 86 61 87 62 66 63
REMARK SMILES IDX 67 64 75 65 68 66 74 67 76 68 73 69 69 70 70 71 71 72 72 73
REMARK SMILES IDX 9 74 10 75 11 76 12 77 13 78 14 79 15 80 16 81 38 82 17 83
REMARK SMILES IDX 37 84 39 85 36 86 18 87 19 88 20 89 21 90 22 92 23 93 24 95
REMARK SMILES IDX 25 96 26 97 35 98 27 99 34 100 28 101 29 102 33 103 30 104
REMARK SMILES IDX 32 105 31 106
REMARK H PARENT 96 26 64 37 21 91 22 94
REMARK Flexibility Score: inf
ROOT
ATOM      1  C   UNL A   1      36.320  19.587  25.001  1.00  0.00     0.188 C 
ENDROOT
BRANCH   1   2
ATOM      2  C   UNL A   1      37.606  20.433  24.871  1.00  0.00     0.188 C 
BRANCH   2   3
ATOM      3  O   UNL A   1      37.377  21.829  24.823  1.00  0.00    -0.376 OA
BRANCH   3   4
ATOM      4  C   UNL A   1      37.939  22.625  25.848  1.00  0.00     0.202 C 
BRANCH   4   5
ATOM      5  C   UNL A   1      39.335  22.225  26.343  1.00  0.00     0.261 C 
BRANCH   5   6
ATOM      6  O   UNL A   1      40.007  23.191  27.166  1.00  0.00    -0.460 OA
BRANCH   6   7
ATOM      7  C   UNL A   1      40.578  24.368  26.841  1.00  0.00     0.338 C 
ATOM      8  O   UNL A   1      41.609  24.364  26.170  1.00  0.00    -0.246 OA
BRANCH   7   9
ATOM      9  C   UNL A   1      40.146  25.651  27.456  1.00  0.00     0.060 A 
ATOM     10  C   UNL A   1      40.333  26.918  26.897  1.00  0.00     0.016 A 
ATOM     11  C   UNL A   1      39.538  25.545  28.722  1.00  0.00     0.016 A 
ATOM     12  C   UNL A   1      40.039  28.058  27.626  1.00  0.00     0.010 A 
ATOM     13  C   UNL A   1      39.249  26.679  29.461  1.00  0.00     0.010 A 
ATOM     14  C   UNL A   1      39.597  27.923  28.937  1.00  0.00    -0.014 A 
BRANCH  14  15
ATOM     15  C   UNL A   1      39.761  29.086  29.798  1.00  0.00     0.031 A 
ATOM     16  C   UNL A   1      38.614  30.024  29.933  1.00  0.00     0.074 A 
ATOM     17  C   UNL A   1      40.923  29.214  30.476  1.00  0.00     0.049 A 
ATOM     18  N   UNL A   1      38.606  31.315  29.832  1.00  0.00    -0.248 NA
ATOM     19  C   UNL A   1      37.282  29.437  30.158  1.00  0.00     0.031 C 
ATOM     20  C   UNL A   1      42.008  28.225  30.575  1.00  0.00     0.029 A 
ATOM     21  N   UNL A   1      41.313  30.179  31.348  1.00  0.00    -0.354 N 
ATOM     22  C   UNL A   1      37.316  31.723  30.162  1.00  0.00     0.074 A 
ATOM     23  C   UNL A   1      36.518  30.525  30.245  1.00  0.00     0.031 C 
ATOM     24  C   UNL A   1      42.758  28.504  31.659  1.00  0.00     0.029 A 
ATOM     25  C   UNL A   1      42.285  29.745  32.244  1.00  0.00     0.049 A 
ATOM     26  H   UNL A   1      40.946  31.092  31.347  1.00  0.00     0.167 HD
ATOM     27  C   UNL A   1      37.008  33.000  30.523  1.00  0.00     0.034 A 
ATOM     28  C   UNL A   1      42.568  30.287  33.453  1.00  0.00     0.034 A 
ATOM     29  C   UNL A   1      37.984  33.952  30.072  1.00  0.00     0.049 A 
ATOM     30  C   UNL A   1      42.067  31.684  33.426  1.00  0.00     0.074 A 
ATOM     31  C   UNL A   1      38.443  34.342  28.829  1.00  0.00     0.029 A 
ATOM     32  N   UNL A   1      38.913  34.424  30.968  1.00  0.00    -0.354 N 
ATOM     33  N   UNL A   1      42.529  32.607  32.625  1.00  0.00    -0.248 NA
ATOM     34  C   UNL A   1      40.736  31.939  33.958  1.00  0.00     0.031 C 
ATOM     35  C   UNL A   1      39.841  34.555  29.002  1.00  0.00     0.029 A 
ATOM     36  C   UNL A   1      40.137  34.331  30.348  1.00  0.00     0.049 A 
ATOM     37  H   UNL A   1      38.737  34.762  31.876  1.00  0.00     0.167 HD
ATOM     38  C   UNL A   1      41.415  33.329  32.226  1.00  0.00     0.074 A 
ATOM     39  C   UNL A   1      40.356  32.933  33.151  1.00  0.00     0.031 C 
ATOM     40  C   UNL A   1      41.369  33.969  31.019  1.00  0.00     0.034 A 
BRANCH  27  41
ATOM     41  C   UNL A   1      35.923  33.337  31.511  1.00  0.00     0.023 A 
ATOM     42  C   UNL A   1      34.943  34.292  31.185  1.00  0.00     0.031 A 
ATOM     43  C   UNL A   1      35.970  32.922  32.862  1.00  0.00     0.131 A 
ATOM     44  C   UNL A   1      34.072  34.787  32.177  1.00  0.00     0.055 A 
ATOM     45  C   UNL A   1      35.069  33.372  33.828  1.00  0.00     0.041 A 
ATOM     46  F   UNL A   1      36.946  32.127  33.325  1.00  0.00    -0.206 F 
ATOM     47  C   UNL A   1      34.120  34.321  33.491  1.00  0.00     0.022 A 
BRANCH  44  48
ATOM     48  S   UNL A   1      32.951  36.153  31.765  1.00  0.00     0.124 S 
ATOM     49  O   UNL A   1      33.825  37.313  31.897  1.00  0.00    -0.237 OA
ATOM     50  O   UNL A   1      32.541  35.806  30.408  1.00  0.00    -0.237 OA
ATOM     51  O   UNL A   1      31.901  36.046  32.775  1.00  0.00    -0.744 OA
ENDBRANCH  44  48
ENDBRANCH  27  41
BRANCH  28  52
ATOM     52  C   UNL A   1      42.848  29.520  34.701  1.00  0.00     0.023 A 
ATOM     53  C   UNL A   1      42.055  28.426  35.092  1.00  0.00     0.031 A 
ATOM     54  C   UNL A   1      44.049  29.719  35.425  1.00  0.00     0.131 A 
ATOM     55  C   UNL A   1      42.459  27.602  36.168  1.00  0.00     0.055 A 
ATOM     56  C   UNL A   1      44.430  28.919  36.503  1.00  0.00     0.041 A 
ATOM     57  F   UNL A   1      44.946  30.646  35.056  1.00  0.00    -0.206 F 
ATOM     58  C   UNL A   1      43.638  27.848  36.876  1.00  0.00     0.022 A 
BRANCH  55  59
ATOM     59  S   UNL A   1      41.512  26.104  36.579  1.00  0.00     0.124 S 
ATOM     60  O   UNL A   1      40.616  26.587  37.624  1.00  0.00    -0.237 OA
ATOM     61  O   UNL A   1      40.893  25.759  35.305  1.00  0.00    -0.237 OA
ATOM     62  O   UNL A   1      42.543  25.169  37.031  1.00  0.00    -0.744 OA
ENDBRANCH  55  59
ENDBRANCH  28  52
BRANCH  40  63
ATOM     63  C   UNL A   1      42.642  34.084  30.206  1.00  0.00     0.023 A 
ATOM     64  C   UNL A   1      43.269  32.999  29.552  1.00  0.00     0.031 A 
ATOM     65  C   UNL A   1      43.134  35.375  29.949  1.00  0.00     0.131 A 
ATOM     66  C   UNL A   1      44.350  33.232  28.678  1.00  0.00     0.055 A 
ATOM     67  C   UNL A   1      44.197  35.603  29.075  1.00  0.00     0.041 A 
ATOM     68  F   UNL A   1      42.551  36.448  30.509  1.00  0.00    -0.206 F 
ATOM     69  C   UNL A   1      44.811  34.531  28.437  1.00  0.00     0.022 A 
BRANCH  66  70
ATOM     70  S   UNL A   1      45.157  31.846  27.811  1.00  0.00     0.124 S 
ATOM     71  O   UNL A   1      46.450  31.742  28.476  1.00  0.00    -0.237 OA
ATOM     72  O   UNL A   1      44.227  30.743  28.037  1.00  0.00    -0.237 OA
ATOM     73  O   UNL A   1      45.223  32.303  26.422  1.00  0.00    -0.744 OA
ENDBRANCH  66  70
ENDBRANCH  40  63
ENDBRANCH  14  15
ENDBRANCH   7   9
ENDBRANCH   6   7
ENDBRANCH   5   6
ENDBRANCH   4   5
ENDBRANCH   3   4
ENDBRANCH   2   3
ENDBRANCH   1   2
BRANCH   1  74
ATOM     74  O   UNL A   1      36.257  18.257  24.495  1.00  0.00    -0.376 OA
BRANCH  74  75
ATOM     75  C   UNL A   1      35.154  17.430  24.819  1.00  0.00     0.202 C 
BRANCH  75  76
ATOM     76  C   UNL A   1      34.279  16.919  23.666  1.00  0.00     0.261 C 
BRANCH  76  77
ATOM     77  O   UNL A   1      33.241  17.812  23.223  1.00  0.00    -0.460 OA
BRANCH  77  78
ATOM     78  C   UNL A   1      32.440  18.329  24.186  1.00  0.00     0.341 C 
ATOM     79  O   UNL A   1      31.804  17.728  25.034  1.00  0.00    -0.246 OA
BRANCH  78  80
ATOM     80  C   UNL A   1      32.499  19.796  24.141  1.00  0.00     0.097 A 
ATOM     81  C   UNL A   1      32.766  20.524  25.307  1.00  0.00     0.040 A 
ATOM     82  C   UNL A   1      32.218  20.468  22.957  1.00  0.00     0.137 A 
ATOM     83  C   UNL A   1      32.800  21.927  25.262  1.00  0.00     0.085 A 
ATOM     84  C   UNL A   1      32.215  21.865  22.921  1.00  0.00     0.041 A 
ATOM     85  F   UNL A   1      31.915  19.789  21.842  1.00  0.00    -0.206 F 
ATOM     86  C   UNL A   1      32.518  22.604  24.073  1.00  0.00     0.025 A 
BRANCH  83  87
ATOM     87  S   UNL A   1      33.162  22.796  26.774  1.00  0.00     0.257 S 
ATOM     88  O   UNL A   1      32.043  22.546  27.668  1.00  0.00    -0.205 OA
ATOM     89  O   UNL A   1      34.517  22.475  27.126  1.00  0.00    -0.205 OA
BRANCH  87  90
ATOM     90  N   UNL A   1      33.112  24.448  26.381  1.00  0.00    -0.123 NA
ATOM     91  H   UNL A   1      33.116  24.508  25.363  1.00  0.00     0.167 HD
BRANCH  90  92
ATOM     92  N   UNL A   1      32.021  25.266  26.841  1.00  0.00    -0.275 N 
ATOM     93  C   UNL A   1      31.728  26.535  26.414  1.00  0.00     0.265 C 
ATOM     94  H   UNL A   1      31.429  24.878  27.525  1.00  0.00     0.186 HD
ATOM     95  O   UNL A   1      30.627  27.001  26.733  1.00  0.00    -0.271 OA
BRANCH  93  96
ATOM     96  C   UNL A   1      32.732  27.325  25.556  1.00  0.00     0.244 C 
ATOM     97  C   UNL A   1      32.336  28.761  25.558  1.00  0.00     0.042 C 
ATOM     98  N   UNL A   1      34.050  27.370  26.252  1.00  0.00    -0.171 NA
ATOM     99  C   UNL A   1      33.260  29.378  26.295  1.00  0.00     0.091 C 
ATOM    100  N   UNL A   1      34.282  28.544  26.664  1.00  0.00    -0.155 NA
BRANCH  99 101
ATOM    101  C   UNL A   1      33.109  30.730  26.826  1.00  0.00     0.002 A 
ATOM    102  C   UNL A   1      31.943  31.472  26.624  1.00  0.00     0.010 A 
ATOM    103  C   UNL A   1      34.167  31.299  27.552  1.00  0.00     0.010 A 
ATOM    104  C   UNL A   1      31.835  32.763  27.152  1.00  0.00     0.001 A 
ATOM    105  C   UNL A   1      34.060  32.589  28.072  1.00  0.00     0.001 A 
ATOM    106  C   UNL A   1      32.891  33.320  27.874  1.00  0.00     0.000 A 
ENDBRANCH  99 101
ENDBRANCH  93  96
ENDBRANCH  90  92
ENDBRANCH  87  90
ENDBRANCH  83  87
ENDBRANCH  78  80
ENDBRANCH  77  78
ENDBRANCH  76  77
ENDBRANCH  75  76
ENDBRANCH  74  75
ENDBRANCH   1  74
TORSDOF 25
ENDMDL
MODEL 2
REMARK VINA RESULT:     -10.7      1.647      2.357
REMARK SMILES O=C(OCCOCCOCCOC(=O)c1cc(S(=O)(=O)NNC(=O)[C@H]2C=C(c3ccccc3)N=N2)ccc1F)c1ccc(-c2c3nc(c(-c4cc(S(=O)(=O)[O-])ccc4F)c4ccc([nH]4)c(-c4cc(S(=O)(=O)[O-])ccc4F)c4nc(c(-c5cc(S(=O)(=O)[O-])ccc5F)c5ccc2[nH]5)C=C4)C=C3)cc1
REMARK SMILES IDX 8 1 7 2 6 3 5 4 4 5 3 6 2 7 1 8 40 9 41 10 102 11 42 12
REMARK SMILES IDX 101 13 43 14 44 15 45 16 95 17 46 18 100 19 94 20 96 21
REMARK SMILES IDX 47 22 99 23 93 24 92 25 48 27 80 28 60 29 79 30 61 31 64 32
REMARK SMILES IDX 78 33 97 34 62 35 63 36 77 38 98 39 65 40 49 41 50 42 58 43
REMARK SMILES IDX 51 44 57 45 59 46 56 47 52 48 53 49 54 50 55 51 81 52 82 53
REMARK SMILES IDX 90 54 83 55 89 56 91 57 88 58 84 59 85 60 86 61 87 62 66 63
REMARK SMILES IDX 67 64 75 65 68 66 74 67 76 68 73 69 69 70 70 71 71 72 72 73
REMARK SMILES IDX 9 74 10 75 11 76 12 77 13 78 14 79 15 80 16 81 38 82 17 83
REMARK SMILES IDX 37 84 39 85 36 86 18 87 19 88 20 89 21 90 22 92 23 93 24 95
REMARK SMILES IDX 25 96 26 97 35 98 27 99 34 100 28 101 29 102 33 103 30 104
REMARK SMILES IDX 32 105 31 106
REMARK H PARENT 96 26 64 37 21 91 22 94
REMARK Flexibility Score: inf
ROOT
ATOM      1  C   UNL A   1      36.365  18.963  24.927  1.00  0.00     0.188 C 
ENDROOT
BRANCH   1   2
ATOM      2  C   UNL A   1      37.761  19.626  24.931  1.00  0.00     0.188 C 
BRANCH   2   3
ATOM      3  O   UNL A   1      37.747  21.002  24.596  1.00  0.00    -0.376 OA
BRANCH   3   4
ATOM      4  C   UNL A   1      38.027  21.933  25.623  1.00  0.00     0.202 C 
BRANCH   4   5
ATOM      5  C   UNL A   1      39.498  22.092  26.026  1.00  0.00     0.261 C 
BRANCH   5   6
ATOM      6  O   UNL A   1      39.786  23.170  26.931  1.00  0.00    -0.460 OA
BRANCH   6   7
ATOM      7  C   UNL A   1      40.530  24.281  26.758  1.00  0.00     0.338 C 
ATOM      8  O   UNL A   1      41.648  24.176  26.257  1.00  0.00    -0.246 OA
BRANCH   7   9
ATOM      9  C   UNL A   1      40.149  25.587  27.357  1.00  0.00     0.060 A 
ATOM     10  C   UNL A   1      40.425  26.840  26.805  1.00  0.00     0.016 A 
ATOM     11  C   UNL A   1      39.494  25.517  28.603  1.00  0.00     0.016 A 
ATOM     12  C   UNL A   1      40.170  27.996  27.523  1.00  0.00     0.010 A 
ATOM     13  C   UNL A   1      39.244  26.667  29.331  1.00  0.00     0.010 A 
ATOM     14  C   UNL A   1      39.678  27.889  28.819  1.00  0.00    -0.014 A 
BRANCH  14  15
ATOM     15  C   UNL A   1      39.878  29.042  29.686  1.00  0.00     0.031 A 
ATOM     16  C   UNL A   1      38.745  29.991  29.859  1.00  0.00     0.074 A 
ATOM     17  C   UNL A   1      41.059  29.152  30.332  1.00  0.00     0.049 A 
ATOM     18  N   UNL A   1      38.748  31.283  29.769  1.00  0.00    -0.248 NA
ATOM     19  C   UNL A   1      37.414  29.416  30.115  1.00  0.00     0.031 C 
ATOM     20  C   UNL A   1      42.135  28.152  30.394  1.00  0.00     0.029 A 
ATOM     21  N   UNL A   1      41.483  30.105  31.202  1.00  0.00    -0.354 N 
ATOM     22  C   UNL A   1      37.472  31.701  30.137  1.00  0.00     0.074 A 
ATOM     23  C   UNL A   1      36.664  30.511  30.232  1.00  0.00     0.031 C 
ATOM     24  C   UNL A   1      42.917  28.413  31.460  1.00  0.00     0.029 A 
ATOM     25  C   UNL A   1      42.473  29.654  32.067  1.00  0.00     0.049 A 
ATOM     26  H   UNL A   1      41.125  31.023  31.219  1.00  0.00     0.167 HD
ATOM     27  C   UNL A   1      37.187  32.979  30.517  1.00  0.00     0.034 A 
ATOM     28  C   UNL A   1      42.795  30.183  33.273  1.00  0.00     0.034 A 
ATOM     29  C   UNL A   1      38.160  33.924  30.048  1.00  0.00     0.049 A 
ATOM     30  C   UNL A   1      42.309  31.585  33.271  1.00  0.00     0.074 A 
ATOM     31  C   UNL A   1      38.590  34.321  28.797  1.00  0.00     0.029 A 
ATOM     32  N   UNL A   1      39.118  34.378  30.922  1.00  0.00    -0.354 N 
ATOM     33  N   UNL A   1      42.759  32.509  32.466  1.00  0.00    -0.248 NA
ATOM     34  C   UNL A   1      40.995  31.849  33.841  1.00  0.00     0.031 C 
ATOM     35  C   UNL A   1      39.995  34.517  28.934  1.00  0.00     0.029 A 
ATOM     36  C   UNL A   1      40.324  34.279  30.269  1.00  0.00     0.049 A 
ATOM     37  H   UNL A   1      38.971  34.711  31.838  1.00  0.00     0.167 HD
ATOM     38  C   UNL A   1      41.642  33.247  32.104  1.00  0.00     0.074 A 
ATOM     39  C   UNL A   1      40.604  32.854  33.053  1.00  0.00     0.031 C 
ATOM     40  C   UNL A   1      41.570  33.897  30.903  1.00  0.00     0.034 A 
BRANCH  27  41
ATOM     41  C   UNL A   1      36.133  33.318  31.537  1.00  0.00     0.023 A 
ATOM     42  C   UNL A   1      35.007  34.075  31.164  1.00  0.00     0.031 A 
ATOM     43  C   UNL A   1      36.328  33.126  32.925  1.00  0.00     0.131 A 
ATOM     44  C   UNL A   1      34.142  34.598  32.146  1.00  0.00     0.055 A 
ATOM     45  C   UNL A   1      35.437  33.597  33.890  1.00  0.00     0.041 A 
ATOM     46  F   UNL A   1      37.435  32.547  33.411  1.00  0.00    -0.206 F 
ATOM     47  C   UNL A   1      34.342  34.349  33.504  1.00  0.00     0.022 A 
BRANCH  44  48
ATOM     48  S   UNL A   1      32.812  35.724  31.641  1.00  0.00     0.124 S 
ATOM     49  O   UNL A   1      31.753  35.385  32.585  1.00  0.00    -0.237 OA
ATOM     50  O   UNL A   1      33.440  37.029  31.819  1.00  0.00    -0.237 OA
ATOM     51  O   UNL A   1      32.555  35.344  30.254  1.00  0.00    -0.744 OA
ENDBRANCH  44  48
ENDBRANCH  27  41
BRANCH  28  52
ATOM     52  C   UNL A   1      43.101  29.401  34.506  1.00  0.00     0.023 A 
ATOM     53  C   UNL A   1      42.221  28.420  34.999  1.00  0.00     0.031 A 
ATOM     54  C   UNL A   1      44.383  29.458  35.106  1.00  0.00     0.131 A 
ATOM     55  C   UNL A   1      42.625  27.566  36.051  1.00  0.00     0.055 A 
ATOM     56  C   UNL A   1      44.767  28.631  36.161  1.00  0.00     0.041 A 
ATOM     57  F   UNL A   1      45.346  30.261  34.629  1.00  0.00    -0.206 F 
ATOM     58  C   UNL A   1      43.890  27.671  36.635  1.00  0.00     0.022 A 
BRANCH  55  59
ATOM     59  S   UNL A   1      41.547  26.203  36.587  1.00  0.00     0.124 S 
ATOM     60  O   UNL A   1      40.677  26.865  37.553  1.00  0.00    -0.237 OA
ATOM     61  O   UNL A   1      40.923  25.779  35.339  1.00  0.00    -0.237 OA
ATOM     62  O   UNL A   1      42.486  25.237  37.159  1.00  0.00    -0.744 OA
ENDBRANCH  55  59
ENDBRANCH  28  52
BRANCH  40  63
ATOM     63  C   UNL A   1      42.822  34.007  30.057  1.00  0.00     0.023 A 
ATOM     64  C   UNL A   1      43.246  33.023  29.135  1.00  0.00     0.031 A 
ATOM     65  C   UNL A   1      43.508  35.232  30.068  1.00  0.00     0.131 A 
ATOM     66  C   UNL A   1      44.327  33.289  28.268  1.00  0.00     0.055 A 
ATOM     67  C   UNL A   1      44.569  35.496  29.201  1.00  0.00     0.041 A 
ATOM     68  F   UNL A   1      43.122  36.220  30.894  1.00  0.00    -0.206 F 
ATOM     69  C   UNL A   1      44.984  34.523  28.299  1.00  0.00     0.022 A 
BRANCH  66  70
ATOM     70  S   UNL A   1      44.875  32.038  27.060  1.00  0.00     0.124 S 
ATOM     71  O   UNL A   1      43.646  31.688  26.358  1.00  0.00    -0.237 OA
ATOM     72  O   UNL A   1      45.876  32.764  26.282  1.00  0.00    -0.237 OA
ATOM     73  O   UNL A   1      45.422  30.970  27.898  1.00  0.00    -0.744 OA
ENDBRANCH  66  70
ENDBRANCH  40  63
ENDBRANCH  14  15
ENDBRANCH   7   9
ENDBRANCH   6   7
ENDBRANCH   5   6
ENDBRANCH   4   5
ENDBRANCH   3   4
ENDBRANCH   2   3
ENDBRANCH   1   2
BRANCH   1  74
ATOM     74  O   UNL A   1      36.211  17.571  24.667  1.00  0.00    -0.376 OA
BRANCH  74  75
ATOM     75  C   UNL A   1      34.965  16.942  24.906  1.00  0.00     0.202 C 
BRANCH  75  76
ATOM     76  C   UNL A   1      34.091  16.601  23.691  1.00  0.00     0.261 C 
BRANCH  76  77
ATOM     77  O   UNL A   1      33.235  17.656  23.216  1.00  0.00    -0.460 OA
BRANCH  77  78
ATOM     78  C   UNL A   1      32.468  18.273  24.147  1.00  0.00     0.341 C 
ATOM     79  O   UNL A   1      31.726  17.761  24.966  1.00  0.00    -0.246 OA
BRANCH  78  80
ATOM     80  C   UNL A   1      32.717  19.721  24.109  1.00  0.00     0.097 A 
ATOM     81  C   UNL A   1      33.268  20.368  25.221  1.00  0.00     0.040 A 
ATOM     82  C   UNL A   1      32.337  20.463  22.996  1.00  0.00     0.137 A 
ATOM     83  C   UNL A   1      33.483  21.755  25.187  1.00  0.00     0.085 A 
ATOM     84  C   UNL A   1      32.518  21.849  22.977  1.00  0.00     0.041 A 
ATOM     85  F   UNL A   1      31.765  19.868  21.941  1.00  0.00    -0.206 F 
ATOM     86  C   UNL A   1      33.103  22.502  24.069  1.00  0.00     0.025 A 
BRANCH  83  87
ATOM     87  S   UNL A   1      34.204  22.518  26.626  1.00  0.00     0.257 S 
ATOM     88  O   UNL A   1      35.069  21.518  27.230  1.00  0.00    -0.205 OA
ATOM     89  O   UNL A   1      34.684  23.809  26.218  1.00  0.00    -0.205 OA
BRANCH  87  90
ATOM     90  N   UNL A   1      32.919  22.767  27.709  1.00  0.00    -0.123 NA
ATOM     91  H   UNL A   1      32.871  23.771  27.881  1.00  0.00     0.167 HD
BRANCH  90  92
ATOM     92  N   UNL A   1      31.589  22.341  27.362  1.00  0.00    -0.275 N 
ATOM     93  C   UNL A   1      30.574  23.147  26.917  1.00  0.00     0.265 C 
ATOM     94  H   UNL A   1      31.390  21.381  27.452  1.00  0.00     0.186 HD
ATOM     95  O   UNL A   1      29.576  22.592  26.440  1.00  0.00    -0.271 OA
BRANCH  93  96
ATOM     96  C   UNL A   1      30.696  24.680  26.996  1.00  0.00     0.244 C 
ATOM     97  C   UNL A   1      31.775  25.121  26.069  1.00  0.00     0.042 C 
ATOM     98  N   UNL A   1      29.489  25.304  26.382  1.00  0.00    -0.171 NA
ATOM     99  C   UNL A   1      31.146  25.734  25.067  1.00  0.00     0.091 C 
ATOM    100  N   UNL A   1      29.801  25.863  25.289  1.00  0.00    -0.155 NA
BRANCH  99 101
ATOM    101  C   UNL A   1      31.770  26.051  23.786  1.00  0.00     0.002 A 
ATOM    102  C   UNL A   1      31.023  26.508  22.697  1.00  0.00     0.010 A 
ATOM    103  C   UNL A   1      33.157  25.885  23.642  1.00  0.00     0.010 A 
ATOM    104  C   UNL A   1      31.657  26.806  21.487  1.00  0.00     0.001 A 
ATOM    105  C   UNL A   1      33.787  26.177  22.433  1.00  0.00     0.001 A 
ATOM    106  C   UNL A   1      33.036  26.640  21.356  1.00  0.00     0.000 A 
ENDBRANCH  99 101
ENDBRANCH  93  96
ENDBRANCH  90  92
ENDBRANCH  87  90
ENDBRANCH  83  87
ENDBRANCH  78  80
ENDBRANCH  77  78
ENDBRANCH  76  77
ENDBRANCH  75  76
ENDBRANCH  74  75
ENDBRANCH   1  74
TORSDOF 25
ENDMDL
MODEL 3
REMARK VINA RESULT:     -10.2      2.735      4.403
REMARK SMILES O=C(OCCOCCOCCOC(=O)c1cc(S(=O)(=O)NNC(=O)[C@H]2C=C(c3ccccc3)N=N2)ccc1F)c1ccc(-c2c3nc(c(-c4cc(S(=O)(=O)[O-])ccc4F)c4ccc([nH]4)c(-c4cc(S(=O)(=O)[O-])ccc4F)c4nc(c(-c5cc(S(=O)(=O)[O-])ccc5F)c5ccc2[nH]5)C=C4)C=C3)cc1
REMARK SMILES IDX 8 1 7 2 6 3 5 4 4 5 3 6 2 7 1 8 40 9 41 10 102 11 42 12
REMARK SMILES IDX 101 13 43 14 44 15 45 16 95 17 46 18 100 19 94 20 96 21
REMARK SMILES IDX 47 22 99 23 93 24 92 25 48 27 80 28 60 29 79 30 61 31 64 32
REMARK SMILES IDX 78 33 97 34 62 35 63 36 77 38 98 39 65 40 49 41 50 42 58 43
REMARK SMILES IDX 51 44 57 45 59 46 56 47 52 48 53 49 54 50 55 51 81 52 82 53
REMARK SMILES IDX 90 54 83 55 89 56 91 57 88 58 84 59 85 60 86 61 87 62 66 63
REMARK SMILES IDX 67 64 75 65 68 66 74 67 76 68 73 69 69 70 70 71 71 72 72 73
REMARK SMILES IDX 9 74 10 75 11 76 12 77 13 78 14 79 15 80 16 81 38 82 17 83
REMARK SMILES IDX 37 84 39 85 36 86 18 87 19 88 20 89 21 90 22 92 23 93 24 95
REMARK SMILES IDX 25 96 26 97 35 98 27 99 34 100 28 101 29 102 33 103 30 104
REMARK SMILES IDX 32 105 31 106
REMARK H PARENT 96 26 64 37 21 91 22 94
REMARK Flexibility Score: inf
ROOT
ATOM      1  C   UNL A   1      33.448  21.082  24.713  1.00  0.00     0.188 C 
ENDROOT
BRANCH   1   2
ATOM      2  C   UNL A   1      34.785  20.365  25.001  1.00  0.00     0.188 C 
BRANCH   2   3
ATOM      3  O   UNL A   1      35.932  21.134  24.687  1.00  0.00    -0.376 OA
BRANCH   3   4
ATOM      4  C   UNL A   1      36.436  22.002  25.684  1.00  0.00     0.202 C 
BRANCH   4   5
ATOM      5  C   UNL A   1      37.887  22.471  25.518  1.00  0.00     0.261 C 
BRANCH   5   6
ATOM      6  O   UNL A   1      38.246  23.661  26.238  1.00  0.00    -0.460 OA
BRANCH   6   7
ATOM      7  C   UNL A   1      39.456  24.134  26.597  1.00  0.00     0.338 C 
ATOM      8  O   UNL A   1      40.437  23.400  26.487  1.00  0.00    -0.246 OA
BRANCH   7   9
ATOM      9  C   UNL A   1      39.617  25.414  27.335  1.00  0.00     0.060 A 
ATOM     10  C   UNL A   1      40.280  26.546  26.853  1.00  0.00     0.016 A 
ATOM     11  C   UNL A   1      39.079  25.438  28.636  1.00  0.00     0.016 A 
ATOM     12  C   UNL A   1      40.513  27.630  27.683  1.00  0.00     0.010 A 
ATOM     13  C   UNL A   1      39.315  26.514  29.475  1.00  0.00     0.010 A 
ATOM     14  C   UNL A   1      40.117  27.556  29.013  1.00  0.00    -0.014 A 
BRANCH  14  15
ATOM     15  C   UNL A   1      40.783  28.463  29.939  1.00  0.00     0.031 A 
ATOM     16  C   UNL A   1      40.007  29.615  30.469  1.00  0.00     0.074 A 
ATOM     17  C   UNL A   1      42.049  28.171  30.311  1.00  0.00     0.049 A 
ATOM     18  N   UNL A   1      40.346  30.864  30.529  1.00  0.00    -0.248 NA
ATOM     19  C   UNL A   1      38.641  29.347  30.952  1.00  0.00     0.031 C 
ATOM     20  C   UNL A   1      42.802  26.943  30.014  1.00  0.00     0.029 A 
ATOM     21  N   UNL A   1      42.872  28.831  31.166  1.00  0.00    -0.354 N 
ATOM     22  C   UNL A   1      39.326  31.511  31.220  1.00  0.00     0.074 A 
ATOM     23  C   UNL A   1      38.255  30.555  31.359  1.00  0.00     0.031 C 
ATOM     24  C   UNL A   1      43.811  26.822  30.899  1.00  0.00     0.029 A 
ATOM     25  C   UNL A   1      43.845  28.012  31.728  1.00  0.00     0.049 A 
ATOM     26  H   UNL A   1      42.789  29.791  31.367  1.00  0.00     0.167 HD
ATOM     27  C   UNL A   1      39.477  32.736  31.798  1.00  0.00     0.034 A 
ATOM     28  C   UNL A   1      44.520  28.234  32.883  1.00  0.00     0.034 A 
ATOM     29  C   UNL A   1      40.567  33.481  31.233  1.00  0.00     0.049 A 
ATOM     30  C   UNL A   1      44.444  29.693  33.151  1.00  0.00     0.074 A 
ATOM     31  C   UNL A   1      40.846  33.967  29.970  1.00  0.00     0.029 A 
ATOM     32  N   UNL A   1      41.758  33.534  31.915  1.00  0.00    -0.354 N 
ATOM     33  N   UNL A   1      44.970  30.602  32.376  1.00  0.00    -0.248 NA
ATOM     34  C   UNL A   1      43.383  30.168  34.028  1.00  0.00     0.031 C 
ATOM     35  C   UNL A   1      42.251  33.790  29.809  1.00  0.00     0.029 A 
ATOM     36  C   UNL A   1      42.746  33.256  31.000  1.00  0.00     0.049 A 
ATOM     37  H   UNL A   1      41.882  33.733  32.872  1.00  0.00     0.167 HD
ATOM     38  C   UNL A   1      44.051  31.640  32.361  1.00  0.00     0.074 A 
ATOM     39  C   UNL A   1      43.142  31.356  33.468  1.00  0.00     0.031 C 
ATOM     40  C   UNL A   1      43.936  32.482  31.290  1.00  0.00     0.034 A 
BRANCH  27  41
ATOM     41  C   UNL A   1      38.767  33.144  33.061  1.00  0.00     0.023 A 
ATOM     42  C   UNL A   1      39.000  32.445  34.259  1.00  0.00     0.031 A 
ATOM     43  C   UNL A   1      37.679  34.048  33.063  1.00  0.00     0.131 A 
ATOM     44  C   UNL A   1      38.174  32.657  35.381  1.00  0.00     0.055 A 
ATOM     45  C   UNL A   1      36.901  34.298  34.195  1.00  0.00     0.041 A 
ATOM     46  F   UNL A   1      37.269  34.666  31.947  1.00  0.00    -0.206 F 
ATOM     47  C   UNL A   1      37.138  33.591  35.360  1.00  0.00     0.022 A 
BRANCH  44  48
ATOM     48  S   UNL A   1      38.384  31.603  36.844  1.00  0.00     0.124 S 
ATOM     49  O   UNL A   1      39.758  31.895  37.233  1.00  0.00    -0.237 OA
ATOM     50  O   UNL A   1      37.341  32.109  37.730  1.00  0.00    -0.237 OA
ATOM     51  O   UNL A   1      38.156  30.256  36.325  1.00  0.00    -0.744 OA
ENDBRANCH  44  48
ENDBRANCH  27  41
BRANCH  28  52
ATOM     52  C   UNL A   1      44.824  27.205  33.918  1.00  0.00     0.023 A 
ATOM     53  C   UNL A   1      44.086  26.012  34.018  1.00  0.00     0.031 A 
ATOM     54  C   UNL A   1      46.004  27.284  34.699  1.00  0.00     0.131 A 
ATOM     55  C   UNL A   1      44.520  24.976  34.876  1.00  0.00     0.055 A 
ATOM     56  C   UNL A   1      46.414  26.270  35.565  1.00  0.00     0.041 A 
ATOM     57  F   UNL A   1      46.854  28.315  34.584  1.00  0.00    -0.206 F 
ATOM     58  C   UNL A   1      45.676  25.103  35.652  1.00  0.00     0.022 A 
BRANCH  55  59
ATOM     59  S   UNL A   1      43.650  23.379  34.895  1.00  0.00     0.124 S 
ATOM     60  O   UNL A   1      42.380  23.730  35.520  1.00  0.00    -0.237 OA
ATOM     61  O   UNL A   1      43.600  23.027  33.480  1.00  0.00    -0.237 OA
ATOM     62  O   UNL A   1      44.525  22.529  35.704  1.00  0.00    -0.744 OA
ENDBRANCH  55  59
ENDBRANCH  28  52
BRANCH  40  63
ATOM     63  C   UNL A   1      44.989  32.424  30.202  1.00  0.00     0.023 A 
ATOM     64  C   UNL A   1      45.008  31.464  29.164  1.00  0.00     0.031 A 
ATOM     65  C   UNL A   1      45.901  33.490  30.124  1.00  0.00     0.131 A 
ATOM     66  C   UNL A   1      45.925  31.594  28.100  1.00  0.00     0.055 A 
ATOM     67  C   UNL A   1      46.798  33.622  29.064  1.00  0.00     0.041 A 
ATOM     68  F   UNL A   1      45.900  34.455  31.059  1.00  0.00    -0.206 F 
ATOM     69  C   UNL A   1      46.814  32.672  28.048  1.00  0.00     0.022 A 
BRANCH  66  70
ATOM     70  S   UNL A   1      45.950  30.376  26.745  1.00  0.00     0.124 S 
ATOM     71  O   UNL A   1      44.571  29.911  26.685  1.00  0.00    -0.237 OA
ATOM     72  O   UNL A   1      46.412  31.171  25.609  1.00  0.00    -0.237 OA
ATOM     73  O   UNL A   1      46.911  29.372  27.206  1.00  0.00    -0.744 OA
ENDBRANCH  66  70
ENDBRANCH  40  63
ENDBRANCH  14  15
ENDBRANCH   7   9
ENDBRANCH   6   7
ENDBRANCH   5   6
ENDBRANCH   4   5
ENDBRANCH   3   4
ENDBRANCH   2   3
ENDBRANCH   1   2
BRANCH   1  74
ATOM     74  O   UNL A   1      32.698  20.799  23.535  1.00  0.00    -0.376 OA
BRANCH  74  75
ATOM     75  C   UNL A   1      32.185  21.862  22.753  1.00  0.00     0.202 C 
BRANCH  75  76
ATOM     76  C   UNL A   1      33.159  22.966  22.318  1.00  0.00     0.261 C 
BRANCH  76  77
ATOM     77  O   UNL A   1      32.864  24.290  22.800  1.00  0.00    -0.460 OA
BRANCH  77  78
ATOM     78  C   UNL A   1      33.574  24.711  23.875  1.00  0.00     0.341 C 
ATOM     79  O   UNL A   1      34.755  24.526  24.111  1.00  0.00    -0.246 OA
BRANCH  78  80
ATOM     80  C   UNL A   1      32.720  25.542  24.735  1.00  0.00     0.097 A 
ATOM     81  C   UNL A   1      33.000  26.904  24.894  1.00  0.00     0.040 A 
ATOM     82  C   UNL A   1      31.679  24.962  25.450  1.00  0.00     0.137 A 
ATOM     83  C   UNL A   1      32.193  27.689  25.734  1.00  0.00     0.085 A 
ATOM     84  C   UNL A   1      30.899  25.736  26.314  1.00  0.00     0.041 A 
ATOM     85  F   UNL A   1      31.426  23.650  25.346  1.00  0.00    -0.206 F 
ATOM     86  C   UNL A   1      31.145  27.109  26.452  1.00  0.00     0.025 A 
BRANCH  83  87
ATOM     87  S   UNL A   1      32.588  29.419  25.882  1.00  0.00     0.257 S 
ATOM     88  O   UNL A   1      33.875  29.603  25.231  1.00  0.00    -0.205 OA
ATOM     89  O   UNL A   1      31.414  30.150  25.491  1.00  0.00    -0.205 OA
BRANCH  87  90
ATOM     90  N   UNL A   1      32.837  29.697  27.539  1.00  0.00    -0.123 NA
ATOM     91  H   UNL A   1      32.359  28.947  28.037  1.00  0.00     0.167 HD
BRANCH  90  92
ATOM     92  N   UNL A   1      34.173  29.760  28.067  1.00  0.00    -0.275 N 
ATOM     93  C   UNL A   1      34.921  30.896  28.238  1.00  0.00     0.265 C 
ATOM     94  H   UNL A   1      34.590  28.908  28.331  1.00  0.00     0.186 HD
ATOM     95  O   UNL A   1      35.949  30.802  28.920  1.00  0.00    -0.271 OA
BRANCH  93  96
ATOM     96  C   UNL A   1      34.473  32.231  27.616  1.00  0.00     0.244 C 
ATOM     97  C   UNL A   1      33.559  32.919  28.570  1.00  0.00     0.042 C 
ATOM     98  N   UNL A   1      35.631  33.170  27.571  1.00  0.00    -0.171 NA
ATOM     99  C   UNL A   1      34.255  33.956  29.036  1.00  0.00     0.091 C 
ATOM    100  N   UNL A   1      35.462  34.106  28.406  1.00  0.00    -0.155 NA
BRANCH  99 101
ATOM    101  C   UNL A   1      33.877  34.726  30.218  1.00  0.00     0.002 A 
ATOM    102  C   UNL A   1      33.272  35.980  30.115  1.00  0.00     0.010 A 
ATOM    103  C   UNL A   1      34.137  34.193  31.490  1.00  0.00     0.010 A 
ATOM    104  C   UNL A   1      32.921  36.686  31.270  1.00  0.00     0.001 A 
ATOM    105  C   UNL A   1      33.792  34.901  32.642  1.00  0.00     0.001 A 
ATOM    106  C   UNL A   1      33.182  36.147  32.530  1.00  0.00     0.000 A 
ENDBRANCH  99 101
ENDBRANCH  93  96
ENDBRANCH  90  92
ENDBRANCH  87  90
ENDBRANCH  83  87
ENDBRANCH  78  80
ENDBRANCH  77  78
ENDBRANCH  76  77
ENDBRANCH  75  76
ENDBRANCH  74  75
ENDBRANCH   1  74
TORSDOF 25
ENDMDL
