MODEL 1
REMARK VINA RESULT:      -9.0      0.000      0.000
REMARK SMILES COC[C@H](C)[C@@](C)(O)C(=O)OCCOCCOCCOC(=O)c1ccc(-c2c3nc(c(-c4cc(S(=O)(=O)[O-])ccc4F)c4ccc([nH]4)c(-c4cc(S(=O)(=O)[O-])ccc4F)c4nc(c(-c5cc(S(=O)(=O)[O-])ccc5F)c5ccc2[nH]5)C=C4)C=C3)cc1
REMARK SMILES IDX 15 1 14 2 13 3 12 4 11 5 9 6 10 7 6 8 7 9 4 10 5 11 3 12
REMARK SMILES IDX 2 13 1 14 8 15 16 17 17 18 18 19 19 20 20 21 21 22 22 23
REMARK SMILES IDX 23 24 24 25 85 26 25 27 84 28 26 29 27 30 28 31 78 32 29 33
REMARK SMILES IDX 83 34 77 35 79 36 30 37 82 38 76 39 75 40 31 42 63 43 43 44
REMARK SMILES IDX 62 45 44 46 47 47 61 48 80 49 45 50 46 51 60 53 81 54 48 55
REMARK SMILES IDX 32 56 33 57 41 58 34 59 40 60 42 61 39 62 35 63 36 64 37 65
REMARK SMILES IDX 38 66 64 67 65 68 73 69 66 70 72 71 74 72 71 73 67 74 68 75
REMARK SMILES IDX 69 76 70 77 49 78 50 79 58 80 51 81 57 82 59 83 56 84 52 85
REMARK SMILES IDX 53 86 54 87 55 88
REMARK H PARENT 8 16 79 41 47 52
REMARK Flexibility Score: inf
ROOT
ATOM      1  C   UNL A   1      31.893  27.207  24.682  1.00  0.00     0.188 C 
ENDROOT
BRANCH   1   2
ATOM      2  O   UNL A   1      31.734  26.957  26.059  1.00  0.00    -0.376 OA
BRANCH   2   3
ATOM      3  C   UNL A   1      31.246  25.700  26.491  1.00  0.00     0.202 C 
BRANCH   3   4
ATOM      4  C   UNL A   1      31.560  24.333  25.844  1.00  0.00     0.261 C 
BRANCH   4   5
ATOM      5  O   UNL A   1      32.603  23.536  26.416  1.00  0.00    -0.461 OA
BRANCH   5   6
ATOM      6  C   UNL A   1      33.819  23.572  25.802  1.00  0.00     0.338 C 
ATOM      7  O   UNL A   1      34.162  24.459  25.026  1.00  0.00    -0.249 OA
BRANCH   6   8
ATOM      8  C   UNL A   1      34.703  22.325  26.143  1.00  0.00     0.163 C 
ATOM      9  C   UNL A   1      34.045  21.695  27.382  1.00  0.00     0.055 C 
BRANCH   8  10
ATOM     10  C   UNL A   1      34.801  21.287  24.976  1.00  0.00     0.055 C 
ATOM     11  C   UNL A   1      36.044  20.388  25.041  1.00  0.00     0.014 C 
BRANCH  10  12
ATOM     12  C   UNL A   1      33.542  20.412  24.806  1.00  0.00     0.166 C 
BRANCH  12  13
ATOM     13  O   UNL A   1      33.871  19.036  24.602  1.00  0.00    -0.384 OA
ATOM     14  C   UNL A   1      33.015  18.134  25.290  1.00  0.00     0.194 C 
ENDBRANCH  12  13
ENDBRANCH  10  12
ENDBRANCH   8  10
BRANCH   8  15
ATOM     15  O   UNL A   1      36.030  22.647  26.573  1.00  0.00    -0.378 OA
ATOM     16  H   UNL A   1      36.067  22.633  27.542  1.00  0.00     0.212 HD
ENDBRANCH   8  15
ENDBRANCH   6   8
ENDBRANCH   5   6
ENDBRANCH   4   5
ENDBRANCH   3   4
ENDBRANCH   2   3
ENDBRANCH   1   2
BRANCH   1  17
ATOM     17  C   UNL A   1      32.693  28.468  24.305  1.00  0.00     0.188 C 
BRANCH  17  18
ATOM     18  O   UNL A   1      32.025  29.686  24.042  1.00  0.00    -0.376 OA
BRANCH  18  19
ATOM     19  C   UNL A   1      31.221  30.276  25.046  1.00  0.00     0.202 C 
BRANCH  19  20
ATOM     20  C   UNL A   1      31.728  30.572  26.471  1.00  0.00     0.261 C 
BRANCH  20  21
ATOM     21  O   UNL A   1      33.136  30.435  26.709  1.00  0.00    -0.460 OA
BRANCH  21  22
ATOM     22  C   UNL A   1      33.711  31.479  27.353  1.00  0.00     0.338 C 
ATOM     23  O   UNL A   1      33.151  32.505  27.730  1.00  0.00    -0.246 OA
BRANCH  22  24
ATOM     24  C   UNL A   1      35.096  31.142  27.734  1.00  0.00     0.060 A 
ATOM     25  C   UNL A   1      35.457  29.788  27.784  1.00  0.00     0.016 A 
ATOM     26  C   UNL A   1      36.008  32.130  28.111  1.00  0.00     0.016 A 
ATOM     27  C   UNL A   1      36.714  29.414  28.255  1.00  0.00     0.010 A 
ATOM     28  C   UNL A   1      37.261  31.750  28.611  1.00  0.00     0.010 A 
ATOM     29  C   UNL A   1      37.602  30.389  28.726  1.00  0.00    -0.014 A 
BRANCH  29  30
ATOM     30  C   UNL A   1      38.760  29.962  29.555  1.00  0.00     0.031 A 
ATOM     31  C   UNL A   1      39.702  28.934  28.982  1.00  0.00     0.074 A 
ATOM     32  C   UNL A   1      39.018  30.514  30.755  1.00  0.00     0.049 A 
ATOM     33  N   UNL A   1      40.782  28.409  29.499  1.00  0.00    -0.248 NA
ATOM     34  C   UNL A   1      39.378  28.439  27.635  1.00  0.00     0.031 C 
ATOM     35  C   UNL A   1      38.233  31.572  31.385  1.00  0.00     0.029 A 
ATOM     36  N   UNL A   1      40.024  30.258  31.654  1.00  0.00    -0.354 N 
ATOM     37  C   UNL A   1      41.266  27.519  28.545  1.00  0.00     0.074 A 
ATOM     38  C   UNL A   1      40.339  27.551  27.434  1.00  0.00     0.031 C 
ATOM     39  C   UNL A   1      38.783  31.870  32.576  1.00  0.00     0.029 A 
ATOM     40  C   UNL A   1      39.941  31.005  32.806  1.00  0.00     0.049 A 
ATOM     41  H   UNL A   1      40.738  29.600  31.490  1.00  0.00     0.167 HD
ATOM     42  C   UNL A   1      42.384  26.753  28.585  1.00  0.00     0.034 A 
ATOM     43  C   UNL A   1      40.701  30.980  33.921  1.00  0.00     0.034 A 
ATOM     44  C   UNL A   1      43.292  26.714  29.705  1.00  0.00     0.049 A 
ATOM     45  C   UNL A   1      41.878  30.031  33.990  1.00  0.00     0.074 A 
ATOM     46  C   UNL A   1      44.454  25.975  29.847  1.00  0.00     0.029 A 
ATOM     47  N   UNL A   1      43.132  27.427  30.887  1.00  0.00    -0.354 N 
ATOM     48  N   UNL A   1      42.332  29.201  33.078  1.00  0.00    -0.248 NA
ATOM     49  C   UNL A   1      42.653  30.029  35.238  1.00  0.00     0.031 C 
ATOM     50  C   UNL A   1      44.948  26.176  31.140  1.00  0.00     0.029 A 
ATOM     51  C   UNL A   1      44.151  27.115  31.775  1.00  0.00     0.049 A 
ATOM     52  H   UNL A   1      42.401  28.063  31.067  1.00  0.00     0.167 HD
ATOM     53  C   UNL A   1      43.472  28.616  33.629  1.00  0.00     0.074 A 
ATOM     54  C   UNL A   1      43.640  29.196  34.945  1.00  0.00     0.031 C 
ATOM     55  C   UNL A   1      44.312  27.693  33.090  1.00  0.00     0.034 A 
BRANCH  42  56
ATOM     56  C   UNL A   1      42.639  25.843  27.406  1.00  0.00     0.023 A 
ATOM     57  C   UNL A   1      42.119  24.538  27.346  1.00  0.00     0.031 A 
ATOM     58  C   UNL A   1      43.457  26.273  26.347  1.00  0.00     0.131 A 
ATOM     59  C   UNL A   1      42.485  23.686  26.293  1.00  0.00     0.055 A 
ATOM     60  C   UNL A   1      43.749  25.449  25.258  1.00  0.00     0.041 A 
ATOM     61  F   UNL A   1      44.005  27.499  26.359  1.00  0.00    -0.206 F 
ATOM     62  C   UNL A   1      43.276  24.141  25.235  1.00  0.00     0.022 A 
BRANCH  59  63
ATOM     63  S   UNL A   1      42.050  21.928  26.406  1.00  0.00     0.124 S 
ATOM     64  O   UNL A   1      42.344  21.640  27.808  1.00  0.00    -0.237 OA
ATOM     65  O   UNL A   1      40.640  21.927  26.036  1.00  0.00    -0.237 OA
ATOM     66  O   UNL A   1      42.949  21.290  25.447  1.00  0.00    -0.744 OA
ENDBRANCH  59  63
ENDBRANCH  42  56
BRANCH  43  67
ATOM     67  C   UNL A   1      40.373  31.850  35.089  1.00  0.00     0.023 A 
ATOM     68  C   UNL A   1      39.412  31.464  36.037  1.00  0.00     0.031 A 
ATOM     69  C   UNL A   1      40.958  33.122  35.225  1.00  0.00     0.131 A 
ATOM     70  C   UNL A   1      39.023  32.361  37.046  1.00  0.00     0.055 A 
ATOM     71  C   UNL A   1      40.609  33.987  36.264  1.00  0.00     0.041 A 
ATOM     72  F   UNL A   1      41.874  33.548  34.341  1.00  0.00    -0.206 F 
ATOM     73  C   UNL A   1      39.625  33.614  37.174  1.00  0.00     0.022 A 
BRANCH  70  74
ATOM     74  S   UNL A   1      37.642  31.904  38.131  1.00  0.00     0.124 S 
ATOM     75  O   UNL A   1      38.238  32.063  39.452  1.00  0.00    -0.237 OA
ATOM     76  O   UNL A   1      36.627  32.886  37.762  1.00  0.00    -0.237 OA
ATOM     77  O   UNL A   1      37.343  30.527  37.741  1.00  0.00    -0.744 OA
ENDBRANCH  70  74
ENDBRANCH  43  67
BRANCH  55  78
ATOM     78  C   UNL A   1      45.528  27.303  33.901  1.00  0.00     0.023 A 
ATOM     79  C   UNL A   1      45.521  26.210  34.786  1.00  0.00     0.031 A 
ATOM     80  C   UNL A   1      46.713  28.055  33.798  1.00  0.00     0.131 A 
ATOM     81  C   UNL A   1      46.648  25.942  35.580  1.00  0.00     0.055 A 
ATOM     82  C   UNL A   1      47.855  27.742  34.537  1.00  0.00     0.041 A 
ATOM     83  F   UNL A   1      46.782  29.114  32.973  1.00  0.00    -0.206 F 
ATOM     84  C   UNL A   1      47.821  26.691  35.447  1.00  0.00     0.022 A 
BRANCH  81  85
ATOM     85  S   UNL A   1      46.525  24.679  36.876  1.00  0.00     0.124 S 
ATOM     86  O   UNL A   1      47.234  23.554  36.273  1.00  0.00    -0.237 OA
ATOM     87  O   UNL A   1      47.193  25.322  38.003  1.00  0.00    -0.237 OA
ATOM     88  O   UNL A   1      45.084  24.490  37.036  1.00  0.00    -0.744 OA
ENDBRANCH  81  85
ENDBRANCH  55  78
ENDBRANCH  29  30
ENDBRANCH  22  24
ENDBRANCH  21  22
ENDBRANCH  20  21
ENDBRANCH  19  20
ENDBRANCH  18  19
ENDBRANCH  17  18
ENDBRANCH   1  17
TORSDOF 24
ENDMDL
MODEL 2
REMARK VINA RESULT:      -8.7      3.305     10.070
REMARK SMILES COC[C@H](C)[C@@](C)(O)C(=O)OCCOCCOCCOC(=O)c1ccc(-c2c3nc(c(-c4cc(S(=O)(=O)[O-])ccc4F)c4ccc([nH]4)c(-c4cc(S(=O)(=O)[O-])ccc4F)c4nc(c(-c5cc(S(=O)(=O)[O-])ccc5F)c5ccc2[nH]5)C=C4)C=C3)cc1
REMARK SMILES IDX 15 1 14 2 13 3 12 4 11 5 9 6 10 7 6 8 7 9 4 10 5 11 3 12
REMARK SMILES IDX 2 13 1 14 8 15 16 17 17 18 18 19 19 20 20 21 21 22 22 23
REMARK SMILES IDX 23 24 24 25 85 26 25 27 84 28 26 29 27 30 28 31 78 32 29 33
REMARK SMILES IDX 83 34 77 35 79 36 30 37 82 38 76 39 75 40 31 42 63 43 43 44
REMARK SMILES IDX 62 45 44 46 47 47 61 48 80 49 45 50 46 51 60 53 81 54 48 55
REMARK SMILES IDX 32 56 33 57 41 58 34 59 40 60 42 61 39 62 35 63 36 64 37 65
REMARK SMILES IDX 38 66 64 67 65 68 73 69 66 70 72 71 74 72 71 73 67 74 68 75
REMARK SMILES IDX 69 76 70 77 49 78 50 79 58 80 51 81 57 82 59 83 56 84 52 85
REMARK SMILES IDX 53 86 54 87 55 88
REMARK H PARENT 8 16 79 41 47 52
REMARK Flexibility Score: inf
ROOT
ATOM      1  C   UNL A   1      35.003  35.166  32.182  1.00  0.00     0.188 C 
ENDROOT
BRANCH   1   2
ATOM      2  O   UNL A   1      35.548  33.884  32.386  1.00  0.00    -0.376 OA
BRANCH   2   3
ATOM      3  C   UNL A   1      36.676  33.476  31.633  1.00  0.00     0.202 C 
BRANCH   3   4
ATOM      4  C   UNL A   1      37.806  34.395  31.118  1.00  0.00     0.261 C 
BRANCH   4   5
ATOM      5  O   UNL A   1      39.106  33.828  30.926  1.00  0.00    -0.461 OA
BRANCH   5   6
ATOM      6  C   UNL A   1      39.957  34.494  30.094  1.00  0.00     0.338 C 
ATOM      7  O   UNL A   1      39.590  35.107  29.097  1.00  0.00    -0.249 OA
BRANCH   6   8
ATOM      8  C   UNL A   1      41.457  34.331  30.513  1.00  0.00     0.163 C 
ATOM      9  C   UNL A   1      41.713  32.814  30.504  1.00  0.00     0.055 C 
BRANCH   8  10
ATOM     10  C   UNL A   1      42.458  35.071  29.566  1.00  0.00     0.055 C 
ATOM     11  C   UNL A   1      43.359  36.089  30.279  1.00  0.00     0.014 C 
BRANCH  10  12
ATOM     12  C   UNL A   1      43.327  34.127  28.709  1.00  0.00     0.166 C 
BRANCH  12  13
ATOM     13  O   UNL A   1      43.999  34.825  27.659  1.00  0.00    -0.384 OA
ATOM     14  C   UNL A   1      45.380  34.505  27.550  1.00  0.00     0.194 C 
ENDBRANCH  12  13
ENDBRANCH  10  12
ENDBRANCH   8  10
BRANCH   8  15
ATOM     15  O   UNL A   1      41.735  34.727  31.861  1.00  0.00    -0.378 OA
ATOM     16  H   UNL A   1      41.235  34.165  32.473  1.00  0.00     0.212 HD
ENDBRANCH   8  15
ENDBRANCH   6   8
ENDBRANCH   5   6
ENDBRANCH   4   5
ENDBRANCH   3   4
ENDBRANCH   2   3
ENDBRANCH   1   2
BRANCH   1  17
ATOM     17  C   UNL A   1      33.862  35.267  31.151  1.00  0.00     0.188 C 
BRANCH  17  18
ATOM     18  O   UNL A   1      34.151  35.313  29.768  1.00  0.00    -0.376 OA
BRANCH  18  19
ATOM     19  C   UNL A   1      33.163  34.924  28.831  1.00  0.00     0.202 C 
BRANCH  19  20
ATOM     20  C   UNL A   1      33.151  33.548  28.139  1.00  0.00     0.261 C 
BRANCH  20  21
ATOM     21  O   UNL A   1      34.017  32.536  28.670  1.00  0.00    -0.460 OA
BRANCH  21  22
ATOM     22  C   UNL A   1      34.145  31.430  27.899  1.00  0.00     0.338 C 
ATOM     23  O   UNL A   1      33.343  31.024  27.062  1.00  0.00    -0.246 OA
BRANCH  22  24
ATOM     24  C   UNL A   1      35.496  30.856  28.051  1.00  0.00     0.060 A 
ATOM     25  C   UNL A   1      35.625  29.460  28.051  1.00  0.00     0.016 A 
ATOM     26  C   UNL A   1      36.612  31.668  28.264  1.00  0.00     0.016 A 
ATOM     27  C   UNL A   1      36.859  28.869  28.313  1.00  0.00     0.010 A 
ATOM     28  C   UNL A   1      37.847  31.071  28.555  1.00  0.00     0.010 A 
ATOM     29  C   UNL A   1      37.965  29.670  28.623  1.00  0.00    -0.014 A 
BRANCH  29  30
ATOM     30  C   UNL A   1      39.153  29.037  29.255  1.00  0.00     0.031 A 
ATOM     31  C   UNL A   1      39.580  29.530  30.614  1.00  0.00     0.074 A 
ATOM     32  C   UNL A   1      39.801  28.007  28.680  1.00  0.00     0.049 A 
ATOM     33  N   UNL A   1      40.570  29.138  31.374  1.00  0.00    -0.248 NA
ATOM     34  C   UNL A   1      38.769  30.612  31.195  1.00  0.00     0.031 C 
ATOM     35  C   UNL A   1      39.440  27.385  27.409  1.00  0.00     0.029 A 
ATOM     36  N   UNL A   1      40.899  27.300  29.103  1.00  0.00    -0.354 N 
ATOM     37  C   UNL A   1      40.505  29.925  32.519  1.00  0.00     0.074 A 
ATOM     38  C   UNL A   1      39.400  30.841  32.336  1.00  0.00     0.031 C 
ATOM     39  C   UNL A   1      40.309  26.392  27.150  1.00  0.00     0.029 A 
ATOM     40  C   UNL A   1      41.305  26.326  28.221  1.00  0.00     0.049 A 
ATOM     41  H   UNL A   1      41.355  27.475  29.959  1.00  0.00     0.167 HD
ATOM     42  C   UNL A   1      41.286  29.882  33.627  1.00  0.00     0.034 A 
ATOM     43  C   UNL A   1      42.364  25.492  28.266  1.00  0.00     0.034 A 
ATOM     44  C   UNL A   1      42.398  28.978  33.792  1.00  0.00     0.049 A 
ATOM     45  C   UNL A   1      43.293  25.542  29.461  1.00  0.00     0.074 A 
ATOM     46  C   UNL A   1      43.252  28.851  34.874  1.00  0.00     0.029 A 
ATOM     47  N   UNL A   1      42.825  28.058  32.842  1.00  0.00    -0.354 N 
ATOM     48  N   UNL A   1      43.217  26.284  30.542  1.00  0.00    -0.248 NA
ATOM     49  C   UNL A   1      44.444  24.630  29.442  1.00  0.00     0.031 C 
ATOM     50  C   UNL A   1      44.242  27.919  34.546  1.00  0.00     0.029 A 
ATOM     51  C   UNL A   1      43.953  27.390  33.298  1.00  0.00     0.049 A 
ATOM     52  H   UNL A   1      42.390  27.902  31.972  1.00  0.00     0.167 HD
ATOM     53  C   UNL A   1      44.283  25.890  31.350  1.00  0.00     0.074 A 
ATOM     54  C   UNL A   1      44.978  24.842  30.635  1.00  0.00     0.031 C 
ATOM     55  C   UNL A   1      44.647  26.346  32.578  1.00  0.00     0.034 A 
BRANCH  42  56
ATOM     56  C   UNL A   1      41.003  30.897  34.710  1.00  0.00     0.023 A 
ATOM     57  C   UNL A   1      39.897  30.779  35.571  1.00  0.00     0.031 A 
ATOM     58  C   UNL A   1      41.826  32.027  34.850  1.00  0.00     0.131 A 
ATOM     59  C   UNL A   1      39.602  31.809  36.476  1.00  0.00     0.055 A 
ATOM     60  C   UNL A   1      41.576  33.008  35.811  1.00  0.00     0.041 A 
ATOM     61  F   UNL A   1      42.882  32.209  34.039  1.00  0.00    -0.206 F 
ATOM     62  C   UNL A   1      40.449  32.910  36.621  1.00  0.00     0.022 A 
BRANCH  59  63
ATOM     63  S   UNL A   1      38.011  31.771  37.348  1.00  0.00     0.124 S 
ATOM     64  O   UNL A   1      38.388  32.255  38.673  1.00  0.00    -0.237 OA
ATOM     65  O   UNL A   1      37.192  32.674  36.547  1.00  0.00    -0.237 OA
ATOM     66  O   UNL A   1      37.624  30.363  37.295  1.00  0.00    -0.744 OA
ENDBRANCH  59  63
ENDBRANCH  42  56
BRANCH  43  67
ATOM     67  C   UNL A   1      42.644  24.550  27.142  1.00  0.00     0.023 A 
ATOM     68  C   UNL A   1      42.097  23.257  27.122  1.00  0.00     0.031 A 
ATOM     69  C   UNL A   1      43.533  24.904  26.110  1.00  0.00     0.131 A 
ATOM     70  C   UNL A   1      42.488  22.346  26.127  1.00  0.00     0.055 A 
ATOM     71  C   UNL A   1      43.873  24.013  25.091  1.00  0.00     0.041 A 
ATOM     72  F   UNL A   1      44.094  26.124  26.085  1.00  0.00    -0.206 F 
ATOM     73  C   UNL A   1      43.361  22.720  25.104  1.00  0.00     0.022 A 
BRANCH  70  74
ATOM     74  S   UNL A   1      41.915  20.628  26.247  1.00  0.00     0.124 S 
ATOM     75  O   UNL A   1      42.339  20.267  27.594  1.00  0.00    -0.237 OA
ATOM     76  O   UNL A   1      40.476  20.772  26.044  1.00  0.00    -0.237 OA
ATOM     77  O   UNL A   1      42.629  19.954  25.165  1.00  0.00    -0.744 OA
ENDBRANCH  70  74
ENDBRANCH  43  67
BRANCH  55  78
ATOM     78  C   UNL A   1      45.814  25.662  33.255  1.00  0.00     0.023 A 
ATOM     79  C   UNL A   1      45.638  24.599  34.160  1.00  0.00     0.031 A 
ATOM     80  C   UNL A   1      47.128  26.097  33.002  1.00  0.00     0.131 A 
ATOM     81  C   UNL A   1      46.748  24.054  34.826  1.00  0.00     0.055 A 
ATOM     82  C   UNL A   1      48.234  25.505  33.614  1.00  0.00     0.041 A 
ATOM     83  F   UNL A   1      47.361  27.110  32.151  1.00  0.00    -0.206 F 
ATOM     84  C   UNL A   1      48.047  24.489  34.546  1.00  0.00     0.022 A 
BRANCH  81  85
ATOM     85  S   UNL A   1      46.466  22.853  36.156  1.00  0.00     0.124 S 
ATOM     86  O   UNL A   1      47.547  23.168  37.085  1.00  0.00    -0.237 OA
ATOM     87  O   UNL A   1      45.120  23.196  36.606  1.00  0.00    -0.237 OA
ATOM     88  O   UNL A   1      46.584  21.560  35.483  1.00  0.00    -0.744 OA
ENDBRANCH  81  85
ENDBRANCH  55  78
ENDBRANCH  29  30
ENDBRANCH  22  24
ENDBRANCH  21  22
ENDBRANCH  20  21
ENDBRANCH  19  20
ENDBRANCH  18  19
ENDBRANCH  17  18
ENDBRANCH   1  17
TORSDOF 24
ENDMDL
MODEL 3
REMARK VINA RESULT:      -8.3      0.959      7.715
REMARK SMILES COC[C@H](C)[C@@](C)(O)C(=O)OCCOCCOCCOC(=O)c1ccc(-c2c3nc(c(-c4cc(S(=O)(=O)[O-])ccc4F)c4ccc([nH]4)c(-c4cc(S(=O)(=O)[O-])ccc4F)c4nc(c(-c5cc(S(=O)(=O)[O-])ccc5F)c5ccc2[nH]5)C=C4)C=C3)cc1
REMARK SMILES IDX 15 1 14 2 13 3 12 4 11 5 9 6 10 7 6 8 7 9 4 10 5 11 3 12
REMARK SMILES IDX 2 13 1 14 8 15 16 17 17 18 18 19 19 20 20 21 21 22 22 23
REMARK SMILES IDX 23 24 24 25 85 26 25 27 84 28 26 29 27 30 28 31 78 32 29 33
REMARK SMILES IDX 83 34 77 35 79 36 30 37 82 38 76 39 75 40 31 42 63 43 43 44
REMARK SMILES IDX 62 45 44 46 47 47 61 48 80 49 45 50 46 51 60 53 81 54 48 55
REMARK SMILES IDX 32 56 33 57 41 58 34 59 40 60 42 61 39 62 35 63 36 64 37 65
REMARK SMILES IDX 38 66 64 67 65 68 73 69 66 70 72 71 74 72 71 73 67 74 68 75
REMARK SMILES IDX 69 76 70 77 49 78 50 79 58 80 51 81 57 82 59 83 56 84 52 85
REMARK SMILES IDX 53 86 54 87 55 88
REMARK H PARENT 8 16 79 41 47 52
REMARK Flexibility Score: inf
ROOT
ATOM      1  C   UNL A   1      32.026  27.028  24.774  1.00  0.00     0.188 C 
ENDROOT
BRANCH   1   2
ATOM      2  O   UNL A   1      32.209  26.568  26.092  1.00  0.00    -0.376 OA
BRANCH   2   3
ATOM      3  C   UNL A   1      31.567  25.377  26.512  1.00  0.00     0.202 C 
BRANCH   3   4
ATOM      4  C   UNL A   1      31.386  24.096  25.670  1.00  0.00     0.261 C 
BRANCH   4   5
ATOM      5  O   UNL A   1      32.238  22.978  25.944  1.00  0.00    -0.461 OA
BRANCH   5   6
ATOM      6  C   UNL A   1      33.416  22.913  25.263  1.00  0.00     0.338 C 
ATOM      7  O   UNL A   1      33.717  23.678  24.352  1.00  0.00    -0.249 OA
BRANCH   6   8
ATOM      8  C   UNL A   1      34.312  21.713  25.723  1.00  0.00     0.163 C 
ATOM      9  C   UNL A   1      33.735  21.281  27.082  1.00  0.00     0.055 C 
BRANCH   8  10
ATOM     10  C   UNL A   1      34.324  20.515  24.716  1.00  0.00     0.055 C 
ATOM     11  C   UNL A   1      35.460  19.510  24.954  1.00  0.00     0.014 C 
BRANCH  10  12
ATOM     12  C   UNL A   1      32.982  19.761  24.621  1.00  0.00     0.166 C 
BRANCH  12  13
ATOM     13  O   UNL A   1      33.169  18.349  24.508  1.00  0.00    -0.384 OA
ATOM     14  C   UNL A   1      32.706  17.617  25.635  1.00  0.00     0.194 C 
ENDBRANCH  12  13
ENDBRANCH  10  12
ENDBRANCH   8  10
BRANCH   8  15
ATOM     15  O   UNL A   1      35.667  22.073  26.014  1.00  0.00    -0.378 OA
ATOM     16  H   UNL A   1      36.123  21.316  26.415  1.00  0.00     0.212 HD
ENDBRANCH   8  15
ENDBRANCH   6   8
ENDBRANCH   5   6
ENDBRANCH   4   5
ENDBRANCH   3   4
ENDBRANCH   2   3
ENDBRANCH   1   2
BRANCH   1  17
ATOM     17  C   UNL A   1      32.814  28.291  24.376  1.00  0.00     0.188 C 
BRANCH  17  18
ATOM     18  O   UNL A   1      32.164  29.545  24.302  1.00  0.00    -0.376 OA
BRANCH  18  19
ATOM     19  C   UNL A   1      31.550  30.086  25.457  1.00  0.00     0.202 C 
BRANCH  19  20
ATOM     20  C   UNL A   1      32.286  30.273  26.797  1.00  0.00     0.261 C 
BRANCH  20  21
ATOM     21  O   UNL A   1      33.711  30.418  26.750  1.00  0.00    -0.460 OA
BRANCH  21  22
ATOM     22  C   UNL A   1      34.213  31.403  27.534  1.00  0.00     0.338 C 
ATOM     23  O   UNL A   1      33.587  32.342  28.019  1.00  0.00    -0.246 OA
BRANCH  22  24
ATOM     24  C   UNL A   1      35.607  31.097  27.909  1.00  0.00     0.060 A 
ATOM     25  C   UNL A   1      36.243  30.023  27.269  1.00  0.00     0.016 A 
ATOM     26  C   UNL A   1      36.259  31.799  28.923  1.00  0.00     0.016 A 
ATOM     27  C   UNL A   1      37.513  29.618  27.673  1.00  0.00     0.010 A 
ATOM     28  C   UNL A   1      37.525  31.373  29.347  1.00  0.00     0.010 A 
ATOM     29  C   UNL A   1      38.137  30.253  28.753  1.00  0.00    -0.014 A 
BRANCH  29  30
ATOM     30  C   UNL A   1      39.297  29.586  29.402  1.00  0.00     0.031 A 
ATOM     31  C   UNL A   1      39.682  30.029  30.792  1.00  0.00     0.074 A 
ATOM     32  C   UNL A   1      39.954  28.569  28.816  1.00  0.00     0.049 A 
ATOM     33  N   UNL A   1      40.641  29.600  31.570  1.00  0.00    -0.248 NA
ATOM     34  C   UNL A   1      38.863  31.099  31.381  1.00  0.00     0.031 C 
ATOM     35  C   UNL A   1      39.631  27.994  27.513  1.00  0.00     0.029 A 
ATOM     36  N   UNL A   1      41.030  27.836  29.251  1.00  0.00    -0.354 N 
ATOM     37  C   UNL A   1      40.545  30.348  32.739  1.00  0.00     0.074 A 
ATOM     38  C   UNL A   1      39.456  31.282  32.549  1.00  0.00     0.031 C 
ATOM     39  C   UNL A   1      40.499  27.000  27.250  1.00  0.00     0.029 A 
ATOM     40  C   UNL A   1      41.457  26.888  28.351  1.00  0.00     0.049 A 
ATOM     41  H   UNL A   1      41.458  27.977  30.127  1.00  0.00     0.167 HD
ATOM     42  C   UNL A   1      41.287  30.260  33.870  1.00  0.00     0.034 A 
ATOM     43  C   UNL A   1      42.505  26.041  28.404  1.00  0.00     0.034 A 
ATOM     44  C   UNL A   1      42.384  29.339  34.042  1.00  0.00     0.049 A 
ATOM     45  C   UNL A   1      43.393  26.041  29.630  1.00  0.00     0.074 A 
ATOM     46  C   UNL A   1      43.199  29.166  35.148  1.00  0.00     0.029 A 
ATOM     47  N   UNL A   1      42.834  28.446  33.077  1.00  0.00    -0.354 N 
ATOM     48  N   UNL A   1      43.287  26.747  30.733  1.00  0.00    -0.248 NA
ATOM     49  C   UNL A   1      44.535  25.117  29.619  1.00  0.00     0.031 C 
ATOM     50  C   UNL A   1      44.191  28.235  34.822  1.00  0.00     0.029 A 
ATOM     51  C   UNL A   1      43.939  27.751  33.548  1.00  0.00     0.049 A 
ATOM     52  H   UNL A   1      42.428  28.324  32.188  1.00  0.00     0.167 HD
ATOM     53  C   UNL A   1      44.321  26.315  31.562  1.00  0.00     0.074 A 
ATOM     54  C   UNL A   1      45.030  25.283  30.836  1.00  0.00     0.031 C 
ATOM     55  C   UNL A   1      44.647  26.725  32.817  1.00  0.00     0.034 A 
BRANCH  42  56
ATOM     56  C   UNL A   1      40.977  31.241  34.977  1.00  0.00     0.023 A 
ATOM     57  C   UNL A   1      39.840  31.107  35.795  1.00  0.00     0.031 A 
ATOM     58  C   UNL A   1      41.807  32.356  35.184  1.00  0.00     0.131 A 
ATOM     59  C   UNL A   1      39.525  32.109  36.724  1.00  0.00     0.055 A 
ATOM     60  C   UNL A   1      41.534  33.307  36.170  1.00  0.00     0.041 A 
ATOM     61  F   UNL A   1      42.892  32.553  34.418  1.00  0.00    -0.206 F 
ATOM     62  C   UNL A   1      40.378  33.195  36.935  1.00  0.00     0.022 A 
BRANCH  59  63
ATOM     63  S   UNL A   1      37.904  32.060  37.539  1.00  0.00     0.124 S 
ATOM     64  O   UNL A   1      38.207  32.656  38.837  1.00  0.00    -0.237 OA
ATOM     65  O   UNL A   1      37.078  32.863  36.644  1.00  0.00    -0.237 OA
ATOM     66  O   UNL A   1      37.582  30.635  37.577  1.00  0.00    -0.744 OA
ENDBRANCH  59  63
ENDBRANCH  42  56
BRANCH  43  67
ATOM     67  C   UNL A   1      42.814  25.135  27.258  1.00  0.00     0.023 A 
ATOM     68  C   UNL A   1      42.282  23.837  27.192  1.00  0.00     0.031 A 
ATOM     69  C   UNL A   1      43.717  25.527  26.252  1.00  0.00     0.131 A 
ATOM     70  C   UNL A   1      42.699  22.959  26.179  1.00  0.00     0.055 A 
ATOM     71  C   UNL A   1      44.083  24.669  25.214  1.00  0.00     0.041 A 
ATOM     72  F   UNL A   1      44.265  26.753  26.271  1.00  0.00    -0.206 F 
ATOM     73  C   UNL A   1      43.585  23.371  25.181  1.00  0.00     0.022 A 
BRANCH  70  74
ATOM     74  S   UNL A   1      42.143  21.232  26.240  1.00  0.00     0.124 S 
ATOM     75  O   UNL A   1      42.356  20.902  27.644  1.00  0.00    -0.237 OA
ATOM     76  O   UNL A   1      40.752  21.346  25.811  1.00  0.00    -0.237 OA
ATOM     77  O   UNL A   1      43.030  20.555  25.297  1.00  0.00    -0.744 OA
ENDBRANCH  70  74
ENDBRANCH  43  67
BRANCH  55  78
ATOM     78  C   UNL A   1      45.784  26.005  33.510  1.00  0.00     0.023 A 
ATOM     79  C   UNL A   1      45.596  24.791  34.194  1.00  0.00     0.031 A 
ATOM     80  C   UNL A   1      47.077  26.558  33.498  1.00  0.00     0.131 A 
ATOM     81  C   UNL A   1      46.665  24.207  34.893  1.00  0.00     0.055 A 
ATOM     82  C   UNL A   1      48.153  25.938  34.135  1.00  0.00     0.041 A 
ATOM     83  F   UNL A   1      47.320  27.718  32.865  1.00  0.00    -0.206 F 
ATOM     84  C   UNL A   1      47.947  24.764  34.853  1.00  0.00     0.022 A 
BRANCH  81  85
ATOM     85  S   UNL A   1      46.336  22.775  35.957  1.00  0.00     0.124 S 
ATOM     86  O   UNL A   1      44.886  22.842  36.118  1.00  0.00    -0.237 OA
ATOM     87  O   UNL A   1      46.836  21.666  35.151  1.00  0.00    -0.237 OA
ATOM     88  O   UNL A   1      47.108  23.059  37.166  1.00  0.00    -0.744 OA
ENDBRANCH  81  85
ENDBRANCH  55  78
ENDBRANCH  29  30
ENDBRANCH  22  24
ENDBRANCH  21  22
ENDBRANCH  20  21
ENDBRANCH  19  20
ENDBRANCH  18  19
ENDBRANCH  17  18
ENDBRANCH   1  17
TORSDOF 24
ENDMDL
