MODEL 1
REMARK VINA RESULT:     -10.5      0.000      0.000
REMARK SMILES [NH3+]Cc1c(-c2ccccc2)c(C(=O)OCCOCCOCCOC(=O)c2ccc(-c3c4nc(c(-c5cc(S(=O)(=O)[O-])ccc5F)c5ccc([nH]5)c(-c5cc(S(=O)(=O)[O-])ccc5F)c5nc(c(-c6cc(S(=O)(=O)[O-])ccc6F)c6ccc3[nH]6)C=C5)C=C4)cc2)c2ccccn12
REMARK SMILES IDX 19 1 18 2 17 3 16 4 15 5 14 6 12 7 13 8 11 9 3 10 4 11 94 12
REMARK SMILES IDX 89 13 93 14 90 15 92 16 91 17 2 18 1 19 5 23 6 24 10 25 7 26
REMARK SMILES IDX 9 27 8 28 20 29 21 30 22 31 23 32 24 33 25 34 26 35 27 36
REMARK SMILES IDX 88 37 28 38 87 39 29 40 30 41 31 42 81 43 32 44 86 45 80 46
REMARK SMILES IDX 82 47 33 48 85 49 79 50 78 51 34 53 66 54 46 55 65 56 47 57
REMARK SMILES IDX 50 58 64 59 83 60 48 61 49 62 63 64 84 65 51 66 35 67 36 68
REMARK SMILES IDX 44 69 37 70 43 71 45 72 42 73 38 74 39 75 40 76 41 77 67 78
REMARK SMILES IDX 68 79 76 80 69 81 75 82 77 83 74 84 70 85 71 86 72 87 73 88
REMARK SMILES IDX 52 89 53 90 61 91 54 92 60 93 62 94 59 95 55 96 56 97 57 98
REMARK SMILES IDX 58 99
REMARK H PARENT 1 20 1 21 1 22 82 52 50 63
REMARK Flexibility Score: inf
ROOT
ATOM      1  C   UNL A   1      32.850  28.753  26.233  1.00  0.00     0.188 C 
ENDROOT
BRANCH   1   2
ATOM      2  C   UNL A   1      33.198  27.396  25.601  1.00  0.00     0.188 C 
BRANCH   2   3
ATOM      3  O   UNL A   1      34.209  27.486  24.598  1.00  0.00    -0.376 OA
BRANCH   3   4
ATOM      4  C   UNL A   1      34.057  28.581  23.698  1.00  0.00     0.202 C 
BRANCH   4   5
ATOM      5  C   UNL A   1      33.871  28.085  22.265  1.00  0.00     0.261 C 
BRANCH   5   6
ATOM      6  O   UNL A   1      34.097  26.676  22.116  1.00  0.00    -0.460 OA
BRANCH   6   7
ATOM      7  C   UNL A   1      33.065  25.938  21.622  1.00  0.00     0.341 C 
ATOM      8  O   UNL A   1      33.023  25.532  20.465  1.00  0.00    -0.246 OA
BRANCH   7   9
ATOM      9  C   UNL A   1      32.058  25.633  22.639  1.00  0.00     0.093 A 
ATOM     10  C   UNL A   1      30.994  24.654  24.433  1.00  0.00     0.086 A 
ATOM     11  C   UNL A   1      32.107  24.568  23.600  1.00  0.00     0.024 A 
ATOM     12  N   UNL A   1      30.229  25.725  23.967  1.00  0.00    -0.314 N 
ATOM     13  C   UNL A   1      30.908  26.350  22.918  1.00  0.00     0.061 A 
ATOM     14  C   UNL A   1      28.992  26.199  24.429  1.00  0.00     0.092 A 
ATOM     15  C   UNL A   1      30.330  27.537  22.370  1.00  0.00     0.027 A 
ATOM     16  C   UNL A   1      28.441  27.295  23.883  1.00  0.00     0.018 A 
ATOM     17  C   UNL A   1      29.153  27.992  22.835  1.00  0.00     0.004 A 
BRANCH  10  18
ATOM     18  C   UNL A   1      30.615  23.913  25.681  1.00  0.00     0.315 C 
BRANCH  18  19
ATOM     19  N   UNL A   1      31.333  24.354  26.860  1.00  0.00    -0.353 N 
ATOM     20  H   UNL A   1      31.650  23.541  27.389  1.00  0.00     0.344 HD
ATOM     21  H   UNL A   1      30.716  24.919  27.443  1.00  0.00     0.344 HD
ATOM     22  H   UNL A   1      32.141  24.910  26.578  1.00  0.00     0.344 HD
ENDBRANCH  18  19
ENDBRANCH  10  18
BRANCH  11  23
ATOM     23  C   UNL A   1      33.251  23.700  23.804  1.00  0.00    -0.015 A 
ATOM     24  C   UNL A   1      33.097  22.337  23.540  1.00  0.00     0.009 A 
ATOM     25  C   UNL A   1      34.407  24.160  24.437  1.00  0.00     0.009 A 
ATOM     26  C   UNL A   1      34.033  21.429  24.016  1.00  0.00     0.001 A 
ATOM     27  C   UNL A   1      35.390  23.251  24.831  1.00  0.00     0.001 A 
ATOM     28  C   UNL A   1      35.185  21.884  24.650  1.00  0.00     0.000 A 
ENDBRANCH  11  23
ENDBRANCH   7   9
ENDBRANCH   6   7
ENDBRANCH   5   6
ENDBRANCH   4   5
ENDBRANCH   3   4
ENDBRANCH   2   3
ENDBRANCH   1   2
BRANCH   1  29
ATOM     29  O   UNL A   1      31.522  29.265  26.130  1.00  0.00    -0.376 OA
BRANCH  29  30
ATOM     30  C   UNL A   1      31.311  30.495  25.458  1.00  0.00     0.202 C 
BRANCH  30  31
ATOM     31  C   UNL A   1      31.418  31.767  26.302  1.00  0.00     0.261 C 
BRANCH  31  32
ATOM     32  O   UNL A   1      32.303  31.649  27.426  1.00  0.00    -0.460 OA
BRANCH  32  33
ATOM     33  C   UNL A   1      33.214  32.649  27.532  1.00  0.00     0.338 C 
ATOM     34  O   UNL A   1      33.013  33.841  27.368  1.00  0.00    -0.246 OA
BRANCH  33  35
ATOM     35  C   UNL A   1      34.513  32.115  27.997  1.00  0.00     0.060 A 
ATOM     36  C   UNL A   1      34.562  30.773  28.392  1.00  0.00     0.016 A 
ATOM     37  C   UNL A   1      35.642  32.930  28.129  1.00  0.00     0.016 A 
ATOM     38  C   UNL A   1      35.728  30.252  28.956  1.00  0.00     0.010 A 
ATOM     39  C   UNL A   1      36.804  32.410  28.715  1.00  0.00     0.010 A 
ATOM     40  C   UNL A   1      36.843  31.078  29.160  1.00  0.00    -0.014 A 
BRANCH  40  41
ATOM     41  C   UNL A   1      37.987  30.576  29.966  1.00  0.00     0.031 A 
ATOM     42  C   UNL A   1      38.976  29.649  29.327  1.00  0.00     0.074 A 
ATOM     43  C   UNL A   1      38.163  30.961  31.241  1.00  0.00     0.049 A 
ATOM     44  N   UNL A   1      40.045  29.103  29.843  1.00  0.00    -0.248 NA
ATOM     45  C   UNL A   1      38.712  29.277  27.931  1.00  0.00     0.031 C 
ATOM     46  C   UNL A   1      37.264  31.850  31.956  1.00  0.00     0.029 A 
ATOM     47  N   UNL A   1      39.142  30.674  32.157  1.00  0.00    -0.354 N 
ATOM     48  C   UNL A   1      40.586  28.315  28.836  1.00  0.00     0.074 A 
ATOM     49  C   UNL A   1      39.709  28.439  27.689  1.00  0.00     0.031 C 
ATOM     50  C   UNL A   1      37.745  32.078  33.186  1.00  0.00     0.029 A 
ATOM     51  C   UNL A   1      38.964  31.300  33.370  1.00  0.00     0.049 A 
ATOM     52  H   UNL A   1      39.902  30.077  31.966  1.00  0.00     0.167 HD
ATOM     53  C   UNL A   1      41.708  27.553  28.871  1.00  0.00     0.034 A 
ATOM     54  C   UNL A   1      39.684  31.238  34.508  1.00  0.00     0.034 A 
ATOM     55  C   UNL A   1      42.546  27.408  30.037  1.00  0.00     0.049 A 
ATOM     56  C   UNL A   1      40.898  30.349  34.538  1.00  0.00     0.074 A 
ATOM     57  C   UNL A   1      43.693  26.649  30.186  1.00  0.00     0.029 A 
ATOM     58  N   UNL A   1      42.316  28.021  31.264  1.00  0.00    -0.354 N 
ATOM     59  N   UNL A   1      41.399  29.606  33.576  1.00  0.00    -0.248 NA
ATOM     60  C   UNL A   1      41.637  30.275  35.804  1.00  0.00     0.031 C 
ATOM     61  C   UNL A   1      44.120  26.752  31.516  1.00  0.00     0.029 A 
ATOM     62  C   UNL A   1      43.282  27.632  32.182  1.00  0.00     0.049 A 
ATOM     63  H   UNL A   1      41.576  28.641  31.454  1.00  0.00     0.167 HD
ATOM     64  C   UNL A   1      42.514  28.981  34.123  1.00  0.00     0.074 A 
ATOM     65  C   UNL A   1      42.630  29.457  35.487  1.00  0.00     0.031 C 
ATOM     66  C   UNL A   1      43.364  28.091  33.549  1.00  0.00     0.034 A 
BRANCH  53  67
ATOM     67  C   UNL A   1      42.027  26.768  27.626  1.00  0.00     0.023 A 
ATOM     68  C   UNL A   1      41.714  25.402  27.514  1.00  0.00     0.031 A 
ATOM     69  C   UNL A   1      42.725  27.376  26.567  1.00  0.00     0.131 A 
ATOM     70  C   UNL A   1      42.169  24.670  26.407  1.00  0.00     0.055 A 
ATOM     71  C   UNL A   1      43.105  26.659  25.431  1.00  0.00     0.041 A 
ATOM     72  F   UNL A   1      43.074  28.670  26.632  1.00  0.00    -0.206 F 
ATOM     73  C   UNL A   1      42.844  25.294  25.354  1.00  0.00     0.022 A 
BRANCH  70  74
ATOM     74  S   UNL A   1      42.008  22.864  26.437  1.00  0.00     0.124 S 
ATOM     75  O   UNL A   1      42.461  22.505  25.094  1.00  0.00    -0.237 OA
ATOM     76  O   UNL A   1      42.894  22.486  27.533  1.00  0.00    -0.237 OA
ATOM     77  O   UNL A   1      40.584  22.650  26.684  1.00  0.00    -0.744 OA
ENDBRANCH  70  74
ENDBRANCH  53  67
BRANCH  54  78
ATOM     78  C   UNL A   1      39.257  31.992  35.724  1.00  0.00     0.023 A 
ATOM     79  C   UNL A   1      38.472  31.386  36.718  1.00  0.00     0.031 A 
ATOM     80  C   UNL A   1      39.597  33.347  35.889  1.00  0.00     0.131 A 
ATOM     81  C   UNL A   1      38.023  32.143  37.814  1.00  0.00     0.055 A 
ATOM     82  C   UNL A   1      39.192  34.081  37.005  1.00  0.00     0.041 A 
ATOM     83  F   UNL A   1      40.345  33.976  34.970  1.00  0.00    -0.206 F 
ATOM     84  C   UNL A   1      38.389  33.482  37.969  1.00  0.00     0.022 A 
BRANCH  81  85
ATOM     85  S   UNL A   1      36.886  31.374  39.001  1.00  0.00     0.124 S 
ATOM     86  O   UNL A   1      37.671  31.408  40.230  1.00  0.00    -0.237 OA
ATOM     87  O   UNL A   1      35.738  32.272  38.945  1.00  0.00    -0.237 OA
ATOM     88  O   UNL A   1      36.660  30.043  38.442  1.00  0.00    -0.744 OA
ENDBRANCH  81  85
ENDBRANCH  54  78
BRANCH  66  89
ATOM     89  C   UNL A   1      44.501  27.596  34.407  1.00  0.00     0.023 A 
ATOM     90  C   UNL A   1      44.412  26.390  35.125  1.00  0.00     0.031 A 
ATOM     91  C   UNL A   1      45.679  28.354  34.527  1.00  0.00     0.131 A 
ATOM     92  C   UNL A   1      45.459  26.004  35.975  1.00  0.00     0.055 A 
ATOM     93  C   UNL A   1      46.740  27.938  35.332  1.00  0.00     0.041 A 
ATOM     94  F   UNL A   1      45.814  29.515  33.866  1.00  0.00    -0.206 F 
ATOM     95  C   UNL A   1      46.629  26.763  36.071  1.00  0.00     0.022 A 
BRANCH  92  96
ATOM     96  S   UNL A   1      45.240  24.537  37.020  1.00  0.00     0.124 S 
ATOM     97  O   UNL A   1      44.802  25.126  38.281  1.00  0.00    -0.237 OA
ATOM     98  O   UNL A   1      44.231  23.779  36.286  1.00  0.00    -0.237 OA
ATOM     99  O   UNL A   1      46.571  23.933  37.046  1.00  0.00    -0.744 OA
ENDBRANCH  92  96
ENDBRANCH  66  89
ENDBRANCH  40  41
ENDBRANCH  33  35
ENDBRANCH  32  33
ENDBRANCH  31  32
ENDBRANCH  30  31
ENDBRANCH  29  30
ENDBRANCH   1  29
TORSDOF 23
ENDMDL
MODEL 2
REMARK VINA RESULT:     -10.1      2.581      8.500
REMARK SMILES [NH3+]Cc1c(-c2ccccc2)c(C(=O)OCCOCCOCCOC(=O)c2ccc(-c3c4nc(c(-c5cc(S(=O)(=O)[O-])ccc5F)c5ccc([nH]5)c(-c5cc(S(=O)(=O)[O-])ccc5F)c5nc(c(-c6cc(S(=O)(=O)[O-])ccc6F)c6ccc3[nH]6)C=C5)C=C4)cc2)c2ccccn12
REMARK SMILES IDX 19 1 18 2 17 3 16 4 15 5 14 6 12 7 13 8 11 9 3 10 4 11 94 12
REMARK SMILES IDX 89 13 93 14 90 15 92 16 91 17 2 18 1 19 5 23 6 24 10 25 7 26
REMARK SMILES IDX 9 27 8 28 20 29 21 30 22 31 23 32 24 33 25 34 26 35 27 36
REMARK SMILES IDX 88 37 28 38 87 39 29 40 30 41 31 42 81 43 32 44 86 45 80 46
REMARK SMILES IDX 82 47 33 48 85 49 79 50 78 51 34 53 66 54 46 55 65 56 47 57
REMARK SMILES IDX 50 58 64 59 83 60 48 61 49 62 63 64 84 65 51 66 35 67 36 68
REMARK SMILES IDX 44 69 37 70 43 71 45 72 42 73 38 74 39 75 40 76 41 77 67 78
REMARK SMILES IDX 68 79 76 80 69 81 75 82 77 83 74 84 70 85 71 86 72 87 73 88
REMARK SMILES IDX 52 89 53 90 61 91 54 92 60 93 62 94 59 95 55 96 56 97 57 98
REMARK SMILES IDX 58 99
REMARK H PARENT 1 20 1 21 1 22 82 52 50 63
REMARK Flexibility Score: inf
ROOT
ATOM      1  C   UNL A   1      34.724  32.460  28.340  1.00  0.00     0.188 C 
ENDROOT
BRANCH   1   2
ATOM      2  C   UNL A   1      35.387  31.147  27.894  1.00  0.00     0.188 C 
BRANCH   2   3
ATOM      3  O   UNL A   1      34.491  30.267  27.217  1.00  0.00    -0.376 OA
BRANCH   3   4
ATOM      4  C   UNL A   1      33.122  30.656  27.270  1.00  0.00     0.202 C 
BRANCH   4   5
ATOM      5  C   UNL A   1      32.231  29.604  26.610  1.00  0.00     0.261 C 
BRANCH   5   6
ATOM      6  O   UNL A   1      32.751  28.271  26.714  1.00  0.00    -0.460 OA
BRANCH   6   7
ATOM      7  C   UNL A   1      31.875  27.252  26.492  1.00  0.00     0.341 C 
ATOM      8  O   UNL A   1      30.939  26.998  27.242  1.00  0.00    -0.246 OA
BRANCH   7   9
ATOM      9  C   UNL A   1      32.141  26.549  25.237  1.00  0.00     0.093 A 
ATOM     10  C   UNL A   1      32.006  25.887  23.035  1.00  0.00     0.086 A 
ATOM     11  C   UNL A   1      31.398  26.667  24.015  1.00  0.00     0.024 A 
ATOM     12  N   UNL A   1      33.085  25.246  23.646  1.00  0.00    -0.314 N 
ATOM     13  C   UNL A   1      33.197  25.697  24.964  1.00  0.00     0.061 A 
ATOM     14  C   UNL A   1      33.988  24.319  23.106  1.00  0.00     0.092 A 
ATOM     15  C   UNL A   1      34.310  25.229  25.730  1.00  0.00     0.027 A 
ATOM     16  C   UNL A   1      35.010  23.859  23.847  1.00  0.00     0.018 A 
ATOM     17  C   UNL A   1      35.179  24.354  25.195  1.00  0.00     0.004 A 
BRANCH  10  18
ATOM     18  C   UNL A   1      31.756  25.753  21.561  1.00  0.00     0.315 C 
BRANCH  18  19
ATOM     19  N   UNL A   1      32.768  26.387  20.740  1.00  0.00    -0.353 N 
ATOM     20  H   UNL A   1      33.515  25.719  20.546  1.00  0.00     0.344 HD
ATOM     21  H   UNL A   1      33.153  27.192  21.233  1.00  0.00     0.344 HD
ATOM     22  H   UNL A   1      32.350  26.693  19.861  1.00  0.00     0.344 HD
ENDBRANCH  18  19
ENDBRANCH  10  18
BRANCH  11  23
ATOM     23  C   UNL A   1      30.333  27.626  23.793  1.00  0.00    -0.015 A 
ATOM     24  C   UNL A   1      29.018  27.155  23.780  1.00  0.00     0.009 A 
ATOM     25  C   UNL A   1      30.607  28.937  23.400  1.00  0.00     0.009 A 
ATOM     26  C   UNL A   1      28.003  27.948  23.262  1.00  0.00     0.001 A 
ATOM     27  C   UNL A   1      29.568  29.762  22.966  1.00  0.00     0.001 A 
ATOM     28  C   UNL A   1      28.273  29.255  22.865  1.00  0.00     0.000 A 
ENDBRANCH  11  23
ENDBRANCH   7   9
ENDBRANCH   6   7
ENDBRANCH   5   6
ENDBRANCH   4   5
ENDBRANCH   3   4
ENDBRANCH   2   3
ENDBRANCH   1   2
BRANCH   1  29
ATOM     29  O   UNL A   1      35.179  33.702  27.805  1.00  0.00    -0.376 OA
BRANCH  29  30
ATOM     30  C   UNL A   1      34.378  34.859  27.976  1.00  0.00     0.202 C 
BRANCH  30  31
ATOM     31  C   UNL A   1      33.329  34.810  29.090  1.00  0.00     0.261 C 
BRANCH  31  32
ATOM     32  O   UNL A   1      33.568  35.738  30.158  1.00  0.00    -0.460 OA
BRANCH  32  33
ATOM     33  C   UNL A   1      33.181  35.298  31.383  1.00  0.00     0.338 C 
ATOM     34  O   UNL A   1      32.053  35.325  31.845  1.00  0.00    -0.246 OA
BRANCH  33  35
ATOM     35  C   UNL A   1      34.316  34.655  32.079  1.00  0.00     0.060 A 
ATOM     36  C   UNL A   1      35.568  35.275  31.999  1.00  0.00     0.016 A 
ATOM     37  C   UNL A   1      34.181  33.422  32.726  1.00  0.00     0.016 A 
ATOM     38  C   UNL A   1      36.695  34.647  32.530  1.00  0.00     0.010 A 
ATOM     39  C   UNL A   1      35.318  32.783  33.240  1.00  0.00     0.010 A 
ATOM     40  C   UNL A   1      36.585  33.378  33.118  1.00  0.00    -0.014 A 
BRANCH  40  41
ATOM     41  C   UNL A   1      37.818  32.625  33.468  1.00  0.00     0.031 A 
ATOM     42  C   UNL A   1      38.502  32.914  34.769  1.00  0.00     0.074 A 
ATOM     43  C   UNL A   1      38.310  31.675  32.655  1.00  0.00     0.049 A 
ATOM     44  N   UNL A   1      39.578  32.370  35.273  1.00  0.00    -0.248 NA
ATOM     45  C   UNL A   1      37.902  33.966  35.601  1.00  0.00     0.031 C 
ATOM     46  C   UNL A   1      37.729  31.320  31.371  1.00  0.00     0.029 A 
ATOM     47  N   UNL A   1      39.385  30.833  32.775  1.00  0.00    -0.354 N 
ATOM     48  C   UNL A   1      39.793  33.015  36.483  1.00  0.00     0.074 A 
ATOM     49  C   UNL A   1      38.745  34.007  36.622  1.00  0.00     0.031 C 
ATOM     50  C   UNL A   1      38.420  30.305  30.833  1.00  0.00     0.029 A 
ATOM     51  C   UNL A   1      39.537  29.974  31.710  1.00  0.00     0.049 A 
ATOM     52  H   UNL A   1      39.993  30.842  33.550  1.00  0.00     0.167 HD
ATOM     53  C   UNL A   1      40.779  32.803  37.390  1.00  0.00     0.034 A 
ATOM     54  C   UNL A   1      40.477  29.043  31.456  1.00  0.00     0.034 A 
ATOM     55  C   UNL A   1      41.839  31.840  37.215  1.00  0.00     0.049 A 
ATOM     56  C   UNL A   1      41.588  28.858  32.455  1.00  0.00     0.074 A 
ATOM     57  C   UNL A   1      42.896  31.557  38.062  1.00  0.00     0.029 A 
ATOM     58  N   UNL A   1      41.990  31.014  36.106  1.00  0.00    -0.354 N 
ATOM     59  N   UNL A   1      41.780  29.478  33.597  1.00  0.00    -0.248 NA
ATOM     60  C   UNL A   1      42.616  27.862  32.128  1.00  0.00     0.031 C 
ATOM     61  C   UNL A   1      43.718  30.608  37.439  1.00  0.00     0.029 A 
ATOM     62  C   UNL A   1      43.138  30.245  36.234  1.00  0.00     0.049 A 
ATOM     63  H   UNL A   1      41.371  30.979  35.342  1.00  0.00     0.167 HD
ATOM     64  C   UNL A   1      42.949  28.943  34.126  1.00  0.00     0.074 A 
ATOM     65  C   UNL A   1      43.401  27.930  33.193  1.00  0.00     0.031 C 
ATOM     66  C   UNL A   1      43.592  29.262  35.278  1.00  0.00     0.034 A 
BRANCH  53  67
ATOM     67  C   UNL A   1      40.778  33.693  38.605  1.00  0.00     0.023 A 
ATOM     68  C   UNL A   1      39.933  33.445  39.702  1.00  0.00     0.031 A 
ATOM     69  C   UNL A   1      41.577  34.850  38.635  1.00  0.00     0.131 A 
ATOM     70  C   UNL A   1      39.846  34.382  40.742  1.00  0.00     0.055 A 
ATOM     71  C   UNL A   1      41.544  35.738  39.711  1.00  0.00     0.041 A 
ATOM     72  F   UNL A   1      42.381  35.151  37.603  1.00  0.00    -0.206 F 
ATOM     73  C   UNL A   1      40.662  35.516  40.765  1.00  0.00     0.022 A 
BRANCH  70  74
ATOM     74  S   UNL A   1      38.539  34.180  41.983  1.00  0.00     0.124 S 
ATOM     75  O   UNL A   1      37.901  35.495  41.957  1.00  0.00    -0.237 OA
ATOM     76  O   UNL A   1      37.754  33.077  41.438  1.00  0.00    -0.237 OA
ATOM     77  O   UNL A   1      39.273  33.877  43.209  1.00  0.00    -0.744 OA
ENDBRANCH  70  74
ENDBRANCH  53  67
BRANCH  54  78
ATOM     78  C   UNL A   1      40.446  28.252  30.190  1.00  0.00     0.023 A 
ATOM     79  C   UNL A   1      41.360  28.502  29.153  1.00  0.00     0.031 A 
ATOM     80  C   UNL A   1      39.472  27.259  29.983  1.00  0.00     0.131 A 
ATOM     81  C   UNL A   1      41.258  27.792  27.944  1.00  0.00     0.055 A 
ATOM     82  C   UNL A   1      39.406  26.521  28.800  1.00  0.00     0.041 A 
ATOM     83  F   UNL A   1      38.573  26.979  30.940  1.00  0.00    -0.206 F 
ATOM     84  C   UNL A   1      40.295  26.795  27.767  1.00  0.00     0.022 A 
BRANCH  81  85
ATOM     85  S   UNL A   1      42.355  28.243  26.570  1.00  0.00     0.124 S 
ATOM     86  O   UNL A   1      41.669  27.641  25.432  1.00  0.00    -0.237 OA
ATOM     87  O   UNL A   1      42.337  29.701  26.635  1.00  0.00    -0.237 OA
ATOM     88  O   UNL A   1      43.626  27.622  26.933  1.00  0.00    -0.744 OA
ENDBRANCH  81  85
ENDBRANCH  54  78
BRANCH  66  89
ATOM     89  C   UNL A   1      44.847  28.485  35.588  1.00  0.00     0.023 A 
ATOM     90  C   UNL A   1      44.802  27.234  36.227  1.00  0.00     0.031 A 
ATOM     91  C   UNL A   1      46.107  29.018  35.261  1.00  0.00     0.131 A 
ATOM     92  C   UNL A   1      45.994  26.580  36.570  1.00  0.00     0.055 A 
ATOM     93  C   UNL A   1      47.289  28.338  35.555  1.00  0.00     0.041 A 
ATOM     94  F   UNL A   1      46.207  30.211  34.653  1.00  0.00    -0.206 F 
ATOM     95  C   UNL A   1      47.238  27.118  36.224  1.00  0.00     0.022 A 
BRANCH  92  96
ATOM     96  S   UNL A   1      45.905  25.056  37.549  1.00  0.00     0.124 S 
ATOM     97  O   UNL A   1      45.826  24.033  36.512  1.00  0.00    -0.237 OA
ATOM     98  O   UNL A   1      47.151  25.098  38.308  1.00  0.00    -0.237 OA
ATOM     99  O   UNL A   1      44.690  25.229  38.343  1.00  0.00    -0.744 OA
ENDBRANCH  92  96
ENDBRANCH  66  89
ENDBRANCH  40  41
ENDBRANCH  33  35
ENDBRANCH  32  33
ENDBRANCH  31  32
ENDBRANCH  30  31
ENDBRANCH  29  30
ENDBRANCH   1  29
TORSDOF 23
ENDMDL
MODEL 3
REMARK VINA RESULT:      -9.9      2.471      3.752
REMARK SMILES [NH3+]Cc1c(-c2ccccc2)c(C(=O)OCCOCCOCCOC(=O)c2ccc(-c3c4nc(c(-c5cc(S(=O)(=O)[O-])ccc5F)c5ccc([nH]5)c(-c5cc(S(=O)(=O)[O-])ccc5F)c5nc(c(-c6cc(S(=O)(=O)[O-])ccc6F)c6ccc3[nH]6)C=C5)C=C4)cc2)c2ccccn12
REMARK SMILES IDX 19 1 18 2 17 3 16 4 15 5 14 6 12 7 13 8 11 9 3 10 4 11 94 12
REMARK SMILES IDX 89 13 93 14 90 15 92 16 91 17 2 18 1 19 5 23 6 24 10 25 7 26
REMARK SMILES IDX 9 27 8 28 20 29 21 30 22 31 23 32 24 33 25 34 26 35 27 36
REMARK SMILES IDX 88 37 28 38 87 39 29 40 30 41 31 42 81 43 32 44 86 45 80 46
REMARK SMILES IDX 82 47 33 48 85 49 79 50 78 51 34 53 66 54 46 55 65 56 47 57
REMARK SMILES IDX 50 58 64 59 83 60 48 61 49 62 63 64 84 65 51 66 35 67 36 68
REMARK SMILES IDX 44 69 37 70 43 71 45 72 42 73 38 74 39 75 40 76 41 77 67 78
REMARK SMILES IDX 68 79 76 80 69 81 75 82 77 83 74 84 70 85 71 86 72 87 73 88
REMARK SMILES IDX 52 89 53 90 61 91 54 92 60 93 62 94 59 95 55 96 56 97 57 98
REMARK SMILES IDX 58 99
REMARK H PARENT 1 20 1 21 1 22 82 52 50 63
REMARK Flexibility Score: inf
ROOT
ATOM      1  C   UNL A   1      32.445  29.736  25.579  1.00  0.00     0.188 C 
ENDROOT
BRANCH   1   2
ATOM      2  C   UNL A   1      33.828  29.066  25.516  1.00  0.00     0.188 C 
BRANCH   2   3
ATOM      3  O   UNL A   1      33.902  28.019  24.550  1.00  0.00    -0.376 OA
BRANCH   3   4
ATOM      4  C   UNL A   1      32.988  28.147  23.464  1.00  0.00     0.202 C 
BRANCH   4   5
ATOM      5  C   UNL A   1      33.457  27.331  22.261  1.00  0.00     0.261 C 
BRANCH   5   6
ATOM      6  O   UNL A   1      34.337  26.253  22.611  1.00  0.00    -0.460 OA
BRANCH   6   7
ATOM      7  C   UNL A   1      33.819  24.994  22.552  1.00  0.00     0.341 C 
ATOM      8  O   UNL A   1      33.274  24.539  21.552  1.00  0.00    -0.246 OA
BRANCH   7   9
ATOM      9  C   UNL A   1      34.047  24.239  23.784  1.00  0.00     0.093 A 
ATOM     10  C   UNL A   1      33.728  23.319  25.872  1.00  0.00     0.086 A 
ATOM     11  C   UNL A   1      33.196  24.206  24.939  1.00  0.00     0.024 A 
ATOM     12  N   UNL A   1      34.924  22.843  25.334  1.00  0.00    -0.314 N 
ATOM     13  C   UNL A   1      35.082  23.357  24.044  1.00  0.00     0.061 A 
ATOM     14  C   UNL A   1      35.862  21.964  25.895  1.00  0.00     0.092 A 
ATOM     15  C   UNL A   1      36.205  22.904  23.284  1.00  0.00     0.027 A 
ATOM     16  C   UNL A   1      36.932  21.571  25.184  1.00  0.00     0.018 A 
ATOM     17  C   UNL A   1      37.086  22.047  23.827  1.00  0.00     0.004 A 
BRANCH  10  18
ATOM     18  C   UNL A   1      33.192  22.786  27.168  1.00  0.00     0.315 C 
BRANCH  18  19
ATOM     19  N   UNL A   1      31.840  22.272  27.071  1.00  0.00    -0.353 N 
ATOM     20  H   UNL A   1      31.716  21.513  27.741  1.00  0.00     0.344 HD
ATOM     21  H   UNL A   1      31.676  21.922  26.127  1.00  0.00     0.344 HD
ATOM     22  H   UNL A   1      31.176  23.019  27.277  1.00  0.00     0.344 HD
ENDBRANCH  18  19
ENDBRANCH  10  18
BRANCH  11  23
ATOM     23  C   UNL A   1      31.884  24.819  25.008  1.00  0.00    -0.015 A 
ATOM     24  C   UNL A   1      30.940  24.460  24.043  1.00  0.00     0.009 A 
ATOM     25  C   UNL A   1      31.624  25.883  25.875  1.00  0.00     0.009 A 
ATOM     26  C   UNL A   1      29.802  25.236  23.865  1.00  0.00     0.001 A 
ATOM     27  C   UNL A   1      30.434  26.602  25.751  1.00  0.00     0.001 A 
ATOM     28  C   UNL A   1      29.541  26.299  24.724  1.00  0.00     0.000 A 
ENDBRANCH  11  23
ENDBRANCH   7   9
ENDBRANCH   6   7
ENDBRANCH   5   6
ENDBRANCH   4   5
ENDBRANCH   3   4
ENDBRANCH   2   3
ENDBRANCH   1   2
BRANCH   1  29
ATOM     29  O   UNL A   1      32.090  30.526  26.712  1.00  0.00    -0.376 OA
BRANCH  29  30
ATOM     30  C   UNL A   1      31.297  31.686  26.520  1.00  0.00     0.202 C 
BRANCH  30  31
ATOM     31  C   UNL A   1      31.928  33.023  26.916  1.00  0.00     0.261 C 
BRANCH  31  32
ATOM     32  O   UNL A   1      33.156  32.896  27.648  1.00  0.00    -0.460 OA
BRANCH  32  33
ATOM     33  C   UNL A   1      33.438  33.945  28.462  1.00  0.00     0.338 C 
ATOM     34  O   UNL A   1      32.860  35.019  28.495  1.00  0.00    -0.246 OA
BRANCH  33  35
ATOM     35  C   UNL A   1      34.504  33.581  29.420  1.00  0.00     0.060 A 
ATOM     36  C   UNL A   1      35.805  34.019  29.147  1.00  0.00     0.016 A 
ATOM     37  C   UNL A   1      34.256  32.753  30.520  1.00  0.00     0.016 A 
ATOM     38  C   UNL A   1      36.867  33.599  29.949  1.00  0.00     0.010 A 
ATOM     39  C   UNL A   1      35.327  32.315  31.310  1.00  0.00     0.010 A 
ATOM     40  C   UNL A   1      36.642  32.711  31.011  1.00  0.00    -0.014 A 
BRANCH  40  41
ATOM     41  C   UNL A   1      37.801  32.094  31.706  1.00  0.00     0.031 A 
ATOM     42  C   UNL A   1      38.588  31.028  31.006  1.00  0.00     0.074 A 
ATOM     43  C   UNL A   1      38.171  32.493  32.935  1.00  0.00     0.049 A 
ATOM     44  N   UNL A   1      39.635  30.368  31.423  1.00  0.00    -0.248 NA
ATOM     45  C   UNL A   1      38.120  30.649  29.666  1.00  0.00     0.031 C 
ATOM     46  C   UNL A   1      37.477  33.512  33.704  1.00  0.00     0.029 A 
ATOM     47  N   UNL A   1      39.207  32.114  33.748  1.00  0.00    -0.354 N 
ATOM     48  C   UNL A   1      39.955  29.486  30.401  1.00  0.00     0.074 A 
ATOM     49  C   UNL A   1      38.972  29.684  29.354  1.00  0.00     0.031 C 
ATOM     50  C   UNL A   1      38.122  33.717  34.861  1.00  0.00     0.029 A 
ATOM     51  C   UNL A   1      39.250  32.796  34.944  1.00  0.00     0.049 A 
ATOM     52  H   UNL A   1      39.860  31.420  33.501  1.00  0.00     0.167 HD
ATOM     53  C   UNL A   1      40.971  28.589  30.345  1.00  0.00     0.034 A 
ATOM     54  C   UNL A   1      40.085  32.680  35.996  1.00  0.00     0.034 A 
ATOM     55  C   UNL A   1      41.914  28.376  31.416  1.00  0.00     0.049 A 
ATOM     56  C   UNL A   1      41.176  31.645  35.931  1.00  0.00     0.074 A 
ATOM     57  C   UNL A   1      42.970  27.482  31.471  1.00  0.00     0.029 A 
ATOM     58  N   UNL A   1      41.906  29.052  32.631  1.00  0.00    -0.354 N 
ATOM     59  N   UNL A   1      41.466  30.814  34.955  1.00  0.00    -0.248 NA
ATOM     60  C   UNL A   1      42.042  31.519  37.109  1.00  0.00     0.031 C 
ATOM     61  C   UNL A   1      43.558  27.573  32.739  1.00  0.00     0.029 A 
ATOM     62  C   UNL A   1      42.918  28.573  33.453  1.00  0.00     0.049 A 
ATOM     63  H   UNL A   1      41.276  29.767  32.874  1.00  0.00     0.167 HD
ATOM     64  C   UNL A   1      42.552  30.070  35.402  1.00  0.00     0.074 A 
ATOM     65  C   UNL A   1      42.883  30.571  36.722  1.00  0.00     0.031 C 
ATOM     66  C   UNL A   1      43.214  29.062  34.779  1.00  0.00     0.034 A 
BRANCH  53  67
ATOM     67  C   UNL A   1      41.044  27.730  29.110  1.00  0.00     0.023 A 
ATOM     68  C   UNL A   1      41.987  27.976  28.096  1.00  0.00     0.031 A 
ATOM     69  C   UNL A   1      40.108  26.701  28.907  1.00  0.00     0.131 A 
ATOM     70  C   UNL A   1      41.920  27.258  26.892  1.00  0.00     0.055 A 
ATOM     71  C   UNL A   1      40.097  25.937  27.740  1.00  0.00     0.041 A 
ATOM     72  F   UNL A   1      39.168  26.442  29.830  1.00  0.00    -0.206 F 
ATOM     73  C   UNL A   1      40.996  26.225  26.716  1.00  0.00     0.022 A 
BRANCH  70  74
ATOM     74  S   UNL A   1      42.951  27.799  25.502  1.00  0.00     0.124 S 
ATOM     75  O   UNL A   1      44.044  28.480  26.192  1.00  0.00    -0.237 OA
ATOM     76  O   UNL A   1      43.292  26.537  24.852  1.00  0.00    -0.237 OA
ATOM     77  O   UNL A   1      42.065  28.675  24.737  1.00  0.00    -0.744 OA
ENDBRANCH  70  74
ENDBRANCH  53  67
BRANCH  54  78
ATOM     78  C   UNL A   1      39.898  33.520  37.215  1.00  0.00     0.023 A 
ATOM     79  C   UNL A   1      40.744  34.606  37.489  1.00  0.00     0.031 A 
ATOM     80  C   UNL A   1      38.889  33.221  38.150  1.00  0.00     0.131 A 
ATOM     81  C   UNL A   1      40.590  35.332  38.683  1.00  0.00     0.055 A 
ATOM     82  C   UNL A   1      38.707  33.976  39.309  1.00  0.00     0.041 A 
ATOM     83  F   UNL A   1      38.052  32.193  37.939  1.00  0.00    -0.206 F 
ATOM     84  C   UNL A   1      39.568  35.031  39.587  1.00  0.00     0.022 A 
BRANCH  81  85
ATOM     85  S   UNL A   1      41.793  36.631  39.078  1.00  0.00     0.124 S 
ATOM     86  O   UNL A   1      42.148  36.300  40.453  1.00  0.00    -0.237 OA
ATOM     87  O   UNL A   1      42.827  36.402  38.074  1.00  0.00    -0.237 OA
ATOM     88  O   UNL A   1      41.029  37.865  38.910  1.00  0.00    -0.744 OA
ENDBRANCH  81  85
ENDBRANCH  54  78
BRANCH  66  89
ATOM     89  C   UNL A   1      44.374  28.454  35.527  1.00  0.00     0.023 A 
ATOM     90  C   UNL A   1      44.185  27.434  36.477  1.00  0.00     0.031 A 
ATOM     91  C   UNL A   1      45.681  28.919  35.304  1.00  0.00     0.131 A 
ATOM     92  C   UNL A   1      45.280  26.951  37.210  1.00  0.00     0.055 A 
ATOM     93  C   UNL A   1      46.774  28.397  35.996  1.00  0.00     0.041 A 
ATOM     94  F   UNL A   1      45.916  29.894  34.411  1.00  0.00    -0.206 F 
ATOM     95  C   UNL A   1      46.575  27.415  36.964  1.00  0.00     0.022 A 
BRANCH  92  96
ATOM     96  S   UNL A   1      44.979  25.764  38.549  1.00  0.00     0.124 S 
ATOM     97  O   UNL A   1      46.335  25.452  38.988  1.00  0.00    -0.237 OA
ATOM     98  O   UNL A   1      44.171  26.544  39.481  1.00  0.00    -0.237 OA
ATOM     99  O   UNL A   1      44.274  24.669  37.884  1.00  0.00    -0.744 OA
ENDBRANCH  92  96
ENDBRANCH  66  89
ENDBRANCH  40  41
ENDBRANCH  33  35
ENDBRANCH  32  33
ENDBRANCH  31  32
ENDBRANCH  30  31
ENDBRANCH  29  30
ENDBRANCH   1  29
TORSDOF 23
ENDMDL
