MODEL 1
REMARK VINA RESULT:      -9.9      0.000      0.000
REMARK SMILES C/C=C/c1cncc(-c2ccc([C@@H](C)C(=O)OCCOCCOCCOC(=O)c3ccc(-c4c5nc(c(-c6cc(S(=O)(=O)[O-])ccc6F)c6ccc([nH]6)c(-c6cc(S(=O)(=O)[O-])ccc6F)c6nc(c(-c7cc(S(=O)(=O)[O-])ccc7F)c7ccc4[nH]7)C=C6)C=C5)cc3)cc2)c1
REMARK SMILES IDX 21 1 20 2 19 3 18 4 17 5 15 6 16 7 13 8 14 9 12 10 9 11
REMARK SMILES IDX 10 12 93 13 11 14 92 15 8 16 4 17 5 18 94 19 6 20 7 21 3 22
REMARK SMILES IDX 1 23 2 24 22 25 23 26 24 27 25 28 26 29 27 30 28 31 29 32
REMARK SMILES IDX 30 33 91 34 31 35 90 36 32 37 33 38 34 39 84 40 35 41 89 42
REMARK SMILES IDX 83 43 85 44 36 45 88 46 82 47 81 48 37 50 69 51 49 52 68 53
REMARK SMILES IDX 50 54 53 55 67 56 86 57 51 58 52 59 66 61 87 62 54 63 38 64
REMARK SMILES IDX 39 65 47 66 40 67 46 68 48 69 45 70 41 71 42 72 43 73 44 74
REMARK SMILES IDX 70 75 71 76 79 77 72 78 78 79 80 80 77 81 73 82 74 83 75 84
REMARK SMILES IDX 76 85 55 86 56 87 64 88 57 89 63 90 65 91 62 92 58 93 59 94
REMARK SMILES IDX 60 95 61 96
REMARK H PARENT 85 49 53 60
REMARK Flexibility Score: inf
ROOT
ATOM      1  C   UNL A   1      31.523  27.989  27.242  1.00  0.00     0.188 C 
ENDROOT
BRANCH   1   2
ATOM      2  O   UNL A   1      31.019  26.662  27.136  1.00  0.00    -0.376 OA
BRANCH   2   3
ATOM      3  C   UNL A   1      30.937  26.050  25.855  1.00  0.00     0.202 C 
BRANCH   3   4
ATOM      4  C   UNL A   1      31.745  24.767  25.597  1.00  0.00     0.261 C 
BRANCH   4   5
ATOM      5  O   UNL A   1      31.085  23.760  24.795  1.00  0.00    -0.463 OA
BRANCH   5   6
ATOM      6  C   UNL A   1      31.594  22.502  24.860  1.00  0.00     0.313 C 
ATOM      7  O   UNL A   1      31.138  21.636  25.605  1.00  0.00    -0.252 OA
BRANCH   6   8
ATOM      8  C   UNL A   1      32.778  22.190  23.935  1.00  0.00     0.126 C 
ATOM      9  C   UNL A   1      32.549  20.811  23.317  1.00  0.00     0.025 C 
BRANCH   8  10
ATOM     10  C   UNL A   1      34.227  22.315  24.412  1.00  0.00    -0.034 A 
ATOM     11  C   UNL A   1      36.930  22.444  25.371  1.00  0.00    -0.017 A 
ATOM     12  C   UNL A   1      36.296  23.553  24.778  1.00  0.00     0.009 A 
ATOM     13  C   UNL A   1      36.188  21.261  25.465  1.00  0.00     0.009 A 
ATOM     14  C   UNL A   1      34.967  23.498  24.318  1.00  0.00     0.005 A 
ATOM     15  C   UNL A   1      34.860  21.200  25.004  1.00  0.00     0.005 A 
BRANCH  11  16
ATOM     16  C   UNL A   1      38.283  22.562  25.950  1.00  0.00     0.001 A 
ATOM     17  C   UNL A   1      40.543  21.765  26.418  1.00  0.00    -0.007 A 
ATOM     18  C   UNL A   1      40.746  22.945  27.132  1.00  0.00     0.119 A 
ATOM     19  C   UNL A   1      39.282  21.578  25.826  1.00  0.00     0.020 A 
ATOM     20  N   UNL A   1      39.826  23.922  27.279  1.00  0.00    -0.263 NA
ATOM     21  C   UNL A   1      38.627  23.698  26.691  1.00  0.00     0.119 A 
BRANCH  17  22
ATOM     22  C   UNL A   1      41.635  20.783  26.377  1.00  0.00     0.005 C 
ATOM     23  C   UNL A   1      42.613  18.494  26.171  1.00  0.00     0.035 C 
ATOM     24  C   UNL A   1      41.469  19.456  26.279  1.00  0.00    -0.030 C 
ENDBRANCH  17  22
ENDBRANCH  11  16
ENDBRANCH   8  10
ENDBRANCH   6   8
ENDBRANCH   5   6
ENDBRANCH   4   5
ENDBRANCH   3   4
ENDBRANCH   2   3
ENDBRANCH   1   2
BRANCH   1  25
ATOM     25  C   UNL A   1      32.975  28.271  26.828  1.00  0.00     0.188 C 
BRANCH  25  26
ATOM     26  O   UNL A   1      33.116  29.261  25.833  1.00  0.00    -0.376 OA
BRANCH  26  27
ATOM     27  C   UNL A   1      32.132  30.275  25.795  1.00  0.00     0.202 C 
BRANCH  27  28
ATOM     28  C   UNL A   1      32.356  31.472  26.731  1.00  0.00     0.261 C 
BRANCH  28  29
ATOM     29  O   UNL A   1      33.409  31.338  27.704  1.00  0.00    -0.460 OA
BRANCH  29  30
ATOM     30  C   UNL A   1      34.372  32.290  27.715  1.00  0.00     0.338 C 
ATOM     31  O   UNL A   1      34.227  33.474  27.443  1.00  0.00    -0.246 OA
BRANCH  30  32
ATOM     32  C   UNL A   1      35.585  31.700  28.334  1.00  0.00     0.060 A 
ATOM     33  C   UNL A   1      35.544  30.383  28.816  1.00  0.00     0.016 A 
ATOM     34  C   UNL A   1      36.765  32.441  28.425  1.00  0.00     0.016 A 
ATOM     35  C   UNL A   1      36.675  29.816  29.415  1.00  0.00     0.010 A 
ATOM     36  C   UNL A   1      37.887  31.879  29.045  1.00  0.00     0.010 A 
ATOM     37  C   UNL A   1      37.844  30.573  29.568  1.00  0.00    -0.014 A 
BRANCH  37  38
ATOM     38  C   UNL A   1      38.951  30.090  30.439  1.00  0.00     0.031 A 
ATOM     39  C   UNL A   1      39.017  30.600  31.855  1.00  0.00     0.074 A 
ATOM     40  C   UNL A   1      39.880  29.222  29.995  1.00  0.00     0.049 A 
ATOM     41  N   UNL A   1      39.941  30.424  32.764  1.00  0.00    -0.248 NA
ATOM     42  C   UNL A   1      37.883  31.425  32.302  1.00  0.00     0.031 C 
ATOM     43  C   UNL A   1      39.901  28.609  28.668  1.00  0.00     0.029 A 
ATOM     44  N   UNL A   1      41.000  28.718  30.614  1.00  0.00    -0.354 N 
ATOM     45  C   UNL A   1      39.507  31.121  33.886  1.00  0.00     0.074 A 
ATOM     46  C   UNL A   1      38.254  31.753  33.530  1.00  0.00     0.031 C 
ATOM     47  C   UNL A   1      40.991  27.827  28.567  1.00  0.00     0.029 A 
ATOM     48  C   UNL A   1      41.772  27.920  29.800  1.00  0.00     0.049 A 
ATOM     49  H   UNL A   1      41.228  28.910  31.552  1.00  0.00     0.167 HD
ATOM     50  C   UNL A   1      40.092  31.219  35.105  1.00  0.00     0.034 A 
ATOM     51  C   UNL A   1      42.985  27.363  30.011  1.00  0.00     0.034 A 
ATOM     52  C   UNL A   1      41.348  30.597  35.447  1.00  0.00     0.049 A 
ATOM     53  C   UNL A   1      43.673  27.578  31.343  1.00  0.00     0.074 A 
ATOM     54  C   UNL A   1      42.028  30.637  36.651  1.00  0.00     0.029 A 
ATOM     55  N   UNL A   1      42.119  29.831  34.583  1.00  0.00    -0.354 N 
ATOM     56  N   UNL A   1      43.254  28.244  32.396  1.00  0.00    -0.248 NA
ATOM     57  C   UNL A   1      44.995  26.959  31.520  1.00  0.00     0.031 C 
ATOM     58  C   UNL A   1      43.243  29.964  36.493  1.00  0.00     0.029 A 
ATOM     59  C   UNL A   1      43.280  29.421  35.219  1.00  0.00     0.049 A 
ATOM     60  H   UNL A   1      41.876  29.610  33.655  1.00  0.00     0.167 HD
ATOM     61  C   UNL A   1      44.243  28.087  33.366  1.00  0.00     0.074 A 
ATOM     62  C   UNL A   1      45.270  27.252  32.781  1.00  0.00     0.031 C 
ATOM     63  C   UNL A   1      44.298  28.583  34.629  1.00  0.00     0.034 A 
BRANCH  50  64
ATOM     64  C   UNL A   1      39.401  32.067  36.145  1.00  0.00     0.023 A 
ATOM     65  C   UNL A   1      39.815  33.380  36.422  1.00  0.00     0.031 A 
ATOM     66  C   UNL A   1      38.314  31.551  36.871  1.00  0.00     0.131 A 
ATOM     67  C   UNL A   1      39.183  34.113  37.438  1.00  0.00     0.055 A 
ATOM     68  C   UNL A   1      37.637  32.313  37.825  1.00  0.00     0.041 A 
ATOM     69  F   UNL A   1      37.891  30.293  36.669  1.00  0.00    -0.206 F 
ATOM     70  C   UNL A   1      38.078  33.599  38.121  1.00  0.00     0.022 A 
BRANCH  67  71
ATOM     71  S   UNL A   1      39.905  35.699  37.942  1.00  0.00     0.124 S 
ATOM     72  O   UNL A   1      39.063  36.058  39.081  1.00  0.00    -0.237 OA
ATOM     73  O   UNL A   1      41.281  35.334  38.257  1.00  0.00    -0.237 OA
ATOM     74  O   UNL A   1      39.736  36.543  36.761  1.00  0.00    -0.744 OA
ENDBRANCH  67  71
ENDBRANCH  50  64
BRANCH  51  75
ATOM     75  C   UNL A   1      43.676  26.596  28.929  1.00  0.00     0.023 A 
ATOM     76  C   UNL A   1      44.576  27.222  28.052  1.00  0.00     0.031 A 
ATOM     77  C   UNL A   1      43.367  25.243  28.693  1.00  0.00     0.131 A 
ATOM     78  C   UNL A   1      45.080  26.520  26.944  1.00  0.00     0.055 A 
ATOM     79  C   UNL A   1      43.928  24.529  27.632  1.00  0.00     0.041 A 
ATOM     80  F   UNL A   1      42.503  24.593  29.490  1.00  0.00    -0.206 F 
ATOM     81  C   UNL A   1      44.776  25.174  26.738  1.00  0.00     0.022 A 
BRANCH  78  82
ATOM     82  S   UNL A   1      46.035  27.434  25.700  1.00  0.00     0.124 S 
ATOM     83  O   UNL A   1      45.278  28.677  25.602  1.00  0.00    -0.237 OA
ATOM     84  O   UNL A   1      47.345  27.529  26.333  1.00  0.00    -0.237 OA
ATOM     85  O   UNL A   1      45.973  26.571  24.522  1.00  0.00    -0.744 OA
ENDBRANCH  78  82
ENDBRANCH  51  75
BRANCH  63  86
ATOM     86  C   UNL A   1      45.476  28.181  35.488  1.00  0.00     0.023 A 
ATOM     87  C   UNL A   1      45.457  27.028  36.291  1.00  0.00     0.031 A 
ATOM     88  C   UNL A   1      46.639  28.974  35.500  1.00  0.00     0.131 A 
ATOM     89  C   UNL A   1      46.554  26.732  37.116  1.00  0.00     0.055 A 
ATOM     90  C   UNL A   1      47.753  28.637  36.270  1.00  0.00     0.041 A 
ATOM     91  F   UNL A   1      46.715  30.089  34.757  1.00  0.00    -0.206 F 
ATOM     92  C   UNL A   1      47.708  27.517  37.095  1.00  0.00     0.022 A 
BRANCH  89  93
ATOM     93  S   UNL A   1      46.412  25.360  38.296  1.00  0.00     0.124 S 
ATOM     94  O   UNL A   1      47.263  25.813  39.391  1.00  0.00    -0.237 OA
ATOM     95  O   UNL A   1      44.979  25.332  38.571  1.00  0.00    -0.237 OA
ATOM     96  O   UNL A   1      46.921  24.212  37.549  1.00  0.00    -0.744 OA
ENDBRANCH  89  93
ENDBRANCH  63  86
ENDBRANCH  37  38
ENDBRANCH  30  32
ENDBRANCH  29  30
ENDBRANCH  28  29
ENDBRANCH  27  28
ENDBRANCH  26  27
ENDBRANCH  25  26
ENDBRANCH   1  25
TORSDOF 23
ENDMDL
MODEL 2
REMARK VINA RESULT:      -9.4      1.985      7.605
REMARK SMILES C/C=C/c1cncc(-c2ccc([C@@H](C)C(=O)OCCOCCOCCOC(=O)c3ccc(-c4c5nc(c(-c6cc(S(=O)(=O)[O-])ccc6F)c6ccc([nH]6)c(-c6cc(S(=O)(=O)[O-])ccc6F)c6nc(c(-c7cc(S(=O)(=O)[O-])ccc7F)c7ccc4[nH]7)C=C6)C=C5)cc3)cc2)c1
REMARK SMILES IDX 21 1 20 2 19 3 18 4 17 5 15 6 16 7 13 8 14 9 12 10 9 11
REMARK SMILES IDX 10 12 93 13 11 14 92 15 8 16 4 17 5 18 94 19 6 20 7 21 3 22
REMARK SMILES IDX 1 23 2 24 22 25 23 26 24 27 25 28 26 29 27 30 28 31 29 32
REMARK SMILES IDX 30 33 91 34 31 35 90 36 32 37 33 38 34 39 84 40 35 41 89 42
REMARK SMILES IDX 83 43 85 44 36 45 88 46 82 47 81 48 37 50 69 51 49 52 68 53
REMARK SMILES IDX 50 54 53 55 67 56 86 57 51 58 52 59 66 61 87 62 54 63 38 64
REMARK SMILES IDX 39 65 47 66 40 67 46 68 48 69 45 70 41 71 42 72 43 73 44 74
REMARK SMILES IDX 70 75 71 76 79 77 72 78 78 79 80 80 77 81 73 82 74 83 75 84
REMARK SMILES IDX 76 85 55 86 56 87 64 88 57 89 63 90 65 91 62 92 58 93 59 94
REMARK SMILES IDX 60 95 61 96
REMARK H PARENT 85 49 53 60
REMARK Flexibility Score: inf
ROOT
ATOM      1  C   UNL A   1      31.716  28.310  27.463  1.00  0.00     0.188 C 
ENDROOT
BRANCH   1   2
ATOM      2  O   UNL A   1      31.303  26.947  27.462  1.00  0.00    -0.376 OA
BRANCH   2   3
ATOM      3  C   UNL A   1      30.997  26.313  26.227  1.00  0.00     0.202 C 
BRANCH   3   4
ATOM      4  C   UNL A   1      31.706  24.993  25.878  1.00  0.00     0.261 C 
BRANCH   4   5
ATOM      5  O   UNL A   1      31.668  24.609  24.484  1.00  0.00    -0.463 OA
BRANCH   5   6
ATOM      6  C   UNL A   1      31.806  23.285  24.215  1.00  0.00     0.313 C 
ATOM      7  O   UNL A   1      31.074  22.425  24.703  1.00  0.00    -0.252 OA
BRANCH   6   8
ATOM      8  C   UNL A   1      32.927  22.893  23.244  1.00  0.00     0.126 C 
ATOM      9  C   UNL A   1      32.362  21.880  22.248  1.00  0.00     0.025 C 
BRANCH   8  10
ATOM     10  C   UNL A   1      34.298  22.428  23.741  1.00  0.00    -0.034 A 
ATOM     11  C   UNL A   1      36.811  21.487  24.760  1.00  0.00    -0.017 A 
ATOM     12  C   UNL A   1      36.725  22.600  23.901  1.00  0.00     0.009 A 
ATOM     13  C   UNL A   1      35.614  20.844  25.092  1.00  0.00     0.009 A 
ATOM     14  C   UNL A   1      35.494  23.071  23.409  1.00  0.00     0.005 A 
ATOM     15  C   UNL A   1      34.380  21.310  24.601  1.00  0.00     0.005 A 
BRANCH  11  16
ATOM     16  C   UNL A   1      38.101  21.085  25.354  1.00  0.00     0.001 A 
ATOM     17  C   UNL A   1      40.132  21.475  26.654  1.00  0.00    -0.007 A 
ATOM     18  C   UNL A   1      40.502  20.165  26.354  1.00  0.00     0.119 A 
ATOM     19  C   UNL A   1      38.910  21.934  26.132  1.00  0.00     0.020 A 
ATOM     20  N   UNL A   1      39.765  19.307  25.617  1.00  0.00    -0.263 NA
ATOM     21  C   UNL A   1      38.596  19.793  25.138  1.00  0.00     0.119 A 
BRANCH  17  22
ATOM     22  C   UNL A   1      41.061  22.294  27.443  1.00  0.00     0.005 C 
ATOM     23  C   UNL A   1      43.096  22.701  28.833  1.00  0.00     0.035 C 
ATOM     24  C   UNL A   1      42.133  21.821  28.097  1.00  0.00    -0.030 C 
ENDBRANCH  17  22
ENDBRANCH  11  16
ENDBRANCH   8  10
ENDBRANCH   6   8
ENDBRANCH   5   6
ENDBRANCH   4   5
ENDBRANCH   3   4
ENDBRANCH   2   3
ENDBRANCH   1   2
BRANCH   1  25
ATOM     25  C   UNL A   1      33.119  28.664  26.951  1.00  0.00     0.188 C 
BRANCH  25  26
ATOM     26  O   UNL A   1      33.134  29.552  25.855  1.00  0.00    -0.376 OA
BRANCH  26  27
ATOM     27  C   UNL A   1      32.116  30.532  25.811  1.00  0.00     0.202 C 
BRANCH  27  28
ATOM     28  C   UNL A   1      32.237  31.679  26.826  1.00  0.00     0.261 C 
BRANCH  28  29
ATOM     29  O   UNL A   1      33.346  31.613  27.741  1.00  0.00    -0.460 OA
BRANCH  29  30
ATOM     30  C   UNL A   1      34.147  32.702  27.831  1.00  0.00     0.338 C 
ATOM     31  O   UNL A   1      33.822  33.861  27.614  1.00  0.00    -0.246 OA
BRANCH  30  32
ATOM     32  C   UNL A   1      35.423  32.277  28.457  1.00  0.00     0.060 A 
ATOM     33  C   UNL A   1      35.533  30.984  28.992  1.00  0.00     0.016 A 
ATOM     34  C   UNL A   1      36.514  33.147  28.502  1.00  0.00     0.016 A 
ATOM     35  C   UNL A   1      36.725  30.572  29.598  1.00  0.00     0.010 A 
ATOM     36  C   UNL A   1      37.697  32.739  29.129  1.00  0.00     0.010 A 
ATOM     37  C   UNL A   1      37.803  31.460  29.706  1.00  0.00    -0.014 A 
BRANCH  37  38
ATOM     38  C   UNL A   1      38.964  31.139  30.580  1.00  0.00     0.031 A 
ATOM     39  C   UNL A   1      40.034  30.226  30.038  1.00  0.00     0.074 A 
ATOM     40  C   UNL A   1      39.078  31.638  31.826  1.00  0.00     0.049 A 
ATOM     41  N   UNL A   1      41.072  29.706  30.639  1.00  0.00    -0.248 NA
ATOM     42  C   UNL A   1      39.907  29.847  28.621  1.00  0.00     0.031 C 
ATOM     43  C   UNL A   1      38.146  32.574  32.452  1.00  0.00     0.029 A 
ATOM     44  N   UNL A   1      40.025  31.409  32.798  1.00  0.00    -0.354 N 
ATOM     45  C   UNL A   1      41.718  28.933  29.680  1.00  0.00     0.074 A 
ATOM     46  C   UNL A   1      40.932  29.025  28.468  1.00  0.00     0.031 C 
ATOM     47  C   UNL A   1      38.558  32.824  33.708  1.00  0.00     0.029 A 
ATOM     48  C   UNL A   1      39.753  32.031  33.996  1.00  0.00     0.049 A 
ATOM     49  H   UNL A   1      40.824  30.853  32.650  1.00  0.00     0.167 HD
ATOM     50  C   UNL A   1      42.865  28.221  29.795  1.00  0.00     0.034 A 
ATOM     51  C   UNL A   1      40.372  31.939  35.193  1.00  0.00     0.034 A 
ATOM     52  C   UNL A   1      43.635  28.126  31.011  1.00  0.00     0.049 A 
ATOM     53  C   UNL A   1      41.589  31.048  35.328  1.00  0.00     0.074 A 
ATOM     54  C   UNL A   1      44.810  27.427  31.234  1.00  0.00     0.029 A 
ATOM     55  N   UNL A   1      43.305  28.736  32.213  1.00  0.00    -0.354 N 
ATOM     56  N   UNL A   1      42.187  30.318  34.413  1.00  0.00    -0.248 NA
ATOM     57  C   UNL A   1      42.220  30.975  36.654  1.00  0.00     0.031 C 
ATOM     58  C   UNL A   1      45.146  27.552  32.585  1.00  0.00     0.029 A 
ATOM     59  C   UNL A   1      44.235  28.405  33.186  1.00  0.00     0.049 A 
ATOM     60  H   UNL A   1      42.524  29.320  32.355  1.00  0.00     0.167 HD
ATOM     61  C   UNL A   1      43.284  29.736  35.048  1.00  0.00     0.074 A 
ATOM     62  C   UNL A   1      43.274  30.211  36.415  1.00  0.00     0.031 C 
ATOM     63  C   UNL A   1      44.219  28.888  34.547  1.00  0.00     0.034 A 
BRANCH  50  64
ATOM     64  C   UNL A   1      43.333  27.452  28.584  1.00  0.00     0.023 A 
ATOM     65  C   UNL A   1      44.466  27.843  27.852  1.00  0.00     0.031 A 
ATOM     66  C   UNL A   1      42.632  26.311  28.155  1.00  0.00     0.131 A 
ATOM     67  C   UNL A   1      44.832  27.134  26.697  1.00  0.00     0.055 A 
ATOM     68  C   UNL A   1      43.048  25.563  27.052  1.00  0.00     0.041 A 
ATOM     69  F   UNL A   1      41.527  25.905  28.799  1.00  0.00    -0.206 F 
ATOM     70  C   UNL A   1      44.147  25.980  26.309  1.00  0.00     0.022 A 
BRANCH  67  71
ATOM     71  S   UNL A   1      46.136  27.816  25.637  1.00  0.00     0.124 S 
ATOM     72  O   UNL A   1      45.658  29.180  25.421  1.00  0.00    -0.237 OA
ATOM     73  O   UNL A   1      47.324  27.681  26.472  1.00  0.00    -0.237 OA
ATOM     74  O   UNL A   1      46.102  26.957  24.455  1.00  0.00    -0.744 OA
ENDBRANCH  67  71
ENDBRANCH  50  64
BRANCH  51  75
ATOM     75  C   UNL A   1      39.833  32.653  36.392  1.00  0.00     0.023 A 
ATOM     76  C   UNL A   1      38.855  32.066  37.212  1.00  0.00     0.031 A 
ATOM     77  C   UNL A   1      40.216  33.977  36.677  1.00  0.00     0.131 A 
ATOM     78  C   UNL A   1      38.246  32.821  38.228  1.00  0.00     0.055 A 
ATOM     79  C   UNL A   1      39.659  34.699  37.734  1.00  0.00     0.041 A 
ATOM     80  F   UNL A   1      41.137  34.596  35.920  1.00  0.00    -0.206 F 
ATOM     81  C   UNL A   1      38.653  34.126  38.506  1.00  0.00     0.022 A 
BRANCH  78  82
ATOM     82  S   UNL A   1      36.817  32.113  39.096  1.00  0.00     0.124 S 
ATOM     83  O   UNL A   1      35.707  32.799  38.444  1.00  0.00    -0.237 OA
ATOM     84  O   UNL A   1      36.957  30.692  38.800  1.00  0.00    -0.237 OA
ATOM     85  O   UNL A   1      37.048  32.485  40.490  1.00  0.00    -0.744 OA
ENDBRANCH  78  82
ENDBRANCH  51  75
BRANCH  63  86
ATOM     86  C   UNL A   1      45.348  28.472  35.463  1.00  0.00     0.023 A 
ATOM     87  C   UNL A   1      46.544  29.206  35.559  1.00  0.00     0.031 A 
ATOM     88  C   UNL A   1      45.222  27.314  36.255  1.00  0.00     0.131 A 
ATOM     89  C   UNL A   1      47.585  28.744  36.379  1.00  0.00     0.055 A 
ATOM     90  C   UNL A   1      46.234  26.898  37.121  1.00  0.00     0.041 A 
ATOM     91  F   UNL A   1      44.106  26.570  36.204  1.00  0.00    -0.206 F 
ATOM     92  C   UNL A   1      47.430  27.607  37.175  1.00  0.00     0.022 A 
BRANCH  89  93
ATOM     93  S   UNL A   1      49.187  29.594  36.316  1.00  0.00     0.124 S 
ATOM     94  O   UNL A   1      49.284  29.955  34.906  1.00  0.00    -0.237 OA
ATOM     95  O   UNL A   1      48.990  30.701  37.246  1.00  0.00    -0.237 OA
ATOM     96  O   UNL A   1      50.134  28.573  36.762  1.00  0.00    -0.744 OA
ENDBRANCH  89  93
ENDBRANCH  63  86
ENDBRANCH  37  38
ENDBRANCH  30  32
ENDBRANCH  29  30
ENDBRANCH  28  29
ENDBRANCH  27  28
ENDBRANCH  26  27
ENDBRANCH  25  26
ENDBRANCH   1  25
TORSDOF 23
ENDMDL
MODEL 3
REMARK VINA RESULT:      -9.0      4.222     10.794
REMARK SMILES C/C=C/c1cncc(-c2ccc([C@@H](C)C(=O)OCCOCCOCCOC(=O)c3ccc(-c4c5nc(c(-c6cc(S(=O)(=O)[O-])ccc6F)c6ccc([nH]6)c(-c6cc(S(=O)(=O)[O-])ccc6F)c6nc(c(-c7cc(S(=O)(=O)[O-])ccc7F)c7ccc4[nH]7)C=C6)C=C5)cc3)cc2)c1
REMARK SMILES IDX 21 1 20 2 19 3 18 4 17 5 15 6 16 7 13 8 14 9 12 10 9 11
REMARK SMILES IDX 10 12 93 13 11 14 92 15 8 16 4 17 5 18 94 19 6 20 7 21 3 22
REMARK SMILES IDX 1 23 2 24 22 25 23 26 24 27 25 28 26 29 27 30 28 31 29 32
REMARK SMILES IDX 30 33 91 34 31 35 90 36 32 37 33 38 34 39 84 40 35 41 89 42
REMARK SMILES IDX 83 43 85 44 36 45 88 46 82 47 81 48 37 50 69 51 49 52 68 53
REMARK SMILES IDX 50 54 53 55 67 56 86 57 51 58 52 59 66 61 87 62 54 63 38 64
REMARK SMILES IDX 39 65 47 66 40 67 46 68 48 69 45 70 41 71 42 72 43 73 44 74
REMARK SMILES IDX 70 75 71 76 79 77 72 78 78 79 80 80 77 81 73 82 74 83 75 84
REMARK SMILES IDX 76 85 55 86 56 87 64 88 57 89 63 90 65 91 62 92 58 93 59 94
REMARK SMILES IDX 60 95 61 96
REMARK H PARENT 85 49 53 60
REMARK Flexibility Score: inf
ROOT
ATOM      1  C   UNL A   1      45.095  19.136  24.057  1.00  0.00     0.188 C 
ENDROOT
BRANCH   1   2
ATOM      2  O   UNL A   1      46.238  19.940  24.332  1.00  0.00    -0.376 OA
BRANCH   2   3
ATOM      3  C   UNL A   1      46.094  21.097  25.145  1.00  0.00     0.202 C 
BRANCH   3   4
ATOM      4  C   UNL A   1      46.205  22.483  24.485  1.00  0.00     0.261 C 
BRANCH   4   5
ATOM      5  O   UNL A   1      46.762  23.530  25.313  1.00  0.00    -0.463 OA
BRANCH   5   6
ATOM      6  C   UNL A   1      46.423  24.804  24.989  1.00  0.00     0.313 C 
ATOM      7  O   UNL A   1      47.015  25.454  24.129  1.00  0.00    -0.252 OA
BRANCH   6   8
ATOM      8  C   UNL A   1      45.233  25.413  25.743  1.00  0.00     0.126 C 
ATOM      9  C   UNL A   1      44.017  25.385  24.817  1.00  0.00     0.025 C 
BRANCH   8  10
ATOM     10  C   UNL A   1      45.331  26.774  26.437  1.00  0.00    -0.034 A 
ATOM     11  C   UNL A   1      45.621  29.290  27.789  1.00  0.00    -0.017 A 
ATOM     12  C   UNL A   1      44.398  28.887  27.220  1.00  0.00     0.009 A 
ATOM     13  C   UNL A   1      46.704  28.413  27.660  1.00  0.00     0.009 A 
ATOM     14  C   UNL A   1      44.248  27.650  26.566  1.00  0.00     0.005 A 
ATOM     15  C   UNL A   1      46.560  27.175  27.006  1.00  0.00     0.005 A 
BRANCH  11  16
ATOM     16  C   UNL A   1      45.721  30.539  28.569  1.00  0.00     0.001 A 
ATOM     17  C   UNL A   1      44.793  32.471  29.741  1.00  0.00    -0.007 A 
ATOM     18  C   UNL A   1      46.105  32.874  29.987  1.00  0.00     0.119 A 
ATOM     19  C   UNL A   1      44.611  31.284  29.011  1.00  0.00     0.020 A 
ATOM     20  N   UNL A   1      47.205  32.198  29.591  1.00  0.00    -0.263 NA
ATOM     21  C   UNL A   1      46.979  31.061  28.892  1.00  0.00     0.119 A 
BRANCH  17  22
ATOM     22  C   UNL A   1      43.703  33.335  30.212  1.00  0.00     0.005 C 
ATOM     23  C   UNL A   1      41.501  34.499  30.032  1.00  0.00     0.035 C 
ATOM     24  C   UNL A   1      42.625  33.671  29.488  1.00  0.00    -0.030 C 
ENDBRANCH  17  22
ENDBRANCH  11  16
ENDBRANCH   8  10
ENDBRANCH   6   8
ENDBRANCH   5   6
ENDBRANCH   4   5
ENDBRANCH   3   4
ENDBRANCH   2   3
ENDBRANCH   1   2
BRANCH   1  25
ATOM     25  C   UNL A   1      44.243  18.626  25.228  1.00  0.00     0.188 C 
BRANCH  25  26
ATOM     26  O   UNL A   1      42.882  18.991  25.162  1.00  0.00    -0.376 OA
BRANCH  26  27
ATOM     27  C   UNL A   1      42.432  19.953  26.094  1.00  0.00     0.202 C 
BRANCH  27  28
ATOM     28  C   UNL A   1      40.977  19.809  26.566  1.00  0.00     0.261 C 
BRANCH  28  29
ATOM     29  O   UNL A   1      40.428  20.918  27.302  1.00  0.00    -0.460 OA
BRANCH  29  30
ATOM     30  C   UNL A   1      39.898  21.940  26.587  1.00  0.00     0.338 C 
ATOM     31  O   UNL A   1      39.038  21.851  25.721  1.00  0.00    -0.246 OA
BRANCH  30  32
ATOM     32  C   UNL A   1      40.372  23.210  27.190  1.00  0.00     0.060 A 
ATOM     33  C   UNL A   1      41.397  23.179  28.148  1.00  0.00     0.016 A 
ATOM     34  C   UNL A   1      39.815  24.430  26.801  1.00  0.00     0.016 A 
ATOM     35  C   UNL A   1      41.847  24.367  28.736  1.00  0.00     0.010 A 
ATOM     36  C   UNL A   1      40.252  25.613  27.408  1.00  0.00     0.010 A 
ATOM     37  C   UNL A   1      41.251  25.589  28.399  1.00  0.00    -0.014 A 
BRANCH  37  38
ATOM     38  C   UNL A   1      41.519  26.811  29.206  1.00  0.00     0.031 A 
ATOM     39  C   UNL A   1      42.899  26.993  29.785  1.00  0.00     0.074 A 
ATOM     40  C   UNL A   1      40.572  27.742  29.427  1.00  0.00     0.049 A 
ATOM     41  N   UNL A   1      43.344  27.902  30.613  1.00  0.00    -0.248 NA
ATOM     42  C   UNL A   1      43.911  26.007  29.373  1.00  0.00     0.031 C 
ATOM     43  C   UNL A   1      39.217  27.717  28.880  1.00  0.00     0.029 A 
ATOM     44  N   UNL A   1      40.604  28.887  30.189  1.00  0.00    -0.354 N 
ATOM     45  C   UNL A   1      44.683  27.596  30.828  1.00  0.00     0.074 A 
ATOM     46  C   UNL A   1      44.967  26.395  30.072  1.00  0.00     0.031 C 
ATOM     47  C   UNL A   1      38.542  28.787  29.340  1.00  0.00     0.029 A 
ATOM     48  C   UNL A   1      39.397  29.546  30.252  1.00  0.00     0.049 A 
ATOM     49  H   UNL A   1      41.415  29.206  30.646  1.00  0.00     0.167 HD
ATOM     50  C   UNL A   1      45.596  28.259  31.579  1.00  0.00     0.034 A 
ATOM     51  C   UNL A   1      39.016  30.612  30.990  1.00  0.00     0.034 A 
ATOM     52  C   UNL A   1      45.301  29.448  32.340  1.00  0.00     0.049 A 
ATOM     53  C   UNL A   1      40.024  31.271  31.908  1.00  0.00     0.074 A 
ATOM     54  C   UNL A   1      46.154  30.194  33.136  1.00  0.00     0.029 A 
ATOM     55  N   UNL A   1      44.058  30.061  32.411  1.00  0.00    -0.354 N 
ATOM     56  N   UNL A   1      41.287  30.968  32.107  1.00  0.00    -0.248 NA
ATOM     57  C   UNL A   1      39.557  32.421  32.697  1.00  0.00     0.031 C 
ATOM     58  C   UNL A   1      45.411  31.208  33.747  1.00  0.00     0.029 A 
ATOM     59  C   UNL A   1      44.115  31.155  33.261  1.00  0.00     0.049 A 
ATOM     60  H   UNL A   1      43.253  29.763  31.928  1.00  0.00     0.167 HD
ATOM     61  C   UNL A   1      41.769  31.916  33.009  1.00  0.00     0.074 A 
ATOM     62  C   UNL A   1      40.668  32.808  33.303  1.00  0.00     0.031 C 
ATOM     63  C   UNL A   1      43.011  32.042  33.545  1.00  0.00     0.034 A 
BRANCH  50  64
ATOM     64  C   UNL A   1      46.991  27.686  31.649  1.00  0.00     0.023 A 
ATOM     65  C   UNL A   1      48.012  28.119  30.788  1.00  0.00     0.031 A 
ATOM     66  C   UNL A   1      47.300  26.688  32.590  1.00  0.00     0.131 A 
ATOM     67  C   UNL A   1      49.279  27.518  30.847  1.00  0.00     0.055 A 
ATOM     68  C   UNL A   1      48.584  26.151  32.698  1.00  0.00     0.041 A 
ATOM     69  F   UNL A   1      46.357  26.215  33.421  1.00  0.00    -0.206 F 
ATOM     70  C   UNL A   1      49.579  26.557  31.816  1.00  0.00     0.022 A 
BRANCH  67  71
ATOM     71  S   UNL A   1      50.490  27.918  29.557  1.00  0.00     0.124 S 
ATOM     72  O   UNL A   1      51.745  27.861  30.303  1.00  0.00    -0.237 OA
ATOM     73  O   UNL A   1      50.278  26.853  28.584  1.00  0.00    -0.237 OA
ATOM     74  O   UNL A   1      50.094  29.254  29.118  1.00  0.00    -0.744 OA
ENDBRANCH  67  71
ENDBRANCH  50  64
BRANCH  51  75
ATOM     75  C   UNL A   1      37.604  31.104  30.956  1.00  0.00     0.023 A 
ATOM     76  C   UNL A   1      37.099  31.796  29.843  1.00  0.00     0.031 A 
ATOM     77  C   UNL A   1      36.768  30.977  32.081  1.00  0.00     0.131 A 
ATOM     78  C   UNL A   1      35.829  32.393  29.905  1.00  0.00     0.055 A 
ATOM     79  C   UNL A   1      35.478  31.510  32.110  1.00  0.00     0.041 A 
ATOM     80  F   UNL A   1      37.200  30.337  33.180  1.00  0.00    -0.206 F 
ATOM     81  C   UNL A   1      35.008  32.240  31.023  1.00  0.00     0.022 A 
BRANCH  78  82
ATOM     82  S   UNL A   1      35.318  33.487  28.549  1.00  0.00     0.124 S 
ATOM     83  O   UNL A   1      35.522  34.804  29.141  1.00  0.00    -0.237 OA
ATOM     84  O   UNL A   1      36.246  33.109  27.489  1.00  0.00    -0.237 OA
ATOM     85  O   UNL A   1      33.924  33.115  28.319  1.00  0.00    -0.744 OA
ENDBRANCH  78  82
ENDBRANCH  51  75
BRANCH  63  86
ATOM     86  C   UNL A   1      43.264  33.226  34.452  1.00  0.00     0.023 A 
ATOM     87  C   UNL A   1      43.010  33.177  35.834  1.00  0.00     0.031 A 
ATOM     88  C   UNL A   1      43.770  34.426  33.917  1.00  0.00     0.131 A 
ATOM     89  C   UNL A   1      43.205  34.322  36.622  1.00  0.00     0.055 A 
ATOM     90  C   UNL A   1      44.027  35.539  34.717  1.00  0.00     0.041 A 
ATOM     91  F   UNL A   1      44.029  34.534  32.604  1.00  0.00    -0.206 F 
ATOM     92  C   UNL A   1      43.731  35.495  36.076  1.00  0.00     0.022 A 
BRANCH  89  93
ATOM     93  S   UNL A   1      42.666  34.291  38.354  1.00  0.00     0.124 S 
ATOM     94  O   UNL A   1      43.575  33.310  38.937  1.00  0.00    -0.237 OA
ATOM     95  O   UNL A   1      42.871  35.675  38.769  1.00  0.00    -0.237 OA
ATOM     96  O   UNL A   1      41.269  33.871  38.271  1.00  0.00    -0.744 OA
ENDBRANCH  89  93
ENDBRANCH  63  86
ENDBRANCH  37  38
ENDBRANCH  30  32
ENDBRANCH  29  30
ENDBRANCH  28  29
ENDBRANCH  27  28
ENDBRANCH  26  27
ENDBRANCH  25  26
ENDBRANCH   1  25
TORSDOF 23
ENDMDL
