MODEL 1
REMARK VINA RESULT:      -9.6      0.000      0.000
REMARK SMILES CC(C)CN(C)c1cc2c(cc1Cl)C=C(C(=O)OCCOCCOCCOC(=O)c1ccc(-c3c4nc(c(-c5cc(S(=O)(=O)[O-])ccc5F)c5ccc([nH]5)c(-c5cc(S(=O)(=O)[O-])ccc5F)c5nc(c(-c6cc(S(=O)(=O)[O-])ccc6F)c6ccc3[nH]6)C=C5)C=C4)cc1)[C@H](C(F)(F)F)O2
REMARK SMILES IDX 22 1 21 2 20 3 19 4 18 5 16 6 17 7 15 8 7 9 8 10 12 11 9 12
REMARK SMILES IDX 11 13 13 14 10 15 98 16 14 17 93 18 5 19 6 20 4 21 2 22 1 23
REMARK SMILES IDX 3 24 94 25 95 26 96 27 97 28 23 29 24 30 25 31 26 32 27 33
REMARK SMILES IDX 28 34 29 35 30 36 31 37 92 38 32 39 91 40 33 41 34 42 35 43
REMARK SMILES IDX 85 44 36 45 90 46 84 47 86 48 37 49 89 50 83 51 82 52 38 54
REMARK SMILES IDX 70 55 50 56 69 57 51 58 54 59 68 60 87 61 52 62 53 63 67 65
REMARK SMILES IDX 88 66 55 67 39 68 40 69 48 70 41 71 47 72 49 73 46 74 42 75
REMARK SMILES IDX 43 76 44 77 45 78 71 79 72 80 80 81 73 82 79 83 81 84 78 85
REMARK SMILES IDX 74 86 75 87 76 88 77 89 56 90 57 91 65 92 58 93 64 94 66 95
REMARK SMILES IDX 63 96 59 97 60 98 61 99 62 100
REMARK H PARENT 86 53 54 64
REMARK Flexibility Score: inf
ROOT
ATOM      1  C   UNL A   1      36.236  29.511  28.340  1.00  0.00     0.188 C 
ENDROOT
BRANCH   1   2
ATOM      2  O   UNL A   1      35.499  29.265  27.146  1.00  0.00    -0.376 OA
BRANCH   2   3
ATOM      3  C   UNL A   1      34.170  29.764  27.032  1.00  0.00     0.202 C 
BRANCH   3   4
ATOM      4  C   UNL A   1      33.014  28.756  27.094  1.00  0.00     0.261 C 
BRANCH   4   5
ATOM      5  O   UNL A   1      33.427  27.397  26.849  1.00  0.00    -0.460 OA
BRANCH   5   6
ATOM      6  C   UNL A   1      33.255  26.950  25.589  1.00  0.00     0.338 C 
ATOM      7  O   UNL A   1      33.538  27.556  24.568  1.00  0.00    -0.246 OA
BRANCH   6   8
ATOM      8  C   UNL A   1      32.797  25.543  25.569  1.00  0.00     0.087 C 
ATOM      9  C   UNL A   1      33.186  20.571  24.738  1.00  0.00     0.059 A 
ATOM     10  C   UNL A   1      32.133  21.507  24.686  1.00  0.00     0.074 A 
ATOM     11  C   UNL A   1      34.448  21.057  25.143  1.00  0.00     0.065 A 
ATOM     12  C   UNL A   1      32.328  22.853  25.027  1.00  0.00     0.130 A 
ATOM     13  C   UNL A   1      34.612  22.370  25.595  1.00  0.00     0.034 A 
ATOM     14  Cl  UNL A   1      35.898  20.126  24.982  1.00  0.00    -0.082 Cl
ATOM     15  C   UNL A   1      33.552  23.273  25.533  1.00  0.00     0.019 A 
ATOM     16  O   UNL A   1      31.281  23.699  24.802  1.00  0.00    -0.475 OA
ATOM     17  C   UNL A   1      33.765  24.667  25.873  1.00  0.00     0.027 C 
ATOM     18  C   UNL A   1      31.471  25.142  24.971  1.00  0.00     0.316 C 
BRANCH   9  19
ATOM     19  N   UNL A   1      32.979  19.238  24.357  1.00  0.00    -0.373 N 
ATOM     20  C   UNL A   1      32.275  19.035  23.096  1.00  0.00     0.143 C 
BRANCH  19  21
ATOM     21  C   UNL A   1      32.758  18.230  25.418  1.00  0.00     0.119 C 
BRANCH  21  22
ATOM     22  C   UNL A   1      33.636  16.972  25.254  1.00  0.00     0.002 C 
ATOM     23  C   UNL A   1      32.807  15.687  25.336  1.00  0.00     0.009 C 
ATOM     24  C   UNL A   1      34.402  16.980  23.927  1.00  0.00     0.009 C 
ENDBRANCH  21  22
ENDBRANCH  19  21
ENDBRANCH   9  19
BRANCH  18  25
ATOM     25  C   UNL A   1      30.205  25.645  25.687  1.00  0.00     0.430 C 
ATOM     26  F   UNL A   1      30.458  26.672  26.527  1.00  0.00    -0.167 F 
ATOM     27  F   UNL A   1      29.234  26.024  24.830  1.00  0.00    -0.167 F 
ATOM     28  F   UNL A   1      29.665  24.649  26.442  1.00  0.00    -0.167 F 
ENDBRANCH  18  25
ENDBRANCH   6   8
ENDBRANCH   5   6
ENDBRANCH   4   5
ENDBRANCH   3   4
ENDBRANCH   2   3
ENDBRANCH   1   2
BRANCH   1  29
ATOM     29  C   UNL A   1      37.057  30.807  28.472  1.00  0.00     0.188 C 
BRANCH  29  30
ATOM     30  O   UNL A   1      36.288  31.961  28.760  1.00  0.00    -0.376 OA
BRANCH  30  31
ATOM     31  C   UNL A   1      35.457  31.885  29.908  1.00  0.00     0.202 C 
BRANCH  31  32
ATOM     32  C   UNL A   1      36.127  32.266  31.235  1.00  0.00     0.261 C 
BRANCH  32  33
ATOM     33  O   UNL A   1      36.370  31.181  32.145  1.00  0.00    -0.460 OA
BRANCH  33  34
ATOM     34  C   UNL A   1      37.099  31.437  33.258  1.00  0.00     0.338 C 
ATOM     35  O   UNL A   1      36.722  32.019  34.260  1.00  0.00    -0.246 OA
BRANCH  34  36
ATOM     36  C   UNL A   1      38.365  30.678  33.118  1.00  0.00     0.060 A 
ATOM     37  C   UNL A   1      39.578  31.363  33.010  1.00  0.00     0.016 A 
ATOM     38  C   UNL A   1      38.334  29.280  33.023  1.00  0.00     0.016 A 
ATOM     39  C   UNL A   1      40.761  30.649  32.817  1.00  0.00     0.010 A 
ATOM     40  C   UNL A   1      39.521  28.566  32.821  1.00  0.00     0.010 A 
ATOM     41  C   UNL A   1      40.746  29.245  32.732  1.00  0.00    -0.014 A 
BRANCH  41  42
ATOM     42  C   UNL A   1      42.034  28.504  32.751  1.00  0.00     0.031 A 
ATOM     43  C   UNL A   1      42.718  28.039  31.501  1.00  0.00     0.074 A 
ATOM     44  C   UNL A   1      42.595  28.268  33.952  1.00  0.00     0.049 A 
ATOM     45  N   UNL A   1      43.904  27.503  31.371  1.00  0.00    -0.248 NA
ATOM     46  C   UNL A   1      41.981  28.187  30.238  1.00  0.00     0.031 C 
ATOM     47  C   UNL A   1      41.995  28.643  35.233  1.00  0.00     0.029 A 
ATOM     48  N   UNL A   1      43.783  27.675  34.298  1.00  0.00    -0.354 N 
ATOM     49  C   UNL A   1      44.074  27.267  30.012  1.00  0.00     0.074 A 
ATOM     50  C   UNL A   1      42.843  27.673  29.365  1.00  0.00     0.031 C 
ATOM     51  C   UNL A   1      42.828  28.297  36.223  1.00  0.00     0.029 A 
ATOM     52  C   UNL A   1      44.009  27.650  35.655  1.00  0.00     0.049 A 
ATOM     53  H   UNL A   1      44.413  27.303  33.639  1.00  0.00     0.167 HD
ATOM     54  C   UNL A   1      45.165  26.778  29.373  1.00  0.00     0.034 A 
ATOM     55  C   UNL A   1      45.050  27.173  36.367  1.00  0.00     0.034 A 
ATOM     56  C   UNL A   1      46.377  26.366  30.044  1.00  0.00     0.049 A 
ATOM     57  C   UNL A   1      46.242  26.616  35.634  1.00  0.00     0.074 A 
ATOM     58  C   UNL A   1      47.557  25.915  29.476  1.00  0.00     0.029 A 
ATOM     59  N   UNL A   1      46.567  26.337  31.419  1.00  0.00    -0.354 N 
ATOM     60  N   UNL A   1      46.441  26.520  34.341  1.00  0.00    -0.248 NA
ATOM     61  C   UNL A   1      47.360  26.121  36.449  1.00  0.00     0.031 C 
ATOM     62  C   UNL A   1      48.425  25.540  30.501  1.00  0.00     0.029 A 
ATOM     63  C   UNL A   1      47.828  25.838  31.715  1.00  0.00     0.049 A 
ATOM     64  H   UNL A   1      45.905  26.627  32.088  1.00  0.00     0.167 HD
ATOM     65  C   UNL A   1      47.714  25.978  34.186  1.00  0.00     0.074 A 
ATOM     66  C   UNL A   1      48.249  25.794  35.519  1.00  0.00     0.031 C 
ATOM     67  C   UNL A   1      48.372  25.662  33.042  1.00  0.00     0.034 A 
BRANCH  54  68
ATOM     68  C   UNL A   1      45.151  26.681  27.864  1.00  0.00     0.023 A 
ATOM     69  C   UNL A   1      44.957  25.436  27.233  1.00  0.00     0.031 A 
ATOM     70  C   UNL A   1      45.505  27.781  27.064  1.00  0.00     0.131 A 
ATOM     71  C   UNL A   1      45.163  25.314  25.853  1.00  0.00     0.055 A 
ATOM     72  C   UNL A   1      45.666  27.663  25.681  1.00  0.00     0.041 A 
ATOM     73  F   UNL A   1      45.714  28.988  27.616  1.00  0.00    -0.206 F 
ATOM     74  C   UNL A   1      45.510  26.422  25.073  1.00  0.00     0.022 A 
BRANCH  71  75
ATOM     75  S   UNL A   1      45.077  23.701  25.026  1.00  0.00     0.124 S 
ATOM     76  O   UNL A   1      46.013  23.883  23.919  1.00  0.00    -0.237 OA
ATOM     77  O   UNL A   1      45.526  22.793  26.078  1.00  0.00    -0.237 OA
ATOM     78  O   UNL A   1      43.676  23.578  24.640  1.00  0.00    -0.744 OA
ENDBRANCH  71  75
ENDBRANCH  54  68
BRANCH  55  79
ATOM     79  C   UNL A   1      45.016  27.290  37.854  1.00  0.00     0.023 A 
ATOM     80  C   UNL A   1      45.551  28.420  38.499  1.00  0.00     0.031 A 
ATOM     81  C   UNL A   1      44.570  26.222  38.651  1.00  0.00     0.131 A 
ATOM     82  C   UNL A   1      45.695  28.424  39.892  1.00  0.00     0.055 A 
ATOM     83  C   UNL A   1      44.644  26.264  40.044  1.00  0.00     0.041 A 
ATOM     84  F   UNL A   1      44.068  25.116  38.080  1.00  0.00    -0.206 F 
ATOM     85  C   UNL A   1      45.229  27.361  40.670  1.00  0.00     0.022 A 
BRANCH  82  86
ATOM     86  S   UNL A   1      46.626  29.740  40.724  1.00  0.00     0.124 S 
ATOM     87  O   UNL A   1      46.075  30.942  40.105  1.00  0.00    -0.237 OA
ATOM     88  O   UNL A   1      46.259  29.526  42.122  1.00  0.00    -0.237 OA
ATOM     89  O   UNL A   1      48.015  29.441  40.396  1.00  0.00    -0.744 OA
ENDBRANCH  82  86
ENDBRANCH  55  79
BRANCH  67  90
ATOM     90  C   UNL A   1      49.761  25.072  33.142  1.00  0.00     0.023 A 
ATOM     91  C   UNL A   1      49.927  23.685  33.333  1.00  0.00     0.031 A 
ATOM     92  C   UNL A   1      50.903  25.889  33.206  1.00  0.00     0.131 A 
ATOM     93  C   UNL A   1      51.196  23.167  33.628  1.00  0.00     0.055 A 
ATOM     94  C   UNL A   1      52.173  25.361  33.447  1.00  0.00     0.041 A 
ATOM     95  F   UNL A   1      50.800  27.218  33.041  1.00  0.00    -0.206 F 
ATOM     96  C   UNL A   1      52.321  23.996  33.676  1.00  0.00     0.022 A 
BRANCH  93  97
ATOM     97  S   UNL A   1      51.418  21.417  34.054  1.00  0.00     0.124 S 
ATOM     98  O   UNL A   1      50.534  20.757  33.096  1.00  0.00    -0.237 OA
ATOM     99  O   UNL A   1      52.847  21.223  33.820  1.00  0.00    -0.237 OA
ATOM    100  O   UNL A   1      50.994  21.336  35.448  1.00  0.00    -0.744 OA
ENDBRANCH  93  97
ENDBRANCH  67  90
ENDBRANCH  41  42
ENDBRANCH  34  36
ENDBRANCH  33  34
ENDBRANCH  32  33
ENDBRANCH  31  32
ENDBRANCH  30  31
ENDBRANCH  29  30
ENDBRANCH   1  29
TORSDOF 24
ENDMDL
MODEL 2
REMARK VINA RESULT:      -9.3      1.560      7.613
REMARK SMILES CC(C)CN(C)c1cc2c(cc1Cl)C=C(C(=O)OCCOCCOCCOC(=O)c1ccc(-c3c4nc(c(-c5cc(S(=O)(=O)[O-])ccc5F)c5ccc([nH]5)c(-c5cc(S(=O)(=O)[O-])ccc5F)c5nc(c(-c6cc(S(=O)(=O)[O-])ccc6F)c6ccc3[nH]6)C=C5)C=C4)cc1)[C@H](C(F)(F)F)O2
REMARK SMILES IDX 22 1 21 2 20 3 19 4 18 5 16 6 17 7 15 8 7 9 8 10 12 11 9 12
REMARK SMILES IDX 11 13 13 14 10 15 98 16 14 17 93 18 5 19 6 20 4 21 2 22 1 23
REMARK SMILES IDX 3 24 94 25 95 26 96 27 97 28 23 29 24 30 25 31 26 32 27 33
REMARK SMILES IDX 28 34 29 35 30 36 31 37 92 38 32 39 91 40 33 41 34 42 35 43
REMARK SMILES IDX 85 44 36 45 90 46 84 47 86 48 37 49 89 50 83 51 82 52 38 54
REMARK SMILES IDX 70 55 50 56 69 57 51 58 54 59 68 60 87 61 52 62 53 63 67 65
REMARK SMILES IDX 88 66 55 67 39 68 40 69 48 70 41 71 47 72 49 73 46 74 42 75
REMARK SMILES IDX 43 76 44 77 45 78 71 79 72 80 80 81 73 82 79 83 81 84 78 85
REMARK SMILES IDX 74 86 75 87 76 88 77 89 56 90 57 91 65 92 58 93 64 94 66 95
REMARK SMILES IDX 63 96 59 97 60 98 61 99 62 100
REMARK H PARENT 86 53 54 64
REMARK Flexibility Score: inf
ROOT
ATOM      1  C   UNL A   1      33.328  32.570  27.625  1.00  0.00     0.188 C 
ENDROOT
BRANCH   1   2
ATOM      2  O   UNL A   1      33.050  31.232  27.224  1.00  0.00    -0.376 OA
BRANCH   2   3
ATOM      3  C   UNL A   1      31.751  30.903  26.743  1.00  0.00     0.202 C 
BRANCH   3   4
ATOM      4  C   UNL A   1      31.648  30.050  25.471  1.00  0.00     0.261 C 
BRANCH   4   5
ATOM      5  O   UNL A   1      31.951  28.659  25.690  1.00  0.00    -0.460 OA
BRANCH   5   6
ATOM      6  C   UNL A   1      33.165  28.248  25.271  1.00  0.00     0.338 C 
ATOM      7  O   UNL A   1      34.198  28.895  25.328  1.00  0.00    -0.246 OA
BRANCH   6   8
ATOM      8  C   UNL A   1      33.142  26.832  24.844  1.00  0.00     0.087 C 
ATOM      9  C   UNL A   1      34.058  21.875  25.237  1.00  0.00     0.059 A 
ATOM     10  C   UNL A   1      33.976  22.787  24.166  1.00  0.00     0.074 A 
ATOM     11  C   UNL A   1      33.801  22.387  26.528  1.00  0.00     0.065 A 
ATOM     12  C   UNL A   1      33.649  24.135  24.372  1.00  0.00     0.130 A 
ATOM     13  C   UNL A   1      33.360  23.700  26.716  1.00  0.00     0.034 A 
ATOM     14  Cl  UNL A   1      34.140  21.489  27.968  1.00  0.00    -0.082 Cl
ATOM     15  C   UNL A   1      33.288  24.579  25.638  1.00  0.00     0.019 A 
ATOM     16  O   UNL A   1      33.742  24.960  23.288  1.00  0.00    -0.475 OA
ATOM     17  C   UNL A   1      32.963  25.976  25.859  1.00  0.00     0.027 C 
ATOM     18  C   UNL A   1      33.584  26.405  23.465  1.00  0.00     0.316 C 
BRANCH   9  19
ATOM     19  N   UNL A   1      34.424  20.541  25.015  1.00  0.00    -0.373 N 
ATOM     20  C   UNL A   1      35.850  20.286  24.853  1.00  0.00     0.143 C 
BRANCH  19  21
ATOM     21  C   UNL A   1      33.498  19.676  24.250  1.00  0.00     0.119 C 
BRANCH  21  22
ATOM     22  C   UNL A   1      33.630  18.180  24.602  1.00  0.00     0.002 C 
ATOM     23  C   UNL A   1      32.337  17.622  25.204  1.00  0.00     0.009 C 
ATOM     24  C   UNL A   1      34.006  17.338  23.378  1.00  0.00     0.009 C 
ENDBRANCH  21  22
ENDBRANCH  19  21
ENDBRANCH   9  19
BRANCH  18  25
ATOM     25  C   UNL A   1      32.718  26.875  22.282  1.00  0.00     0.430 C 
ATOM     26  F   UNL A   1      33.296  26.626  21.086  1.00  0.00    -0.167 F 
ATOM     27  F   UNL A   1      31.485  26.327  22.284  1.00  0.00    -0.167 F 
ATOM     28  F   UNL A   1      32.525  28.221  22.347  1.00  0.00    -0.167 F 
ENDBRANCH  18  25
ENDBRANCH   6   8
ENDBRANCH   5   6
ENDBRANCH   4   5
ENDBRANCH   3   4
ENDBRANCH   2   3
ENDBRANCH   1   2
BRANCH   1  29
ATOM     29  C   UNL A   1      34.435  32.837  28.662  1.00  0.00     0.188 C 
BRANCH  29  30
ATOM     30  O   UNL A   1      35.087  31.673  29.136  1.00  0.00    -0.376 OA
BRANCH  30  31
ATOM     31  C   UNL A   1      36.237  31.264  28.411  1.00  0.00     0.202 C 
BRANCH  31  32
ATOM     32  C   UNL A   1      37.556  31.290  29.195  1.00  0.00     0.261 C 
BRANCH  32  33
ATOM     33  O   UNL A   1      37.433  31.255  30.626  1.00  0.00    -0.460 OA
BRANCH  33  34
ATOM     34  C   UNL A   1      37.310  30.045  31.222  1.00  0.00     0.338 C 
ATOM     35  O   UNL A   1      36.306  29.357  31.279  1.00  0.00    -0.246 OA
BRANCH  34  36
ATOM     36  C   UNL A   1      38.681  29.612  31.588  1.00  0.00     0.060 A 
ATOM     37  C   UNL A   1      38.958  28.254  31.761  1.00  0.00     0.016 A 
ATOM     38  C   UNL A   1      39.674  30.572  31.830  1.00  0.00     0.016 A 
ATOM     39  C   UNL A   1      40.233  27.855  32.165  1.00  0.00     0.010 A 
ATOM     40  C   UNL A   1      40.949  30.169  32.244  1.00  0.00     0.010 A 
ATOM     41  C   UNL A   1      41.242  28.806  32.399  1.00  0.00    -0.014 A 
BRANCH  41  42
ATOM     42  C   UNL A   1      42.639  28.343  32.609  1.00  0.00     0.031 A 
ATOM     43  C   UNL A   1      43.218  28.114  33.973  1.00  0.00     0.074 A 
ATOM     44  C   UNL A   1      43.387  28.112  31.514  1.00  0.00     0.049 A 
ATOM     45  N   UNL A   1      44.372  27.588  34.291  1.00  0.00    -0.248 NA
ATOM     46  C   UNL A   1      42.408  28.533  35.126  1.00  0.00     0.031 C 
ATOM     47  C   UNL A   1      42.933  28.340  30.141  1.00  0.00     0.029 A 
ATOM     48  N   UNL A   1      44.665  27.633  31.371  1.00  0.00    -0.354 N 
ATOM     49  C   UNL A   1      44.426  27.585  35.680  1.00  0.00     0.074 A 
ATOM     50  C   UNL A   1      43.205  28.214  36.141  1.00  0.00     0.031 C 
ATOM     51  C   UNL A   1      43.906  27.975  29.295  1.00  0.00     0.029 A 
ATOM     52  C   UNL A   1      45.062  27.515  30.060  1.00  0.00     0.049 A 
ATOM     53  H   UNL A   1      45.241  27.398  32.134  1.00  0.00     0.167 HD
ATOM     54  C   UNL A   1      45.396  27.084  36.484  1.00  0.00     0.034 A 
ATOM     55  C   UNL A   1      46.220  27.077  29.526  1.00  0.00     0.034 A 
ATOM     56  C   UNL A   1      46.613  26.475  35.997  1.00  0.00     0.049 A 
ATOM     57  C   UNL A   1      47.292  26.544  30.442  1.00  0.00     0.074 A 
ATOM     58  C   UNL A   1      47.626  25.884  36.734  1.00  0.00     0.029 A 
ATOM     59  N   UNL A   1      46.994  26.386  34.665  1.00  0.00    -0.354 N 
ATOM     60  N   UNL A   1      47.273  26.429  31.748  1.00  0.00    -0.248 NA
ATOM     61  C   UNL A   1      48.531  26.063  29.816  1.00  0.00     0.031 C 
ATOM     62  C   UNL A   1      48.649  25.514  35.861  1.00  0.00     0.029 A 
ATOM     63  C   UNL A   1      48.242  25.788  34.565  1.00  0.00     0.049 A 
ATOM     64  H   UNL A   1      46.458  26.701  33.902  1.00  0.00     0.167 HD
ATOM     65  C   UNL A   1      48.485  25.840  32.100  1.00  0.00     0.074 A 
ATOM     66  C   UNL A   1      49.200  25.598  30.865  1.00  0.00     0.031 C 
ATOM     67  C   UNL A   1      48.957  25.535  33.335  1.00  0.00     0.034 A 
BRANCH  54  68
ATOM     68  C   UNL A   1      45.201  27.124  37.982  1.00  0.00     0.023 A 
ATOM     69  C   UNL A   1      45.702  28.202  38.737  1.00  0.00     0.031 A 
ATOM     70  C   UNL A   1      44.682  26.015  38.675  1.00  0.00     0.131 A 
ATOM     71  C   UNL A   1      45.715  28.129  40.136  1.00  0.00     0.055 A 
ATOM     72  C   UNL A   1      44.657  25.966  40.070  1.00  0.00     0.041 A 
ATOM     73  F   UNL A   1      44.204  24.954  38.004  1.00  0.00    -0.206 F 
ATOM     74  C   UNL A   1      45.189  27.019  40.807  1.00  0.00     0.022 A 
BRANCH  71  75
ATOM     75  S   UNL A   1      46.491  29.425  41.142  1.00  0.00     0.124 S 
ATOM     76  O   UNL A   1      47.779  29.591  40.472  1.00  0.00    -0.237 OA
ATOM     77  O   UNL A   1      45.558  30.537  40.982  1.00  0.00    -0.237 OA
ATOM     78  O   UNL A   1      46.557  28.842  42.477  1.00  0.00    -0.744 OA
ENDBRANCH  71  75
ENDBRANCH  54  68
BRANCH  55  79
ATOM     79  C   UNL A   1      46.365  27.061  28.041  1.00  0.00     0.023 A 
ATOM     80  C   UNL A   1      46.031  25.913  27.299  1.00  0.00     0.031 A 
ATOM     81  C   UNL A   1      46.960  28.138  27.363  1.00  0.00     0.131 A 
ATOM     82  C   UNL A   1      46.361  25.842  25.940  1.00  0.00     0.055 A 
ATOM     83  C   UNL A   1      47.217  28.091  25.992  1.00  0.00     0.041 A 
ATOM     84  F   UNL A   1      47.313  29.246  28.032  1.00  0.00    -0.206 F 
ATOM     85  C   UNL A   1      46.936  26.930  25.278  1.00  0.00     0.022 A 
BRANCH  82  86
ATOM     86  S   UNL A   1      46.194  24.284  25.025  1.00  0.00     0.124 S 
ATOM     87  O   UNL A   1      47.187  24.445  23.967  1.00  0.00    -0.237 OA
ATOM     88  O   UNL A   1      46.520  23.299  26.053  1.00  0.00    -0.237 OA
ATOM     89  O   UNL A   1      44.801  24.287  24.590  1.00  0.00    -0.744 OA
ENDBRANCH  82  86
ENDBRANCH  55  79
BRANCH  67  90
ATOM     90  C   UNL A   1      50.324  24.898  33.454  1.00  0.00     0.023 A 
ATOM     91  C   UNL A   1      50.490  23.526  33.175  1.00  0.00     0.031 A 
ATOM     92  C   UNL A   1      51.417  25.601  33.990  1.00  0.00     0.131 A 
ATOM     93  C   UNL A   1      51.703  22.893  33.480  1.00  0.00     0.055 A 
ATOM     94  C   UNL A   1      52.641  24.977  34.241  1.00  0.00     0.041 A 
ATOM     95  F   UNL A   1      51.310  26.907  34.284  1.00  0.00    -0.206 F 
ATOM     96  C   UNL A   1      52.782  23.613  34.002  1.00  0.00     0.022 A 
BRANCH  93  97
ATOM     97  S   UNL A   1      51.894  21.098  33.300  1.00  0.00     0.124 S 
ATOM     98  O   UNL A   1      52.561  20.738  34.550  1.00  0.00    -0.237 OA
ATOM     99  O   UNL A   1      50.508  20.651  33.183  1.00  0.00    -0.237 OA
ATOM    100  O   UNL A   1      52.706  20.947  32.098  1.00  0.00    -0.744 OA
ENDBRANCH  93  97
ENDBRANCH  67  90
ENDBRANCH  41  42
ENDBRANCH  34  36
ENDBRANCH  33  34
ENDBRANCH  32  33
ENDBRANCH  31  32
ENDBRANCH  30  31
ENDBRANCH  29  30
ENDBRANCH   1  29
TORSDOF 24
ENDMDL
MODEL 3
REMARK VINA RESULT:      -9.3      6.601      9.719
REMARK SMILES CC(C)CN(C)c1cc2c(cc1Cl)C=C(C(=O)OCCOCCOCCOC(=O)c1ccc(-c3c4nc(c(-c5cc(S(=O)(=O)[O-])ccc5F)c5ccc([nH]5)c(-c5cc(S(=O)(=O)[O-])ccc5F)c5nc(c(-c6cc(S(=O)(=O)[O-])ccc6F)c6ccc3[nH]6)C=C5)C=C4)cc1)[C@H](C(F)(F)F)O2
REMARK SMILES IDX 22 1 21 2 20 3 19 4 18 5 16 6 17 7 15 8 7 9 8 10 12 11 9 12
REMARK SMILES IDX 11 13 13 14 10 15 98 16 14 17 93 18 5 19 6 20 4 21 2 22 1 23
REMARK SMILES IDX 3 24 94 25 95 26 96 27 97 28 23 29 24 30 25 31 26 32 27 33
REMARK SMILES IDX 28 34 29 35 30 36 31 37 92 38 32 39 91 40 33 41 34 42 35 43
REMARK SMILES IDX 85 44 36 45 90 46 84 47 86 48 37 49 89 50 83 51 82 52 38 54
REMARK SMILES IDX 70 55 50 56 69 57 51 58 54 59 68 60 87 61 52 62 53 63 67 65
REMARK SMILES IDX 88 66 55 67 39 68 40 69 48 70 41 71 47 72 49 73 46 74 42 75
REMARK SMILES IDX 43 76 44 77 45 78 71 79 72 80 80 81 73 82 79 83 81 84 78 85
REMARK SMILES IDX 74 86 75 87 76 88 77 89 56 90 57 91 65 92 58 93 64 94 66 95
REMARK SMILES IDX 63 96 59 97 60 98 61 99 62 100
REMARK H PARENT 86 53 54 64
REMARK Flexibility Score: inf
ROOT
ATOM      1  C   UNL A   1      34.876  32.072  28.021  1.00  0.00     0.188 C 
ENDROOT
BRANCH   1   2
ATOM      2  O   UNL A   1      34.208  31.074  27.256  1.00  0.00    -0.376 OA
BRANCH   2   3
ATOM      3  C   UNL A   1      34.674  29.730  27.302  1.00  0.00     0.202 C 
BRANCH   3   4
ATOM      4  C   UNL A   1      33.642  28.604  27.144  1.00  0.00     0.261 C 
BRANCH   4   5
ATOM      5  O   UNL A   1      32.907  28.672  25.907  1.00  0.00    -0.460 OA
BRANCH   5   6
ATOM      6  C   UNL A   1      33.415  27.959  24.882  1.00  0.00     0.338 C 
ATOM      7  O   UNL A   1      34.254  28.347  24.086  1.00  0.00    -0.246 OA
BRANCH   6   8
ATOM      8  C   UNL A   1      32.933  26.560  24.902  1.00  0.00     0.087 C 
ATOM      9  C   UNL A   1      33.283  21.547  24.339  1.00  0.00     0.059 A 
ATOM     10  C   UNL A   1      32.253  22.495  24.176  1.00  0.00     0.074 A 
ATOM     11  C   UNL A   1      34.526  22.034  24.798  1.00  0.00     0.065 A 
ATOM     12  C   UNL A   1      32.451  23.853  24.462  1.00  0.00     0.130 A 
ATOM     13  C   UNL A   1      34.686  23.365  25.195  1.00  0.00     0.034 A 
ATOM     14  Cl  UNL A   1      35.966  21.074  24.774  1.00  0.00    -0.082 Cl
ATOM     15  C   UNL A   1      33.648  24.279  25.023  1.00  0.00     0.019 A 
ATOM     16  O   UNL A   1      31.435  24.703  24.131  1.00  0.00    -0.475 OA
ATOM     17  C   UNL A   1      33.864  25.685  25.308  1.00  0.00     0.027 C 
ATOM     18  C   UNL A   1      31.640  26.149  24.241  1.00  0.00     0.316 C 
BRANCH   9  19
ATOM     19  N   UNL A   1      33.076  20.201  24.010  1.00  0.00    -0.373 N 
ATOM     20  C   UNL A   1      32.174  19.945  22.894  1.00  0.00     0.143 C 
BRANCH  19  21
ATOM     21  C   UNL A   1      33.092  19.200  25.101  1.00  0.00     0.119 C 
BRANCH  21  22
ATOM     22  C   UNL A   1      33.329  17.760  24.604  1.00  0.00     0.002 C 
ATOM     23  C   UNL A   1      34.817  17.472  24.383  1.00  0.00     0.009 C 
ATOM     24  C   UNL A   1      32.767  16.720  25.579  1.00  0.00     0.009 C 
ENDBRANCH  21  22
ENDBRANCH  19  21
ENDBRANCH   9  19
BRANCH  18  25
ATOM     25  C   UNL A   1      30.341  26.706  24.851  1.00  0.00     0.430 C 
ATOM     26  F   UNL A   1      30.095  27.979  24.472  1.00  0.00    -0.167 F 
ATOM     27  F   UNL A   1      29.260  25.955  24.555  1.00  0.00    -0.167 F 
ATOM     28  F   UNL A   1      30.425  26.714  26.209  1.00  0.00    -0.167 F 
ENDBRANCH  18  25
ENDBRANCH   6   8
ENDBRANCH   5   6
ENDBRANCH   4   5
ENDBRANCH   3   4
ENDBRANCH   2   3
ENDBRANCH   1   2
BRANCH   1  29
ATOM     29  C   UNL A   1      36.244  31.753  28.654  1.00  0.00     0.188 C 
BRANCH  29  30
ATOM     30  O   UNL A   1      36.420  32.269  29.961  1.00  0.00    -0.376 OA
BRANCH  30  31
ATOM     31  C   UNL A   1      36.012  31.423  31.025  1.00  0.00     0.202 C 
BRANCH  31  32
ATOM     32  C   UNL A   1      36.269  29.925  30.814  1.00  0.00     0.261 C 
BRANCH  32  33
ATOM     33  O   UNL A   1      37.556  29.446  31.237  1.00  0.00    -0.460 OA
BRANCH  33  34
ATOM     34  C   UNL A   1      38.212  30.151  32.189  1.00  0.00     0.338 C 
ATOM     35  O   UNL A   1      37.946  30.197  33.377  1.00  0.00    -0.246 OA
BRANCH  34  36
ATOM     36  C   UNL A   1      39.448  30.669  31.555  1.00  0.00     0.060 A 
ATOM     37  C   UNL A   1      39.639  30.520  30.179  1.00  0.00     0.016 A 
ATOM     38  C   UNL A   1      40.453  31.241  32.348  1.00  0.00     0.016 A 
ATOM     39  C   UNL A   1      40.830  30.953  29.595  1.00  0.00     0.010 A 
ATOM     40  C   UNL A   1      41.650  31.667  31.760  1.00  0.00     0.010 A 
ATOM     41  C   UNL A   1      41.841  31.540  30.377  1.00  0.00    -0.014 A 
BRANCH  41  42
ATOM     42  C   UNL A   1      42.994  32.190  29.701  1.00  0.00     0.031 A 
ATOM     43  C   UNL A   1      43.001  33.644  29.334  1.00  0.00     0.074 A 
ATOM     44  C   UNL A   1      44.067  31.424  29.431  1.00  0.00     0.049 A 
ATOM     45  N   UNL A   1      43.989  34.361  28.864  1.00  0.00    -0.248 NA
ATOM     46  C   UNL A   1      41.746  34.388  29.510  1.00  0.00     0.031 C 
ATOM     47  C   UNL A   1      44.149  29.989  29.711  1.00  0.00     0.029 A 
ATOM     48  N   UNL A   1      45.286  31.729  28.880  1.00  0.00    -0.354 N 
ATOM     49  C   UNL A   1      43.490  35.649  28.706  1.00  0.00     0.074 A 
ATOM     50  C   UNL A   1      42.091  35.599  29.084  1.00  0.00     0.031 C 
ATOM     51  C   UNL A   1      45.362  29.544  29.356  1.00  0.00     0.029 A 
ATOM     52  C   UNL A   1      46.136  30.651  28.798  1.00  0.00     0.049 A 
ATOM     53  H   UNL A   1      45.528  32.633  28.574  1.00  0.00     0.167 HD
ATOM     54  C   UNL A   1      44.149  36.764  28.305  1.00  0.00     0.034 A 
ATOM     55  C   UNL A   1      47.400  30.557  28.337  1.00  0.00     0.034 A 
ATOM     56  C   UNL A   1      45.541  36.783  27.919  1.00  0.00     0.049 A 
ATOM     57  C   UNL A   1      48.104  31.808  27.877  1.00  0.00     0.074 A 
ATOM     58  C   UNL A   1      46.311  37.876  27.556  1.00  0.00     0.029 A 
ATOM     59  N   UNL A   1      46.369  35.672  27.829  1.00  0.00    -0.354 N 
ATOM     60  N   UNL A   1      47.658  33.041  27.857  1.00  0.00    -0.248 NA
ATOM     61  C   UNL A   1      49.484  31.662  27.397  1.00  0.00     0.031 C 
ATOM     62  C   UNL A   1      47.572  37.419  27.173  1.00  0.00     0.029 A 
ATOM     63  C   UNL A   1      47.626  36.050  27.379  1.00  0.00     0.049 A 
ATOM     64  H   UNL A   1      46.104  34.751  28.053  1.00  0.00     0.167 HD
ATOM     65  C   UNL A   1      48.711  33.823  27.387  1.00  0.00     0.074 A 
ATOM     66  C   UNL A   1      49.823  32.925  27.162  1.00  0.00     0.031 C 
ATOM     67  C   UNL A   1      48.744  35.160  27.162  1.00  0.00     0.034 A 
BRANCH  54  68
ATOM     68  C   UNL A   1      43.413  38.084  28.284  1.00  0.00     0.023 A 
ATOM     69  C   UNL A   1      43.486  38.957  29.387  1.00  0.00     0.031 A 
ATOM     70  C   UNL A   1      42.504  38.391  27.256  1.00  0.00     0.131 A 
ATOM     71  C   UNL A   1      42.634  40.067  29.457  1.00  0.00     0.055 A 
ATOM     72  C   UNL A   1      41.688  39.523  27.310  1.00  0.00     0.041 A 
ATOM     73  F   UNL A   1      42.384  37.586  26.187  1.00  0.00    -0.206 F 
ATOM     74  C   UNL A   1      41.740  40.358  28.420  1.00  0.00     0.022 A 
BRANCH  71  75
ATOM     75  S   UNL A   1      42.586  41.128  30.928  1.00  0.00     0.124 S 
ATOM     76  O   UNL A   1      43.196  42.358  30.429  1.00  0.00    -0.237 OA
ATOM     77  O   UNL A   1      41.153  41.210  31.200  1.00  0.00    -0.237 OA
ATOM     78  O   UNL A   1      43.375  40.399  31.913  1.00  0.00    -0.744 OA
ENDBRANCH  71  75
ENDBRANCH  54  68
BRANCH  55  79
ATOM     79  C   UNL A   1      48.082  29.231  28.376  1.00  0.00     0.023 A 
ATOM     80  C   UNL A   1      47.955  28.326  27.307  1.00  0.00     0.031 A 
ATOM     81  C   UNL A   1      48.757  28.801  29.531  1.00  0.00     0.131 A 
ATOM     82  C   UNL A   1      48.429  27.015  27.444  1.00  0.00     0.055 A 
ATOM     83  C   UNL A   1      49.296  27.518  29.633  1.00  0.00     0.041 A 
ATOM     84  F   UNL A   1      48.887  29.623  30.583  1.00  0.00    -0.206 F 
ATOM     85  C   UNL A   1      49.114  26.611  28.593  1.00  0.00     0.022 A 
BRANCH  82  86
ATOM     86  S   UNL A   1      48.040  25.753  26.200  1.00  0.00     0.124 S 
ATOM     87  O   UNL A   1      47.834  24.566  27.024  1.00  0.00    -0.237 OA
ATOM     88  O   UNL A   1      46.839  26.307  25.579  1.00  0.00    -0.237 OA
ATOM     89  O   UNL A   1      49.223  25.733  25.347  1.00  0.00    -0.744 OA
ENDBRANCH  82  86
ENDBRANCH  55  79
BRANCH  67  90
ATOM     90  C   UNL A   1      50.021  35.778  26.637  1.00  0.00     0.023 A 
ATOM     91  C   UNL A   1      50.955  36.338  27.532  1.00  0.00     0.031 A 
ATOM     92  C   UNL A   1      50.239  35.954  25.258  1.00  0.00     0.131 A 
ATOM     93  C   UNL A   1      52.032  37.087  27.040  1.00  0.00     0.055 A 
ATOM     94  C   UNL A   1      51.345  36.655  24.773  1.00  0.00     0.041 A 
ATOM     95  F   UNL A   1      49.375  35.449  24.363  1.00  0.00    -0.206 F 
ATOM     96  C   UNL A   1      52.238  37.240  25.666  1.00  0.00     0.022 A 
BRANCH  93  97
ATOM     97  S   UNL A   1      53.151  37.969  28.164  1.00  0.00     0.124 S 
ATOM     98  O   UNL A   1      53.491  36.928  29.132  1.00  0.00    -0.237 OA
ATOM     99  O   UNL A   1      54.235  38.365  27.269  1.00  0.00    -0.237 OA
ATOM    100  O   UNL A   1      52.338  39.062  28.687  1.00  0.00    -0.744 OA
ENDBRANCH  93  97
ENDBRANCH  67  90
ENDBRANCH  41  42
ENDBRANCH  34  36
ENDBRANCH  33  34
ENDBRANCH  32  33
ENDBRANCH  31  32
ENDBRANCH  30  31
ENDBRANCH  29  30
ENDBRANCH   1  29
TORSDOF 24
ENDMDL
