MODEL 1
REMARK VINA RESULT:      -9.6      0.000      0.000
REMARK SMILES O=C(Cc1ccccc1-c1ccn(C(F)F)c(=O)c1)OCCOCCOCCOC(=O)c1ccc(-c2c3nc(c(-c4cc(S(=O)(=O)[O-])ccc4F)c4ccc([nH]4)c(-c4cc(S(=O)(=O)[O-])ccc4F)c4nc(c(-c5cc(S(=O)(=O)[O-])ccc5F)c5ccc2[nH]5)C=C4)C=C3)cc1
REMARK SMILES IDX 24 1 23 2 22 3 21 4 20 5 2 6 1 7 3 8 4 9 5 10 9 11 6 12 8 13
REMARK SMILES IDX 7 14 10 15 11 16 19 17 12 18 17 19 13 20 18 21 14 22 15 23
REMARK SMILES IDX 16 24 25 25 26 26 27 27 28 28 29 29 30 30 31 31 32 32 33 33
REMARK SMILES IDX 94 34 34 35 93 36 35 37 36 38 37 39 87 40 38 41 92 42 86 43
REMARK SMILES IDX 88 44 39 45 91 46 85 47 84 48 40 50 72 51 52 52 71 53 53 54
REMARK SMILES IDX 56 55 70 56 89 57 54 58 55 59 69 61 90 62 57 63 41 64 42 65
REMARK SMILES IDX 50 66 43 67 49 68 51 69 48 70 44 71 45 72 46 73 47 74 73 75
REMARK SMILES IDX 74 76 82 77 75 78 81 79 83 80 80 81 76 82 77 83 78 84 79 85
REMARK SMILES IDX 58 86 59 87 67 88 60 89 66 90 68 91 65 92 61 93 62 94 63 95
REMARK SMILES IDX 64 96
REMARK H PARENT 88 49 56 60
REMARK Flexibility Score: inf
ROOT
ATOM      1  C   UNL A   1      42.504  19.836  26.140  1.00  0.00     0.188 C 
ENDROOT
BRANCH   1   2
ATOM      2  O   UNL A   1      41.523  20.746  25.691  1.00  0.00    -0.376 OA
BRANCH   2   3
ATOM      3  C   UNL A   1      40.348  20.994  26.436  1.00  0.00     0.202 C 
BRANCH   3   4
ATOM      4  C   UNL A   1      38.994  20.741  25.784  1.00  0.00     0.261 C 
BRANCH   4   5
ATOM      5  O   UNL A   1      38.082  21.835  25.521  1.00  0.00    -0.463 OA
BRANCH   5   6
ATOM      6  C   UNL A   1      36.834  21.899  25.018  1.00  0.00     0.310 C 
ATOM      7  O   UNL A   1      36.686  22.251  23.847  1.00  0.00    -0.252 OA
BRANCH   6   8
ATOM      8  C   UNL A   1      35.637  21.628  25.896  1.00  0.00     0.158 C 
BRANCH   8   9
ATOM      9  C   UNL A   1      34.629  20.745  25.227  1.00  0.00    -0.029 A 
ATOM     10  C   UNL A   1      35.002  19.414  24.954  1.00  0.00     0.005 A 
ATOM     11  C   UNL A   1      33.345  21.199  24.869  1.00  0.00    -0.014 A 
ATOM     12  C   UNL A   1      34.143  18.554  24.286  1.00  0.00     0.000 A 
ATOM     13  C   UNL A   1      32.505  20.323  24.164  1.00  0.00     0.009 A 
ATOM     14  C   UNL A   1      32.903  19.015  23.871  1.00  0.00     0.001 A 
BRANCH  11  15
ATOM     15  C   UNL A   1      32.810  22.507  25.329  1.00  0.00    -0.011 A 
ATOM     16  C   UNL A   1      31.994  22.717  26.514  1.00  0.00     0.027 A 
ATOM     17  C   UNL A   1      32.990  23.546  24.496  1.00  0.00     0.080 A 
ATOM     18  C   UNL A   1      31.327  23.865  26.688  1.00  0.00     0.095 A 
ATOM     19  C   UNL A   1      32.393  24.876  24.770  1.00  0.00     0.255 A 
ATOM     20  N   UNL A   1      31.498  24.933  25.822  1.00  0.00    -0.258 N 
ATOM     21  O   UNL A   1      32.723  25.792  24.031  1.00  0.00    -0.269 OA
BRANCH  20  22
ATOM     22  C   UNL A   1      30.677  26.115  25.999  1.00  0.00     0.451 C 
ATOM     23  F   UNL A   1      31.354  27.281  25.993  1.00  0.00    -0.185 F 
ATOM     24  F   UNL A   1      29.757  26.167  24.998  1.00  0.00    -0.185 F 
ENDBRANCH  20  22
ENDBRANCH  11  15
ENDBRANCH   8   9
ENDBRANCH   6   8
ENDBRANCH   5   6
ENDBRANCH   4   5
ENDBRANCH   3   4
ENDBRANCH   2   3
ENDBRANCH   1   2
BRANCH   1  25
ATOM     25  C   UNL A   1      43.539  19.389  25.096  1.00  0.00     0.188 C 
BRANCH  25  26
ATOM     26  O   UNL A   1      44.834  19.002  25.523  1.00  0.00    -0.376 OA
BRANCH  26  27
ATOM     27  C   UNL A   1      45.911  19.911  25.345  1.00  0.00     0.202 C 
BRANCH  27  28
ATOM     28  C   UNL A   1      45.676  21.273  24.660  1.00  0.00     0.261 C 
BRANCH  28  29
ATOM     29  O   UNL A   1      45.093  22.324  25.461  1.00  0.00    -0.460 OA
BRANCH  29  30
ATOM     30  C   UNL A   1      44.097  23.043  24.874  1.00  0.00     0.338 C 
ATOM     31  O   UNL A   1      43.407  22.691  23.937  1.00  0.00    -0.246 OA
BRANCH  30  32
ATOM     32  C   UNL A   1      43.863  24.315  25.603  1.00  0.00     0.060 A 
ATOM     33  C   UNL A   1      43.163  25.357  24.973  1.00  0.00     0.016 A 
ATOM     34  C   UNL A   1      44.427  24.523  26.862  1.00  0.00     0.016 A 
ATOM     35  C   UNL A   1      43.024  26.603  25.604  1.00  0.00     0.010 A 
ATOM     36  C   UNL A   1      44.313  25.780  27.476  1.00  0.00     0.010 A 
ATOM     37  C   UNL A   1      43.626  26.834  26.849  1.00  0.00    -0.014 A 
BRANCH  37  38
ATOM     38  C   UNL A   1      43.615  28.192  27.468  1.00  0.00     0.031 A 
ATOM     39  C   UNL A   1      44.856  29.040  27.427  1.00  0.00     0.074 A 
ATOM     40  C   UNL A   1      42.528  28.641  28.127  1.00  0.00     0.049 A 
ATOM     41  N   UNL A   1      45.085  30.199  27.988  1.00  0.00    -0.248 NA
ATOM     42  C   UNL A   1      46.002  28.490  26.689  1.00  0.00     0.031 C 
ATOM     43  C   UNL A   1      41.284  27.894  28.269  1.00  0.00     0.029 A 
ATOM     44  N   UNL A   1      42.293  29.819  28.799  1.00  0.00    -0.354 N 
ATOM     45  C   UNL A   1      46.421  30.486  27.737  1.00  0.00     0.074 A 
ATOM     46  C   UNL A   1      46.940  29.394  26.938  1.00  0.00     0.031 C 
ATOM     47  C   UNL A   1      40.408  28.643  28.958  1.00  0.00     0.029 A 
ATOM     48  C   UNL A   1      41.017  29.923  29.317  1.00  0.00     0.049 A 
ATOM     49  H   UNL A   1      42.972  30.525  28.900  1.00  0.00     0.167 HD
ATOM     50  C   UNL A   1      47.154  31.540  28.173  1.00  0.00     0.034 A 
ATOM     51  C   UNL A   1      40.414  30.926  29.997  1.00  0.00     0.034 A 
ATOM     52  C   UNL A   1      46.626  32.628  28.962  1.00  0.00     0.049 A 
ATOM     53  C   UNL A   1      41.242  32.133  30.388  1.00  0.00     0.074 A 
ATOM     54  C   UNL A   1      47.287  33.760  29.410  1.00  0.00     0.029 A 
ATOM     55  N   UNL A   1      45.326  32.716  29.441  1.00  0.00    -0.354 N 
ATOM     56  N   UNL A   1      42.498  32.405  30.111  1.00  0.00    -0.248 NA
ATOM     57  C   UNL A   1      40.588  33.151  31.227  1.00  0.00     0.031 C 
ATOM     58  C   UNL A   1      46.417  34.484  30.229  1.00  0.00     0.029 A 
ATOM     59  C   UNL A   1      45.184  33.857  30.220  1.00  0.00     0.049 A 
ATOM     60  H   UNL A   1      44.610  32.066  29.255  1.00  0.00     0.167 HD
ATOM     61  C   UNL A   1      42.782  33.604  30.761  1.00  0.00     0.074 A 
ATOM     62  C   UNL A   1      41.553  34.045  31.381  1.00  0.00     0.031 C 
ATOM     63  C   UNL A   1      43.961  34.267  30.868  1.00  0.00     0.034 A 
BRANCH  50  64
ATOM     64  C   UNL A   1      48.635  31.530  27.894  1.00  0.00     0.023 A 
ATOM     65  C   UNL A   1      49.226  32.353  26.922  1.00  0.00     0.031 A 
ATOM     66  C   UNL A   1      49.474  30.687  28.646  1.00  0.00     0.131 A 
ATOM     67  C   UNL A   1      50.611  32.283  26.701  1.00  0.00     0.055 A 
ATOM     68  C   UNL A   1      50.858  30.674  28.472  1.00  0.00     0.041 A 
ATOM     69  F   UNL A   1      48.959  29.861  29.572  1.00  0.00    -0.206 F 
ATOM     70  C   UNL A   1      51.433  31.471  27.488  1.00  0.00     0.022 A 
BRANCH  67  71
ATOM     71  S   UNL A   1      51.315  33.194  25.301  1.00  0.00     0.124 S 
ATOM     72  O   UNL A   1      52.458  33.857  25.925  1.00  0.00    -0.237 OA
ATOM     73  O   UNL A   1      51.632  32.129  24.357  1.00  0.00    -0.237 OA
ATOM     74  O   UNL A   1      50.232  34.087  24.892  1.00  0.00    -0.744 OA
ENDBRANCH  67  71
ENDBRANCH  50  64
BRANCH  51  75
ATOM     75  C   UNL A   1      38.969  30.854  30.404  1.00  0.00     0.023 A 
ATOM     76  C   UNL A   1      37.979  31.567  29.695  1.00  0.00     0.031 A 
ATOM     77  C   UNL A   1      38.556  30.146  31.544  1.00  0.00     0.131 A 
ATOM     78  C   UNL A   1      36.653  31.597  30.161  1.00  0.00     0.055 A 
ATOM     79  C   UNL A   1      37.219  30.105  31.952  1.00  0.00     0.041 A 
ATOM     80  F   UNL A   1      39.447  29.482  32.298  1.00  0.00    -0.206 F 
ATOM     81  C   UNL A   1      36.261  30.847  31.269  1.00  0.00     0.022 A 
BRANCH  78  82
ATOM     82  S   UNL A   1      35.478  32.765  29.411  1.00  0.00     0.124 S 
ATOM     83  O   UNL A   1      35.496  32.353  28.011  1.00  0.00    -0.237 OA
ATOM     84  O   UNL A   1      34.245  32.495  30.142  1.00  0.00    -0.237 OA
ATOM     85  O   UNL A   1      36.079  34.072  29.676  1.00  0.00    -0.744 OA
ENDBRANCH  78  82
ENDBRANCH  51  75
BRANCH  63  86
ATOM     86  C   UNL A   1      43.977  35.521  31.711  1.00  0.00     0.023 A 
ATOM     87  C   UNL A   1      43.870  36.797  31.127  1.00  0.00     0.031 A 
ATOM     88  C   UNL A   1      44.090  35.444  33.110  1.00  0.00     0.131 A 
ATOM     89  C   UNL A   1      43.928  37.945  31.931  1.00  0.00     0.055 A 
ATOM     90  C   UNL A   1      44.086  36.588  33.912  1.00  0.00     0.041 A 
ATOM     91  F   UNL A   1      44.196  34.256  33.725  1.00  0.00    -0.206 F 
ATOM     92  C   UNL A   1      44.016  37.848  33.322  1.00  0.00     0.022 A 
BRANCH  89  93
ATOM     93  S   UNL A   1      43.959  39.574  31.133  1.00  0.00     0.124 S 
ATOM     94  O   UNL A   1      45.389  39.805  30.968  1.00  0.00    -0.237 OA
ATOM     95  O   UNL A   1      43.206  39.337  29.905  1.00  0.00    -0.237 OA
ATOM     96  O   UNL A   1      43.298  40.445  32.103  1.00  0.00    -0.744 OA
ENDBRANCH  89  93
ENDBRANCH  63  86
ENDBRANCH  37  38
ENDBRANCH  30  32
ENDBRANCH  29  30
ENDBRANCH  28  29
ENDBRANCH  27  28
ENDBRANCH  26  27
ENDBRANCH  25  26
ENDBRANCH   1  25
TORSDOF 23
ENDMDL
MODEL 2
REMARK VINA RESULT:      -9.6      7.476     15.494
REMARK SMILES O=C(Cc1ccccc1-c1ccn(C(F)F)c(=O)c1)OCCOCCOCCOC(=O)c1ccc(-c2c3nc(c(-c4cc(S(=O)(=O)[O-])ccc4F)c4ccc([nH]4)c(-c4cc(S(=O)(=O)[O-])ccc4F)c4nc(c(-c5cc(S(=O)(=O)[O-])ccc5F)c5ccc2[nH]5)C=C4)C=C3)cc1
REMARK SMILES IDX 24 1 23 2 22 3 21 4 20 5 2 6 1 7 3 8 4 9 5 10 9 11 6 12 8 13
REMARK SMILES IDX 7 14 10 15 11 16 19 17 12 18 17 19 13 20 18 21 14 22 15 23
REMARK SMILES IDX 16 24 25 25 26 26 27 27 28 28 29 29 30 30 31 31 32 32 33 33
REMARK SMILES IDX 94 34 34 35 93 36 35 37 36 38 37 39 87 40 38 41 92 42 86 43
REMARK SMILES IDX 88 44 39 45 91 46 85 47 84 48 40 50 72 51 52 52 71 53 53 54
REMARK SMILES IDX 56 55 70 56 89 57 54 58 55 59 69 61 90 62 57 63 41 64 42 65
REMARK SMILES IDX 50 66 43 67 49 68 51 69 48 70 44 71 45 72 46 73 47 74 73 75
REMARK SMILES IDX 74 76 82 77 75 78 81 79 83 80 80 81 76 82 77 83 78 84 79 85
REMARK SMILES IDX 58 86 59 87 67 88 60 89 66 90 68 91 65 92 61 93 62 94 63 95
REMARK SMILES IDX 64 96
REMARK H PARENT 88 49 56 60
REMARK Flexibility Score: inf
ROOT
ATOM      1  C   UNL A   1      44.739  40.226  26.064  1.00  0.00     0.188 C 
ENDROOT
BRANCH   1   2
ATOM      2  O   UNL A   1      44.417  41.180  25.074  1.00  0.00    -0.376 OA
BRANCH   2   3
ATOM      3  C   UNL A   1      43.298  42.034  25.205  1.00  0.00     0.202 C 
BRANCH   3   4
ATOM      4  C   UNL A   1      42.665  42.616  23.947  1.00  0.00     0.261 C 
BRANCH   4   5
ATOM      5  O   UNL A   1      43.194  42.299  22.637  1.00  0.00    -0.463 OA
BRANCH   5   6
ATOM      6  C   UNL A   1      44.272  42.722  21.948  1.00  0.00     0.310 C 
ATOM      7  O   UNL A   1      44.896  41.907  21.268  1.00  0.00    -0.252 OA
BRANCH   6   8
ATOM      8  C   UNL A   1      44.754  44.147  22.075  1.00  0.00     0.158 C 
BRANCH   8   9
ATOM      9  C   UNL A   1      46.164  44.315  21.598  1.00  0.00    -0.029 A 
ATOM     10  C   UNL A   1      47.195  43.804  22.410  1.00  0.00     0.005 A 
ATOM     11  C   UNL A   1      46.480  44.960  20.387  1.00  0.00    -0.014 A 
ATOM     12  C   UNL A   1      48.528  43.972  22.062  1.00  0.00     0.000 A 
ATOM     13  C   UNL A   1      47.835  45.149  20.070  1.00  0.00     0.009 A 
ATOM     14  C   UNL A   1      48.848  44.664  20.903  1.00  0.00     0.001 A 
BRANCH  11  15
ATOM     15  C   UNL A   1      45.443  45.314  19.383  1.00  0.00    -0.011 A 
ATOM     16  C   UNL A   1      44.892  46.642  19.169  1.00  0.00     0.027 A 
ATOM     17  C   UNL A   1      44.883  44.286  18.723  1.00  0.00     0.080 A 
ATOM     18  C   UNL A   1      43.772  46.809  18.452  1.00  0.00     0.095 A 
ATOM     19  C   UNL A   1      43.746  44.486  17.791  1.00  0.00     0.255 A 
ATOM     20  N   UNL A   1      43.184  45.747  17.784  1.00  0.00    -0.258 N 
ATOM     21  O   UNL A   1      43.395  43.516  17.135  1.00  0.00    -0.269 OA
BRANCH  20  22
ATOM     22  C   UNL A   1      41.919  45.963  17.106  1.00  0.00     0.451 C 
ATOM     23  F   UNL A   1      41.491  47.241  17.102  1.00  0.00    -0.185 F 
ATOM     24  F   UNL A   1      42.040  45.563  15.811  1.00  0.00    -0.185 F 
ENDBRANCH  20  22
ENDBRANCH  11  15
ENDBRANCH   8   9
ENDBRANCH   6   8
ENDBRANCH   5   6
ENDBRANCH   4   5
ENDBRANCH   3   4
ENDBRANCH   2   3
ENDBRANCH   1   2
BRANCH   1  25
ATOM     25  C   UNL A   1      43.911  40.288  27.356  1.00  0.00     0.188 C 
BRANCH  25  26
ATOM     26  O   UNL A   1      43.361  39.094  27.887  1.00  0.00    -0.376 OA
BRANCH  26  27
ATOM     27  C   UNL A   1      43.500  38.838  29.276  1.00  0.00     0.202 C 
BRANCH  27  28
ATOM     28  C   UNL A   1      44.899  38.641  29.897  1.00  0.00     0.261 C 
BRANCH  28  29
ATOM     29  O   UNL A   1      45.232  37.319  30.371  1.00  0.00    -0.460 OA
BRANCH  29  30
ATOM     30  C   UNL A   1      46.253  36.690  29.727  1.00  0.00     0.338 C 
ATOM     31  O   UNL A   1      47.356  37.150  29.500  1.00  0.00    -0.246 OA
BRANCH  30  32
ATOM     32  C   UNL A   1      45.895  35.284  29.413  1.00  0.00     0.060 A 
ATOM     33  C   UNL A   1      45.164  34.997  28.249  1.00  0.00     0.016 A 
ATOM     34  C   UNL A   1      46.182  34.263  30.318  1.00  0.00     0.016 A 
ATOM     35  C   UNL A   1      44.725  33.690  27.989  1.00  0.00     0.010 A 
ATOM     36  C   UNL A   1      45.714  32.962  30.072  1.00  0.00     0.010 A 
ATOM     37  C   UNL A   1      44.970  32.667  28.915  1.00  0.00    -0.014 A 
BRANCH  37  38
ATOM     38  C   UNL A   1      44.387  31.306  28.730  1.00  0.00     0.031 A 
ATOM     39  C   UNL A   1      45.163  30.258  27.981  1.00  0.00     0.074 A 
ATOM     40  C   UNL A   1      43.143  31.023  29.164  1.00  0.00     0.049 A 
ATOM     41  N   UNL A   1      44.799  29.053  27.626  1.00  0.00    -0.248 NA
ATOM     42  C   UNL A   1      46.514  30.633  27.539  1.00  0.00     0.031 C 
ATOM     43  C   UNL A   1      42.280  31.966  29.864  1.00  0.00     0.029 A 
ATOM     44  N   UNL A   1      42.388  29.875  29.080  1.00  0.00    -0.354 N 
ATOM     45  C   UNL A   1      45.841  28.551  26.856  1.00  0.00     0.074 A 
ATOM     46  C   UNL A   1      46.870  29.571  26.831  1.00  0.00     0.031 C 
ATOM     47  C   UNL A   1      41.127  31.351  30.171  1.00  0.00     0.029 A 
ATOM     48  C   UNL A   1      41.152  29.971  29.690  1.00  0.00     0.049 A 
ATOM     49  H   UNL A   1      42.700  29.058  28.626  1.00  0.00     0.167 HD
ATOM     50  C   UNL A   1      45.908  27.367  26.198  1.00  0.00     0.034 A 
ATOM     51  C   UNL A   1      40.165  29.058  29.842  1.00  0.00     0.034 A 
ATOM     52  C   UNL A   1      44.881  26.354  26.237  1.00  0.00     0.049 A 
ATOM     53  C   UNL A   1      40.317  27.709  29.168  1.00  0.00     0.074 A 
ATOM     54  C   UNL A   1      44.887  25.105  25.636  1.00  0.00     0.029 A 
ATOM     55  N   UNL A   1      43.661  26.471  26.889  1.00  0.00    -0.354 N 
ATOM     56  N   UNL A   1      41.327  27.237  28.473  1.00  0.00    -0.248 NA
ATOM     57  C   UNL A   1      39.175  26.784  29.255  1.00  0.00     0.031 C 
ATOM     58  C   UNL A   1      43.642  24.508  25.848  1.00  0.00     0.029 A 
ATOM     59  C   UNL A   1      42.890  25.339  26.660  1.00  0.00     0.049 A 
ATOM     60  H   UNL A   1      43.383  27.242  27.434  1.00  0.00     0.167 HD
ATOM     61  C   UNL A   1      40.928  25.979  28.025  1.00  0.00     0.074 A 
ATOM     62  C   UNL A   1      39.619  25.731  28.588  1.00  0.00     0.031 C 
ATOM     63  C   UNL A   1      41.568  25.119  27.195  1.00  0.00     0.034 A 
BRANCH  50  64
ATOM     64  C   UNL A   1      47.091  27.133  25.294  1.00  0.00     0.023 A 
ATOM     65  C   UNL A   1      47.159  27.649  23.990  1.00  0.00     0.031 A 
ATOM     66  C   UNL A   1      48.189  26.392  25.771  1.00  0.00     0.131 A 
ATOM     67  C   UNL A   1      48.285  27.381  23.194  1.00  0.00     0.055 A 
ATOM     68  C   UNL A   1      49.335  26.191  25.002  1.00  0.00     0.041 A 
ATOM     69  F   UNL A   1      48.167  25.855  27.002  1.00  0.00    -0.206 F 
ATOM     70  C   UNL A   1      49.384  26.680  23.701  1.00  0.00     0.022 A 
BRANCH  67  71
ATOM     71  S   UNL A   1      48.254  27.874  21.450  1.00  0.00     0.124 S 
ATOM     72  O   UNL A   1      49.378  28.804  21.386  1.00  0.00    -0.237 OA
ATOM     73  O   UNL A   1      48.436  26.603  20.758  1.00  0.00    -0.237 OA
ATOM     74  O   UNL A   1      46.936  28.487  21.289  1.00  0.00    -0.744 OA
ENDBRANCH  67  71
ENDBRANCH  50  64
BRANCH  51  75
ATOM     75  C   UNL A   1      38.917  29.361  30.623  1.00  0.00     0.023 A 
ATOM     76  C   UNL A   1      37.945  30.253  30.123  1.00  0.00     0.031 A 
ATOM     77  C   UNL A   1      38.703  28.836  31.909  1.00  0.00     0.131 A 
ATOM     78  C   UNL A   1      36.848  30.629  30.917  1.00  0.00     0.055 A 
ATOM     79  C   UNL A   1      37.564  29.143  32.659  1.00  0.00     0.041 A 
ATOM     80  F   UNL A   1      39.607  28.017  32.473  1.00  0.00    -0.206 F 
ATOM     81  C   UNL A   1      36.636  30.057  32.171  1.00  0.00     0.022 A 
BRANCH  78  82
ATOM     82  S   UNL A   1      35.791  32.005  30.372  1.00  0.00     0.124 S 
ATOM     83  O   UNL A   1      34.955  32.226  31.548  1.00  0.00    -0.237 OA
ATOM     84  O   UNL A   1      36.759  33.053  30.069  1.00  0.00    -0.237 OA
ATOM     85  O   UNL A   1      35.090  31.458  29.211  1.00  0.00    -0.744 OA
ENDBRANCH  78  82
ENDBRANCH  51  75
BRANCH  63  86
ATOM     86  C   UNL A   1      40.843  23.845  26.825  1.00  0.00     0.023 A 
ATOM     87  C   UNL A   1      41.491  22.596  26.867  1.00  0.00     0.031 A 
ATOM     88  C   UNL A   1      39.492  23.873  26.437  1.00  0.00     0.131 A 
ATOM     89  C   UNL A   1      40.805  21.435  26.479  1.00  0.00     0.055 A 
ATOM     90  C   UNL A   1      38.796  22.708  26.110  1.00  0.00     0.041 A 
ATOM     91  F   UNL A   1      38.821  25.034  26.378  1.00  0.00    -0.206 F 
ATOM     92  C   UNL A   1      39.456  21.481  26.119  1.00  0.00     0.022 A 
BRANCH  89  93
ATOM     93  S   UNL A   1      41.717  19.870  26.380  1.00  0.00     0.124 S 
ATOM     94  O   UNL A   1      42.118  19.662  27.767  1.00  0.00    -0.237 OA
ATOM     95  O   UNL A   1      40.707  18.950  25.864  1.00  0.00    -0.237 OA
ATOM     96  O   UNL A   1      42.810  20.167  25.456  1.00  0.00    -0.744 OA
ENDBRANCH  89  93
ENDBRANCH  63  86
ENDBRANCH  37  38
ENDBRANCH  30  32
ENDBRANCH  29  30
ENDBRANCH  28  29
ENDBRANCH  27  28
ENDBRANCH  26  27
ENDBRANCH  25  26
ENDBRANCH   1  25
TORSDOF 23
ENDMDL
MODEL 3
REMARK VINA RESULT:      -9.3      4.355      9.563
REMARK SMILES O=C(Cc1ccccc1-c1ccn(C(F)F)c(=O)c1)OCCOCCOCCOC(=O)c1ccc(-c2c3nc(c(-c4cc(S(=O)(=O)[O-])ccc4F)c4ccc([nH]4)c(-c4cc(S(=O)(=O)[O-])ccc4F)c4nc(c(-c5cc(S(=O)(=O)[O-])ccc5F)c5ccc2[nH]5)C=C4)C=C3)cc1
REMARK SMILES IDX 24 1 23 2 22 3 21 4 20 5 2 6 1 7 3 8 4 9 5 10 9 11 6 12 8 13
REMARK SMILES IDX 7 14 10 15 11 16 19 17 12 18 17 19 13 20 18 21 14 22 15 23
REMARK SMILES IDX 16 24 25 25 26 26 27 27 28 28 29 29 30 30 31 31 32 32 33 33
REMARK SMILES IDX 94 34 34 35 93 36 35 37 36 38 37 39 87 40 38 41 92 42 86 43
REMARK SMILES IDX 88 44 39 45 91 46 85 47 84 48 40 50 72 51 52 52 71 53 53 54
REMARK SMILES IDX 56 55 70 56 89 57 54 58 55 59 69 61 90 62 57 63 41 64 42 65
REMARK SMILES IDX 50 66 43 67 49 68 51 69 48 70 44 71 45 72 46 73 47 74 73 75
REMARK SMILES IDX 74 76 82 77 75 78 81 79 83 80 80 81 76 82 77 83 78 84 79 85
REMARK SMILES IDX 58 86 59 87 67 88 60 89 66 90 68 91 65 92 61 93 62 94 63 95
REMARK SMILES IDX 64 96
REMARK H PARENT 88 49 56 60
REMARK Flexibility Score: inf
ROOT
ATOM      1  C   UNL A   1      34.690  24.974  26.059  1.00  0.00     0.188 C 
ENDROOT
BRANCH   1   2
ATOM      2  O   UNL A   1      35.421  24.036  25.300  1.00  0.00    -0.376 OA
BRANCH   2   3
ATOM      3  C   UNL A   1      35.369  24.025  23.888  1.00  0.00     0.202 C 
BRANCH   3   4
ATOM      4  C   UNL A   1      34.726  22.837  23.183  1.00  0.00     0.261 C 
BRANCH   4   5
ATOM      5  O   UNL A   1      33.548  23.014  22.358  1.00  0.00    -0.463 OA
BRANCH   5   6
ATOM      6  C   UNL A   1      32.300  22.509  22.407  1.00  0.00     0.310 C 
ATOM      7  O   UNL A   1      32.131  21.322  22.125  1.00  0.00    -0.252 OA
BRANCH   6   8
ATOM      8  C   UNL A   1      31.122  23.402  22.717  1.00  0.00     0.158 C 
BRANCH   8   9
ATOM      9  C   UNL A   1      30.988  23.678  24.183  1.00  0.00    -0.029 A 
ATOM     10  C   UNL A   1      31.443  22.692  25.080  1.00  0.00     0.005 A 
ATOM     11  C   UNL A   1      30.429  24.872  24.679  1.00  0.00    -0.014 A 
ATOM     12  C   UNL A   1      31.301  22.852  26.450  1.00  0.00     0.000 A 
ATOM     13  C   UNL A   1      30.263  24.999  26.067  1.00  0.00     0.009 A 
ATOM     14  C   UNL A   1      30.690  23.996  26.943  1.00  0.00     0.001 A 
BRANCH  11  15
ATOM     15  C   UNL A   1      30.144  26.038  23.803  1.00  0.00    -0.011 A 
ATOM     16  C   UNL A   1      31.102  26.689  22.924  1.00  0.00     0.027 A 
ATOM     17  C   UNL A   1      28.937  26.609  23.952  1.00  0.00     0.080 A 
ATOM     18  C   UNL A   1      30.836  27.892  22.399  1.00  0.00     0.095 A 
ATOM     19  C   UNL A   1      28.572  27.857  23.237  1.00  0.00     0.255 A 
ATOM     20  N   UNL A   1      29.598  28.491  22.564  1.00  0.00    -0.258 N 
ATOM     21  O   UNL A   1      27.409  28.224  23.328  1.00  0.00    -0.269 OA
BRANCH  20  22
ATOM     22  C   UNL A   1      29.399  29.836  22.060  1.00  0.00     0.451 C 
ATOM     23  F   UNL A   1      28.368  29.972  21.202  1.00  0.00    -0.185 F 
ATOM     24  F   UNL A   1      29.175  30.671  23.111  1.00  0.00    -0.185 F 
ENDBRANCH  20  22
ENDBRANCH  11  15
ENDBRANCH   8   9
ENDBRANCH   6   8
ENDBRANCH   5   6
ENDBRANCH   4   5
ENDBRANCH   3   4
ENDBRANCH   2   3
ENDBRANCH   1   2
BRANCH   1  25
ATOM     25  C   UNL A   1      34.118  26.172  25.285  1.00  0.00     0.188 C 
BRANCH  25  26
ATOM     26  O   UNL A   1      33.044  26.910  25.842  1.00  0.00    -0.376 OA
BRANCH  26  27
ATOM     27  C   UNL A   1      33.333  27.916  26.802  1.00  0.00     0.202 C 
BRANCH  27  28
ATOM     28  C   UNL A   1      34.240  29.109  26.433  1.00  0.00     0.261 C 
BRANCH  28  29
ATOM     29  O   UNL A   1      33.764  30.430  26.767  1.00  0.00    -0.460 OA
BRANCH  29  30
ATOM     30  C   UNL A   1      34.487  31.112  27.696  1.00  0.00     0.338 C 
ATOM     31  O   UNL A   1      34.182  32.168  28.217  1.00  0.00    -0.246 OA
BRANCH  30  32
ATOM     32  C   UNL A   1      35.690  30.342  28.101  1.00  0.00     0.060 A 
ATOM     33  C   UNL A   1      35.690  29.645  29.319  1.00  0.00     0.016 A 
ATOM     34  C   UNL A   1      36.855  30.397  27.335  1.00  0.00     0.016 A 
ATOM     35  C   UNL A   1      36.853  29.000  29.769  1.00  0.00     0.010 A 
ATOM     36  C   UNL A   1      38.025  29.778  27.803  1.00  0.00     0.010 A 
ATOM     37  C   UNL A   1      38.040  29.088  29.029  1.00  0.00    -0.014 A 
BRANCH  37  38
ATOM     38  C   UNL A   1      39.320  28.536  29.559  1.00  0.00     0.031 A 
ATOM     39  C   UNL A   1      39.898  29.087  30.833  1.00  0.00     0.074 A 
ATOM     40  C   UNL A   1      40.004  27.598  28.874  1.00  0.00     0.049 A 
ATOM     41  N   UNL A   1      41.042  28.817  31.409  1.00  0.00    -0.248 NA
ATOM     42  C   UNL A   1      39.099  30.104  31.531  1.00  0.00     0.031 C 
ATOM     43  C   UNL A   1      39.566  27.019  27.610  1.00  0.00     0.029 A 
ATOM     44  N   UNL A   1      41.202  26.972  29.134  1.00  0.00    -0.354 N 
ATOM     45  C   UNL A   1      41.137  29.682  32.492  1.00  0.00     0.074 A 
ATOM     46  C   UNL A   1      39.914  30.457  32.515  1.00  0.00     0.031 C 
ATOM     47  C   UNL A   1      40.467  26.103  27.220  1.00  0.00     0.029 A 
ATOM     48  C   UNL A   1      41.554  26.024  28.194  1.00  0.00     0.049 A 
ATOM     49  H   UNL A   1      41.757  27.180  29.920  1.00  0.00     0.167 HD
ATOM     50  C   UNL A   1      42.171  29.841  33.356  1.00  0.00     0.034 A 
ATOM     51  C   UNL A   1      42.622  25.194  28.127  1.00  0.00     0.034 A 
ATOM     52  C   UNL A   1      43.382  29.056  33.329  1.00  0.00     0.049 A 
ATOM     53  C   UNL A   1      43.715  25.338  29.167  1.00  0.00     0.074 A 
ATOM     54  C   UNL A   1      44.462  29.120  34.195  1.00  0.00     0.029 A 
ATOM     55  N   UNL A   1      43.691  28.086  32.386  1.00  0.00    -0.354 N 
ATOM     56  N   UNL A   1      43.772  26.139  30.208  1.00  0.00    -0.248 NA
ATOM     57  C   UNL A   1      44.915  24.502  28.997  1.00  0.00     0.031 C 
ATOM     58  C   UNL A   1      45.455  28.257  33.726  1.00  0.00     0.029 A 
ATOM     59  C   UNL A   1      44.963  27.583  32.621  1.00  0.00     0.049 A 
ATOM     60  H   UNL A   1      43.095  27.796  31.657  1.00  0.00     0.167 HD
ATOM     61  C   UNL A   1      45.017  25.916  30.793  1.00  0.00     0.074 A 
ATOM     62  C   UNL A   1      45.650  24.857  30.040  1.00  0.00     0.031 C 
ATOM     63  C   UNL A   1      45.602  26.553  31.838  1.00  0.00     0.034 A 
BRANCH  50  64
ATOM     64  C   UNL A   1      42.087  30.970  34.351  1.00  0.00     0.023 A 
ATOM     65  C   UNL A   1      42.475  32.282  34.038  1.00  0.00     0.031 A 
ATOM     66  C   UNL A   1      41.577  30.719  35.639  1.00  0.00     0.131 A 
ATOM     67  C   UNL A   1      42.386  33.285  35.016  1.00  0.00     0.055 A 
ATOM     68  C   UNL A   1      41.423  31.734  36.583  1.00  0.00     0.041 A 
ATOM     69  F   UNL A   1      41.214  29.477  35.999  1.00  0.00    -0.206 F 
ATOM     70  C   UNL A   1      41.837  33.026  36.276  1.00  0.00     0.022 A 
BRANCH  67  71
ATOM     71  S   UNL A   1      43.092  34.916  34.657  1.00  0.00     0.124 S 
ATOM     72  O   UNL A   1      44.465  34.571  34.300  1.00  0.00    -0.237 OA
ATOM     73  O   UNL A   1      42.250  35.393  33.566  1.00  0.00    -0.237 OA
ATOM     74  O   UNL A   1      42.946  35.639  35.919  1.00  0.00    -0.744 OA
ENDBRANCH  67  71
ENDBRANCH  50  64
BRANCH  51  75
ATOM     75  C   UNL A   1      42.765  24.170  27.036  1.00  0.00     0.023 A 
ATOM     76  C   UNL A   1      42.076  22.941  27.099  1.00  0.00     0.031 A 
ATOM     77  C   UNL A   1      43.645  24.358  25.957  1.00  0.00     0.131 A 
ATOM     78  C   UNL A   1      42.318  21.940  26.141  1.00  0.00     0.055 A 
ATOM     79  C   UNL A   1      43.814  23.395  24.958  1.00  0.00     0.041 A 
ATOM     80  F   UNL A   1      44.372  25.483  25.854  1.00  0.00    -0.206 F 
ATOM     81  C   UNL A   1      43.162  22.171  25.055  1.00  0.00     0.022 A 
BRANCH  78  82
ATOM     82  S   UNL A   1      41.658  20.269  26.422  1.00  0.00     0.124 S 
ATOM     83  O   UNL A   1      42.302  19.508  25.355  1.00  0.00    -0.237 OA
ATOM     84  O   UNL A   1      42.104  19.971  27.779  1.00  0.00    -0.237 OA
ATOM     85  O   UNL A   1      40.214  20.443  26.271  1.00  0.00    -0.744 OA
ENDBRANCH  78  82
ENDBRANCH  51  75
BRANCH  63  86
ATOM     86  C   UNL A   1      47.008  26.136  32.203  1.00  0.00     0.023 A 
ATOM     87  C   UNL A   1      48.128  26.706  31.568  1.00  0.00     0.031 A 
ATOM     88  C   UNL A   1      47.237  25.171  33.198  1.00  0.00     0.131 A 
ATOM     89  C   UNL A   1      49.421  26.272  31.899  1.00  0.00     0.055 A 
ATOM     90  C   UNL A   1      48.527  24.785  33.566  1.00  0.00     0.041 A 
ATOM     91  F   UNL A   1      46.209  24.591  33.839  1.00  0.00    -0.206 F 
ATOM     92  C   UNL A   1      49.628  25.328  32.907  1.00  0.00     0.022 A 
BRANCH  89  93
ATOM     93  S   UNL A   1      50.828  26.901  30.943  1.00  0.00     0.124 S 
ATOM     94  O   UNL A   1      51.885  26.940  31.947  1.00  0.00    -0.237 OA
ATOM     95  O   UNL A   1      50.977  25.891  29.900  1.00  0.00    -0.237 OA
ATOM     96  O   UNL A   1      50.369  28.208  30.475  1.00  0.00    -0.744 OA
ENDBRANCH  89  93
ENDBRANCH  63  86
ENDBRANCH  37  38
ENDBRANCH  30  32
ENDBRANCH  29  30
ENDBRANCH  28  29
ENDBRANCH  27  28
ENDBRANCH  26  27
ENDBRANCH  25  26
ENDBRANCH   1  25
TORSDOF 23
ENDMDL
