MODEL 1
REMARK VINA RESULT:     -10.8      0.000      0.000
REMARK SMILES O=C(OCCOCCOCCOC(=O)[C@H]1C[NH2+]CCN1c1ncc(C(F)(F)F)cc1Cl)c1ccc(-c2c3nc(c(-c4cc(S(=O)(=O)[O-])ccc4F)c4ccc([nH]4)c(-c4cc(S(=O)(=O)[O-])ccc4F)c4nc(c(-c5cc(S(=O)(=O)[O-])ccc5F)c5ccc2[nH]5)C=C4)C=C3)cc1
REMARK SMILES IDX 7 1 6 2 5 3 4 4 3 5 2 6 1 7 32 8 33 9 94 10 34 11 93 12
REMARK SMILES IDX 35 13 36 14 37 15 87 16 38 17 92 18 86 19 88 20 39 21 91 22
REMARK SMILES IDX 85 23 84 24 40 26 72 27 52 28 71 29 53 30 56 31 70 32 89 33
REMARK SMILES IDX 54 34 55 35 69 37 90 38 57 39 41 40 42 41 50 42 43 43 49 44
REMARK SMILES IDX 51 45 48 46 44 47 45 48 46 49 47 50 73 51 74 52 82 53 75 54
REMARK SMILES IDX 81 55 83 56 80 57 76 58 77 59 78 60 79 61 58 62 59 63 67 64
REMARK SMILES IDX 60 65 66 66 68 67 65 68 61 69 62 70 63 71 64 72 8 73 9 74
REMARK SMILES IDX 10 75 11 76 12 77 13 78 14 79 15 80 16 81 20 82 17 83 19 84
REMARK SMILES IDX 18 85 21 88 22 89 30 90 23 91 29 92 31 93 24 94 25 95 26 96
REMARK SMILES IDX 27 97 28 98
REMARK H PARENT 88 25 56 36 17 86 17 87
REMARK Flexibility Score: inf
ROOT
ATOM      1  C   UNL A   1      31.738  28.314  26.510  1.00  0.00     0.188 C 
ENDROOT
BRANCH   1   2
ATOM      2  O   UNL A   1      31.715  29.662  27.000  1.00  0.00    -0.376 OA
BRANCH   2   3
ATOM      3  C   UNL A   1      31.738  30.644  25.956  1.00  0.00     0.202 C 
BRANCH   3   4
ATOM      4  C   UNL A   1      31.284  32.061  26.353  1.00  0.00     0.261 C 
BRANCH   4   5
ATOM      5  O   UNL A   1      32.017  32.600  27.466  1.00  0.00    -0.460 OA
BRANCH   5   6
ATOM      6  C   UNL A   1      33.288  33.078  27.495  1.00  0.00     0.338 C 
ATOM      7  O   UNL A   1      33.497  34.191  27.012  1.00  0.00    -0.246 OA
BRANCH   6   8
ATOM      8  C   UNL A   1      34.452  32.343  28.086  1.00  0.00     0.060 A 
ATOM      9  C   UNL A   1      34.459  30.993  28.419  1.00  0.00     0.016 A 
ATOM     10  C   UNL A   1      35.648  33.066  28.272  1.00  0.00     0.016 A 
ATOM     11  C   UNL A   1      35.559  30.405  29.032  1.00  0.00     0.010 A 
ATOM     12  C   UNL A   1      36.782  32.469  28.842  1.00  0.00     0.010 A 
ATOM     13  C   UNL A   1      36.721  31.141  29.268  1.00  0.00    -0.014 A 
BRANCH  13  14
ATOM     14  C   UNL A   1      37.758  30.495  30.102  1.00  0.00     0.031 A 
ATOM     15  C   UNL A   1      38.801  29.677  29.412  1.00  0.00     0.074 A 
ATOM     16  C   UNL A   1      37.871  30.827  31.401  1.00  0.00     0.049 A 
ATOM     17  N   UNL A   1      39.891  29.151  29.898  1.00  0.00    -0.248 NA
ATOM     18  C   UNL A   1      38.584  29.411  27.982  1.00  0.00     0.031 C 
ATOM     19  C   UNL A   1      36.898  31.636  32.124  1.00  0.00     0.029 A 
ATOM     20  N   UNL A   1      38.865  30.606  32.320  1.00  0.00    -0.354 N 
ATOM     21  C   UNL A   1      40.473  28.458  28.845  1.00  0.00     0.074 A 
ATOM     22  C   UNL A   1      39.618  28.639  27.692  1.00  0.00     0.031 C 
ATOM     23  C   UNL A   1      37.390  31.937  33.335  1.00  0.00     0.029 A 
ATOM     24  C   UNL A   1      38.694  31.310  33.496  1.00  0.00     0.049 A 
ATOM     25  H   UNL A   1      39.628  30.005  32.156  1.00  0.00     0.167 HD
ATOM     26  C   UNL A   1      41.607  27.717  28.861  1.00  0.00     0.034 A 
ATOM     27  C   UNL A   1      39.510  31.442  34.565  1.00  0.00     0.034 A 
ATOM     28  C   UNL A   1      42.404  27.539  30.048  1.00  0.00     0.049 A 
ATOM     29  C   UNL A   1      40.793  30.646  34.535  1.00  0.00     0.074 A 
ATOM     30  C   UNL A   1      43.481  26.699  30.259  1.00  0.00     0.029 A 
ATOM     31  N   UNL A   1      42.198  28.229  31.241  1.00  0.00    -0.354 N 
ATOM     32  N   UNL A   1      41.281  29.907  33.561  1.00  0.00    -0.248 NA
ATOM     33  C   UNL A   1      41.613  30.660  35.750  1.00  0.00     0.031 C 
ATOM     34  C   UNL A   1      43.897  26.849  31.590  1.00  0.00     0.029 A 
ATOM     35  C   UNL A   1      43.126  27.833  32.190  1.00  0.00     0.049 A 
ATOM     36  H   UNL A   1      41.495  28.902  31.387  1.00  0.00     0.167 HD
ATOM     37  C   UNL A   1      42.438  29.328  34.069  1.00  0.00     0.074 A 
ATOM     38  C   UNL A   1      42.625  29.883  35.396  1.00  0.00     0.031 C 
ATOM     39  C   UNL A   1      43.249  28.387  33.519  1.00  0.00     0.034 A 
BRANCH  26  40
ATOM     40  C   UNL A   1      41.935  26.970  27.593  1.00  0.00     0.023 A 
ATOM     41  C   UNL A   1      41.741  25.581  27.480  1.00  0.00     0.031 A 
ATOM     42  C   UNL A   1      42.578  27.635  26.535  1.00  0.00     0.131 A 
ATOM     43  C   UNL A   1      42.266  24.892  26.376  1.00  0.00     0.055 A 
ATOM     44  C   UNL A   1      43.024  26.954  25.401  1.00  0.00     0.041 A 
ATOM     45  F   UNL A   1      42.825  28.952  26.604  1.00  0.00    -0.206 F 
ATOM     46  C   UNL A   1      42.885  25.571  25.324  1.00  0.00     0.022 A 
BRANCH  43  47
ATOM     47  S   UNL A   1      42.282  23.076  26.412  1.00  0.00     0.124 S 
ATOM     48  O   UNL A   1      42.588  22.814  27.817  1.00  0.00    -0.237 OA
ATOM     49  O   UNL A   1      40.931  22.738  25.981  1.00  0.00    -0.237 OA
ATOM     50  O   UNL A   1      43.344  22.724  25.473  1.00  0.00    -0.744 OA
ENDBRANCH  43  47
ENDBRANCH  26  40
BRANCH  27  51
ATOM     51  C   UNL A   1      39.143  32.293  35.746  1.00  0.00     0.023 A 
ATOM     52  C   UNL A   1      39.586  33.624  35.867  1.00  0.00     0.031 A 
ATOM     53  C   UNL A   1      38.388  31.772  36.816  1.00  0.00     0.131 A 
ATOM     54  C   UNL A   1      39.307  34.364  37.033  1.00  0.00     0.055 A 
ATOM     55  C   UNL A   1      38.043  32.536  37.933  1.00  0.00     0.041 A 
ATOM     56  F   UNL A   1      37.965  30.498  36.795  1.00  0.00    -0.206 F 
ATOM     57  C   UNL A   1      38.516  33.837  38.053  1.00  0.00     0.022 A 
BRANCH  54  58
ATOM     58  S   UNL A   1      40.105  35.981  37.267  1.00  0.00     0.124 S 
ATOM     59  O   UNL A   1      39.517  36.427  38.524  1.00  0.00    -0.237 OA
ATOM     60  O   UNL A   1      41.518  35.616  37.313  1.00  0.00    -0.237 OA
ATOM     61  O   UNL A   1      39.697  36.737  36.085  1.00  0.00    -0.744 OA
ENDBRANCH  54  58
ENDBRANCH  27  51
BRANCH  39  62
ATOM     62  C   UNL A   1      44.375  27.896  34.391  1.00  0.00     0.023 A 
ATOM     63  C   UNL A   1      44.132  27.012  35.458  1.00  0.00     0.031 A 
ATOM     64  C   UNL A   1      45.690  28.340  34.181  1.00  0.00     0.131 A 
ATOM     65  C   UNL A   1      45.174  26.661  36.324  1.00  0.00     0.055 A 
ATOM     66  C   UNL A   1      46.738  27.934  35.007  1.00  0.00     0.041 A 
ATOM     67  F   UNL A   1      45.974  29.184  33.176  1.00  0.00    -0.206 F 
ATOM     68  C   UNL A   1      46.480  27.104  36.095  1.00  0.00     0.022 A 
BRANCH  65  69
ATOM     69  S   UNL A   1      44.780  25.712  37.817  1.00  0.00     0.124 S 
ATOM     70  O   UNL A   1      43.537  26.339  38.255  1.00  0.00    -0.237 OA
ATOM     71  O   UNL A   1      44.660  24.352  37.301  1.00  0.00    -0.237 OA
ATOM     72  O   UNL A   1      45.932  25.947  38.686  1.00  0.00    -0.744 OA
ENDBRANCH  65  69
ENDBRANCH  39  62
ENDBRANCH  13  14
ENDBRANCH   6   8
ENDBRANCH   5   6
ENDBRANCH   4   5
ENDBRANCH   3   4
ENDBRANCH   2   3
ENDBRANCH   1   2
BRANCH   1  73
ATOM     73  C   UNL A   1      31.690  28.258  24.983  1.00  0.00     0.188 C 
BRANCH  73  74
ATOM     74  O   UNL A   1      32.471  27.229  24.374  1.00  0.00    -0.376 OA
BRANCH  74  75
ATOM     75  C   UNL A   1      32.296  27.017  22.976  1.00  0.00     0.202 C 
BRANCH  75  76
ATOM     76  C   UNL A   1      32.596  25.607  22.460  1.00  0.00     0.261 C 
BRANCH  76  77
ATOM     77  O   UNL A   1      32.228  24.577  23.383  1.00  0.00    -0.462 OA
BRANCH  77  78
ATOM     78  C   UNL A   1      32.903  23.385  23.299  1.00  0.00     0.334 C 
ATOM     79  O   UNL A   1      32.979  22.706  22.293  1.00  0.00    -0.250 OA
BRANCH  78  80
ATOM     80  C   UNL A   1      33.535  22.997  24.658  1.00  0.00     0.249 C 
ATOM     81  C   UNL A   1      33.590  24.171  25.667  1.00  0.00     0.298 C 
ATOM     82  N   UNL A   1      32.794  21.898  25.302  1.00  0.00    -0.331 N 
ATOM     83  N   UNL A   1      32.268  24.620  26.169  1.00  0.00    -0.343 N 
ATOM     84  C   UNL A   1      31.429  22.217  25.713  1.00  0.00     0.180 C 
ATOM     85  C   UNL A   1      31.465  23.464  26.635  1.00  0.00     0.282 C 
ATOM     86  H   UNL A   1      31.768  25.094  25.419  1.00  0.00     0.346 HD
ATOM     87  H   UNL A   1      32.414  25.254  26.954  1.00  0.00     0.346 HD
BRANCH  82  88
ATOM     88  C   UNL A   1      33.140  20.602  24.996  1.00  0.00     0.148 A 
ATOM     89  N   UNL A   1      32.144  19.746  24.672  1.00  0.00    -0.237 NA
ATOM     90  C   UNL A   1      34.480  20.174  25.019  1.00  0.00     0.084 A 
ATOM     91  C   UNL A   1      32.474  18.475  24.336  1.00  0.00     0.126 A 
ATOM     92  C   UNL A   1      34.792  18.858  24.683  1.00  0.00     0.039 A 
ATOM     93  Cl  UNL A   1      35.782  21.207  25.502  1.00  0.00    -0.080 Cl
ATOM     94  C   UNL A   1      33.770  17.981  24.320  1.00  0.00     0.075 A 
BRANCH  94  95
ATOM     95  C   UNL A   1      34.032  16.569  23.905  1.00  0.00     0.417 C 
ATOM     96  F   UNL A   1      34.338  16.447  22.587  1.00  0.00    -0.166 F 
ATOM     97  F   UNL A   1      35.077  16.017  24.583  1.00  0.00    -0.166 F 
ATOM     98  F   UNL A   1      32.975  15.735  24.123  1.00  0.00    -0.166 F 
ENDBRANCH  94  95
ENDBRANCH  82  88
ENDBRANCH  78  80
ENDBRANCH  77  78
ENDBRANCH  76  77
ENDBRANCH  75  76
ENDBRANCH  74  75
ENDBRANCH  73  74
ENDBRANCH   1  73
TORSDOF 22
ENDMDL
MODEL 2
REMARK VINA RESULT:     -10.5      2.607      8.158
REMARK SMILES O=C(OCCOCCOCCOC(=O)[C@H]1C[NH2+]CCN1c1ncc(C(F)(F)F)cc1Cl)c1ccc(-c2c3nc(c(-c4cc(S(=O)(=O)[O-])ccc4F)c4ccc([nH]4)c(-c4cc(S(=O)(=O)[O-])ccc4F)c4nc(c(-c5cc(S(=O)(=O)[O-])ccc5F)c5ccc2[nH]5)C=C4)C=C3)cc1
REMARK SMILES IDX 7 1 6 2 5 3 4 4 3 5 2 6 1 7 32 8 33 9 94 10 34 11 93 12
REMARK SMILES IDX 35 13 36 14 37 15 87 16 38 17 92 18 86 19 88 20 39 21 91 22
REMARK SMILES IDX 85 23 84 24 40 26 72 27 52 28 71 29 53 30 56 31 70 32 89 33
REMARK SMILES IDX 54 34 55 35 69 37 90 38 57 39 41 40 42 41 50 42 43 43 49 44
REMARK SMILES IDX 51 45 48 46 44 47 45 48 46 49 47 50 73 51 74 52 82 53 75 54
REMARK SMILES IDX 81 55 83 56 80 57 76 58 77 59 78 60 79 61 58 62 59 63 67 64
REMARK SMILES IDX 60 65 66 66 68 67 65 68 61 69 62 70 63 71 64 72 8 73 9 74
REMARK SMILES IDX 10 75 11 76 12 77 13 78 14 79 15 80 16 81 20 82 17 83 19 84
REMARK SMILES IDX 18 85 21 88 22 89 30 90 23 91 29 92 31 93 24 94 25 95 26 96
REMARK SMILES IDX 27 97 28 98
REMARK H PARENT 88 25 56 36 17 86 17 87
REMARK Flexibility Score: inf
ROOT
ATOM      1  C   UNL A   1      42.091  19.611  26.481  1.00  0.00     0.188 C 
ENDROOT
BRANCH   1   2
ATOM      2  O   UNL A   1      42.802  20.162  25.363  1.00  0.00    -0.376 OA
BRANCH   2   3
ATOM      3  C   UNL A   1      43.496  21.377  25.677  1.00  0.00     0.202 C 
BRANCH   3   4
ATOM      4  C   UNL A   1      42.729  22.682  25.395  1.00  0.00     0.261 C 
BRANCH   4   5
ATOM      5  O   UNL A   1      43.509  23.654  24.678  1.00  0.00    -0.460 OA
BRANCH   5   6
ATOM      6  C   UNL A   1      44.047  24.816  25.132  1.00  0.00     0.338 C 
ATOM      7  O   UNL A   1      45.151  25.149  24.700  1.00  0.00    -0.246 OA
BRANCH   6   8
ATOM      8  C   UNL A   1      43.379  25.725  26.117  1.00  0.00     0.060 A 
ATOM      9  C   UNL A   1      43.470  27.113  26.111  1.00  0.00     0.016 A 
ATOM     10  C   UNL A   1      42.556  25.130  27.094  1.00  0.00     0.016 A 
ATOM     11  C   UNL A   1      42.877  27.881  27.107  1.00  0.00     0.010 A 
ATOM     12  C   UNL A   1      41.910  25.901  28.073  1.00  0.00     0.010 A 
ATOM     13  C   UNL A   1      42.110  27.281  28.107  1.00  0.00    -0.014 A 
BRANCH  13  14
ATOM     14  C   UNL A   1      41.691  28.148  29.231  1.00  0.00     0.031 A 
ATOM     15  C   UNL A   1      40.312  28.723  29.194  1.00  0.00     0.074 A 
ATOM     16  C   UNL A   1      42.453  28.218  30.338  1.00  0.00     0.049 A 
ATOM     17  N   UNL A   1      39.664  29.370  30.122  1.00  0.00    -0.248 NA
ATOM     18  C   UNL A   1      39.564  28.549  27.939  1.00  0.00     0.031 C 
ATOM     19  C   UNL A   1      43.795  27.661  30.442  1.00  0.00     0.029 A 
ATOM     20  N   UNL A   1      42.198  28.704  31.595  1.00  0.00    -0.354 N 
ATOM     21  C   UNL A   1      38.446  29.717  29.554  1.00  0.00     0.074 A 
ATOM     22  C   UNL A   1      38.443  29.200  28.203  1.00  0.00     0.031 C 
ATOM     23  C   UNL A   1      44.205  27.735  31.717  1.00  0.00     0.029 A 
ATOM     24  C   UNL A   1      43.176  28.383  32.517  1.00  0.00     0.049 A 
ATOM     25  H   UNL A   1      41.396  29.229  31.820  1.00  0.00     0.167 HD
ATOM     26  C   UNL A   1      37.439  30.430  30.113  1.00  0.00     0.034 A 
ATOM     27  C   UNL A   1      43.216  28.576  33.854  1.00  0.00     0.034 A 
ATOM     28  C   UNL A   1      37.508  30.955  31.454  1.00  0.00     0.049 A 
ATOM     29  C   UNL A   1      42.056  29.327  34.461  1.00  0.00     0.074 A 
ATOM     30  C   UNL A   1      36.643  31.819  32.099  1.00  0.00     0.029 A 
ATOM     31  N   UNL A   1      38.520  30.652  32.363  1.00  0.00    -0.354 N 
ATOM     32  N   UNL A   1      40.949  29.742  33.882  1.00  0.00    -0.248 NA
ATOM     33  C   UNL A   1      42.160  29.677  35.882  1.00  0.00     0.031 C 
ATOM     34  C   UNL A   1      37.155  32.073  33.379  1.00  0.00     0.029 A 
ATOM     35  C   UNL A   1      38.301  31.313  33.560  1.00  0.00     0.049 A 
ATOM     36  H   UNL A   1      39.278  30.053  32.181  1.00  0.00     0.167 HD
ATOM     37  C   UNL A   1      40.253  30.447  34.856  1.00  0.00     0.074 A 
ATOM     38  C   UNL A   1      41.016  30.313  36.082  1.00  0.00     0.031 C 
ATOM     39  C   UNL A   1      39.115  31.181  34.748  1.00  0.00     0.034 A 
BRANCH  26  40
ATOM     40  C   UNL A   1      36.277  30.765  29.214  1.00  0.00     0.023 A 
ATOM     41  C   UNL A   1      35.425  29.770  28.700  1.00  0.00     0.031 A 
ATOM     42  C   UNL A   1      36.104  32.083  28.755  1.00  0.00     0.131 A 
ATOM     43  C   UNL A   1      34.503  30.093  27.693  1.00  0.00     0.055 A 
ATOM     44  C   UNL A   1      35.126  32.411  27.814  1.00  0.00     0.041 A 
ATOM     45  F   UNL A   1      36.911  33.067  29.180  1.00  0.00    -0.206 F 
ATOM     46  C   UNL A   1      34.330  31.411  27.263  1.00  0.00     0.022 A 
BRANCH  43  47
ATOM     47  S   UNL A   1      33.650  28.743  26.829  1.00  0.00     0.124 S 
ATOM     48  O   UNL A   1      34.730  27.773  26.663  1.00  0.00    -0.237 OA
ATOM     49  O   UNL A   1      32.602  28.373  27.773  1.00  0.00    -0.237 OA
ATOM     50  O   UNL A   1      33.185  29.366  25.592  1.00  0.00    -0.744 OA
ENDBRANCH  43  47
ENDBRANCH  26  40
BRANCH  27  51
ATOM     51  C   UNL A   1      44.376  28.116  34.690  1.00  0.00     0.023 A 
ATOM     52  C   UNL A   1      44.255  27.052  35.605  1.00  0.00     0.031 A 
ATOM     53  C   UNL A   1      45.621  28.774  34.638  1.00  0.00     0.131 A 
ATOM     54  C   UNL A   1      45.332  26.709  36.444  1.00  0.00     0.055 A 
ATOM     55  C   UNL A   1      46.713  28.376  35.412  1.00  0.00     0.041 A 
ATOM     56  F   UNL A   1      45.803  29.825  33.823  1.00  0.00    -0.206 F 
ATOM     57  C   UNL A   1      46.568  27.347  36.334  1.00  0.00     0.022 A 
BRANCH  54  58
ATOM     58  S   UNL A   1      45.064  25.508  37.782  1.00  0.00     0.124 S 
ATOM     59  O   UNL A   1      44.585  26.363  38.861  1.00  0.00    -0.237 OA
ATOM     60  O   UNL A   1      44.077  24.610  37.189  1.00  0.00    -0.237 OA
ATOM     61  O   UNL A   1      46.389  24.927  37.989  1.00  0.00    -0.744 OA
ENDBRANCH  54  58
ENDBRANCH  27  51
BRANCH  39  62
ATOM     62  C   UNL A   1      38.679  31.911  35.991  1.00  0.00     0.023 A 
ATOM     63  C   UNL A   1      38.027  31.234  37.037  1.00  0.00     0.031 A 
ATOM     64  C   UNL A   1      38.881  33.294  36.117  1.00  0.00     0.131 A 
ATOM     65  C   UNL A   1      37.529  31.953  38.130  1.00  0.00     0.055 A 
ATOM     66  C   UNL A   1      38.442  33.996  37.240  1.00  0.00     0.041 A 
ATOM     67  F   UNL A   1      39.499  33.987  35.147  1.00  0.00    -0.206 F 
ATOM     68  C   UNL A   1      37.747  33.329  38.246  1.00  0.00     0.022 A 
BRANCH  65  69
ATOM     69  S   UNL A   1      36.495  31.087  39.341  1.00  0.00     0.124 S 
ATOM     70  O   UNL A   1      35.397  32.029  39.530  1.00  0.00    -0.237 OA
ATOM     71  O   UNL A   1      36.161  29.851  38.640  1.00  0.00    -0.237 OA
ATOM     72  O   UNL A   1      37.380  30.926  40.494  1.00  0.00    -0.744 OA
ENDBRANCH  65  69
ENDBRANCH  39  62
ENDBRANCH  13  14
ENDBRANCH   6   8
ENDBRANCH   5   6
ENDBRANCH   4   5
ENDBRANCH   3   4
ENDBRANCH   2   3
ENDBRANCH   1   2
BRANCH   1  73
ATOM     73  C   UNL A   1      40.597  19.929  26.423  1.00  0.00     0.188 C 
BRANCH  73  74
ATOM     74  O   UNL A   1      40.179  21.084  27.152  1.00  0.00    -0.376 OA
BRANCH  74  75
ATOM     75  C   UNL A   1      39.450  22.079  26.439  1.00  0.00     0.202 C 
BRANCH  75  76
ATOM     76  C   UNL A   1      38.276  21.582  25.590  1.00  0.00     0.261 C 
BRANCH  76  77
ATOM     77  O   UNL A   1      37.003  22.013  26.080  1.00  0.00    -0.462 OA
BRANCH  77  78
ATOM     78  C   UNL A   1      36.423  23.093  25.465  1.00  0.00     0.334 C 
ATOM     79  O   UNL A   1      37.033  23.938  24.836  1.00  0.00    -0.250 OA
BRANCH  78  80
ATOM     80  C   UNL A   1      34.891  23.120  25.693  1.00  0.00     0.249 C 
ATOM     81  C   UNL A   1      34.311  24.552  25.795  1.00  0.00     0.298 C 
ATOM     82  N   UNL A   1      34.174  22.430  24.608  1.00  0.00    -0.331 N 
ATOM     83  N   UNL A   1      34.350  25.329  24.531  1.00  0.00    -0.343 N 
ATOM     84  C   UNL A   1      34.268  23.060  23.293  1.00  0.00     0.180 C 
ATOM     85  C   UNL A   1      33.794  24.532  23.411  1.00  0.00     0.282 C 
ATOM     86  H   UNL A   1      35.316  25.576  24.319  1.00  0.00     0.346 HD
ATOM     87  H   UNL A   1      33.786  26.170  24.646  1.00  0.00     0.346 HD
BRANCH  82  88
ATOM     88  C   UNL A   1      33.966  21.074  24.712  1.00  0.00     0.148 A 
ATOM     89  N   UNL A   1      35.022  20.258  24.495  1.00  0.00    -0.237 NA
ATOM     90  C   UNL A   1      32.700  20.548  25.032  1.00  0.00     0.084 A 
ATOM     91  C   UNL A   1      34.839  18.922  24.628  1.00  0.00     0.126 A 
ATOM     92  C   UNL A   1      32.535  19.168  25.148  1.00  0.00     0.039 A 
ATOM     93  Cl  UNL A   1      31.301  21.543  25.242  1.00  0.00    -0.080 Cl
ATOM     94  C   UNL A   1      33.630  18.326  24.954  1.00  0.00     0.075 A 
BRANCH  94  95
ATOM     95  C   UNL A   1      33.538  16.842  25.105  1.00  0.00     0.417 C 
ATOM     96  F   UNL A   1      32.825  16.458  26.196  1.00  0.00    -0.166 F 
ATOM     97  F   UNL A   1      32.933  16.250  24.038  1.00  0.00    -0.166 F 
ATOM     98  F   UNL A   1      34.753  16.232  25.219  1.00  0.00    -0.166 F 
ENDBRANCH  94  95
ENDBRANCH  82  88
ENDBRANCH  78  80
ENDBRANCH  77  78
ENDBRANCH  76  77
ENDBRANCH  75  76
ENDBRANCH  74  75
ENDBRANCH  73  74
ENDBRANCH   1  73
TORSDOF 22
ENDMDL
MODEL 3
REMARK VINA RESULT:     -10.2      2.965      8.363
REMARK SMILES O=C(OCCOCCOCCOC(=O)[C@H]1C[NH2+]CCN1c1ncc(C(F)(F)F)cc1Cl)c1ccc(-c2c3nc(c(-c4cc(S(=O)(=O)[O-])ccc4F)c4ccc([nH]4)c(-c4cc(S(=O)(=O)[O-])ccc4F)c4nc(c(-c5cc(S(=O)(=O)[O-])ccc5F)c5ccc2[nH]5)C=C4)C=C3)cc1
REMARK SMILES IDX 7 1 6 2 5 3 4 4 3 5 2 6 1 7 32 8 33 9 94 10 34 11 93 12
REMARK SMILES IDX 35 13 36 14 37 15 87 16 38 17 92 18 86 19 88 20 39 21 91 22
REMARK SMILES IDX 85 23 84 24 40 26 72 27 52 28 71 29 53 30 56 31 70 32 89 33
REMARK SMILES IDX 54 34 55 35 69 37 90 38 57 39 41 40 42 41 50 42 43 43 49 44
REMARK SMILES IDX 51 45 48 46 44 47 45 48 46 49 47 50 73 51 74 52 82 53 75 54
REMARK SMILES IDX 81 55 83 56 80 57 76 58 77 59 78 60 79 61 58 62 59 63 67 64
REMARK SMILES IDX 60 65 66 66 68 67 65 68 61 69 62 70 63 71 64 72 8 73 9 74
REMARK SMILES IDX 10 75 11 76 12 77 13 78 14 79 15 80 16 81 20 82 17 83 19 84
REMARK SMILES IDX 18 85 21 88 22 89 30 90 23 91 29 92 31 93 24 94 25 95 26 96
REMARK SMILES IDX 27 97 28 98
REMARK H PARENT 88 25 56 36 17 86 17 87
REMARK Flexibility Score: inf
ROOT
ATOM      1  C   UNL A   1      42.251  19.508  26.319  1.00  0.00     0.188 C 
ENDROOT
BRANCH   1   2
ATOM      2  O   UNL A   1      42.938  20.219  25.279  1.00  0.00    -0.376 OA
BRANCH   2   3
ATOM      3  C   UNL A   1      43.535  21.442  25.729  1.00  0.00     0.202 C 
BRANCH   3   4
ATOM      4  C   UNL A   1      42.808  22.737  25.324  1.00  0.00     0.261 C 
BRANCH   4   5
ATOM      5  O   UNL A   1      43.650  23.664  24.618  1.00  0.00    -0.460 OA
BRANCH   5   6
ATOM      6  C   UNL A   1      44.212  24.814  25.070  1.00  0.00     0.338 C 
ATOM      7  O   UNL A   1      45.332  25.112  24.651  1.00  0.00    -0.246 OA
BRANCH   6   8
ATOM      8  C   UNL A   1      43.556  25.752  26.036  1.00  0.00     0.060 A 
ATOM      9  C   UNL A   1      43.724  27.132  26.048  1.00  0.00     0.016 A 
ATOM     10  C   UNL A   1      42.662  25.196  26.973  1.00  0.00     0.016 A 
ATOM     11  C   UNL A   1      43.134  27.924  27.028  1.00  0.00     0.010 A 
ATOM     12  C   UNL A   1      42.020  25.993  27.933  1.00  0.00     0.010 A 
ATOM     13  C   UNL A   1      42.295  27.360  27.989  1.00  0.00    -0.014 A 
BRANCH  13  14
ATOM     14  C   UNL A   1      41.878  28.239  29.104  1.00  0.00     0.031 A 
ATOM     15  C   UNL A   1      40.510  28.838  29.049  1.00  0.00     0.074 A 
ATOM     16  C   UNL A   1      42.629  28.302  30.219  1.00  0.00     0.049 A 
ATOM     17  N   UNL A   1      39.863  29.501  29.966  1.00  0.00    -0.248 NA
ATOM     18  C   UNL A   1      39.773  28.671  27.787  1.00  0.00     0.031 C 
ATOM     19  C   UNL A   1      43.960  27.723  30.341  1.00  0.00     0.029 A 
ATOM     20  N   UNL A   1      42.369  28.799  31.471  1.00  0.00    -0.354 N 
ATOM     21  C   UNL A   1      38.657  29.866  29.383  1.00  0.00     0.074 A 
ATOM     22  C   UNL A   1      38.661  29.342  28.035  1.00  0.00     0.031 C 
ATOM     23  C   UNL A   1      44.357  27.797  31.620  1.00  0.00     0.029 A 
ATOM     24  C   UNL A   1      43.330  28.466  32.405  1.00  0.00     0.049 A 
ATOM     25  H   UNL A   1      41.573  29.338  31.684  1.00  0.00     0.167 HD
ATOM     26  C   UNL A   1      37.657  30.599  29.928  1.00  0.00     0.034 A 
ATOM     27  C   UNL A   1      43.360  28.665  33.742  1.00  0.00     0.034 A 
ATOM     28  C   UNL A   1      37.720  31.129  31.266  1.00  0.00     0.049 A 
ATOM     29  C   UNL A   1      42.206  29.440  34.332  1.00  0.00     0.074 A 
ATOM     30  C   UNL A   1      36.863  32.012  31.897  1.00  0.00     0.029 A 
ATOM     31  N   UNL A   1      38.716  30.814  32.188  1.00  0.00    -0.354 N 
ATOM     32  N   UNL A   1      41.113  29.871  33.738  1.00  0.00    -0.248 NA
ATOM     33  C   UNL A   1      42.300  29.795  35.752  1.00  0.00     0.031 C 
ATOM     34  C   UNL A   1      37.366  32.264  33.181  1.00  0.00     0.029 A 
ATOM     35  C   UNL A   1      38.496  31.485  33.380  1.00  0.00     0.049 A 
ATOM     36  H   UNL A   1      39.466  30.201  32.018  1.00  0.00     0.167 HD
ATOM     37  C   UNL A   1      40.418  30.592  34.701  1.00  0.00     0.074 A 
ATOM     38  C   UNL A   1      41.165  30.452  35.936  1.00  0.00     0.031 C 
ATOM     39  C   UNL A   1      39.294  31.345  34.576  1.00  0.00     0.034 A 
BRANCH  26  40
ATOM     40  C   UNL A   1      36.511  30.949  29.013  1.00  0.00     0.023 A 
ATOM     41  C   UNL A   1      36.080  32.277  28.839  1.00  0.00     0.031 A 
ATOM     42  C   UNL A   1      35.753  29.926  28.416  1.00  0.00     0.131 A 
ATOM     43  C   UNL A   1      34.878  32.537  28.164  1.00  0.00     0.055 A 
ATOM     44  C   UNL A   1      34.602  30.200  27.675  1.00  0.00     0.041 A 
ATOM     45  F   UNL A   1      36.093  28.639  28.580  1.00  0.00    -0.206 F 
ATOM     46  C   UNL A   1      34.148  31.511  27.560  1.00  0.00     0.022 A 
BRANCH  43  47
ATOM     47  S   UNL A   1      34.188  34.216  28.232  1.00  0.00     0.124 S 
ATOM     48  O   UNL A   1      34.544  34.624  29.589  1.00  0.00    -0.237 OA
ATOM     49  O   UNL A   1      34.900  34.895  27.156  1.00  0.00    -0.237 OA
ATOM     50  O   UNL A   1      32.760  34.010  28.004  1.00  0.00    -0.744 OA
ENDBRANCH  43  47
ENDBRANCH  26  40
BRANCH  27  51
ATOM     51  C   UNL A   1      44.502  28.190  34.593  1.00  0.00     0.023 A 
ATOM     52  C   UNL A   1      45.680  28.946  34.742  1.00  0.00     0.031 A 
ATOM     53  C   UNL A   1      44.464  26.935  35.231  1.00  0.00     0.131 A 
ATOM     54  C   UNL A   1      46.771  28.429  35.467  1.00  0.00     0.055 A 
ATOM     55  C   UNL A   1      45.516  26.462  36.019  1.00  0.00     0.041 A 
ATOM     56  F   UNL A   1      43.393  26.136  35.103  1.00  0.00    -0.206 F 
ATOM     57  C   UNL A   1      46.685  27.203  36.128  1.00  0.00     0.022 A 
BRANCH  54  58
ATOM     58  S   UNL A   1      48.359  29.312  35.426  1.00  0.00     0.124 S 
ATOM     59  O   UNL A   1      48.712  29.362  36.840  1.00  0.00    -0.237 OA
ATOM     60  O   UNL A   1      49.172  28.431  34.593  1.00  0.00    -0.237 OA
ATOM     61  O   UNL A   1      48.018  30.599  34.824  1.00  0.00    -0.744 OA
ENDBRANCH  54  58
ENDBRANCH  27  51
BRANCH  39  62
ATOM     62  C   UNL A   1      38.857  32.089  35.811  1.00  0.00     0.023 A 
ATOM     63  C   UNL A   1      38.196  31.425  36.860  1.00  0.00     0.031 A 
ATOM     64  C   UNL A   1      39.068  33.472  35.926  1.00  0.00     0.131 A 
ATOM     65  C   UNL A   1      37.698  32.157  37.944  1.00  0.00     0.055 A 
ATOM     66  C   UNL A   1      38.628  34.186  37.041  1.00  0.00     0.041 A 
ATOM     67  F   UNL A   1      39.695  34.151  34.952  1.00  0.00    -0.206 F 
ATOM     68  C   UNL A   1      37.924  33.533  38.049  1.00  0.00     0.022 A 
BRANCH  65  69
ATOM     69  S   UNL A   1      36.652  31.309  39.158  1.00  0.00     0.124 S 
ATOM     70  O   UNL A   1      35.502  32.203  39.245  1.00  0.00    -0.237 OA
ATOM     71  O   UNL A   1      36.411  30.020  38.517  1.00  0.00    -0.237 OA
ATOM     72  O   UNL A   1      37.489  31.258  40.356  1.00  0.00    -0.744 OA
ENDBRANCH  65  69
ENDBRANCH  39  62
ENDBRANCH  13  14
ENDBRANCH   6   8
ENDBRANCH   5   6
ENDBRANCH   4   5
ENDBRANCH   3   4
ENDBRANCH   2   3
ENDBRANCH   1   2
BRANCH   1  73
ATOM     73  C   UNL A   1      40.749  19.792  26.311  1.00  0.00     0.188 C 
BRANCH  73  74
ATOM     74  O   UNL A   1      40.316  20.872  27.139  1.00  0.00    -0.376 OA
BRANCH  74  75
ATOM     75  C   UNL A   1      39.549  21.902  26.522  1.00  0.00     0.202 C 
BRANCH  75  76
ATOM     76  C   UNL A   1      38.450  21.446  25.558  1.00  0.00     0.261 C 
BRANCH  76  77
ATOM     77  O   UNL A   1      37.134  21.801  25.993  1.00  0.00    -0.462 OA
BRANCH  77  78
ATOM     78  C   UNL A   1      36.555  22.903  25.415  1.00  0.00     0.334 C 
ATOM     79  O   UNL A   1      37.150  23.716  24.733  1.00  0.00    -0.250 OA
BRANCH  78  80
ATOM     80  C   UNL A   1      35.049  22.998  25.763  1.00  0.00     0.249 C 
ATOM     81  C   UNL A   1      34.560  24.453  25.971  1.00  0.00     0.298 C 
ATOM     82  N   UNL A   1      34.214  22.399  24.709  1.00  0.00    -0.331 N 
ATOM     83  N   UNL A   1      34.546  25.285  24.742  1.00  0.00    -0.343 N 
ATOM     84  C   UNL A   1      34.244  23.084  23.418  1.00  0.00     0.180 C 
ATOM     85  C   UNL A   1      33.863  24.572  23.636  1.00  0.00     0.282 C 
ATOM     86  H   UNL A   1      35.505  25.491  24.467  1.00  0.00     0.346 HD
ATOM     87  H   UNL A   1      34.039  26.148  24.937  1.00  0.00     0.346 HD
BRANCH  82  88
ATOM     88  C   UNL A   1      33.940  21.052  24.771  1.00  0.00     0.148 A 
ATOM     89  N   UNL A   1      34.943  20.192  24.483  1.00  0.00    -0.237 NA
ATOM     90  C   UNL A   1      32.661  20.579  25.119  1.00  0.00     0.084 A 
ATOM     91  C   UNL A   1      34.695  18.863  24.573  1.00  0.00     0.126 A 
ATOM     92  C   UNL A   1      32.428  19.206  25.191  1.00  0.00     0.039 A 
ATOM     93  Cl  UNL A   1      31.324  21.636  25.419  1.00  0.00    -0.080 Cl
ATOM     94  C   UNL A   1      33.469  18.318  24.923  1.00  0.00     0.075 A 
BRANCH  94  95
ATOM     95  C   UNL A   1      33.306  16.835  25.023  1.00  0.00     0.417 C 
ATOM     96  F   UNL A   1      34.077  16.276  25.993  1.00  0.00    -0.166 F 
ATOM     97  F   UNL A   1      32.024  16.475  25.313  1.00  0.00    -0.166 F 
ATOM     98  F   UNL A   1      33.617  16.176  23.871  1.00  0.00    -0.166 F 
ENDBRANCH  94  95
ENDBRANCH  82  88
ENDBRANCH  78  80
ENDBRANCH  77  78
ENDBRANCH  76  77
ENDBRANCH  75  76
ENDBRANCH  74  75
ENDBRANCH  73  74
ENDBRANCH   1  73
TORSDOF 22
ENDMDL
