MODEL 1
REMARK VINA RESULT:     -11.2      0.000      0.000
REMARK SMILES Cc1c(CC(=O)OCCOCCOCCOC(=O)c2ccc(-c3c4nc(c(-c5cc(S(=O)(=O)[O-])ccc5F)c5ccc([nH]5)c(-c5cc(S(=O)(=O)[O-])ccc5F)c5nc(c(-c6cc(S(=O)(=O)[O-])ccc6F)c6ccc3[nH]6)C=C5)C=C4)cc2)c2cc(O)ccc2n1C(=O)c1ccc(Cl)cc1
REMARK SMILES IDX 11 1 10 2 9 3 8 4 7 5 5 6 6 7 4 8 3 9 1 10 2 11 89 12 82 13
REMARK SMILES IDX 88 14 83 15 87 16 84 17 86 18 90 19 91 20 92 21 93 22 98 23
REMARK SMILES IDX 94 24 97 25 95 26 96 27 85 28 12 30 13 31 14 32 15 33 16 34
REMARK SMILES IDX 17 35 18 36 19 37 20 38 81 39 21 40 80 41 22 42 23 43 24 44
REMARK SMILES IDX 74 45 25 46 79 47 73 48 75 49 26 50 78 51 72 52 71 53 27 55
REMARK SMILES IDX 59 56 39 57 58 58 40 59 43 60 57 61 76 62 41 63 42 64 56 66
REMARK SMILES IDX 77 67 44 68 28 69 29 70 37 71 30 72 36 73 38 74 35 75 31 76
REMARK SMILES IDX 32 77 33 78 34 79 60 80 61 81 69 82 62 83 68 84 70 85 67 86
REMARK SMILES IDX 63 87 64 88 65 89 66 90 45 91 46 92 54 93 47 94 53 95 55 96
REMARK SMILES IDX 52 97 48 98 49 99 50 100 51 101
REMARK H PARENT 85 29 75 54 43 65
REMARK Flexibility Score: inf
ROOT
ATOM      1  C   UNL A   1      38.470  23.512  26.232  1.00  0.00     0.188 C 
ENDROOT
BRANCH   1   2
ATOM      2  O   UNL A   1      37.065  23.540  26.364  1.00  0.00    -0.376 OA
BRANCH   2   3
ATOM      3  C   UNL A   1      36.308  23.389  25.171  1.00  0.00     0.202 C 
BRANCH   3   4
ATOM      4  C   UNL A   1      35.149  22.380  25.218  1.00  0.00     0.261 C 
BRANCH   4   5
ATOM      5  O   UNL A   1      33.869  23.062  25.180  1.00  0.00    -0.463 OA
BRANCH   5   6
ATOM      6  C   UNL A   1      33.117  22.984  26.310  1.00  0.00     0.310 C 
ATOM      7  O   UNL A   1      33.354  22.165  27.194  1.00  0.00    -0.252 OA
BRANCH   6   8
ATOM      8  C   UNL A   1      32.149  24.153  26.510  1.00  0.00     0.160 C 
BRANCH   8   9
ATOM      9  C   UNL A   1      32.093  25.353  25.602  1.00  0.00    -0.008 A 
ATOM     10  C   UNL A   1      30.511  24.290  23.831  1.00  0.00     0.065 C 
ATOM     11  C   UNL A   1      31.289  25.395  24.469  1.00  0.00     0.028 A 
ATOM     12  N   UNL A   1      31.253  26.703  24.005  1.00  0.00    -0.280 N 
ATOM     13  C   UNL A   1      32.478  26.724  25.882  1.00  0.00     0.008 A 
ATOM     14  C   UNL A   1      31.729  27.529  25.027  1.00  0.00     0.057 A 
ATOM     15  C   UNL A   1      33.272  27.411  26.835  1.00  0.00     0.056 A 
ATOM     16  C   UNL A   1      31.601  28.922  25.263  1.00  0.00     0.031 A 
ATOM     17  C   UNL A   1      33.215  28.798  27.011  1.00  0.00     0.116 A 
ATOM     18  C   UNL A   1      32.349  29.545  26.256  1.00  0.00     0.048 A 
BRANCH  12  19
ATOM     19  C   UNL A   1      30.871  27.135  22.707  1.00  0.00     0.262 C 
ATOM     20  O   UNL A   1      31.441  26.706  21.720  1.00  0.00    -0.268 OA
BRANCH  19  21
ATOM     21  C   UNL A   1      29.874  28.209  22.534  1.00  0.00     0.040 A 
ATOM     22  C   UNL A   1      30.307  29.427  21.992  1.00  0.00     0.015 A 
ATOM     23  C   UNL A   1      28.626  28.083  23.148  1.00  0.00     0.015 A 
ATOM     24  C   UNL A   1      29.506  30.557  22.134  1.00  0.00     0.021 A 
ATOM     25  C   UNL A   1      27.835  29.223  23.296  1.00  0.00     0.021 A 
ATOM     26  C   UNL A   1      28.286  30.455  22.806  1.00  0.00     0.041 A 
ATOM     27  Cl  UNL A   1      27.358  31.876  23.090  1.00  0.00    -0.084 Cl
ENDBRANCH  19  21
ENDBRANCH  12  19
BRANCH  17  28
ATOM     28  O   UNL A   1      33.953  29.468  27.945  1.00  0.00    -0.508 OA
ATOM     29  H   UNL A   1      34.724  29.933  27.688  1.00  0.00     0.293 HD
ENDBRANCH  17  28
ENDBRANCH   8   9
ENDBRANCH   6   8
ENDBRANCH   5   6
ENDBRANCH   4   5
ENDBRANCH   3   4
ENDBRANCH   2   3
ENDBRANCH   1   2
BRANCH   1  30
ATOM     30  C   UNL A   1      39.148  22.152  26.059  1.00  0.00     0.188 C 
BRANCH  30  31
ATOM     31  O   UNL A   1      39.902  21.567  27.091  1.00  0.00    -0.376 OA
BRANCH  31  32
ATOM     32  C   UNL A   1      40.575  20.363  26.780  1.00  0.00     0.202 C 
BRANCH  32  33
ATOM     33  C   UNL A   1      42.087  20.425  26.452  1.00  0.00     0.261 C 
BRANCH  33  34
ATOM     34  O   UNL A   1      42.782  21.593  26.987  1.00  0.00    -0.460 OA
BRANCH  34  35
ATOM     35  C   UNL A   1      42.825  22.682  26.154  1.00  0.00     0.338 C 
ATOM     36  O   UNL A   1      42.641  22.627  24.943  1.00  0.00    -0.246 OA
BRANCH  35  37
ATOM     37  C   UNL A   1      42.637  23.974  26.902  1.00  0.00     0.060 A 
ATOM     38  C   UNL A   1      43.013  24.256  28.214  1.00  0.00     0.016 A 
ATOM     39  C   UNL A   1      41.866  24.928  26.225  1.00  0.00     0.016 A 
ATOM     40  C   UNL A   1      42.520  25.428  28.843  1.00  0.00     0.010 A 
ATOM     41  C   UNL A   1      41.303  26.026  26.863  1.00  0.00     0.010 A 
ATOM     42  C   UNL A   1      41.604  26.283  28.191  1.00  0.00    -0.014 A 
BRANCH  42  43
ATOM     43  C   UNL A   1      41.263  27.632  28.676  1.00  0.00     0.031 A 
ATOM     44  C   UNL A   1      42.073  28.660  28.015  1.00  0.00     0.074 A 
ATOM     45  C   UNL A   1      40.276  28.081  29.483  1.00  0.00     0.049 A 
ATOM     46  N   UNL A   1      43.211  29.056  28.470  1.00  0.00    -0.248 NA
ATOM     47  C   UNL A   1      41.731  29.156  26.682  1.00  0.00     0.031 C 
ATOM     48  C   UNL A   1      39.291  27.306  30.204  1.00  0.00     0.029 A 
ATOM     49  N   UNL A   1      39.936  29.367  29.824  1.00  0.00    -0.354 N 
ATOM     50  C   UNL A   1      43.603  30.069  27.624  1.00  0.00     0.074 A 
ATOM     51  C   UNL A   1      42.811  29.900  26.426  1.00  0.00     0.031 C 
ATOM     52  C   UNL A   1      38.322  28.102  30.715  1.00  0.00     0.029 A 
ATOM     53  C   UNL A   1      38.742  29.484  30.533  1.00  0.00     0.049 A 
ATOM     54  H   UNL A   1      40.492  30.143  29.587  1.00  0.00     0.167 HD
ATOM     55  C   UNL A   1      44.336  31.109  28.109  1.00  0.00     0.034 A 
ATOM     56  C   UNL A   1      38.269  30.530  31.262  1.00  0.00     0.034 A 
ATOM     57  C   UNL A   1      44.750  30.864  29.476  1.00  0.00     0.049 A 
ATOM     58  C   UNL A   1      39.434  31.341  31.671  1.00  0.00     0.074 A 
ATOM     59  C   UNL A   1      45.473  29.872  30.112  1.00  0.00     0.029 A 
ATOM     60  N   UNL A   1      44.041  31.502  30.470  1.00  0.00    -0.354 N 
ATOM     61  N   UNL A   1      40.279  30.979  32.594  1.00  0.00    -0.248 NA
ATOM     62  C   UNL A   1      39.895  32.389  30.776  1.00  0.00     0.031 C 
ATOM     63  C   UNL A   1      44.844  29.688  31.378  1.00  0.00     0.029 A 
ATOM     64  C   UNL A   1      43.805  30.614  31.492  1.00  0.00     0.049 A 
ATOM     65  H   UNL A   1      43.749  32.442  30.452  1.00  0.00     0.167 HD
ATOM     66  C   UNL A   1      41.508  31.361  32.088  1.00  0.00     0.074 A 
ATOM     67  C   UNL A   1      41.200  32.346  31.054  1.00  0.00     0.031 C 
ATOM     68  C   UNL A   1      42.635  30.640  32.357  1.00  0.00     0.034 A 
BRANCH  55  69
ATOM     69  C   UNL A   1      44.367  32.471  27.474  1.00  0.00     0.023 A 
ATOM     70  C   UNL A   1      43.635  33.568  27.966  1.00  0.00     0.031 A 
ATOM     71  C   UNL A   1      45.271  32.753  26.434  1.00  0.00     0.131 A 
ATOM     72  C   UNL A   1      43.755  34.844  27.411  1.00  0.00     0.055 A 
ATOM     73  C   UNL A   1      45.453  34.046  25.930  1.00  0.00     0.041 A 
ATOM     74  F   UNL A   1      46.038  31.786  25.906  1.00  0.00    -0.206 F 
ATOM     75  C   UNL A   1      44.684  35.100  26.411  1.00  0.00     0.022 A 
BRANCH  72  76
ATOM     76  S   UNL A   1      42.677  36.186  27.984  1.00  0.00     0.124 S 
ATOM     77  O   UNL A   1      41.371  35.742  27.512  1.00  0.00    -0.237 OA
ATOM     78  O   UNL A   1      42.884  36.132  29.429  1.00  0.00    -0.237 OA
ATOM     79  O   UNL A   1      43.227  37.368  27.326  1.00  0.00    -0.744 OA
ENDBRANCH  72  76
ENDBRANCH  55  69
BRANCH  56  80
ATOM     80  C   UNL A   1      36.917  31.141  31.154  1.00  0.00     0.023 A 
ATOM     81  C   UNL A   1      36.426  31.586  29.916  1.00  0.00     0.031 A 
ATOM     82  C   UNL A   1      36.227  31.557  32.312  1.00  0.00     0.131 A 
ATOM     83  C   UNL A   1      35.352  32.491  29.867  1.00  0.00     0.055 A 
ATOM     84  C   UNL A   1      35.140  32.438  32.258  1.00  0.00     0.041 A 
ATOM     85  F   UNL A   1      36.642  31.173  33.529  1.00  0.00    -0.206 F 
ATOM     86  C   UNL A   1      34.711  32.927  31.029  1.00  0.00     0.022 A 
BRANCH  83  87
ATOM     87  S   UNL A   1      34.820  33.187  28.279  1.00  0.00     0.124 S 
ATOM     88  O   UNL A   1      34.413  34.541  28.646  1.00  0.00    -0.237 OA
ATOM     89  O   UNL A   1      36.044  33.093  27.491  1.00  0.00    -0.237 OA
ATOM     90  O   UNL A   1      33.729  32.306  27.871  1.00  0.00    -0.744 OA
ENDBRANCH  83  87
ENDBRANCH  56  80
BRANCH  68  91
ATOM     91  C   UNL A   1      42.599  29.626  33.488  1.00  0.00     0.023 A 
ATOM     92  C   UNL A   1      43.143  30.024  34.723  1.00  0.00     0.031 A 
ATOM     93  C   UNL A   1      42.230  28.272  33.358  1.00  0.00     0.131 A 
ATOM     94  C   UNL A   1      43.347  29.091  35.749  1.00  0.00     0.055 A 
ATOM     95  C   UNL A   1      42.370  27.357  34.409  1.00  0.00     0.041 A 
ATOM     96  F   UNL A   1      41.794  27.772  32.196  1.00  0.00    -0.206 F 
ATOM     97  C   UNL A   1      42.948  27.760  35.607  1.00  0.00     0.022 A 
BRANCH  94  98
ATOM     98  S   UNL A   1      44.271  29.554  37.237  1.00  0.00     0.124 S 
ATOM     99  O   UNL A   1      45.525  30.054  36.681  1.00  0.00    -0.237 OA
ATOM    100  O   UNL A   1      43.403  30.567  37.836  1.00  0.00    -0.237 OA
ATOM    101  O   UNL A   1      44.375  28.308  37.991  1.00  0.00    -0.744 OA
ENDBRANCH  94  98
ENDBRANCH  68  91
ENDBRANCH  42  43
ENDBRANCH  35  37
ENDBRANCH  34  35
ENDBRANCH  33  34
ENDBRANCH  32  33
ENDBRANCH  31  32
ENDBRANCH  30  31
ENDBRANCH   1  30
TORSDOF 24
ENDMDL
MODEL 2
REMARK VINA RESULT:     -10.7      1.366      2.116
REMARK SMILES Cc1c(CC(=O)OCCOCCOCCOC(=O)c2ccc(-c3c4nc(c(-c5cc(S(=O)(=O)[O-])ccc5F)c5ccc([nH]5)c(-c5cc(S(=O)(=O)[O-])ccc5F)c5nc(c(-c6cc(S(=O)(=O)[O-])ccc6F)c6ccc3[nH]6)C=C5)C=C4)cc2)c2cc(O)ccc2n1C(=O)c1ccc(Cl)cc1
REMARK SMILES IDX 11 1 10 2 9 3 8 4 7 5 5 6 6 7 4 8 3 9 1 10 2 11 89 12 82 13
REMARK SMILES IDX 88 14 83 15 87 16 84 17 86 18 90 19 91 20 92 21 93 22 98 23
REMARK SMILES IDX 94 24 97 25 95 26 96 27 85 28 12 30 13 31 14 32 15 33 16 34
REMARK SMILES IDX 17 35 18 36 19 37 20 38 81 39 21 40 80 41 22 42 23 43 24 44
REMARK SMILES IDX 74 45 25 46 79 47 73 48 75 49 26 50 78 51 72 52 71 53 27 55
REMARK SMILES IDX 59 56 39 57 58 58 40 59 43 60 57 61 76 62 41 63 42 64 56 66
REMARK SMILES IDX 77 67 44 68 28 69 29 70 37 71 30 72 36 73 38 74 35 75 31 76
REMARK SMILES IDX 32 77 33 78 34 79 60 80 61 81 69 82 62 83 68 84 70 85 67 86
REMARK SMILES IDX 63 87 64 88 65 89 66 90 45 91 46 92 54 93 47 94 53 95 55 96
REMARK SMILES IDX 52 97 48 98 49 99 50 100 51 101
REMARK H PARENT 85 29 75 54 43 65
REMARK Flexibility Score: inf
ROOT
ATOM      1  C   UNL A   1      38.394  21.545  25.668  1.00  0.00     0.188 C 
ENDROOT
BRANCH   1   2
ATOM      2  O   UNL A   1      37.287  20.780  25.240  1.00  0.00    -0.376 OA
BRANCH   2   3
ATOM      3  C   UNL A   1      36.117  21.499  24.876  1.00  0.00     0.202 C 
BRANCH   3   4
ATOM      4  C   UNL A   1      34.780  20.926  25.373  1.00  0.00     0.261 C 
BRANCH   4   5
ATOM      5  O   UNL A   1      34.240  19.974  24.421  1.00  0.00    -0.463 OA
BRANCH   5   6
ATOM      6  C   UNL A   1      32.904  20.060  24.182  1.00  0.00     0.310 C 
ATOM      7  O   UNL A   1      32.097  19.304  24.717  1.00  0.00    -0.252 OA
BRANCH   6   8
ATOM      8  C   UNL A   1      32.474  21.319  23.425  1.00  0.00     0.160 C 
BRANCH   8   9
ATOM      9  C   UNL A   1      32.403  22.685  24.054  1.00  0.00    -0.008 A 
ATOM     10  C   UNL A   1      33.580  23.951  22.111  1.00  0.00     0.065 C 
ATOM     11  C   UNL A   1      32.832  23.833  23.399  1.00  0.00     0.028 A 
ATOM     12  N   UNL A   1      32.395  24.938  24.116  1.00  0.00    -0.280 N 
ATOM     13  C   UNL A   1      31.586  23.131  25.168  1.00  0.00     0.008 A 
ATOM     14  C   UNL A   1      31.408  24.503  25.006  1.00  0.00     0.057 A 
ATOM     15  C   UNL A   1      30.863  22.539  26.235  1.00  0.00     0.056 A 
ATOM     16  C   UNL A   1      30.392  25.195  25.713  1.00  0.00     0.031 A 
ATOM     17  C   UNL A   1      29.923  23.242  26.995  1.00  0.00     0.116 A 
ATOM     18  C   UNL A   1      29.658  24.555  26.706  1.00  0.00     0.048 A 
BRANCH  12  19
ATOM     19  C   UNL A   1      32.897  26.263  24.028  1.00  0.00     0.262 C 
ATOM     20  O   UNL A   1      34.035  26.518  24.378  1.00  0.00    -0.268 OA
BRANCH  19  21
ATOM     21  C   UNL A   1      32.013  27.379  23.639  1.00  0.00     0.040 A 
ATOM     22  C   UNL A   1      31.848  28.434  24.546  1.00  0.00     0.015 A 
ATOM     23  C   UNL A   1      31.176  27.228  22.531  1.00  0.00     0.015 A 
ATOM     24  C   UNL A   1      30.779  29.311  24.381  1.00  0.00     0.021 A 
ATOM     25  C   UNL A   1      30.101  28.106  22.380  1.00  0.00     0.021 A 
ATOM     26  C   UNL A   1      29.898  29.129  23.314  1.00  0.00     0.041 A 
ATOM     27  Cl  UNL A   1      28.508  30.136  23.186  1.00  0.00    -0.084 Cl
ENDBRANCH  19  21
ENDBRANCH  12  19
BRANCH  17  28
ATOM     28  O   UNL A   1      29.198  22.676  28.005  1.00  0.00    -0.508 OA
ATOM     29  H   UNL A   1      28.398  22.227  27.814  1.00  0.00     0.293 HD
ENDBRANCH  17  28
ENDBRANCH   8   9
ENDBRANCH   6   8
ENDBRANCH   5   6
ENDBRANCH   4   5
ENDBRANCH   3   4
ENDBRANCH   2   3
ENDBRANCH   1   2
BRANCH   1  30
ATOM     30  C   UNL A   1      39.723  20.821  25.892  1.00  0.00     0.188 C 
BRANCH  30  31
ATOM     31  O   UNL A   1      40.219  20.573  27.183  1.00  0.00    -0.376 OA
BRANCH  31  32
ATOM     32  C   UNL A   1      41.604  20.312  27.291  1.00  0.00     0.202 C 
BRANCH  32  33
ATOM     33  C   UNL A   1      42.537  21.458  27.753  1.00  0.00     0.261 C 
BRANCH  33  34
ATOM     34  O   UNL A   1      43.535  21.870  26.770  1.00  0.00    -0.460 OA
BRANCH  34  35
ATOM     35  C   UNL A   1      43.139  22.869  25.917  1.00  0.00     0.338 C 
ATOM     36  O   UNL A   1      42.612  22.673  24.829  1.00  0.00    -0.246 OA
BRANCH  35  37
ATOM     37  C   UNL A   1      42.967  24.185  26.629  1.00  0.00     0.060 A 
ATOM     38  C   UNL A   1      43.732  24.687  27.680  1.00  0.00     0.016 A 
ATOM     39  C   UNL A   1      41.813  24.891  26.266  1.00  0.00     0.016 A 
ATOM     40  C   UNL A   1      43.267  25.814  28.404  1.00  0.00     0.010 A 
ATOM     41  C   UNL A   1      41.303  25.935  27.028  1.00  0.00     0.010 A 
ATOM     42  C   UNL A   1      42.013  26.400  28.124  1.00  0.00    -0.014 A 
BRANCH  42  43
ATOM     43  C   UNL A   1      41.592  27.712  28.650  1.00  0.00     0.031 A 
ATOM     44  C   UNL A   1      42.375  28.802  28.060  1.00  0.00     0.074 A 
ATOM     45  C   UNL A   1      40.559  28.081  29.439  1.00  0.00     0.049 A 
ATOM     46  N   UNL A   1      43.477  29.230  28.570  1.00  0.00    -0.248 NA
ATOM     47  C   UNL A   1      42.056  29.336  26.736  1.00  0.00     0.031 C 
ATOM     48  C   UNL A   1      39.587  27.233  30.093  1.00  0.00     0.029 A 
ATOM     49  N   UNL A   1      40.148  29.336  29.818  1.00  0.00    -0.354 N 
ATOM     50  C   UNL A   1      43.850  30.293  27.780  1.00  0.00     0.074 A 
ATOM     51  C   UNL A   1      43.108  30.139  26.549  1.00  0.00     0.031 C 
ATOM     52  C   UNL A   1      38.565  27.963  30.600  1.00  0.00     0.029 A 
ATOM     53  C   UNL A   1      38.926  29.369  30.488  1.00  0.00     0.049 A 
ATOM     54  H   UNL A   1      40.674  30.146  29.632  1.00  0.00     0.167 HD
ATOM     55  C   UNL A   1      44.516  31.345  28.331  1.00  0.00     0.034 A 
ATOM     56  C   UNL A   1      38.380  30.361  31.241  1.00  0.00     0.034 A 
ATOM     57  C   UNL A   1      44.895  31.063  29.702  1.00  0.00     0.049 A 
ATOM     58  C   UNL A   1      39.491  31.207  31.723  1.00  0.00     0.074 A 
ATOM     59  C   UNL A   1      45.642  30.079  30.323  1.00  0.00     0.029 A 
ATOM     60  N   UNL A   1      44.123  31.627  30.695  1.00  0.00    -0.354 N 
ATOM     61  N   UNL A   1      40.320  30.846  32.660  1.00  0.00    -0.248 NA
ATOM     62  C   UNL A   1      39.933  32.311  30.887  1.00  0.00     0.031 C 
ATOM     63  C   UNL A   1      44.980  29.815  31.557  1.00  0.00     0.029 A 
ATOM     64  C   UNL A   1      43.895  30.687  31.671  1.00  0.00     0.049 A 
ATOM     65  H   UNL A   1      43.789  32.553  30.703  1.00  0.00     0.167 HD
ATOM     66  C   UNL A   1      41.547  31.304  32.213  1.00  0.00     0.074 A 
ATOM     67  C   UNL A   1      41.228  32.316  31.209  1.00  0.00     0.031 C 
ATOM     68  C   UNL A   1      42.697  30.624  32.494  1.00  0.00     0.034 A 
BRANCH  55  69
ATOM     69  C   UNL A   1      44.505  32.732  27.752  1.00  0.00     0.023 A 
ATOM     70  C   UNL A   1      43.658  33.754  28.217  1.00  0.00     0.031 A 
ATOM     71  C   UNL A   1      45.473  33.119  26.808  1.00  0.00     0.131 A 
ATOM     72  C   UNL A   1      43.734  35.058  27.723  1.00  0.00     0.055 A 
ATOM     73  C   UNL A   1      45.606  34.442  26.371  1.00  0.00     0.041 A 
ATOM     74  F   UNL A   1      46.349  32.229  26.315  1.00  0.00    -0.206 F 
ATOM     75  C   UNL A   1      44.725  35.420  26.820  1.00  0.00     0.022 A 
BRANCH  72  76
ATOM     76  S   UNL A   1      42.518  36.298  28.247  1.00  0.00     0.124 S 
ATOM     77  O   UNL A   1      41.810  35.593  29.308  1.00  0.00    -0.237 OA
ATOM     78  O   UNL A   1      43.382  37.395  28.677  1.00  0.00    -0.237 OA
ATOM     79  O   UNL A   1      41.751  36.559  27.031  1.00  0.00    -0.744 OA
ENDBRANCH  72  76
ENDBRANCH  55  69
BRANCH  56  80
ATOM     80  C   UNL A   1      37.005  30.914  31.108  1.00  0.00     0.023 A 
ATOM     81  C   UNL A   1      36.456  31.181  29.845  1.00  0.00     0.031 A 
ATOM     82  C   UNL A   1      36.343  31.457  32.230  1.00  0.00     0.131 A 
ATOM     83  C   UNL A   1      35.351  32.041  29.722  1.00  0.00     0.055 A 
ATOM     84  C   UNL A   1      35.226  32.292  32.106  1.00  0.00     0.041 A 
ATOM     85  F   UNL A   1      36.814  31.245  33.469  1.00  0.00    -0.206 F 
ATOM     86  C   UNL A   1      34.738  32.605  30.843  1.00  0.00     0.022 A 
BRANCH  83  87
ATOM     87  S   UNL A   1      34.740  32.510  28.080  1.00  0.00     0.124 S 
ATOM     88  O   UNL A   1      34.405  31.219  27.484  1.00  0.00    -0.237 OA
ATOM     89  O   UNL A   1      33.601  33.357  28.421  1.00  0.00    -0.237 OA
ATOM     90  O   UNL A   1      35.882  33.190  27.475  1.00  0.00    -0.744 OA
ENDBRANCH  83  87
ENDBRANCH  56  80
BRANCH  68  91
ATOM     91  C   UNL A   1      42.670  29.564  33.582  1.00  0.00     0.023 A 
ATOM     92  C   UNL A   1      43.210  29.915  34.833  1.00  0.00     0.031 A 
ATOM     93  C   UNL A   1      42.313  28.213  33.396  1.00  0.00     0.131 A 
ATOM     94  C   UNL A   1      43.423  28.942  35.819  1.00  0.00     0.055 A 
ATOM     95  C   UNL A   1      42.462  27.257  34.408  1.00  0.00     0.041 A 
ATOM     96  F   UNL A   1      41.883  27.757  32.214  1.00  0.00    -0.206 F 
ATOM     97  C   UNL A   1      43.036  27.615  35.622  1.00  0.00     0.022 A 
BRANCH  94  98
ATOM     98  S   UNL A   1      44.341  29.352  37.326  1.00  0.00     0.124 S 
ATOM     99  O   UNL A   1      45.631  29.785  36.795  1.00  0.00    -0.237 OA
ATOM    100  O   UNL A   1      43.518  30.409  37.911  1.00  0.00    -0.237 OA
ATOM    101  O   UNL A   1      44.364  28.100  38.077  1.00  0.00    -0.744 OA
ENDBRANCH  94  98
ENDBRANCH  68  91
ENDBRANCH  42  43
ENDBRANCH  35  37
ENDBRANCH  34  35
ENDBRANCH  33  34
ENDBRANCH  32  33
ENDBRANCH  31  32
ENDBRANCH  30  31
ENDBRANCH   1  30
TORSDOF 24
ENDMDL
MODEL 3
REMARK VINA RESULT:     -10.7      3.834      6.678
REMARK SMILES Cc1c(CC(=O)OCCOCCOCCOC(=O)c2ccc(-c3c4nc(c(-c5cc(S(=O)(=O)[O-])ccc5F)c5ccc([nH]5)c(-c5cc(S(=O)(=O)[O-])ccc5F)c5nc(c(-c6cc(S(=O)(=O)[O-])ccc6F)c6ccc3[nH]6)C=C5)C=C4)cc2)c2cc(O)ccc2n1C(=O)c1ccc(Cl)cc1
REMARK SMILES IDX 11 1 10 2 9 3 8 4 7 5 5 6 6 7 4 8 3 9 1 10 2 11 89 12 82 13
REMARK SMILES IDX 88 14 83 15 87 16 84 17 86 18 90 19 91 20 92 21 93 22 98 23
REMARK SMILES IDX 94 24 97 25 95 26 96 27 85 28 12 30 13 31 14 32 15 33 16 34
REMARK SMILES IDX 17 35 18 36 19 37 20 38 81 39 21 40 80 41 22 42 23 43 24 44
REMARK SMILES IDX 74 45 25 46 79 47 73 48 75 49 26 50 78 51 72 52 71 53 27 55
REMARK SMILES IDX 59 56 39 57 58 58 40 59 43 60 57 61 76 62 41 63 42 64 56 66
REMARK SMILES IDX 77 67 44 68 28 69 29 70 37 71 30 72 36 73 38 74 35 75 31 76
REMARK SMILES IDX 32 77 33 78 34 79 60 80 61 81 69 82 62 83 68 84 70 85 67 86
REMARK SMILES IDX 63 87 64 88 65 89 66 90 45 91 46 92 54 93 47 94 53 95 55 96
REMARK SMILES IDX 52 97 48 98 49 99 50 100 51 101
REMARK H PARENT 85 29 75 54 43 65
REMARK Flexibility Score: inf
ROOT
ATOM      1  C   UNL A   1      38.398  22.407  25.741  1.00  0.00     0.188 C 
ENDROOT
BRANCH   1   2
ATOM      2  O   UNL A   1      37.203  21.701  25.997  1.00  0.00    -0.376 OA
BRANCH   2   3
ATOM      3  C   UNL A   1      36.362  21.444  24.882  1.00  0.00     0.202 C 
BRANCH   3   4
ATOM      4  C   UNL A   1      34.847  21.515  25.136  1.00  0.00     0.261 C 
BRANCH   4   5
ATOM      5  O   UNL A   1      34.115  20.823  24.093  1.00  0.00    -0.463 OA
BRANCH   5   6
ATOM      6  C   UNL A   1      32.807  21.167  23.952  1.00  0.00     0.310 C 
ATOM      7  O   UNL A   1      31.929  20.694  24.669  1.00  0.00    -0.252 OA
BRANCH   6   8
ATOM      8  C   UNL A   1      32.561  22.367  23.034  1.00  0.00     0.160 C 
BRANCH   8   9
ATOM      9  C   UNL A   1      32.117  23.718  23.530  1.00  0.00    -0.008 A 
ATOM     10  C   UNL A   1      32.639  25.010  21.334  1.00  0.00     0.065 C 
ATOM     11  C   UNL A   1      32.094  24.843  22.715  1.00  0.00     0.028 A 
ATOM     12  N   UNL A   1      31.398  25.847  23.372  1.00  0.00    -0.280 N 
ATOM     13  C   UNL A   1      31.312  24.038  24.694  1.00  0.00     0.008 A 
ATOM     14  C   UNL A   1      30.690  25.256  24.423  1.00  0.00     0.057 A 
ATOM     15  C   UNL A   1      30.919  23.403  25.900  1.00  0.00     0.056 A 
ATOM     16  C   UNL A   1      29.578  25.692  25.188  1.00  0.00     0.031 A 
ATOM     17  C   UNL A   1      29.881  23.881  26.705  1.00  0.00     0.116 A 
ATOM     18  C   UNL A   1      29.184  24.999  26.327  1.00  0.00     0.048 A 
BRANCH  12  19
ATOM     19  C   UNL A   1      31.439  27.239  23.089  1.00  0.00     0.262 C 
ATOM     20  O   UNL A   1      30.957  27.674  22.059  1.00  0.00    -0.268 OA
BRANCH  19  21
ATOM     21  C   UNL A   1      32.183  28.164  23.965  1.00  0.00     0.040 A 
ATOM     22  C   UNL A   1      33.477  27.797  24.360  1.00  0.00     0.015 A 
ATOM     23  C   UNL A   1      31.499  29.214  24.581  1.00  0.00     0.015 A 
ATOM     24  C   UNL A   1      34.067  28.447  25.441  1.00  0.00     0.021 A 
ATOM     25  C   UNL A   1      32.095  29.852  25.671  1.00  0.00     0.021 A 
ATOM     26  C   UNL A   1      33.365  29.454  26.106  1.00  0.00     0.041 A 
ATOM     27  Cl  UNL A   1      34.045  30.166  27.517  1.00  0.00    -0.084 Cl
ENDBRANCH  19  21
ENDBRANCH  12  19
BRANCH  17  28
ATOM     28  O   UNL A   1      29.474  23.262  27.853  1.00  0.00    -0.508 OA
ATOM     29  H   UNL A   1      29.295  22.342  27.851  1.00  0.00     0.293 HD
ENDBRANCH  17  28
ENDBRANCH   8   9
ENDBRANCH   6   8
ENDBRANCH   5   6
ENDBRANCH   4   5
ENDBRANCH   3   4
ENDBRANCH   2   3
ENDBRANCH   1   2
BRANCH   1  30
ATOM     30  C   UNL A   1      39.722  21.742  26.125  1.00  0.00     0.188 C 
BRANCH  30  31
ATOM     31  O   UNL A   1      40.279  21.893  27.406  1.00  0.00    -0.376 OA
BRANCH  31  32
ATOM     32  C   UNL A   1      41.458  22.666  27.498  1.00  0.00     0.202 C 
BRANCH  32  33
ATOM     33  C   UNL A   1      41.559  23.730  28.619  1.00  0.00     0.261 C 
BRANCH  33  34
ATOM     34  O   UNL A   1      41.225  25.089  28.204  1.00  0.00    -0.460 OA
BRANCH  34  35
ATOM     35  C   UNL A   1      39.916  25.455  28.391  1.00  0.00     0.338 C 
ATOM     36  O   UNL A   1      38.973  24.673  28.347  1.00  0.00    -0.246 OA
BRANCH  35  37
ATOM     37  C   UNL A   1      39.793  26.767  29.118  1.00  0.00     0.060 A 
ATOM     38  C   UNL A   1      40.687  27.836  29.094  1.00  0.00     0.016 A 
ATOM     39  C   UNL A   1      38.724  26.830  30.020  1.00  0.00     0.016 A 
ATOM     40  C   UNL A   1      40.548  28.881  30.043  1.00  0.00     0.010 A 
ATOM     41  C   UNL A   1      38.637  27.799  31.012  1.00  0.00     0.010 A 
ATOM     42  C   UNL A   1      39.562  28.830  31.053  1.00  0.00    -0.014 A 
BRANCH  42  43
ATOM     43  C   UNL A   1      39.198  29.985  31.893  1.00  0.00     0.031 A 
ATOM     44  C   UNL A   1      38.046  30.706  31.342  1.00  0.00     0.074 A 
ATOM     45  C   UNL A   1      39.630  30.394  33.107  1.00  0.00     0.049 A 
ATOM     46  N   UNL A   1      38.162  31.673  30.499  1.00  0.00    -0.248 NA
ATOM     47  C   UNL A   1      36.679  30.235  31.562  1.00  0.00     0.031 C 
ATOM     48  C   UNL A   1      40.691  29.831  33.913  1.00  0.00     0.029 A 
ATOM     49  N   UNL A   1      39.182  31.424  33.898  1.00  0.00    -0.354 N 
ATOM     50  C   UNL A   1      36.878  32.127  30.296  1.00  0.00     0.074 A 
ATOM     51  C   UNL A   1      36.014  31.060  30.748  1.00  0.00     0.031 C 
ATOM     52  C   UNL A   1      40.680  30.350  35.165  1.00  0.00     0.029 A 
ATOM     53  C   UNL A   1      39.729  31.452  35.180  1.00  0.00     0.049 A 
ATOM     54  H   UNL A   1      38.529  32.089  33.584  1.00  0.00     0.167 HD
ATOM     55  C   UNL A   1      36.661  33.447  30.041  1.00  0.00     0.034 A 
ATOM     56  C   UNL A   1      39.742  32.460  36.092  1.00  0.00     0.034 A 
ATOM     57  C   UNL A   1      37.911  34.153  29.840  1.00  0.00     0.049 A 
ATOM     58  C   UNL A   1      39.582  33.726  35.348  1.00  0.00     0.074 A 
ATOM     59  C   UNL A   1      38.980  34.014  28.974  1.00  0.00     0.029 A 
ATOM     60  N   UNL A   1      38.380  34.909  30.892  1.00  0.00    -0.354 N 
ATOM     61  N   UNL A   1      40.522  34.263  34.625  1.00  0.00    -0.248 NA
ATOM     62  C   UNL A   1      38.236  34.206  35.082  1.00  0.00     0.031 C 
ATOM     63  C   UNL A   1      40.140  34.325  29.742  1.00  0.00     0.029 A 
ATOM     64  C   UNL A   1      39.732  34.701  31.023  1.00  0.00     0.049 A 
ATOM     65  H   UNL A   1      37.835  35.501  31.459  1.00  0.00     0.167 HD
ATOM     66  C   UNL A   1      39.855  34.735  33.509  1.00  0.00     0.074 A 
ATOM     67  C   UNL A   1      38.453  34.808  33.910  1.00  0.00     0.031 C 
ATOM     68  C   UNL A   1      40.458  34.753  32.283  1.00  0.00     0.034 A 
BRANCH  55  69
ATOM     69  C   UNL A   1      35.361  34.146  30.324  1.00  0.00     0.023 A 
ATOM     70  C   UNL A   1      35.177  35.022  31.409  1.00  0.00     0.031 A 
ATOM     71  C   UNL A   1      34.298  34.074  29.406  1.00  0.00     0.131 A 
ATOM     72  C   UNL A   1      33.986  35.727  31.595  1.00  0.00     0.055 A 
ATOM     73  C   UNL A   1      33.136  34.842  29.544  1.00  0.00     0.041 A 
ATOM     74  F   UNL A   1      34.376  33.289  28.320  1.00  0.00    -0.206 F 
ATOM     75  C   UNL A   1      32.970  35.668  30.651  1.00  0.00     0.022 A 
BRANCH  72  76
ATOM     76  S   UNL A   1      33.748  36.725  33.092  1.00  0.00     0.124 S 
ATOM     77  O   UNL A   1      34.336  37.999  32.698  1.00  0.00    -0.237 OA
ATOM     78  O   UNL A   1      32.294  36.708  33.228  1.00  0.00    -0.237 OA
ATOM     79  O   UNL A   1      34.471  35.978  34.117  1.00  0.00    -0.744 OA
ENDBRANCH  72  76
ENDBRANCH  55  69
BRANCH  56  80
ATOM     80  C   UNL A   1      39.340  32.362  37.521  1.00  0.00     0.023 A 
ATOM     81  C   UNL A   1      38.123  31.766  37.887  1.00  0.00     0.031 A 
ATOM     82  C   UNL A   1      40.013  33.117  38.505  1.00  0.00     0.131 A 
ATOM     83  C   UNL A   1      37.569  32.012  39.155  1.00  0.00     0.055 A 
ATOM     84  C   UNL A   1      39.471  33.338  39.777  1.00  0.00     0.041 A 
ATOM     85  F   UNL A   1      41.180  33.717  38.225  1.00  0.00    -0.206 F 
ATOM     86  C   UNL A   1      38.230  32.800  40.099  1.00  0.00     0.022 A 
BRANCH  83  87
ATOM     87  S   UNL A   1      35.923  31.372  39.570  1.00  0.00     0.124 S 
ATOM     88  O   UNL A   1      35.040  32.431  39.090  1.00  0.00    -0.237 OA
ATOM     89  O   UNL A   1      35.888  30.132  38.802  1.00  0.00    -0.237 OA
ATOM     90  O   UNL A   1      35.974  31.222  41.021  1.00  0.00    -0.744 OA
ENDBRANCH  83  87
ENDBRANCH  56  80
BRANCH  68  91
ATOM     91  C   UNL A   1      41.967  34.584  32.211  1.00  0.00     0.023 A 
ATOM     92  C   UNL A   1      42.453  33.304  31.886  1.00  0.00     0.031 A 
ATOM     93  C   UNL A   1      42.915  35.547  32.610  1.00  0.00     0.131 A 
ATOM     94  C   UNL A   1      43.817  33.005  32.007  1.00  0.00     0.055 A 
ATOM     95  C   UNL A   1      44.286  35.265  32.663  1.00  0.00     0.041 A 
ATOM     96  F   UNL A   1      42.547  36.762  33.032  1.00  0.00    -0.206 F 
ATOM     97  C   UNL A   1      44.742  33.984  32.378  1.00  0.00     0.022 A 
BRANCH  94  98
ATOM     98  S   UNL A   1      44.400  31.299  31.828  1.00  0.00     0.124 S 
ATOM     99  O   UNL A   1      44.277  30.784  33.189  1.00  0.00    -0.237 OA
ATOM    100  O   UNL A   1      43.450  30.749  30.862  1.00  0.00    -0.237 OA
ATOM    101  O   UNL A   1      45.767  31.443  31.335  1.00  0.00    -0.744 OA
ENDBRANCH  94  98
ENDBRANCH  68  91
ENDBRANCH  42  43
ENDBRANCH  35  37
ENDBRANCH  34  35
ENDBRANCH  33  34
ENDBRANCH  32  33
ENDBRANCH  31  32
ENDBRANCH  30  31
ENDBRANCH   1  30
TORSDOF 24
ENDMDL
