MODEL 1
REMARK VINA RESULT:     -10.1      0.000      0.000
REMARK SMILES CC[C@@H]1CC[C@H]([C@@H](C)C(=O)OCCOCCOCCOC(=O)c2ccc(-c3c4nc(c(-c5cc(S(=O)(=O)[O-])ccc5F)c5ccc([nH]5)c(-c5cc(S(=O)(=O)[O-])ccc5F)c5nc(c(-c6cc(S(=O)(=O)[O-])ccc6F)c6ccc3[nH]6)C=C5)C=C4)cc2)C1
REMARK SMILES IDX 16 1 15 2 14 3 13 4 12 5 11 6 9 7 10 8 7 9 8 10 6 11 3 12
REMARK SMILES IDX 4 13 86 14 5 15 2 16 1 17 17 18 18 19 19 20 20 21 21 22
REMARK SMILES IDX 22 23 23 24 24 25 85 26 25 27 84 28 26 29 27 30 28 31 78 32
REMARK SMILES IDX 29 33 83 34 77 35 79 36 30 37 82 38 76 39 75 40 31 42 63 43
REMARK SMILES IDX 43 44 62 45 44 46 47 47 61 48 80 49 45 50 46 51 60 53 81 54
REMARK SMILES IDX 48 55 32 56 33 57 41 58 34 59 40 60 42 61 39 62 35 63 36 64
REMARK SMILES IDX 37 65 38 66 64 67 65 68 73 69 66 70 72 71 74 72 71 73 67 74
REMARK SMILES IDX 68 75 69 76 70 77 49 78 50 79 58 80 51 81 57 82 59 83 56 84
REMARK SMILES IDX 52 85 53 86 54 87 55 88
REMARK H PARENT 79 41 47 52
REMARK Flexibility Score: inf
ROOT
ATOM      1  C   UNL A   1      40.404  19.791  26.154  1.00  0.00     0.188 C 
ENDROOT
BRANCH   1   2
ATOM      2  C   UNL A   1      39.640  21.112  26.086  1.00  0.00     0.188 C 
BRANCH   2   3
ATOM      3  O   UNL A   1      38.371  21.147  25.446  1.00  0.00    -0.376 OA
BRANCH   3   4
ATOM      4  C   UNL A   1      37.520  22.269  25.627  1.00  0.00     0.202 C 
BRANCH   4   5
ATOM      5  C   UNL A   1      36.085  22.179  25.090  1.00  0.00     0.261 C 
BRANCH   5   6
ATOM      6  O   UNL A   1      35.275  21.050  25.520  1.00  0.00    -0.463 OA
BRANCH   6   7
ATOM      7  C   UNL A   1      33.982  21.357  25.810  1.00  0.00     0.309 C 
ATOM      8  O   UNL A   1      33.039  20.620  25.530  1.00  0.00    -0.252 OA
BRANCH   7   9
ATOM      9  C   UNL A   1      33.718  22.762  26.361  1.00  0.00     0.099 C 
ATOM     10  C   UNL A   1      33.096  22.496  27.748  1.00  0.00     0.020 C 
BRANCH   9  11
ATOM     11  C   UNL A   1      32.922  23.866  25.605  1.00  0.00     0.003 C 
ATOM     12  C   UNL A   1      32.929  25.478  23.747  1.00  0.00    -0.011 C 
ATOM     13  C   UNL A   1      33.700  26.119  24.882  1.00  0.00     0.004 C 
ATOM     14  C   UNL A   1      33.096  23.980  24.073  1.00  0.00     0.008 C 
ATOM     15  C   UNL A   1      33.357  25.277  26.101  1.00  0.00     0.005 C 
BRANCH  12  16
ATOM     16  C   UNL A   1      33.480  25.938  22.391  1.00  0.00     0.000 C 
ATOM     17  C   UNL A   1      32.432  25.941  21.289  1.00  0.00     0.004 C 
ENDBRANCH  12  16
ENDBRANCH   9  11
ENDBRANCH   7   9
ENDBRANCH   6   7
ENDBRANCH   5   6
ENDBRANCH   4   5
ENDBRANCH   3   4
ENDBRANCH   2   3
ENDBRANCH   1   2
BRANCH   1  18
ATOM     18  O   UNL A   1      41.626  19.817  25.435  1.00  0.00    -0.376 OA
BRANCH  18  19
ATOM     19  C   UNL A   1      42.754  20.284  26.160  1.00  0.00     0.202 C 
BRANCH  19  20
ATOM     20  C   UNL A   1      43.502  21.311  25.304  1.00  0.00     0.261 C 
BRANCH  20  21
ATOM     21  O   UNL A   1      42.737  22.507  25.073  1.00  0.00    -0.460 OA
BRANCH  21  22
ATOM     22  C   UNL A   1      43.464  23.649  25.058  1.00  0.00     0.338 C 
ATOM     23  O   UNL A   1      44.379  23.914  24.298  1.00  0.00    -0.246 OA
BRANCH  22  24
ATOM     24  C   UNL A   1      42.819  24.628  25.954  1.00  0.00     0.060 A 
ATOM     25  C   UNL A   1      43.269  25.952  25.928  1.00  0.00     0.016 A 
ATOM     26  C   UNL A   1      41.792  24.248  26.812  1.00  0.00     0.016 A 
ATOM     27  C   UNL A   1      42.735  26.899  26.798  1.00  0.00     0.010 A 
ATOM     28  C   UNL A   1      41.255  25.193  27.688  1.00  0.00     0.010 A 
ATOM     29  C   UNL A   1      41.747  26.514  27.709  1.00  0.00    -0.014 A 
BRANCH  29  30
ATOM     30  C   UNL A   1      41.347  27.425  28.809  1.00  0.00     0.031 A 
ATOM     31  C   UNL A   1      42.151  27.401  30.078  1.00  0.00     0.074 A 
ATOM     32  C   UNL A   1      40.304  28.264  28.683  1.00  0.00     0.049 A 
ATOM     33  N   UNL A   1      41.917  27.976  31.228  1.00  0.00    -0.248 NA
ATOM     34  C   UNL A   1      43.386  26.606  30.038  1.00  0.00     0.031 C 
ATOM     35  C   UNL A   1      39.510  28.451  27.471  1.00  0.00     0.029 A 
ATOM     36  N   UNL A   1      39.734  29.113  29.597  1.00  0.00    -0.354 N 
ATOM     37  C   UNL A   1      42.965  27.597  32.059  1.00  0.00     0.074 A 
ATOM     38  C   UNL A   1      43.811  26.710  31.286  1.00  0.00     0.031 C 
ATOM     39  C   UNL A   1      38.549  29.359  27.717  1.00  0.00     0.029 A 
ATOM     40  C   UNL A   1      38.624  29.769  29.119  1.00  0.00     0.049 A 
ATOM     41  H   UNL A   1      40.085  29.241  30.507  1.00  0.00     0.167 HD
ATOM     42  C   UNL A   1      43.202  27.959  33.345  1.00  0.00     0.034 A 
ATOM     43  C   UNL A   1      37.750  30.575  29.753  1.00  0.00     0.034 A 
ATOM     44  C   UNL A   1      42.333  28.830  34.099  1.00  0.00     0.049 A 
ATOM     45  C   UNL A   1      37.947  30.852  31.225  1.00  0.00     0.074 A 
ATOM     46  C   UNL A   1      42.457  29.250  35.412  1.00  0.00     0.029 A 
ATOM     47  N   UNL A   1      41.168  29.410  33.607  1.00  0.00    -0.354 N 
ATOM     48  N   UNL A   1      38.909  30.449  32.023  1.00  0.00    -0.248 NA
ATOM     49  C   UNL A   1      36.932  31.688  31.880  1.00  0.00     0.031 C 
ATOM     50  C   UNL A   1      41.331  30.020  35.734  1.00  0.00     0.029 A 
ATOM     51  C   UNL A   1      40.547  30.153  34.599  1.00  0.00     0.049 A 
ATOM     52  H   UNL A   1      40.833  29.307  32.688  1.00  0.00     0.167 HD
ATOM     53  C   UNL A   1      38.632  31.011  33.268  1.00  0.00     0.074 A 
ATOM     54  C   UNL A   1      37.417  31.785  33.110  1.00  0.00     0.031 C 
ATOM     55  C   UNL A   1      39.325  30.907  34.433  1.00  0.00     0.034 A 
BRANCH  42  56
ATOM     56  C   UNL A   1      44.407  27.340  34.015  1.00  0.00     0.023 A 
ATOM     57  C   UNL A   1      44.348  26.070  34.619  1.00  0.00     0.031 A 
ATOM     58  C   UNL A   1      45.603  28.067  34.136  1.00  0.00     0.131 A 
ATOM     59  C   UNL A   1      45.419  25.618  35.403  1.00  0.00     0.055 A 
ATOM     60  C   UNL A   1      46.703  27.567  34.836  1.00  0.00     0.041 A 
ATOM     61  F   UNL A   1      45.715  29.295  33.604  1.00  0.00    -0.206 F 
ATOM     62  C   UNL A   1      46.607  26.346  35.495  1.00  0.00     0.022 A 
BRANCH  59  63
ATOM     63  S   UNL A   1      45.157  24.170  36.467  1.00  0.00     0.124 S 
ATOM     64  O   UNL A   1      46.463  24.035  37.109  1.00  0.00    -0.237 OA
ATOM     65  O   UNL A   1      44.063  24.605  37.327  1.00  0.00    -0.237 OA
ATOM     66  O   UNL A   1      44.825  23.105  35.522  1.00  0.00    -0.744 OA
ENDBRANCH  59  63
ENDBRANCH  42  56
BRANCH  43  67
ATOM     67  C   UNL A   1      36.582  31.146  29.023  1.00  0.00     0.023 A 
ATOM     68  C   UNL A   1      35.574  30.313  28.515  1.00  0.00     0.031 A 
ATOM     69  C   UNL A   1      36.477  32.529  28.789  1.00  0.00     0.131 A 
ATOM     70  C   UNL A   1      34.519  30.865  27.772  1.00  0.00     0.055 A 
ATOM     71  C   UNL A   1      35.400  33.078  28.092  1.00  0.00     0.041 A 
ATOM     72  F   UNL A   1      37.419  33.370  29.247  1.00  0.00    -0.206 F 
ATOM     73  C   UNL A   1      34.417  32.244  27.570  1.00  0.00     0.022 A 
BRANCH  70  74
ATOM     74  S   UNL A   1      33.309  29.745  27.016  1.00  0.00     0.124 S 
ATOM     75  O   UNL A   1      33.777  29.689  25.636  1.00  0.00    -0.237 OA
ATOM     76  O   UNL A   1      33.486  28.530  27.804  1.00  0.00    -0.237 OA
ATOM     77  O   UNL A   1      32.036  30.434  27.217  1.00  0.00    -0.744 OA
ENDBRANCH  70  74
ENDBRANCH  43  67
BRANCH  55  78
ATOM     78  C   UNL A   1      38.805  31.694  35.613  1.00  0.00     0.023 A 
ATOM     79  C   UNL A   1      38.177  31.071  36.706  1.00  0.00     0.031 A 
ATOM     80  C   UNL A   1      38.931  33.095  35.634  1.00  0.00     0.131 A 
ATOM     81  C   UNL A   1      37.650  31.852  37.747  1.00  0.00     0.055 A 
ATOM     82  C   UNL A   1      38.462  33.861  36.703  1.00  0.00     0.041 A 
ATOM     83  F   UNL A   1      39.519  33.744  34.617  1.00  0.00    -0.206 F 
ATOM     84  C   UNL A   1      37.804  33.240  37.761  1.00  0.00     0.022 A 
BRANCH  81  85
ATOM     85  S   UNL A   1      36.675  31.037  39.043  1.00  0.00     0.124 S 
ATOM     86  O   UNL A   1      37.587  31.080  40.181  1.00  0.00    -0.237 OA
ATOM     87  O   UNL A   1      35.498  31.894  39.134  1.00  0.00    -0.237 OA
ATOM     88  O   UNL A   1      36.428  29.703  38.498  1.00  0.00    -0.744 OA
ENDBRANCH  81  85
ENDBRANCH  55  78
ENDBRANCH  29  30
ENDBRANCH  22  24
ENDBRANCH  21  22
ENDBRANCH  20  21
ENDBRANCH  19  20
ENDBRANCH  18  19
ENDBRANCH   1  18
TORSDOF 22
ENDMDL
MODEL 2
REMARK VINA RESULT:      -9.6      4.137     11.068
REMARK SMILES CC[C@@H]1CC[C@H]([C@@H](C)C(=O)OCCOCCOCCOC(=O)c2ccc(-c3c4nc(c(-c5cc(S(=O)(=O)[O-])ccc5F)c5ccc([nH]5)c(-c5cc(S(=O)(=O)[O-])ccc5F)c5nc(c(-c6cc(S(=O)(=O)[O-])ccc6F)c6ccc3[nH]6)C=C5)C=C4)cc2)C1
REMARK SMILES IDX 16 1 15 2 14 3 13 4 12 5 11 6 9 7 10 8 7 9 8 10 6 11 3 12
REMARK SMILES IDX 4 13 86 14 5 15 2 16 1 17 17 18 18 19 19 20 20 21 21 22
REMARK SMILES IDX 22 23 23 24 24 25 85 26 25 27 84 28 26 29 27 30 28 31 78 32
REMARK SMILES IDX 29 33 83 34 77 35 79 36 30 37 82 38 76 39 75 40 31 42 63 43
REMARK SMILES IDX 43 44 62 45 44 46 47 47 61 48 80 49 45 50 46 51 60 53 81 54
REMARK SMILES IDX 48 55 32 56 33 57 41 58 34 59 40 60 42 61 39 62 35 63 36 64
REMARK SMILES IDX 37 65 38 66 64 67 65 68 73 69 66 70 72 71 74 72 71 73 67 74
REMARK SMILES IDX 68 75 69 76 70 77 49 78 50 79 58 80 51 81 57 82 59 83 56 84
REMARK SMILES IDX 52 85 53 86 54 87 55 88
REMARK H PARENT 79 41 47 52
REMARK Flexibility Score: inf
ROOT
ATOM      1  C   UNL A   1      33.340  36.098  30.644  1.00  0.00     0.188 C 
ENDROOT
BRANCH   1   2
ATOM      2  C   UNL A   1      32.899  36.262  32.097  1.00  0.00     0.188 C 
BRANCH   2   3
ATOM      3  O   UNL A   1      33.865  36.603  33.082  1.00  0.00    -0.376 OA
BRANCH   3   4
ATOM      4  C   UNL A   1      34.683  35.591  33.648  1.00  0.00     0.202 C 
BRANCH   4   5
ATOM      5  C   UNL A   1      34.173  34.144  33.603  1.00  0.00     0.261 C 
BRANCH   5   6
ATOM      6  O   UNL A   1      35.066  33.099  34.078  1.00  0.00    -0.463 OA
BRANCH   6   7
ATOM      7  C   UNL A   1      35.820  32.513  33.110  1.00  0.00     0.309 C 
ATOM      8  O   UNL A   1      35.359  31.725  32.286  1.00  0.00    -0.252 OA
BRANCH   7   9
ATOM      9  C   UNL A   1      37.332  32.741  33.186  1.00  0.00     0.099 C 
ATOM     10  C   UNL A   1      37.638  32.646  34.696  1.00  0.00     0.020 C 
BRANCH   9  11
ATOM     11  C   UNL A   1      38.072  33.956  32.552  1.00  0.00     0.003 C 
ATOM     12  C   UNL A   1      39.720  34.698  30.885  1.00  0.00    -0.011 C 
ATOM     13  C   UNL A   1      40.505  34.222  32.090  1.00  0.00     0.004 C 
ATOM     14  C   UNL A   1      38.407  33.907  31.044  1.00  0.00     0.008 C 
ATOM     15  C   UNL A   1      39.475  34.132  33.205  1.00  0.00     0.005 C 
BRANCH  12  16
ATOM     16  C   UNL A   1      40.508  34.445  29.593  1.00  0.00     0.000 C 
ATOM     17  C   UNL A   1      41.978  34.820  29.705  1.00  0.00     0.004 C 
ENDBRANCH  12  16
ENDBRANCH   9  11
ENDBRANCH   7   9
ENDBRANCH   6   7
ENDBRANCH   5   6
ENDBRANCH   4   5
ENDBRANCH   3   4
ENDBRANCH   2   3
ENDBRANCH   1   2
BRANCH   1  18
ATOM     18  O   UNL A   1      33.435  34.742  30.240  1.00  0.00    -0.376 OA
BRANCH  18  19
ATOM     19  C   UNL A   1      33.256  34.502  28.852  1.00  0.00     0.202 C 
BRANCH  19  20
ATOM     20  C   UNL A   1      34.480  33.755  28.316  1.00  0.00     0.261 C 
BRANCH  20  21
ATOM     21  O   UNL A   1      34.739  32.529  29.023  1.00  0.00    -0.460 OA
BRANCH  21  22
ATOM     22  C   UNL A   1      34.688  31.413  28.258  1.00  0.00     0.338 C 
ATOM     23  O   UNL A   1      33.882  31.179  27.374  1.00  0.00    -0.246 OA
BRANCH  22  24
ATOM     24  C   UNL A   1      35.909  30.622  28.500  1.00  0.00     0.060 A 
ATOM     25  C   UNL A   1      35.900  29.683  29.537  1.00  0.00     0.016 A 
ATOM     26  C   UNL A   1      37.048  30.805  27.722  1.00  0.00     0.016 A 
ATOM     27  C   UNL A   1      37.047  28.955  29.843  1.00  0.00     0.010 A 
ATOM     28  C   UNL A   1      38.201  30.080  28.028  1.00  0.00     0.010 A 
ATOM     29  C   UNL A   1      38.217  29.177  29.110  1.00  0.00    -0.014 A 
BRANCH  29  30
ATOM     30  C   UNL A   1      39.509  28.614  29.572  1.00  0.00     0.031 A 
ATOM     31  C   UNL A   1      40.152  29.219  30.788  1.00  0.00     0.074 A 
ATOM     32  C   UNL A   1      40.092  27.582  28.941  1.00  0.00     0.049 A 
ATOM     33  N   UNL A   1      41.340  29.017  31.295  1.00  0.00    -0.248 NA
ATOM     34  C   UNL A   1      39.339  30.199  31.523  1.00  0.00     0.031 C 
ATOM     35  C   UNL A   1      39.521  26.846  27.815  1.00  0.00     0.029 A 
ATOM     36  N   UNL A   1      41.305  26.978  29.159  1.00  0.00    -0.354 N 
ATOM     37  C   UNL A   1      41.427  29.859  32.398  1.00  0.00     0.074 A 
ATOM     38  C   UNL A   1      40.183  30.600  32.457  1.00  0.00     0.031 C 
ATOM     39  C   UNL A   1      40.386  25.888  27.437  1.00  0.00     0.029 A 
ATOM     40  C   UNL A   1      41.595  25.985  28.254  1.00  0.00     0.049 A 
ATOM     41  H   UNL A   1      41.909  27.232  29.893  1.00  0.00     0.167 HD
ATOM     42  C   UNL A   1      42.447  29.996  33.282  1.00  0.00     0.034 A 
ATOM     43  C   UNL A   1      42.723  25.267  28.083  1.00  0.00     0.034 A 
ATOM     44  C   UNL A   1      43.683  29.257  33.191  1.00  0.00     0.049 A 
ATOM     45  C   UNL A   1      43.903  25.535  28.987  1.00  0.00     0.074 A 
ATOM     46  C   UNL A   1      44.795  29.326  34.013  1.00  0.00     0.029 A 
ATOM     47  N   UNL A   1      43.977  28.318  32.208  1.00  0.00    -0.354 N 
ATOM     48  N   UNL A   1      44.003  26.369  29.996  1.00  0.00    -0.248 NA
ATOM     49  C   UNL A   1      45.126  24.766  28.718  1.00  0.00     0.031 C 
ATOM     50  C   UNL A   1      45.784  28.487  33.484  1.00  0.00     0.029 A 
ATOM     51  C   UNL A   1      45.262  27.828  32.382  1.00  0.00     0.049 A 
ATOM     52  H   UNL A   1      43.361  28.042  31.492  1.00  0.00     0.167 HD
ATOM     53  C   UNL A   1      45.290  26.200  30.504  1.00  0.00     0.074 A 
ATOM     54  C   UNL A   1      45.924  25.181  29.693  1.00  0.00     0.031 C 
ATOM     55  C   UNL A   1      45.889  26.823  31.553  1.00  0.00     0.034 A 
BRANCH  42  56
ATOM     56  C   UNL A   1      42.275  31.038  34.363  1.00  0.00     0.023 A 
ATOM     57  C   UNL A   1      42.795  32.338  34.228  1.00  0.00     0.031 A 
ATOM     58  C   UNL A   1      41.666  30.700  35.584  1.00  0.00     0.131 A 
ATOM     59  C   UNL A   1      42.795  33.210  35.327  1.00  0.00     0.055 A 
ATOM     60  C   UNL A   1      41.580  31.608  36.642  1.00  0.00     0.041 A 
ATOM     61  F   UNL A   1      41.173  29.468  35.786  1.00  0.00    -0.206 F 
ATOM     62  C   UNL A   1      42.168  32.863  36.525  1.00  0.00     0.022 A 
BRANCH  59  63
ATOM     63  S   UNL A   1      43.806  34.715  35.234  1.00  0.00     0.124 S 
ATOM     64  O   UNL A   1      43.173  35.429  34.127  1.00  0.00    -0.237 OA
ATOM     65  O   UNL A   1      43.625  35.298  36.558  1.00  0.00    -0.237 OA
ATOM     66  O   UNL A   1      45.148  34.209  34.950  1.00  0.00    -0.744 OA
ENDBRANCH  59  63
ENDBRANCH  42  56
BRANCH  43  67
ATOM     67  C   UNL A   1      42.817  24.257  26.991  1.00  0.00     0.023 A 
ATOM     68  C   UNL A   1      42.222  22.993  27.126  1.00  0.00     0.031 A 
ATOM     69  C   UNL A   1      43.535  24.526  25.812  1.00  0.00     0.131 A 
ATOM     70  C   UNL A   1      42.381  22.033  26.114  1.00  0.00     0.055 A 
ATOM     71  C   UNL A   1      43.649  23.586  24.787  1.00  0.00     0.041 A 
ATOM     72  F   UNL A   1      44.131  25.717  25.635  1.00  0.00    -0.206 F 
ATOM     73  C   UNL A   1      43.077  22.326  24.938  1.00  0.00     0.022 A 
BRANCH  70  74
ATOM     74  S   UNL A   1      41.714  20.369  26.384  1.00  0.00     0.124 S 
ATOM     75  O   UNL A   1      42.413  19.598  25.361  1.00  0.00    -0.237 OA
ATOM     76  O   UNL A   1      42.104  20.105  27.765  1.00  0.00    -0.237 OA
ATOM     77  O   UNL A   1      40.278  20.537  26.166  1.00  0.00    -0.744 OA
ENDBRANCH  70  74
ENDBRANCH  43  67
BRANCH  55  78
ATOM     78  C   UNL A   1      47.287  26.375  31.910  1.00  0.00     0.023 A 
ATOM     79  C   UNL A   1      47.527  25.356  32.849  1.00  0.00     0.031 A 
ATOM     80  C   UNL A   1      48.399  26.991  31.306  1.00  0.00     0.131 A 
ATOM     81  C   UNL A   1      48.846  25.022  33.197  1.00  0.00     0.055 A 
ATOM     82  C   UNL A   1      49.707  26.611  31.609  1.00  0.00     0.041 A 
ATOM     83  F   UNL A   1      48.230  27.971  30.405  1.00  0.00    -0.206 F 
ATOM     84  C   UNL A   1      49.936  25.631  32.570  1.00  0.00     0.022 A 
BRANCH  81  85
ATOM     85  S   UNL A   1      49.120  23.845  34.550  1.00  0.00     0.124 S 
ATOM     86  O   UNL A   1      50.028  24.588  35.418  1.00  0.00    -0.237 OA
ATOM     87  O   UNL A   1      47.770  23.640  35.064  1.00  0.00    -0.237 OA
ATOM     88  O   UNL A   1      49.710  22.686  33.883  1.00  0.00    -0.744 OA
ENDBRANCH  81  85
ENDBRANCH  55  78
ENDBRANCH  29  30
ENDBRANCH  22  24
ENDBRANCH  21  22
ENDBRANCH  20  21
ENDBRANCH  19  20
ENDBRANCH  18  19
ENDBRANCH   1  18
TORSDOF 22
ENDMDL
MODEL 3
REMARK VINA RESULT:      -9.5      4.567     11.489
REMARK SMILES CC[C@@H]1CC[C@H]([C@@H](C)C(=O)OCCOCCOCCOC(=O)c2ccc(-c3c4nc(c(-c5cc(S(=O)(=O)[O-])ccc5F)c5ccc([nH]5)c(-c5cc(S(=O)(=O)[O-])ccc5F)c5nc(c(-c6cc(S(=O)(=O)[O-])ccc6F)c6ccc3[nH]6)C=C5)C=C4)cc2)C1
REMARK SMILES IDX 16 1 15 2 14 3 13 4 12 5 11 6 9 7 10 8 7 9 8 10 6 11 3 12
REMARK SMILES IDX 4 13 86 14 5 15 2 16 1 17 17 18 18 19 19 20 20 21 21 22
REMARK SMILES IDX 22 23 23 24 24 25 85 26 25 27 84 28 26 29 27 30 28 31 78 32
REMARK SMILES IDX 29 33 83 34 77 35 79 36 30 37 82 38 76 39 75 40 31 42 63 43
REMARK SMILES IDX 43 44 62 45 44 46 47 47 61 48 80 49 45 50 46 51 60 53 81 54
REMARK SMILES IDX 48 55 32 56 33 57 41 58 34 59 40 60 42 61 39 62 35 63 36 64
REMARK SMILES IDX 37 65 38 66 64 67 65 68 73 69 66 70 72 71 74 72 71 73 67 74
REMARK SMILES IDX 68 75 69 76 70 77 49 78 50 79 58 80 51 81 57 82 59 83 56 84
REMARK SMILES IDX 52 85 53 86 54 87 55 88
REMARK H PARENT 79 41 47 52
REMARK Flexibility Score: inf
ROOT
ATOM      1  C   UNL A   1      33.856  35.840  28.867  1.00  0.00     0.188 C 
ENDROOT
BRANCH   1   2
ATOM      2  C   UNL A   1      32.590  36.447  29.468  1.00  0.00     0.188 C 
BRANCH   2   3
ATOM      3  O   UNL A   1      32.682  37.193  30.675  1.00  0.00    -0.376 OA
BRANCH   3   4
ATOM      4  C   UNL A   1      33.593  36.789  31.686  1.00  0.00     0.202 C 
BRANCH   4   5
ATOM      5  C   UNL A   1      33.261  35.523  32.488  1.00  0.00     0.261 C 
BRANCH   5   6
ATOM      6  O   UNL A   1      34.317  34.947  33.307  1.00  0.00    -0.463 OA
BRANCH   6   7
ATOM      7  C   UNL A   1      34.710  33.700  32.933  1.00  0.00     0.309 C 
ATOM      8  O   UNL A   1      34.040  32.978  32.198  1.00  0.00    -0.252 OA
BRANCH   7   9
ATOM      9  C   UNL A   1      35.966  33.145  33.611  1.00  0.00     0.099 C 
ATOM     10  C   UNL A   1      35.892  33.723  35.041  1.00  0.00     0.020 C 
BRANCH   9  11
ATOM     11  C   UNL A   1      37.408  33.282  33.038  1.00  0.00     0.003 C 
ATOM     12  C   UNL A   1      38.786  33.974  31.123  1.00  0.00    -0.011 C 
ATOM     13  C   UNL A   1      38.261  32.589  30.803  1.00  0.00     0.004 C 
ATOM     14  C   UNL A   1      37.722  34.482  32.116  1.00  0.00     0.008 C 
ATOM     15  C   UNL A   1      37.744  32.061  32.131  1.00  0.00     0.005 C 
BRANCH  12  16
ATOM     16  C   UNL A   1      38.957  34.797  29.839  1.00  0.00     0.000 C 
ATOM     17  C   UNL A   1      40.393  34.831  29.337  1.00  0.00     0.004 C 
ENDBRANCH  12  16
ENDBRANCH   9  11
ENDBRANCH   7   9
ENDBRANCH   6   7
ENDBRANCH   5   6
ENDBRANCH   4   5
ENDBRANCH   3   4
ENDBRANCH   2   3
ENDBRANCH   1   2
BRANCH   1  18
ATOM     18  O   UNL A   1      33.994  34.455  29.140  1.00  0.00    -0.376 OA
BRANCH  18  19
ATOM     19  C   UNL A   1      34.230  33.628  28.009  1.00  0.00     0.202 C 
BRANCH  19  20
ATOM     20  C   UNL A   1      35.590  32.944  28.171  1.00  0.00     0.261 C 
BRANCH  20  21
ATOM     21  O   UNL A   1      35.543  31.816  29.064  1.00  0.00    -0.460 OA
BRANCH  21  22
ATOM     22  C   UNL A   1      35.423  30.615  28.451  1.00  0.00     0.338 C 
ATOM     23  O   UNL A   1      34.499  30.253  27.744  1.00  0.00    -0.246 OA
BRANCH  22  24
ATOM     24  C   UNL A   1      36.703  29.893  28.577  1.00  0.00     0.060 A 
ATOM     25  C   UNL A   1      36.939  29.153  29.741  1.00  0.00     0.016 A 
ATOM     26  C   UNL A   1      37.661  29.949  27.570  1.00  0.00     0.016 A 
ATOM     27  C   UNL A   1      38.156  28.504  29.933  1.00  0.00     0.010 A 
ATOM     28  C   UNL A   1      38.884  29.303  27.760  1.00  0.00     0.010 A 
ATOM     29  C   UNL A   1      39.151  28.607  28.956  1.00  0.00    -0.014 A 
BRANCH  29  30
ATOM     30  C   UNL A   1      40.532  28.149  29.243  1.00  0.00     0.031 A 
ATOM     31  C   UNL A   1      41.317  28.879  30.296  1.00  0.00     0.074 A 
ATOM     32  C   UNL A   1      41.075  27.104  28.597  1.00  0.00     0.049 A 
ATOM     33  N   UNL A   1      42.579  28.779  30.619  1.00  0.00    -0.248 NA
ATOM     34  C   UNL A   1      40.566  29.868  31.084  1.00  0.00     0.031 C 
ATOM     35  C   UNL A   1      40.383  26.255  27.629  1.00  0.00     0.029 A 
ATOM     36  N   UNL A   1      42.343  26.584  28.659  1.00  0.00    -0.354 N 
ATOM     37  C   UNL A   1      42.782  29.706  31.635  1.00  0.00     0.074 A 
ATOM     38  C   UNL A   1      41.518  30.384  31.842  1.00  0.00     0.031 C 
ATOM     39  C   UNL A   1      41.239  25.318  27.183  1.00  0.00     0.029 A 
ATOM     40  C   UNL A   1      42.552  25.541  27.788  1.00  0.00     0.049 A 
ATOM     41  H   UNL A   1      43.036  26.925  29.268  1.00  0.00     0.167 HD
ATOM     42  C   UNL A   1      43.917  29.965  32.333  1.00  0.00     0.034 A 
ATOM     43  C   UNL A   1      43.683  24.872  27.488  1.00  0.00     0.034 A 
ATOM     44  C   UNL A   1      45.169  29.287  32.095  1.00  0.00     0.049 A 
ATOM     45  C   UNL A   1      44.970  25.270  28.170  1.00  0.00     0.074 A 
ATOM     46  C   UNL A   1      46.388  29.477  32.722  1.00  0.00     0.029 A 
ATOM     47  N   UNL A   1      45.366  28.293  31.143  1.00  0.00    -0.354 N 
ATOM     48  N   UNL A   1      45.172  26.183  29.092  1.00  0.00    -0.248 NA
ATOM     49  C   UNL A   1      46.183  24.548  27.762  1.00  0.00     0.031 C 
ATOM     50  C   UNL A   1      47.334  28.653  32.100  1.00  0.00     0.029 A 
ATOM     51  C   UNL A   1      46.691  27.885  31.142  1.00  0.00     0.049 A 
ATOM     52  H   UNL A   1      44.665  27.930  30.555  1.00  0.00     0.167 HD
ATOM     53  C   UNL A   1      46.531  26.122  29.398  1.00  0.00     0.074 A 
ATOM     54  C   UNL A   1      47.094  25.078  28.566  1.00  0.00     0.031 C 
ATOM     55  C   UNL A   1      47.244  26.854  30.294  1.00  0.00     0.034 A 
BRANCH  42  56
ATOM     56  C   UNL A   1      43.849  31.076  33.355  1.00  0.00     0.023 A 
ATOM     57  C   UNL A   1      43.578  30.819  34.712  1.00  0.00     0.031 A 
ATOM     58  C   UNL A   1      43.964  32.418  32.952  1.00  0.00     0.131 A 
ATOM     59  C   UNL A   1      43.322  31.884  35.587  1.00  0.00     0.055 A 
ATOM     60  C   UNL A   1      43.807  33.474  33.853  1.00  0.00     0.041 A 
ATOM     61  F   UNL A   1      44.197  32.730  31.668  1.00  0.00    -0.206 F 
ATOM     62  C   UNL A   1      43.460  33.211  35.174  1.00  0.00     0.022 A 
BRANCH  59  63
ATOM     63  S   UNL A   1      42.605  31.511  37.213  1.00  0.00     0.124 S 
ATOM     64  O   UNL A   1      43.802  31.332  38.030  1.00  0.00    -0.237 OA
ATOM     65  O   UNL A   1      41.813  32.704  37.490  1.00  0.00    -0.237 OA
ATOM     66  O   UNL A   1      41.835  30.290  36.976  1.00  0.00    -0.744 OA
ENDBRANCH  59  63
ENDBRANCH  42  56
BRANCH  43  67
ATOM     67  C   UNL A   1      43.670  23.788  26.465  1.00  0.00     0.023 A 
ATOM     68  C   UNL A   1      43.132  22.526  26.761  1.00  0.00     0.031 A 
ATOM     69  C   UNL A   1      44.231  23.984  25.190  1.00  0.00     0.131 A 
ATOM     70  C   UNL A   1      43.191  21.498  25.806  1.00  0.00     0.055 A 
ATOM     71  C   UNL A   1      44.244  22.974  24.227  1.00  0.00     0.041 A 
ATOM     72  F   UNL A   1      44.767  25.170  24.858  1.00  0.00    -0.206 F 
ATOM     73  C   UNL A   1      43.730  21.718  24.535  1.00  0.00     0.022 A 
BRANCH  70  74
ATOM     74  S   UNL A   1      42.609  19.845  26.271  1.00  0.00     0.124 S 
ATOM     75  O   UNL A   1      43.784  19.027  25.994  1.00  0.00    -0.237 OA
ATOM     76  O   UNL A   1      42.271  20.027  27.679  1.00  0.00    -0.237 OA
ATOM     77  O   UNL A   1      41.469  19.623  25.384  1.00  0.00    -0.744 OA
ENDBRANCH  70  74
ENDBRANCH  43  67
BRANCH  55  78
ATOM     78  C   UNL A   1      48.707  26.509  30.451  1.00  0.00     0.023 A 
ATOM     79  C   UNL A   1      49.694  27.047  29.607  1.00  0.00     0.031 A 
ATOM     80  C   UNL A   1      49.114  25.614  31.456  1.00  0.00     0.131 A 
ATOM     81  C   UNL A   1      51.032  26.644  29.750  1.00  0.00     0.055 A 
ATOM     82  C   UNL A   1      50.454  25.265  31.634  1.00  0.00     0.041 A 
ATOM     83  F   UNL A   1      48.215  25.066  32.289  1.00  0.00    -0.206 F 
ATOM     84  C   UNL A   1      51.420  25.770  30.768  1.00  0.00     0.022 A 
BRANCH  81  85
ATOM     85  S   UNL A   1      52.248  27.203  28.525  1.00  0.00     0.124 S 
ATOM     86  O   UNL A   1      51.509  27.059  27.276  1.00  0.00    -0.237 OA
ATOM     87  O   UNL A   1      52.516  28.572  28.954  1.00  0.00    -0.237 OA
ATOM     88  O   UNL A   1      53.362  26.272  28.697  1.00  0.00    -0.744 OA
ENDBRANCH  81  85
ENDBRANCH  55  78
ENDBRANCH  29  30
ENDBRANCH  22  24
ENDBRANCH  21  22
ENDBRANCH  20  21
ENDBRANCH  19  20
ENDBRANCH  18  19
ENDBRANCH   1  18
TORSDOF 22
ENDMDL
