MODEL 1
REMARK VINA RESULT:     -11.5      0.000      0.000
REMARK SMILES Cc1cc2c(=O)c3ccccc3oc2c(C(=O)OCCOCCOCCOC(=O)c2ccc(-c3c4nc(c(-c5cc(S(=O)(=O)[O-])ccc5F)c5ccc([nH]5)c(-c5cc(S(=O)(=O)[O-])ccc5F)c5nc(c(-c6cc(S(=O)(=O)[O-])ccc6F)c6ccc3[nH]6)C=C5)C=C4)cc2)c1C
REMARK SMILES IDX 24 1 23 2 22 3 21 4 20 5 19 6 18 7 16 8 17 9 15 10 1 11 2 12
REMARK SMILES IDX 3 13 93 14 4 15 94 16 5 17 14 18 6 19 7 20 13 21 8 22 12 23
REMARK SMILES IDX 9 24 11 25 10 26 25 27 26 28 27 29 28 30 29 31 30 32 31 33
REMARK SMILES IDX 92 34 32 35 91 36 33 37 34 38 35 39 85 40 36 41 90 42 84 43
REMARK SMILES IDX 86 44 37 45 89 46 83 47 82 48 38 50 70 51 50 52 69 53 51 54
REMARK SMILES IDX 54 55 68 56 87 57 52 58 53 59 67 61 88 62 55 63 39 64 40 65
REMARK SMILES IDX 48 66 41 67 47 68 49 69 46 70 42 71 43 72 44 73 45 74 71 75
REMARK SMILES IDX 72 76 80 77 73 78 79 79 81 80 78 81 74 82 75 83 76 84 77 85
REMARK SMILES IDX 56 86 57 87 65 88 58 89 64 90 66 91 63 92 59 93 60 94 61 95
REMARK SMILES IDX 62 96
REMARK H PARENT 86 49 54 60
REMARK Flexibility Score: inf
ROOT
ATOM      1  O   UNL A   1      29.527  31.994  24.276  1.00  0.00    -0.376 OA
ENDROOT
BRANCH   1   2
ATOM      2  C   UNL A   1      28.699  31.277  23.378  1.00  0.00     0.188 C 
BRANCH   2   3
ATOM      3  C   UNL A   1      28.833  29.745  23.222  1.00  0.00     0.188 C 
BRANCH   3   4
ATOM      4  O   UNL A   1      29.368  29.199  22.032  1.00  0.00    -0.376 OA
BRANCH   4   5
ATOM      5  C   UNL A   1      30.582  28.465  22.060  1.00  0.00     0.202 C 
BRANCH   5   6
ATOM      6  C   UNL A   1      30.660  27.039  22.611  1.00  0.00     0.261 C 
BRANCH   6   7
ATOM      7  O   UNL A   1      31.387  26.128  21.777  1.00  0.00    -0.460 OA
BRANCH   7   8
ATOM      8  C   UNL A   1      32.738  26.153  21.918  1.00  0.00     0.342 C 
ATOM      9  O   UNL A   1      33.549  26.342  21.029  1.00  0.00    -0.246 OA
BRANCH   8  10
ATOM     10  C   UNL A   1      33.121  25.961  23.342  1.00  0.00     0.106 A 
ATOM     11  C   UNL A   1      34.082  27.942  26.504  1.00  0.00     0.044 C 
ATOM     12  C   UNL A   1      33.750  26.841  25.533  1.00  0.00    -0.046 A 
ATOM     13  C   UNL A   1      33.587  25.554  26.061  1.00  0.00     0.019 A 
ATOM     14  C   UNL A   1      33.522  27.059  24.154  1.00  0.00    -0.030 A 
ATOM     15  C   UNL A   1      33.253  24.479  25.238  1.00  0.00     0.067 A 
ATOM     16  C   UNL A   1      33.780  28.415  23.541  1.00  0.00     0.046 C 
ATOM     17  C   UNL A   1      33.162  23.135  25.825  1.00  0.00     0.200 A 
ATOM     18  C   UNL A   1      33.015  24.661  23.881  1.00  0.00     0.153 A 
ATOM     19  O   UNL A   1      33.340  22.952  27.022  1.00  0.00    -0.288 OA
ATOM     20  C   UNL A   1      32.863  22.037  24.907  1.00  0.00     0.065 A 
ATOM     21  O   UNL A   1      32.719  23.610  23.040  1.00  0.00    -0.455 OA
ATOM     22  C   UNL A   1      32.786  20.723  25.380  1.00  0.00     0.016 A 
ATOM     23  C   UNL A   1      32.648  22.339  23.565  1.00  0.00     0.138 A 
ATOM     24  C   UNL A   1      32.473  19.696  24.496  1.00  0.00     0.001 A 
ATOM     25  C   UNL A   1      32.329  21.307  22.685  1.00  0.00     0.048 A 
ATOM     26  C   UNL A   1      32.232  19.993  23.156  1.00  0.00     0.004 A 
ENDBRANCH   8  10
ENDBRANCH   7   8
ENDBRANCH   6   7
ENDBRANCH   5   6
ENDBRANCH   4   5
ENDBRANCH   3   4
ENDBRANCH   2   3
ENDBRANCH   1   2
BRANCH   1  27
ATOM     27  C   UNL A   1      30.487  31.288  25.046  1.00  0.00     0.202 C 
BRANCH  27  28
ATOM     28  C   UNL A   1      30.988  31.840  26.385  1.00  0.00     0.261 C 
BRANCH  28  29
ATOM     29  O   UNL A   1      32.414  31.825  26.540  1.00  0.00    -0.460 OA
BRANCH  29  30
ATOM     30  C   UNL A   1      32.928  32.815  27.315  1.00  0.00     0.338 C 
ATOM     31  O   UNL A   1      32.391  33.867  27.618  1.00  0.00    -0.246 OA
BRANCH  30  32
ATOM     32  C   UNL A   1      34.189  32.336  27.911  1.00  0.00     0.060 A 
ATOM     33  C   UNL A   1      35.282  33.196  28.047  1.00  0.00     0.016 A 
ATOM     34  C   UNL A   1      34.277  31.000  28.324  1.00  0.00     0.016 A 
ATOM     35  C   UNL A   1      36.466  32.714  28.611  1.00  0.00     0.010 A 
ATOM     36  C   UNL A   1      35.472  30.513  28.855  1.00  0.00     0.010 A 
ATOM     37  C   UNL A   1      36.570  31.372  29.015  1.00  0.00    -0.014 A 
BRANCH  37  38
ATOM     38  C   UNL A   1      37.778  30.892  29.731  1.00  0.00     0.031 A 
ATOM     39  C   UNL A   1      38.764  29.981  29.070  1.00  0.00     0.074 A 
ATOM     40  C   UNL A   1      37.953  31.283  31.008  1.00  0.00     0.049 A 
ATOM     41  N   UNL A   1      39.810  29.389  29.583  1.00  0.00    -0.248 NA
ATOM     42  C   UNL A   1      38.540  29.684  27.648  1.00  0.00     0.031 C 
ATOM     43  C   UNL A   1      37.065  32.200  31.721  1.00  0.00     0.029 A 
ATOM     44  N   UNL A   1      38.927  30.976  31.922  1.00  0.00    -0.354 N 
ATOM     45  C   UNL A   1      40.343  28.598  28.569  1.00  0.00     0.074 A 
ATOM     46  C   UNL A   1      39.518  28.819  27.400  1.00  0.00     0.031 C 
ATOM     47  C   UNL A   1      37.557  32.412  32.951  1.00  0.00     0.029 A 
ATOM     48  C   UNL A   1      38.762  31.606  33.134  1.00  0.00     0.049 A 
ATOM     49  H   UNL A   1      39.675  30.365  31.729  1.00  0.00     0.167 HD
ATOM     50  C   UNL A   1      41.389  27.739  28.643  1.00  0.00     0.034 A 
ATOM     51  C   UNL A   1      39.499  31.543  34.262  1.00  0.00     0.034 A 
ATOM     52  C   UNL A   1      42.220  27.597  29.818  1.00  0.00     0.049 A 
ATOM     53  C   UNL A   1      40.730  30.672  34.277  1.00  0.00     0.074 A 
ATOM     54  C   UNL A   1      43.339  26.799  29.980  1.00  0.00     0.029 A 
ATOM     55  N   UNL A   1      42.050  28.285  31.013  1.00  0.00    -0.354 N 
ATOM     56  N   UNL A   1      41.213  29.916  33.319  1.00  0.00    -0.248 NA
ATOM     57  C   UNL A   1      41.522  30.644  35.514  1.00  0.00     0.031 C 
ATOM     58  C   UNL A   1      43.809  26.955  31.283  1.00  0.00     0.029 A 
ATOM     59  C   UNL A   1      43.042  27.924  31.910  1.00  0.00     0.049 A 
ATOM     60  H   UNL A   1      41.332  28.933  31.195  1.00  0.00     0.167 HD
ATOM     61  C   UNL A   1      42.378  29.349  33.827  1.00  0.00     0.074 A 
ATOM     62  C   UNL A   1      42.539  29.864  35.170  1.00  0.00     0.031 C 
ATOM     63  C   UNL A   1      43.226  28.474  33.232  1.00  0.00     0.034 A 
BRANCH  50  64
ATOM     64  C   UNL A   1      41.719  26.857  27.457  1.00  0.00     0.023 A 
ATOM     65  C   UNL A   1      41.318  25.504  27.462  1.00  0.00     0.031 A 
ATOM     66  C   UNL A   1      42.557  27.287  26.414  1.00  0.00     0.131 A 
ATOM     67  C   UNL A   1      41.801  24.622  26.487  1.00  0.00     0.055 A 
ATOM     68  C   UNL A   1      42.982  26.418  25.405  1.00  0.00     0.041 A 
ATOM     69  F   UNL A   1      42.984  28.559  26.361  1.00  0.00    -0.206 F 
ATOM     70  C   UNL A   1      42.620  25.075  25.450  1.00  0.00     0.022 A 
BRANCH  67  71
ATOM     71  S   UNL A   1      41.481  22.837  26.590  1.00  0.00     0.124 S 
ATOM     72  O   UNL A   1      42.170  22.339  25.401  1.00  0.00    -0.237 OA
ATOM     73  O   UNL A   1      42.106  22.489  27.863  1.00  0.00    -0.237 OA
ATOM     74  O   UNL A   1      40.027  22.739  26.552  1.00  0.00    -0.744 OA
ENDBRANCH  67  71
ENDBRANCH  50  64
BRANCH  51  75
ATOM     75  C   UNL A   1      39.123  32.402  35.423  1.00  0.00     0.023 A 
ATOM     76  C   UNL A   1      39.570  33.733  35.523  1.00  0.00     0.031 A 
ATOM     77  C   UNL A   1      38.414  31.860  36.508  1.00  0.00     0.131 A 
ATOM     78  C   UNL A   1      39.366  34.448  36.710  1.00  0.00     0.055 A 
ATOM     79  C   UNL A   1      38.147  32.602  37.659  1.00  0.00     0.041 A 
ATOM     80  F   UNL A   1      37.984  30.589  36.467  1.00  0.00    -0.206 F 
ATOM     81  C   UNL A   1      38.640  33.897  37.772  1.00  0.00     0.022 A 
BRANCH  78  82
ATOM     82  S   UNL A   1      40.158  36.058  36.975  1.00  0.00     0.124 S 
ATOM     83  O   UNL A   1      41.558  35.683  37.153  1.00  0.00    -0.237 OA
ATOM     84  O   UNL A   1      39.845  36.752  35.728  1.00  0.00    -0.237 OA
ATOM     85  O   UNL A   1      39.487  36.580  38.160  1.00  0.00    -0.744 OA
ENDBRANCH  78  82
ENDBRANCH  51  75
BRANCH  63  86
ATOM     86  C   UNL A   1      44.452  28.007  33.985  1.00  0.00     0.023 A 
ATOM     87  C   UNL A   1      44.313  27.047  35.007  1.00  0.00     0.031 A 
ATOM     88  C   UNL A   1      45.693  28.648  33.837  1.00  0.00     0.131 A 
ATOM     89  C   UNL A   1      45.379  26.799  35.880  1.00  0.00     0.055 A 
ATOM     90  C   UNL A   1      46.770  28.359  34.678  1.00  0.00     0.041 A 
ATOM     91  F   UNL A   1      45.871  29.580  32.888  1.00  0.00    -0.206 F 
ATOM     92  C   UNL A   1      46.609  27.444  35.716  1.00  0.00     0.022 A 
BRANCH  89  93
ATOM     93  S   UNL A   1      45.179  25.708  37.315  1.00  0.00     0.124 S 
ATOM     94  O   UNL A   1      45.926  26.424  38.348  1.00  0.00    -0.237 OA
ATOM     95  O   UNL A   1      43.730  25.695  37.491  1.00  0.00    -0.237 OA
ATOM     96  O   UNL A   1      45.774  24.447  36.885  1.00  0.00    -0.744 OA
ENDBRANCH  89  93
ENDBRANCH  63  86
ENDBRANCH  37  38
ENDBRANCH  30  32
ENDBRANCH  29  30
ENDBRANCH  28  29
ENDBRANCH  27  28
ENDBRANCH   1  27
TORSDOF 20
ENDMDL
MODEL 2
REMARK VINA RESULT:     -11.5      1.975      2.748
REMARK SMILES Cc1cc2c(=O)c3ccccc3oc2c(C(=O)OCCOCCOCCOC(=O)c2ccc(-c3c4nc(c(-c5cc(S(=O)(=O)[O-])ccc5F)c5ccc([nH]5)c(-c5cc(S(=O)(=O)[O-])ccc5F)c5nc(c(-c6cc(S(=O)(=O)[O-])ccc6F)c6ccc3[nH]6)C=C5)C=C4)cc2)c1C
REMARK SMILES IDX 24 1 23 2 22 3 21 4 20 5 19 6 18 7 16 8 17 9 15 10 1 11 2 12
REMARK SMILES IDX 3 13 93 14 4 15 94 16 5 17 14 18 6 19 7 20 13 21 8 22 12 23
REMARK SMILES IDX 9 24 11 25 10 26 25 27 26 28 27 29 28 30 29 31 30 32 31 33
REMARK SMILES IDX 92 34 32 35 91 36 33 37 34 38 35 39 85 40 36 41 90 42 84 43
REMARK SMILES IDX 86 44 37 45 89 46 83 47 82 48 38 50 70 51 50 52 69 53 51 54
REMARK SMILES IDX 54 55 68 56 87 57 52 58 53 59 67 61 88 62 55 63 39 64 40 65
REMARK SMILES IDX 48 66 41 67 47 68 49 69 46 70 42 71 43 72 44 73 45 74 71 75
REMARK SMILES IDX 72 76 80 77 73 78 79 79 81 80 78 81 74 82 75 83 76 84 77 85
REMARK SMILES IDX 56 86 57 87 65 88 58 89 64 90 66 91 63 92 59 93 60 94 61 95
REMARK SMILES IDX 62 96
REMARK H PARENT 86 49 54 60
REMARK Flexibility Score: inf
ROOT
ATOM      1  O   UNL A   1      30.885  28.345  24.918  1.00  0.00    -0.376 OA
ENDROOT
BRANCH   1   2
ATOM      2  C   UNL A   1      30.232  27.774  23.799  1.00  0.00     0.188 C 
BRANCH   2   3
ATOM      3  C   UNL A   1      31.019  27.406  22.520  1.00  0.00     0.188 C 
BRANCH   3   4
ATOM      4  O   UNL A   1      32.093  26.489  22.590  1.00  0.00    -0.376 OA
BRANCH   4   5
ATOM      5  C   UNL A   1      31.861  25.098  22.432  1.00  0.00     0.202 C 
BRANCH   5   6
ATOM      6  C   UNL A   1      31.202  24.251  23.523  1.00  0.00     0.261 C 
BRANCH   6   7
ATOM      7  O   UNL A   1      31.928  23.063  23.862  1.00  0.00    -0.460 OA
BRANCH   7   8
ATOM      8  C   UNL A   1      32.408  23.010  25.132  1.00  0.00     0.342 C 
ATOM      9  O   UNL A   1      31.764  23.192  26.150  1.00  0.00    -0.246 OA
BRANCH   8  10
ATOM     10  C   UNL A   1      33.850  22.648  25.133  1.00  0.00     0.106 A 
ATOM     11  C   UNL A   1      37.335  24.138  25.829  1.00  0.00     0.044 C 
ATOM     12  C   UNL A   1      36.202  23.208  25.487  1.00  0.00    -0.046 A 
ATOM     13  C   UNL A   1      36.511  21.847  25.361  1.00  0.00     0.019 A 
ATOM     14  C   UNL A   1      34.857  23.628  25.367  1.00  0.00    -0.030 A 
ATOM     15  C   UNL A   1      35.519  20.911  25.072  1.00  0.00     0.067 A 
ATOM     16  C   UNL A   1      34.507  25.096  25.405  1.00  0.00     0.046 C 
ATOM     17  C   UNL A   1      35.901  19.506  24.880  1.00  0.00     0.200 A 
ATOM     18  C   UNL A   1      34.187  21.290  24.956  1.00  0.00     0.153 A 
ATOM     19  O   UNL A   1      37.063  19.141  25.005  1.00  0.00    -0.288 OA
ATOM     20  C   UNL A   1      34.830  18.576  24.525  1.00  0.00     0.065 A 
ATOM     21  O   UNL A   1      33.193  20.390  24.635  1.00  0.00    -0.455 OA
ATOM     22  C   UNL A   1      35.113  17.225  24.297  1.00  0.00     0.016 A 
ATOM     23  C   UNL A   1      33.531  19.072  24.431  1.00  0.00     0.138 A 
ATOM     24  C   UNL A   1      34.076  16.353  23.987  1.00  0.00     0.001 A 
ATOM     25  C   UNL A   1      32.496  18.191  24.126  1.00  0.00     0.048 A 
ATOM     26  C   UNL A   1      32.771  16.835  23.916  1.00  0.00     0.004 A 
ENDBRANCH   8  10
ENDBRANCH   7   8
ENDBRANCH   6   7
ENDBRANCH   5   6
ENDBRANCH   4   5
ENDBRANCH   3   4
ENDBRANCH   2   3
ENDBRANCH   1   2
BRANCH   1  27
ATOM     27  C   UNL A   1      31.549  29.591  24.770  1.00  0.00     0.202 C 
BRANCH  27  28
ATOM     28  C   UNL A   1      31.437  30.679  25.843  1.00  0.00     0.261 C 
BRANCH  28  29
ATOM     29  O   UNL A   1      32.385  30.561  26.913  1.00  0.00    -0.460 OA
BRANCH  29  30
ATOM     30  C   UNL A   1      33.050  31.702  27.234  1.00  0.00     0.338 C 
ATOM     31  O   UNL A   1      32.612  32.840  27.210  1.00  0.00    -0.246 OA
BRANCH  30  32
ATOM     32  C   UNL A   1      34.355  31.336  27.814  1.00  0.00     0.060 A 
ATOM     33  C   UNL A   1      35.288  32.323  28.143  1.00  0.00     0.016 A 
ATOM     34  C   UNL A   1      34.650  29.981  28.015  1.00  0.00     0.016 A 
ATOM     35  C   UNL A   1      36.519  31.947  28.687  1.00  0.00     0.010 A 
ATOM     36  C   UNL A   1      35.893  29.608  28.527  1.00  0.00     0.010 A 
ATOM     37  C   UNL A   1      36.831  30.591  28.880  1.00  0.00    -0.014 A 
BRANCH  37  38
ATOM     38  C   UNL A   1      38.080  30.196  29.576  1.00  0.00     0.031 A 
ATOM     39  C   UNL A   1      39.085  29.300  28.922  1.00  0.00     0.074 A 
ATOM     40  C   UNL A   1      38.277  30.650  30.828  1.00  0.00     0.049 A 
ATOM     41  N   UNL A   1      40.172  28.778  29.426  1.00  0.00    -0.248 NA
ATOM     42  C   UNL A   1      38.831  28.931  27.523  1.00  0.00     0.031 C 
ATOM     43  C   UNL A   1      37.371  31.559  31.530  1.00  0.00     0.029 A 
ATOM     44  N   UNL A   1      39.292  30.427  31.721  1.00  0.00    -0.354 N 
ATOM     45  C   UNL A   1      40.708  27.967  28.429  1.00  0.00     0.074 A 
ATOM     46  C   UNL A   1      39.838  28.100  27.279  1.00  0.00     0.031 C 
ATOM     47  C   UNL A   1      37.891  31.846  32.733  1.00  0.00     0.029 A 
ATOM     48  C   UNL A   1      39.136  31.102  32.910  1.00  0.00     0.049 A 
ATOM     49  H   UNL A   1      40.059  29.840  31.531  1.00  0.00     0.167 HD
ATOM     50  C   UNL A   1      41.794  27.158  28.505  1.00  0.00     0.034 A 
ATOM     51  C   UNL A   1      39.910  31.121  34.016  1.00  0.00     0.034 A 
ATOM     52  C   UNL A   1      42.666  27.104  29.657  1.00  0.00     0.049 A 
ATOM     53  C   UNL A   1      41.178  30.306  34.028  1.00  0.00     0.074 A 
ATOM     54  C   UNL A   1      43.825  26.364  29.817  1.00  0.00     0.029 A 
ATOM     55  N   UNL A   1      42.502  27.837  30.826  1.00  0.00    -0.354 N 
ATOM     56  N   UNL A   1      41.665  29.530  33.087  1.00  0.00    -0.248 NA
ATOM     57  C   UNL A   1      42.009  30.367  35.238  1.00  0.00     0.031 C 
ATOM     58  C   UNL A   1      44.327  26.598  31.095  1.00  0.00     0.029 A 
ATOM     59  C   UNL A   1      43.537  27.559  31.705  1.00  0.00     0.049 A 
ATOM     60  H   UNL A   1      41.762  28.460  31.004  1.00  0.00     0.167 HD
ATOM     61  C   UNL A   1      42.869  29.038  33.580  1.00  0.00     0.074 A 
ATOM     62  C   UNL A   1      43.049  29.618  34.894  1.00  0.00     0.031 C 
ATOM     63  C   UNL A   1      43.737  28.175  32.996  1.00  0.00     0.034 A 
BRANCH  50  64
ATOM     64  C   UNL A   1      42.126  26.240  27.348  1.00  0.00     0.023 A 
ATOM     65  C   UNL A   1      41.657  24.908  27.358  1.00  0.00     0.031 A 
ATOM     66  C   UNL A   1      43.026  26.609  26.334  1.00  0.00     0.131 A 
ATOM     67  C   UNL A   1      42.134  23.986  26.418  1.00  0.00     0.055 A 
ATOM     68  C   UNL A   1      43.446  25.702  25.357  1.00  0.00     0.041 A 
ATOM     69  F   UNL A   1      43.519  27.856  26.278  1.00  0.00    -0.206 F 
ATOM     70  C   UNL A   1      43.015  24.379  25.408  1.00  0.00     0.022 A 
BRANCH  67  71
ATOM     71  S   UNL A   1      41.720  22.222  26.535  1.00  0.00     0.124 S 
ATOM     72  O   UNL A   1      40.261  22.249  26.450  1.00  0.00    -0.237 OA
ATOM     73  O   UNL A   1      42.402  21.671  25.368  1.00  0.00    -0.237 OA
ATOM     74  O   UNL A   1      42.260  21.820  27.830  1.00  0.00    -0.744 OA
ENDBRANCH  67  71
ENDBRANCH  50  64
BRANCH  51  75
ATOM     75  C   UNL A   1      39.532  32.014  35.150  1.00  0.00     0.023 A 
ATOM     76  C   UNL A   1      38.875  31.512  36.288  1.00  0.00     0.031 A 
ATOM     77  C   UNL A   1      39.714  33.403  35.051  1.00  0.00     0.131 A 
ATOM     78  C   UNL A   1      38.361  32.399  37.242  1.00  0.00     0.055 A 
ATOM     79  C   UNL A   1      39.267  34.279  36.042  1.00  0.00     0.041 A 
ATOM     80  F   UNL A   1      40.319  33.931  33.975  1.00  0.00    -0.206 F 
ATOM     81  C   UNL A   1      38.570  33.778  37.136  1.00  0.00     0.022 A 
BRANCH  78  82
ATOM     82  S   UNL A   1      37.279  31.810  38.575  1.00  0.00     0.124 S 
ATOM     83  O   UNL A   1      37.029  30.428  38.174  1.00  0.00    -0.237 OA
ATOM     84  O   UNL A   1      38.132  31.981  39.748  1.00  0.00    -0.237 OA
ATOM     85  O   UNL A   1      36.130  32.706  38.507  1.00  0.00    -0.744 OA
ENDBRANCH  78  82
ENDBRANCH  51  75
BRANCH  63  86
ATOM     86  C   UNL A   1      45.005  27.795  33.727  1.00  0.00     0.023 A 
ATOM     87  C   UNL A   1      44.970  26.761  34.684  1.00  0.00     0.031 A 
ATOM     88  C   UNL A   1      46.170  28.574  33.631  1.00  0.00     0.131 A 
ATOM     89  C   UNL A   1      46.055  26.574  35.548  1.00  0.00     0.055 A 
ATOM     90  C   UNL A   1      47.270  28.350  34.461  1.00  0.00     0.041 A 
ATOM     91  F   UNL A   1      46.247  29.580  32.745  1.00  0.00    -0.206 F 
ATOM     92  C   UNL A   1      47.209  27.358  35.437  1.00  0.00     0.022 A 
BRANCH  89  93
ATOM     93  S   UNL A   1      45.973  25.377  36.909  1.00  0.00     0.124 S 
ATOM     94  O   UNL A   1      44.860  25.895  37.703  1.00  0.00    -0.237 OA
ATOM     95  O   UNL A   1      45.706  24.128  36.203  1.00  0.00    -0.237 OA
ATOM     96  O   UNL A   1      47.282  25.475  37.545  1.00  0.00    -0.744 OA
ENDBRANCH  89  93
ENDBRANCH  63  86
ENDBRANCH  37  38
ENDBRANCH  30  32
ENDBRANCH  29  30
ENDBRANCH  28  29
ENDBRANCH  27  28
ENDBRANCH   1  27
TORSDOF 20
ENDMDL
MODEL 3
REMARK VINA RESULT:     -11.4      2.233      4.013
REMARK SMILES Cc1cc2c(=O)c3ccccc3oc2c(C(=O)OCCOCCOCCOC(=O)c2ccc(-c3c4nc(c(-c5cc(S(=O)(=O)[O-])ccc5F)c5ccc([nH]5)c(-c5cc(S(=O)(=O)[O-])ccc5F)c5nc(c(-c6cc(S(=O)(=O)[O-])ccc6F)c6ccc3[nH]6)C=C5)C=C4)cc2)c1C
REMARK SMILES IDX 24 1 23 2 22 3 21 4 20 5 19 6 18 7 16 8 17 9 15 10 1 11 2 12
REMARK SMILES IDX 3 13 93 14 4 15 94 16 5 17 14 18 6 19 7 20 13 21 8 22 12 23
REMARK SMILES IDX 9 24 11 25 10 26 25 27 26 28 27 29 28 30 29 31 30 32 31 33
REMARK SMILES IDX 92 34 32 35 91 36 33 37 34 38 35 39 85 40 36 41 90 42 84 43
REMARK SMILES IDX 86 44 37 45 89 46 83 47 82 48 38 50 70 51 50 52 69 53 51 54
REMARK SMILES IDX 54 55 68 56 87 57 52 58 53 59 67 61 88 62 55 63 39 64 40 65
REMARK SMILES IDX 48 66 41 67 47 68 49 69 46 70 42 71 43 72 44 73 45 74 71 75
REMARK SMILES IDX 72 76 80 77 73 78 79 79 81 80 78 81 74 82 75 83 76 84 77 85
REMARK SMILES IDX 56 86 57 87 65 88 58 89 64 90 66 91 63 92 59 93 60 94 61 95
REMARK SMILES IDX 62 96
REMARK H PARENT 86 49 54 60
REMARK Flexibility Score: inf
ROOT
ATOM      1  O   UNL A   1      33.048  28.477  24.134  1.00  0.00    -0.376 OA
ENDROOT
BRANCH   1   2
ATOM      2  C   UNL A   1      33.497  27.133  24.141  1.00  0.00     0.188 C 
BRANCH   2   3
ATOM      3  C   UNL A   1      32.591  25.994  24.664  1.00  0.00     0.188 C 
BRANCH   3   4
ATOM      4  O   UNL A   1      32.711  25.553  26.002  1.00  0.00    -0.376 OA
BRANCH   4   5
ATOM      5  C   UNL A   1      32.884  24.175  26.291  1.00  0.00     0.202 C 
BRANCH   5   6
ATOM      6  C   UNL A   1      31.836  23.124  25.914  1.00  0.00     0.261 C 
BRANCH   6   7
ATOM      7  O   UNL A   1      32.366  21.805  25.737  1.00  0.00    -0.460 OA
BRANCH   7   8
ATOM      8  C   UNL A   1      32.914  21.551  24.520  1.00  0.00     0.342 C 
ATOM      9  O   UNL A   1      32.657  22.134  23.481  1.00  0.00    -0.246 OA
BRANCH   8  10
ATOM     10  C   UNL A   1      33.932  20.471  24.617  1.00  0.00     0.106 A 
ATOM     11  C   UNL A   1      34.424  16.715  23.915  1.00  0.00     0.044 C 
ATOM     12  C   UNL A   1      34.637  18.153  24.306  1.00  0.00    -0.046 A 
ATOM     13  C   UNL A   1      35.951  18.548  24.587  1.00  0.00     0.019 A 
ATOM     14  C   UNL A   1      33.602  19.117  24.324  1.00  0.00    -0.030 A 
ATOM     15  C   UNL A   1      36.244  19.867  24.932  1.00  0.00     0.067 A 
ATOM     16  C   UNL A   1      32.166  18.703  24.116  1.00  0.00     0.046 C 
ATOM     17  C   UNL A   1      37.624  20.220  25.287  1.00  0.00     0.200 A 
ATOM     18  C   UNL A   1      35.252  20.841  24.951  1.00  0.00     0.153 A 
ATOM     19  O   UNL A   1      38.521  19.388  25.251  1.00  0.00    -0.288 OA
ATOM     20  C   UNL A   1      37.865  21.604  25.693  1.00  0.00     0.065 A 
ATOM     21  O   UNL A   1      35.509  22.143  25.324  1.00  0.00    -0.455 OA
ATOM     22  C   UNL A   1      39.147  22.015  26.074  1.00  0.00     0.016 A 
ATOM     23  C   UNL A   1      36.792  22.491  25.679  1.00  0.00     0.138 A 
ATOM     24  C   UNL A   1      39.360  23.342  26.431  1.00  0.00     0.001 A 
ATOM     25  C   UNL A   1      37.013  23.821  26.032  1.00  0.00     0.048 A 
ATOM     26  C   UNL A   1      38.297  24.242  26.395  1.00  0.00     0.004 A 
ENDBRANCH   8  10
ENDBRANCH   7   8
ENDBRANCH   6   7
ENDBRANCH   5   6
ENDBRANCH   4   5
ENDBRANCH   3   4
ENDBRANCH   2   3
ENDBRANCH   1   2
BRANCH   1  27
ATOM     27  C   UNL A   1      31.981  28.854  24.988  1.00  0.00     0.202 C 
BRANCH  27  28
ATOM     28  C   UNL A   1      32.159  29.958  26.036  1.00  0.00     0.261 C 
BRANCH  28  29
ATOM     29  O   UNL A   1      33.516  30.379  26.234  1.00  0.00    -0.460 OA
BRANCH  29  30
ATOM     30  C   UNL A   1      33.697  31.345  27.171  1.00  0.00     0.338 C 
ATOM     31  O   UNL A   1      32.909  32.220  27.489  1.00  0.00    -0.246 OA
BRANCH  30  32
ATOM     32  C   UNL A   1      34.945  31.060  27.903  1.00  0.00     0.060 A 
ATOM     33  C   UNL A   1      35.933  32.039  28.033  1.00  0.00     0.016 A 
ATOM     34  C   UNL A   1      35.130  29.784  28.453  1.00  0.00     0.016 A 
ATOM     35  C   UNL A   1      37.107  31.740  28.727  1.00  0.00     0.010 A 
ATOM     36  C   UNL A   1      36.318  29.478  29.117  1.00  0.00     0.010 A 
ATOM     37  C   UNL A   1      37.309  30.460  29.271  1.00  0.00    -0.014 A 
BRANCH  37  38
ATOM     38  C   UNL A   1      38.494  30.179  30.118  1.00  0.00     0.031 A 
ATOM     39  C   UNL A   1      39.618  29.323  29.625  1.00  0.00     0.074 A 
ATOM     40  C   UNL A   1      38.521  30.699  31.360  1.00  0.00     0.049 A 
ATOM     41  N   UNL A   1      40.672  28.896  30.270  1.00  0.00    -0.248 NA
ATOM     42  C   UNL A   1      39.547  28.878  28.226  1.00  0.00     0.031 C 
ATOM     43  C   UNL A   1      37.489  31.576  31.912  1.00  0.00     0.029 A 
ATOM     44  N   UNL A   1      39.441  30.582  32.369  1.00  0.00    -0.354 N 
ATOM     45  C   UNL A   1      41.365  28.080  29.380  1.00  0.00     0.074 A 
ATOM     46  C   UNL A   1      40.623  28.105  28.137  1.00  0.00     0.031 C 
ATOM     47  C   UNL A   1      37.852  31.948  33.148  1.00  0.00     0.029 A 
ATOM     48  C   UNL A   1      39.112  31.297  33.498  1.00  0.00     0.049 A 
ATOM     49  H   UNL A   1      40.259  30.040  32.294  1.00  0.00     0.167 HD
ATOM     50  C   UNL A   1      42.482  27.349  29.615  1.00  0.00     0.034 A 
ATOM     51  C   UNL A   1      39.754  31.415  34.679  1.00  0.00     0.034 A 
ATOM     52  C   UNL A   1      43.221  27.402  30.857  1.00  0.00     0.049 A 
ATOM     53  C   UNL A   1      41.060  30.687  34.871  1.00  0.00     0.074 A 
ATOM     54  C   UNL A   1      44.397  26.747  31.180  1.00  0.00     0.029 A 
ATOM     55  N   UNL A   1      42.883  28.172  31.963  1.00  0.00    -0.354 N 
ATOM     56  N   UNL A   1      41.695  29.904  34.030  1.00  0.00    -0.248 NA
ATOM     57  C   UNL A   1      41.744  30.855  36.160  1.00  0.00     0.031 C 
ATOM     58  C   UNL A   1      44.737  27.069  32.492  1.00  0.00     0.029 A 
ATOM     59  C   UNL A   1      43.827  28.002  32.962  1.00  0.00     0.049 A 
ATOM     60  H   UNL A   1      42.091  28.753  32.027  1.00  0.00     0.167 HD
ATOM     61  C   UNL A   1      42.864  29.514  34.676  1.00  0.00     0.074 A 
ATOM     62  C   UNL A   1      42.860  30.161  35.971  1.00  0.00     0.031 C 
ATOM     63  C   UNL A   1      43.843  28.685  34.235  1.00  0.00     0.034 A 
BRANCH  50  64
ATOM     64  C   UNL A   1      42.998  26.404  28.549  1.00  0.00     0.023 A 
ATOM     65  C   UNL A   1      44.106  26.782  27.762  1.00  0.00     0.031 A 
ATOM     66  C   UNL A   1      42.313  25.229  28.196  1.00  0.00     0.131 A 
ATOM     67  C   UNL A   1      44.457  26.030  26.632  1.00  0.00     0.055 A 
ATOM     68  C   UNL A   1      42.710  24.446  27.109  1.00  0.00     0.041 A 
ATOM     69  F   UNL A   1      41.243  24.825  28.899  1.00  0.00    -0.206 F 
ATOM     70  C   UNL A   1      43.773  24.855  26.311  1.00  0.00     0.022 A 
BRANCH  67  71
ATOM     71  S   UNL A   1      45.736  26.604  25.478  1.00  0.00     0.124 S 
ATOM     72  O   UNL A   1      45.923  25.430  24.628  1.00  0.00    -0.237 OA
ATOM     73  O   UNL A   1      45.078  27.739  24.835  1.00  0.00    -0.237 OA
ATOM     74  O   UNL A   1      46.864  26.934  26.341  1.00  0.00    -0.744 OA
ENDBRANCH  67  71
ENDBRANCH  50  64
BRANCH  51  75
ATOM     75  C   UNL A   1      39.197  32.329  35.719  1.00  0.00     0.023 A 
ATOM     76  C   UNL A   1      39.610  33.671  35.809  1.00  0.00     0.031 A 
ATOM     77  C   UNL A   1      38.337  31.833  36.713  1.00  0.00     0.131 A 
ATOM     78  C   UNL A   1      39.221  34.446  36.910  1.00  0.00     0.055 A 
ATOM     79  C   UNL A   1      37.891  32.632  37.767  1.00  0.00     0.041 A 
ATOM     80  F   UNL A   1      37.931  30.555  36.680  1.00  0.00    -0.206 F 
ATOM     81  C   UNL A   1      38.348  33.941  37.879  1.00  0.00     0.022 A 
BRANCH  78  82
ATOM     82  S   UNL A   1      39.947  36.083  37.199  1.00  0.00     0.124 S 
ATOM     83  O   UNL A   1      39.035  36.650  38.188  1.00  0.00    -0.237 OA
ATOM     84  O   UNL A   1      41.277  35.736  37.693  1.00  0.00    -0.237 OA
ATOM     85  O   UNL A   1      39.919  36.709  35.881  1.00  0.00    -0.744 OA
ENDBRANCH  78  82
ENDBRANCH  51  75
BRANCH  63  86
ATOM     86  C   UNL A   1      45.041  28.422  35.118  1.00  0.00     0.023 A 
ATOM     87  C   UNL A   1      44.930  27.505  36.183  1.00  0.00     0.031 A 
ATOM     88  C   UNL A   1      46.200  29.212  35.039  1.00  0.00     0.131 A 
ATOM     89  C   UNL A   1      45.931  27.444  37.159  1.00  0.00     0.055 A 
ATOM     90  C   UNL A   1      47.221  29.110  35.987  1.00  0.00     0.041 A 
ATOM     91  F   UNL A   1      46.348  30.110  34.053  1.00  0.00    -0.206 F 
ATOM     92  C   UNL A   1      47.080  28.236  37.062  1.00  0.00     0.022 A 
BRANCH  89  93
ATOM     93  S   UNL A   1      45.737  26.411  38.637  1.00  0.00     0.124 S 
ATOM     94  O   UNL A   1      45.329  25.131  38.061  1.00  0.00    -0.237 OA
ATOM     95  O   UNL A   1      47.080  26.436  39.208  1.00  0.00    -0.237 OA
ATOM     96  O   UNL A   1      44.708  27.095  39.413  1.00  0.00    -0.744 OA
ENDBRANCH  89  93
ENDBRANCH  63  86
ENDBRANCH  37  38
ENDBRANCH  30  32
ENDBRANCH  29  30
ENDBRANCH  28  29
ENDBRANCH  27  28
ENDBRANCH   1  27
TORSDOF 20
ENDMDL
