MODEL 1
REMARK VINA RESULT:     -10.4      0.000      0.000
REMARK SMILES CC[C@@](C)(Nc1c([N+](=O)[O-])c(C(C)C)nn1C)C(=O)OCCOCCOCCOC(=O)c1ccc(-c2c3nc(c(-c4cc(S(=O)(=O)[O-])ccc4F)c4ccc([nH]4)c(-c4cc(S(=O)(=O)[O-])ccc4F)c4nc(c(-c5cc(S(=O)(=O)[O-])ccc5F)c5ccc2[nH]5)C=C4)C=C3)cc1
REMARK SMILES IDX 24 1 23 2 22 3 21 4 20 5 18 6 19 7 3 8 4 9 2 10 1 11 5 12
REMARK SMILES IDX 6 14 7 15 16 16 11 17 15 18 17 19 8 20 9 21 10 22 12 23
REMARK SMILES IDX 13 24 14 25 25 26 26 27 27 28 28 29 29 30 30 31 31 32 32 33
REMARK SMILES IDX 33 34 94 35 34 36 93 37 35 38 36 39 37 40 87 41 38 42 92 43
REMARK SMILES IDX 86 44 88 45 39 46 91 47 85 48 84 49 40 51 72 52 52 53 71 54
REMARK SMILES IDX 53 55 56 56 70 57 89 58 54 59 55 60 69 62 90 63 57 64 41 65
REMARK SMILES IDX 42 66 50 67 43 68 49 69 51 70 48 71 44 72 45 73 46 74 47 75
REMARK SMILES IDX 73 76 74 77 82 78 75 79 81 80 83 81 80 82 76 83 77 84 78 85
REMARK SMILES IDX 79 86 58 87 59 88 67 89 60 90 66 91 68 92 65 93 61 94 62 95
REMARK SMILES IDX 63 96 64 97
REMARK H PARENT 5 13 88 50 56 61
REMARK Flexibility Score: inf
ROOT
ATOM      1  C   UNL A   1      32.073  27.573  23.725  1.00  0.00     0.188 C 
ENDROOT
BRANCH   1   2
ATOM      2  O   UNL A   1      31.808  27.512  22.331  1.00  0.00    -0.376 OA
BRANCH   2   3
ATOM      3  C   UNL A   1      32.072  26.295  21.638  1.00  0.00     0.202 C 
BRANCH   3   4
ATOM      4  C   UNL A   1      31.985  25.029  22.476  1.00  0.00     0.261 C 
BRANCH   4   5
ATOM      5  O   UNL A   1      33.311  24.548  22.791  1.00  0.00    -0.462 OA
BRANCH   5   6
ATOM      6  C   UNL A   1      33.355  23.338  23.387  1.00  0.00     0.331 C 
ATOM      7  O   UNL A   1      32.891  22.337  22.837  1.00  0.00    -0.249 OA
BRANCH   6   8
ATOM      8  C   UNL A   1      34.034  23.264  24.779  1.00  0.00     0.134 C 
ATOM      9  C   UNL A   1      35.413  23.940  24.534  1.00  0.00     0.047 C 
BRANCH   8  10
ATOM     10  C   UNL A   1      33.219  24.112  25.813  1.00  0.00     0.037 C 
ATOM     11  C   UNL A   1      32.490  23.360  26.926  1.00  0.00     0.007 C 
ENDBRANCH   8  10
BRANCH   8  12
ATOM     12  N   UNL A   1      34.406  21.970  25.465  1.00  0.00    -0.349 N 
ATOM     13  H   UNL A   1      34.445  22.049  26.445  1.00  0.00     0.163 HD
BRANCH  12  14
ATOM     14  C   UNL A   1      34.701  20.701  25.013  1.00  0.00     0.205 A 
ATOM     15  C   UNL A   1      33.886  19.560  24.904  1.00  0.00     0.334 A 
ATOM     16  N   UNL A   1      35.977  20.188  24.895  1.00  0.00    -0.246 N 
ATOM     17  C   UNL A   1      34.752  18.449  24.647  1.00  0.00     0.145 A 
ATOM     18  N   UNL A   1      36.031  18.857  24.654  1.00  0.00    -0.169 NA
ATOM     19  C   UNL A   1      37.225  20.832  25.221  1.00  0.00     0.176 C 
BRANCH  15  20
ATOM     20  N   UNL A   1      32.462  19.541  25.115  1.00  0.00     0.068 N 
ATOM     21  O   UNL A   1      31.869  20.623  25.181  1.00  0.00    -0.258 OA
ATOM     22  O   UNL A   1      31.911  18.430  25.157  1.00  0.00    -0.258 OA
ENDBRANCH  15  20
BRANCH  17  23
ATOM     23  C   UNL A   1      34.456  16.962  24.493  1.00  0.00     0.041 C 
ATOM     24  C   UNL A   1      34.408  16.481  23.041  1.00  0.00     0.014 C 
ATOM     25  C   UNL A   1      35.482  16.090  25.227  1.00  0.00     0.014 C 
ENDBRANCH  17  23
ENDBRANCH  12  14
ENDBRANCH   8  12
ENDBRANCH   6   8
ENDBRANCH   5   6
ENDBRANCH   4   5
ENDBRANCH   3   4
ENDBRANCH   2   3
ENDBRANCH   1   2
BRANCH   1  26
ATOM     26  C   UNL A   1      33.310  28.322  24.218  1.00  0.00     0.188 C 
BRANCH  26  27
ATOM     27  O   UNL A   1      33.184  29.540  24.926  1.00  0.00    -0.376 OA
BRANCH  27  28
ATOM     28  C   UNL A   1      31.914  29.933  25.408  1.00  0.00     0.202 C 
BRANCH  28  29
ATOM     29  C   UNL A   1      31.875  30.932  26.562  1.00  0.00     0.261 C 
BRANCH  29  30
ATOM     30  O   UNL A   1      32.894  30.742  27.542  1.00  0.00    -0.460 OA
BRANCH  30  31
ATOM     31  C   UNL A   1      33.751  31.780  27.677  1.00  0.00     0.338 C 
ATOM     32  O   UNL A   1      33.502  32.979  27.623  1.00  0.00    -0.246 OA
BRANCH  31  33
ATOM     33  C   UNL A   1      35.051  31.287  28.123  1.00  0.00     0.060 A 
ATOM     34  C   UNL A   1      35.151  29.922  28.423  1.00  0.00     0.016 A 
ATOM     35  C   UNL A   1      36.143  32.145  28.241  1.00  0.00     0.016 A 
ATOM     36  C   UNL A   1      36.349  29.409  28.879  1.00  0.00     0.010 A 
ATOM     37  C   UNL A   1      37.347  31.629  28.697  1.00  0.00     0.010 A 
ATOM     38  C   UNL A   1      37.440  30.269  29.039  1.00  0.00    -0.014 A 
BRANCH  38  39
ATOM     39  C   UNL A   1      38.650  29.762  29.695  1.00  0.00     0.031 A 
ATOM     40  C   UNL A   1      39.020  30.324  31.033  1.00  0.00     0.074 A 
ATOM     41  C   UNL A   1      39.363  28.795  29.096  1.00  0.00     0.049 A 
ATOM     42  N   UNL A   1      40.073  30.087  31.765  1.00  0.00    -0.248 NA
ATOM     43  C   UNL A   1      38.078  31.293  31.617  1.00  0.00     0.031 C 
ATOM     44  C   UNL A   1      39.027  28.173  27.813  1.00  0.00     0.029 A 
ATOM     45  N   UNL A   1      40.514  28.170  29.483  1.00  0.00    -0.354 N 
ATOM     46  C   UNL A   1      39.922  30.876  32.899  1.00  0.00     0.074 A 
ATOM     47  C   UNL A   1      38.703  31.636  32.732  1.00  0.00     0.031 C 
ATOM     48  C   UNL A   1      39.966  27.260  27.514  1.00  0.00     0.029 A 
ATOM     49  C   UNL A   1      40.983  27.270  28.559  1.00  0.00     0.049 A 
ATOM     50  H   UNL A   1      40.963  28.348  30.341  1.00  0.00     0.167 HD
ATOM     51  C   UNL A   1      40.730  30.940  33.984  1.00  0.00     0.034 A 
ATOM     52  C   UNL A   1      42.128  26.565  28.554  1.00  0.00     0.034 A 
ATOM     53  C   UNL A   1      41.948  30.175  34.097  1.00  0.00     0.049 A 
ATOM     54  C   UNL A   1      43.048  26.710  29.740  1.00  0.00     0.074 A 
ATOM     55  C   UNL A   1      42.870  30.163  35.126  1.00  0.00     0.029 A 
ATOM     56  N   UNL A   1      42.414  29.285  33.134  1.00  0.00    -0.354 N 
ATOM     57  N   UNL A   1      42.910  27.468  30.807  1.00  0.00    -0.248 NA
ATOM     58  C   UNL A   1      44.265  25.894  29.732  1.00  0.00     0.031 C 
ATOM     59  C   UNL A   1      43.923  29.318  34.757  1.00  0.00     0.029 A 
ATOM     60  C   UNL A   1      43.621  28.735  33.535  1.00  0.00     0.049 A 
ATOM     61  H   UNL A   1      41.953  29.075  32.290  1.00  0.00     0.167 HD
ATOM     62  C   UNL A   1      44.015  27.201  31.609  1.00  0.00     0.074 A 
ATOM     63  C   UNL A   1      44.784  26.185  30.915  1.00  0.00     0.031 C 
ATOM     64  C   UNL A   1      44.373  27.741  32.804  1.00  0.00     0.034 A 
BRANCH  51  65
ATOM     65  C   UNL A   1      40.340  31.895  35.084  1.00  0.00     0.023 A 
ATOM     66  C   UNL A   1      39.445  31.524  36.105  1.00  0.00     0.031 A 
ATOM     67  C   UNL A   1      40.833  33.211  35.092  1.00  0.00     0.131 A 
ATOM     68  C   UNL A   1      39.026  32.472  37.051  1.00  0.00     0.055 A 
ATOM     69  C   UNL A   1      40.474  34.127  36.082  1.00  0.00     0.041 A 
ATOM     70  F   UNL A   1      41.663  33.635  34.125  1.00  0.00    -0.206 F 
ATOM     71  C   UNL A   1      39.556  33.764  37.062  1.00  0.00     0.022 A 
BRANCH  68  72
ATOM     72  S   UNL A   1      37.677  32.035  38.182  1.00  0.00     0.124 S 
ATOM     73  O   UNL A   1      37.427  30.643  37.819  1.00  0.00    -0.237 OA
ATOM     74  O   UNL A   1      38.279  32.257  39.492  1.00  0.00    -0.237 OA
ATOM     75  O   UNL A   1      36.611  32.967  37.821  1.00  0.00    -0.744 OA
ENDBRANCH  68  72
ENDBRANCH  51  65
BRANCH  52  76
ATOM     76  C   UNL A   1      42.485  25.706  27.390  1.00  0.00     0.023 A 
ATOM     77  C   UNL A   1      42.067  24.369  27.315  1.00  0.00     0.031 A 
ATOM     78  C   UNL A   1      43.296  26.201  26.351  1.00  0.00     0.131 A 
ATOM     79  C   UNL A   1      42.505  23.558  26.258  1.00  0.00     0.055 A 
ATOM     80  C   UNL A   1      43.678  25.407  25.269  1.00  0.00     0.041 A 
ATOM     81  F   UNL A   1      43.722  27.474  26.368  1.00  0.00    -0.206 F 
ATOM     82  C   UNL A   1      43.296  24.071  25.227  1.00  0.00     0.022 A 
BRANCH  79  83
ATOM     83  S   UNL A   1      42.113  21.788  26.305  1.00  0.00     0.124 S 
ATOM     84  O   UNL A   1      43.021  21.255  25.296  1.00  0.00    -0.237 OA
ATOM     85  O   UNL A   1      42.423  21.448  27.690  1.00  0.00    -0.237 OA
ATOM     86  O   UNL A   1      40.695  21.744  25.956  1.00  0.00    -0.744 OA
ENDBRANCH  79  83
ENDBRANCH  52  76
BRANCH  64  87
ATOM     87  C   UNL A   1      45.639  27.205  33.428  1.00  0.00     0.023 A 
ATOM     88  C   UNL A   1      45.613  26.132  34.334  1.00  0.00     0.031 A 
ATOM     89  C   UNL A   1      46.877  27.812  33.155  1.00  0.00     0.131 A 
ATOM     90  C   UNL A   1      46.784  25.759  35.007  1.00  0.00     0.055 A 
ATOM     91  C   UNL A   1      48.056  27.379  33.764  1.00  0.00     0.041 A 
ATOM     92  F   UNL A   1      46.962  28.842  32.299  1.00  0.00    -0.206 F 
ATOM     93  C   UNL A   1      48.010  26.362  34.713  1.00  0.00     0.022 A 
BRANCH  90  94
ATOM     94  S   UNL A   1      46.653  24.580  36.378  1.00  0.00     0.124 S 
ATOM     95  O   UNL A   1      48.025  24.095  36.491  1.00  0.00    -0.237 OA
ATOM     96  O   UNL A   1      46.184  25.425  37.472  1.00  0.00    -0.237 OA
ATOM     97  O   UNL A   1      45.686  23.598  35.894  1.00  0.00    -0.744 OA
ENDBRANCH  90  94
ENDBRANCH  64  87
ENDBRANCH  38  39
ENDBRANCH  31  33
ENDBRANCH  30  31
ENDBRANCH  29  30
ENDBRANCH  28  29
ENDBRANCH  27  28
ENDBRANCH  26  27
ENDBRANCH   1  26
TORSDOF 25
ENDMDL
MODEL 2
REMARK VINA RESULT:      -9.5      1.852      2.331
REMARK SMILES CC[C@@](C)(Nc1c([N+](=O)[O-])c(C(C)C)nn1C)C(=O)OCCOCCOCCOC(=O)c1ccc(-c2c3nc(c(-c4cc(S(=O)(=O)[O-])ccc4F)c4ccc([nH]4)c(-c4cc(S(=O)(=O)[O-])ccc4F)c4nc(c(-c5cc(S(=O)(=O)[O-])ccc5F)c5ccc2[nH]5)C=C4)C=C3)cc1
REMARK SMILES IDX 24 1 23 2 22 3 21 4 20 5 18 6 19 7 3 8 4 9 2 10 1 11 5 12
REMARK SMILES IDX 6 14 7 15 16 16 11 17 15 18 17 19 8 20 9 21 10 22 12 23
REMARK SMILES IDX 13 24 14 25 25 26 26 27 27 28 28 29 29 30 30 31 31 32 32 33
REMARK SMILES IDX 33 34 94 35 34 36 93 37 35 38 36 39 37 40 87 41 38 42 92 43
REMARK SMILES IDX 86 44 88 45 39 46 91 47 85 48 84 49 40 51 72 52 52 53 71 54
REMARK SMILES IDX 53 55 56 56 70 57 89 58 54 59 55 60 69 62 90 63 57 64 41 65
REMARK SMILES IDX 42 66 50 67 43 68 49 69 51 70 48 71 44 72 45 73 46 74 47 75
REMARK SMILES IDX 73 76 74 77 82 78 75 79 81 80 83 81 80 82 76 83 77 84 78 85
REMARK SMILES IDX 79 86 58 87 59 88 67 89 60 90 66 91 68 92 65 93 61 94 62 95
REMARK SMILES IDX 63 96 64 97
REMARK H PARENT 5 13 88 50 56 61
REMARK Flexibility Score: inf
ROOT
ATOM      1  C   UNL A   1      31.910  27.635  25.019  1.00  0.00     0.188 C 
ENDROOT
BRANCH   1   2
ATOM      2  O   UNL A   1      30.662  27.518  24.350  1.00  0.00    -0.376 OA
BRANCH   2   3
ATOM      3  C   UNL A   1      29.730  26.543  24.808  1.00  0.00     0.202 C 
BRANCH   3   4
ATOM      4  C   UNL A   1      30.254  25.573  25.856  1.00  0.00     0.261 C 
BRANCH   4   5
ATOM      5  O   UNL A   1      30.701  24.352  25.224  1.00  0.00    -0.462 OA
BRANCH   5   6
ATOM      6  C   UNL A   1      32.011  24.070  25.386  1.00  0.00     0.331 C 
ATOM      7  O   UNL A   1      32.494  23.896  26.507  1.00  0.00    -0.249 OA
BRANCH   6   8
ATOM      8  C   UNL A   1      32.870  23.955  24.100  1.00  0.00     0.134 C 
ATOM      9  C   UNL A   1      31.871  24.343  22.974  1.00  0.00     0.047 C 
BRANCH   8  10
ATOM     10  C   UNL A   1      34.033  25.002  24.143  1.00  0.00     0.037 C 
ATOM     11  C   UNL A   1      34.872  25.077  25.419  1.00  0.00     0.007 C 
ENDBRANCH   8  10
BRANCH   8  12
ATOM     12  N   UNL A   1      33.462  22.658  23.598  1.00  0.00    -0.349 N 
ATOM     13  H   UNL A   1      34.169  22.790  22.926  1.00  0.00     0.163 HD
BRANCH  12  14
ATOM     14  C   UNL A   1      33.226  21.329  23.880  1.00  0.00     0.205 A 
ATOM     15  C   UNL A   1      33.925  20.437  24.711  1.00  0.00     0.334 A 
ATOM     16  N   UNL A   1      32.437  20.494  23.116  1.00  0.00    -0.246 N 
ATOM     17  C   UNL A   1      33.430  19.123  24.426  1.00  0.00     0.145 A 
ATOM     18  N   UNL A   1      32.523  19.182  23.438  1.00  0.00    -0.169 NA
ATOM     19  C   UNL A   1      31.731  20.810  21.898  1.00  0.00     0.176 C 
BRANCH  15  20
ATOM     20  N   UNL A   1      34.997  20.804  25.599  1.00  0.00     0.068 N 
ATOM     21  O   UNL A   1      36.107  20.295  25.413  1.00  0.00    -0.258 OA
ATOM     22  O   UNL A   1      34.748  21.661  26.462  1.00  0.00    -0.258 OA
ENDBRANCH  15  20
BRANCH  17  23
ATOM     23  C   UNL A   1      33.840  17.758  24.966  1.00  0.00     0.041 C 
ATOM     24  C   UNL A   1      32.664  16.832  25.285  1.00  0.00     0.014 C 
ATOM     25  C   UNL A   1      34.760  17.006  23.997  1.00  0.00     0.014 C 
ENDBRANCH  17  23
ENDBRANCH  12  14
ENDBRANCH   8  12
ENDBRANCH   6   8
ENDBRANCH   5   6
ENDBRANCH   4   5
ENDBRANCH   3   4
ENDBRANCH   2   3
ENDBRANCH   1   2
BRANCH   1  26
ATOM     26  C   UNL A   1      32.909  28.695  24.558  1.00  0.00     0.188 C 
BRANCH  26  27
ATOM     27  O   UNL A   1      32.804  30.032  25.009  1.00  0.00    -0.376 OA
BRANCH  27  28
ATOM     28  C   UNL A   1      31.642  30.438  25.706  1.00  0.00     0.202 C 
BRANCH  28  29
ATOM     29  C   UNL A   1      31.715  31.742  26.498  1.00  0.00     0.261 C 
BRANCH  29  30
ATOM     30  O   UNL A   1      32.595  31.702  27.620  1.00  0.00    -0.460 OA
BRANCH  30  31
ATOM     31  C   UNL A   1      33.555  32.656  27.621  1.00  0.00     0.338 C 
ATOM     32  O   UNL A   1      33.432  33.853  27.387  1.00  0.00    -0.246 OA
BRANCH  31  33
ATOM     33  C   UNL A   1      34.793  32.104  28.165  1.00  0.00     0.060 A 
ATOM     34  C   UNL A   1      34.775  30.762  28.569  1.00  0.00     0.016 A 
ATOM     35  C   UNL A   1      35.941  32.887  28.273  1.00  0.00     0.016 A 
ATOM     36  C   UNL A   1      35.909  30.199  29.118  1.00  0.00     0.010 A 
ATOM     37  C   UNL A   1      37.082  32.320  28.823  1.00  0.00     0.010 A 
ATOM     38  C   UNL A   1      37.055  30.987  29.267  1.00  0.00    -0.014 A 
BRANCH  38  39
ATOM     39  C   UNL A   1      38.193  30.444  30.017  1.00  0.00     0.031 A 
ATOM     40  C   UNL A   1      38.437  30.953  31.404  1.00  0.00     0.074 A 
ATOM     41  C   UNL A   1      38.955  29.493  29.453  1.00  0.00     0.049 A 
ATOM     42  N   UNL A   1      39.413  30.678  32.225  1.00  0.00    -0.248 NA
ATOM     43  C   UNL A   1      37.449  31.908  31.932  1.00  0.00     0.031 C 
ATOM     44  C   UNL A   1      38.740  28.922  28.121  1.00  0.00     0.029 A 
ATOM     45  N   UNL A   1      40.059  28.843  29.925  1.00  0.00    -0.354 N 
ATOM     46  C   UNL A   1      39.159  31.426  33.368  1.00  0.00     0.074 A 
ATOM     47  C   UNL A   1      37.966  32.204  33.114  1.00  0.00     0.031 C 
ATOM     48  C   UNL A   1      39.697  28.012  27.879  1.00  0.00     0.029 A 
ATOM     49  C   UNL A   1      40.609  27.973  29.016  1.00  0.00     0.049 A 
ATOM     50  H   UNL A   1      40.425  28.985  30.828  1.00  0.00     0.167 HD
ATOM     51  C   UNL A   1      39.859  31.442  34.527  1.00  0.00     0.034 A 
ATOM     52  C   UNL A   1      41.745  27.257  29.094  1.00  0.00     0.034 A 
ATOM     53  C   UNL A   1      41.055  30.661  34.727  1.00  0.00     0.049 A 
ATOM     54  C   UNL A   1      42.548  27.350  30.368  1.00  0.00     0.074 A 
ATOM     55  C   UNL A   1      41.874  30.602  35.838  1.00  0.00     0.029 A 
ATOM     56  N   UNL A   1      41.607  29.803  33.780  1.00  0.00    -0.354 N 
ATOM     57  N   UNL A   1      42.313  28.069  31.444  1.00  0.00    -0.248 NA
ATOM     58  C   UNL A   1      43.755  26.522  30.446  1.00  0.00     0.031 C 
ATOM     59  C   UNL A   1      42.953  29.761  35.540  1.00  0.00     0.029 A 
ATOM     60  C   UNL A   1      42.766  29.227  34.274  1.00  0.00     0.049 A 
ATOM     61  H   UNL A   1      41.228  29.629  32.888  1.00  0.00     0.167 HD
ATOM     62  C   UNL A   1      43.334  27.761  32.338  1.00  0.00     0.074 A 
ATOM     63  C   UNL A   1      44.159  26.764  31.683  1.00  0.00     0.031 C 
ATOM     64  C   UNL A   1      43.578  28.253  33.581  1.00  0.00     0.034 A 
BRANCH  51  65
ATOM     65  C   UNL A   1      39.371  32.359  35.620  1.00  0.00     0.023 A 
ATOM     66  C   UNL A   1      39.894  33.655  35.789  1.00  0.00     0.031 A 
ATOM     67  C   UNL A   1      38.399  31.920  36.535  1.00  0.00     0.131 A 
ATOM     68  C   UNL A   1      39.489  34.438  36.881  1.00  0.00     0.055 A 
ATOM     69  C   UNL A   1      37.942  32.736  37.573  1.00  0.00     0.041 A 
ATOM     70  F   UNL A   1      37.886  30.682  36.447  1.00  0.00    -0.206 F 
ATOM     71  C   UNL A   1      38.497  33.998  37.758  1.00  0.00     0.022 A 
BRANCH  68  72
ATOM     72  S   UNL A   1      40.376  35.985  37.218  1.00  0.00     0.124 S 
ATOM     73  O   UNL A   1      41.491  35.513  38.036  1.00  0.00    -0.237 OA
ATOM     74  O   UNL A   1      40.717  36.452  35.879  1.00  0.00    -0.237 OA
ATOM     75  O   UNL A   1      39.391  36.797  37.929  1.00  0.00    -0.744 OA
ENDBRANCH  68  72
ENDBRANCH  51  65
BRANCH  52  76
ATOM     76  C   UNL A   1      42.206  26.439  27.939  1.00  0.00     0.023 A 
ATOM     77  C   UNL A   1      41.789  25.110  27.773  1.00  0.00     0.031 A 
ATOM     78  C   UNL A   1      43.116  26.964  27.001  1.00  0.00     0.131 A 
ATOM     79  C   UNL A   1      42.322  24.334  26.733  1.00  0.00     0.055 A 
ATOM     80  C   UNL A   1      43.596  26.207  25.931  1.00  0.00     0.041 A 
ATOM     81  F   UNL A   1      43.547  28.231  27.107  1.00  0.00    -0.206 F 
ATOM     82  C   UNL A   1      43.212  24.877  25.802  1.00  0.00     0.022 A 
BRANCH  79  83
ATOM     83  S   UNL A   1      41.917  22.567  26.676  1.00  0.00     0.124 S 
ATOM     84  O   UNL A   1      42.321  22.213  25.320  1.00  0.00    -0.237 OA
ATOM     85  O   UNL A   1      42.745  22.033  27.752  1.00  0.00    -0.237 OA
ATOM     86  O   UNL A   1      40.478  22.540  26.927  1.00  0.00    -0.744 OA
ENDBRANCH  79  83
ENDBRANCH  52  76
BRANCH  64  87
ATOM     87  C   UNL A   1      44.775  27.683  34.303  1.00  0.00     0.023 A 
ATOM     88  C   UNL A   1      44.671  26.528  35.096  1.00  0.00     0.031 A 
ATOM     89  C   UNL A   1      46.020  28.334  34.240  1.00  0.00     0.131 A 
ATOM     90  C   UNL A   1      45.764  26.112  35.869  1.00  0.00     0.055 A 
ATOM     91  C   UNL A   1      47.128  27.865  34.946  1.00  0.00     0.041 A 
ATOM     92  F   UNL A   1      46.176  29.442  33.500  1.00  0.00    -0.206 F 
ATOM     93  C   UNL A   1      46.998  26.761  35.784  1.00  0.00     0.022 A 
BRANCH  90  94
ATOM     94  S   UNL A   1      45.503  24.806  37.100  1.00  0.00     0.124 S 
ATOM     95  O   UNL A   1      45.882  25.479  38.338  1.00  0.00    -0.237 OA
ATOM     96  O   UNL A   1      44.082  24.510  36.944  1.00  0.00    -0.237 OA
ATOM     97  O   UNL A   1      46.409  23.744  36.668  1.00  0.00    -0.744 OA
ENDBRANCH  90  94
ENDBRANCH  64  87
ENDBRANCH  38  39
ENDBRANCH  31  33
ENDBRANCH  30  31
ENDBRANCH  29  30
ENDBRANCH  28  29
ENDBRANCH  27  28
ENDBRANCH  26  27
ENDBRANCH   1  26
TORSDOF 25
ENDMDL
MODEL 3
REMARK VINA RESULT:      -9.4      5.658     10.963
REMARK SMILES CC[C@@](C)(Nc1c([N+](=O)[O-])c(C(C)C)nn1C)C(=O)OCCOCCOCCOC(=O)c1ccc(-c2c3nc(c(-c4cc(S(=O)(=O)[O-])ccc4F)c4ccc([nH]4)c(-c4cc(S(=O)(=O)[O-])ccc4F)c4nc(c(-c5cc(S(=O)(=O)[O-])ccc5F)c5ccc2[nH]5)C=C4)C=C3)cc1
REMARK SMILES IDX 24 1 23 2 22 3 21 4 20 5 18 6 19 7 3 8 4 9 2 10 1 11 5 12
REMARK SMILES IDX 6 14 7 15 16 16 11 17 15 18 17 19 8 20 9 21 10 22 12 23
REMARK SMILES IDX 13 24 14 25 25 26 26 27 27 28 28 29 29 30 30 31 31 32 32 33
REMARK SMILES IDX 33 34 94 35 34 36 93 37 35 38 36 39 37 40 87 41 38 42 92 43
REMARK SMILES IDX 86 44 88 45 39 46 91 47 85 48 84 49 40 51 72 52 52 53 71 54
REMARK SMILES IDX 53 55 56 56 70 57 89 58 54 59 55 60 69 62 90 63 57 64 41 65
REMARK SMILES IDX 42 66 50 67 43 68 49 69 51 70 48 71 44 72 45 73 46 74 47 75
REMARK SMILES IDX 73 76 74 77 82 78 75 79 81 80 83 81 80 82 76 83 77 84 78 85
REMARK SMILES IDX 79 86 58 87 59 88 67 89 60 90 66 91 68 92 65 93 61 94 62 95
REMARK SMILES IDX 63 96 64 97
REMARK H PARENT 5 13 88 50 56 61
REMARK Flexibility Score: inf
ROOT
ATOM      1  C   UNL A   1      39.635  21.249  26.076  1.00  0.00     0.188 C 
ENDROOT
BRANCH   1   2
ATOM      2  O   UNL A   1      38.303  21.216  25.583  1.00  0.00    -0.376 OA
BRANCH   2   3
ATOM      3  C   UNL A   1      37.772  22.387  24.969  1.00  0.00     0.202 C 
BRANCH   3   4
ATOM      4  C   UNL A   1      37.049  23.348  25.901  1.00  0.00     0.261 C 
BRANCH   4   5
ATOM      5  O   UNL A   1      35.642  23.021  25.957  1.00  0.00    -0.462 OA
BRANCH   5   6
ATOM      6  C   UNL A   1      34.844  23.794  25.190  1.00  0.00     0.331 C 
ATOM      7  O   UNL A   1      34.966  25.020  25.173  1.00  0.00    -0.249 OA
BRANCH   6   8
ATOM      8  C   UNL A   1      33.787  23.067  24.320  1.00  0.00     0.134 C 
ATOM      9  C   UNL A   1      34.506  22.910  22.950  1.00  0.00     0.047 C 
BRANCH   8  10
ATOM     10  C   UNL A   1      33.494  21.649  24.914  1.00  0.00     0.037 C 
ATOM     11  C   UNL A   1      34.561  20.569  24.732  1.00  0.00     0.007 C 
ENDBRANCH   8  10
BRANCH   8  12
ATOM     12  N   UNL A   1      32.454  23.669  23.937  1.00  0.00    -0.349 N 
ATOM     13  H   UNL A   1      31.857  23.031  23.484  1.00  0.00     0.163 HD
BRANCH  12  14
ATOM     14  C   UNL A   1      31.894  24.920  24.088  1.00  0.00     0.205 A 
ATOM     15  C   UNL A   1      31.929  26.042  23.242  1.00  0.00     0.334 A 
ATOM     16  N   UNL A   1      31.466  25.447  25.290  1.00  0.00    -0.246 N 
ATOM     17  C   UNL A   1      31.435  27.153  23.997  1.00  0.00     0.145 A 
ATOM     18  N   UNL A   1      31.164  26.766  25.254  1.00  0.00    -0.169 NA
ATOM     19  C   UNL A   1      31.524  24.837  26.596  1.00  0.00     0.176 C 
BRANCH  15  20
ATOM     20  N   UNL A   1      32.460  26.049  21.903  1.00  0.00     0.068 N 
ATOM     21  O   UNL A   1      33.675  25.872  21.758  1.00  0.00    -0.258 OA
ATOM     22  O   UNL A   1      31.648  26.172  20.973  1.00  0.00    -0.258 OA
ENDBRANCH  15  20
BRANCH  17  23
ATOM     23  C   UNL A   1      31.291  28.627  23.636  1.00  0.00     0.041 C 
ATOM     24  C   UNL A   1      29.954  28.984  22.982  1.00  0.00     0.014 C 
ATOM     25  C   UNL A   1      31.457  29.540  24.857  1.00  0.00     0.014 C 
ENDBRANCH  17  23
ENDBRANCH  12  14
ENDBRANCH   8  12
ENDBRANCH   6   8
ENDBRANCH   5   6
ENDBRANCH   4   5
ENDBRANCH   3   4
ENDBRANCH   2   3
ENDBRANCH   1   2
BRANCH   1  26
ATOM     26  C   UNL A   1      40.340  19.937  26.413  1.00  0.00     0.188 C 
BRANCH  26  27
ATOM     27  O   UNL A   1      41.403  19.906  27.346  1.00  0.00    -0.376 OA
BRANCH  27  28
ATOM     28  C   UNL A   1      42.379  18.887  27.251  1.00  0.00     0.202 C 
BRANCH  28  29
ATOM     29  C   UNL A   1      42.816  18.458  25.852  1.00  0.00     0.261 C 
BRANCH  29  30
ATOM     30  O   UNL A   1      42.979  19.533  24.929  1.00  0.00    -0.460 OA
BRANCH  30  31
ATOM     31  C   UNL A   1      44.234  20.037  24.860  1.00  0.00     0.338 C 
ATOM     32  O   UNL A   1      45.220  19.539  24.330  1.00  0.00    -0.246 OA
BRANCH  31  33
ATOM     33  C   UNL A   1      44.234  21.415  25.342  1.00  0.00     0.060 A 
ATOM     34  C   UNL A   1      44.069  22.429  24.389  1.00  0.00     0.016 A 
ATOM     35  C   UNL A   1      44.392  21.702  26.697  1.00  0.00     0.016 A 
ATOM     36  C   UNL A   1      44.093  23.750  24.786  1.00  0.00     0.010 A 
ATOM     37  C   UNL A   1      44.414  23.030  27.096  1.00  0.00     0.010 A 
ATOM     38  C   UNL A   1      44.291  24.050  26.138  1.00  0.00    -0.014 A 
BRANCH  38  39
ATOM     39  C   UNL A   1      44.501  25.449  26.528  1.00  0.00     0.031 A 
ATOM     40  C   UNL A   1      45.877  26.024  26.393  1.00  0.00     0.074 A 
ATOM     41  C   UNL A   1      43.456  26.172  26.960  1.00  0.00     0.049 A 
ATOM     42  N   UNL A   1      46.317  27.201  26.740  1.00  0.00    -0.248 NA
ATOM     43  C   UNL A   1      46.896  25.146  25.795  1.00  0.00     0.031 C 
ATOM     44  C   UNL A   1      42.079  25.681  27.069  1.00  0.00     0.029 A 
ATOM     45  N   UNL A   1      43.387  27.467  27.387  1.00  0.00    -0.354 N 
ATOM     46  C   UNL A   1      47.665  27.209  26.402  1.00  0.00     0.074 A 
ATOM     47  C   UNL A   1      47.980  25.901  25.872  1.00  0.00     0.031 C 
ATOM     48  C   UNL A   1      41.304  26.667  27.548  1.00  0.00     0.029 A 
ATOM     49  C   UNL A   1      42.136  27.833  27.819  1.00  0.00     0.049 A 
ATOM     50  H   UNL A   1      44.159  28.078  27.386  1.00  0.00     0.167 HD
ATOM     51  C   UNL A   1      48.548  28.230  26.516  1.00  0.00     0.034 A 
ATOM     52  C   UNL A   1      41.730  28.976  28.400  1.00  0.00     0.034 A 
ATOM     53  C   UNL A   1      48.190  29.513  27.070  1.00  0.00     0.049 A 
ATOM     54  C   UNL A   1      42.751  30.071  28.584  1.00  0.00     0.074 A 
ATOM     55  C   UNL A   1      48.989  30.623  27.266  1.00  0.00     0.029 A 
ATOM     56  N   UNL A   1      46.918  29.852  27.523  1.00  0.00    -0.354 N 
ATOM     57  N   UNL A   1      44.030  30.071  28.276  1.00  0.00    -0.248 NA
ATOM     58  C   UNL A   1      42.271  31.324  29.174  1.00  0.00     0.031 C 
ATOM     59  C   UNL A   1      48.219  31.608  27.896  1.00  0.00     0.029 A 
ATOM     60  C   UNL A   1      46.916  31.146  28.018  1.00  0.00     0.049 A 
ATOM     61  H   UNL A   1      46.134  29.259  27.495  1.00  0.00     0.167 HD
ATOM     62  C   UNL A   1      44.502  31.335  28.615  1.00  0.00     0.074 A 
ATOM     63  C   UNL A   1      43.359  32.076  29.115  1.00  0.00     0.031 C 
ATOM     64  C   UNL A   1      45.760  31.844  28.531  1.00  0.00     0.034 A 
BRANCH  51  65
ATOM     65  C   UNL A   1      49.968  27.970  26.081  1.00  0.00     0.023 A 
ATOM     66  C   UNL A   1      50.362  28.073  24.734  1.00  0.00     0.031 A 
ATOM     67  C   UNL A   1      50.937  27.570  27.018  1.00  0.00     0.131 A 
ATOM     68  C   UNL A   1      51.666  27.722  24.355  1.00  0.00     0.055 A 
ATOM     69  C   UNL A   1      52.255  27.299  26.646  1.00  0.00     0.041 A 
ATOM     70  F   UNL A   1      50.614  27.420  28.313  1.00  0.00    -0.206 F 
ATOM     71  C   UNL A   1      52.623  27.362  25.306  1.00  0.00     0.022 A 
BRANCH  68  72
ATOM     72  S   UNL A   1      52.058  27.610  22.587  1.00  0.00     0.124 S 
ATOM     73  O   UNL A   1      52.358  29.003  22.263  1.00  0.00    -0.237 OA
ATOM     74  O   UNL A   1      53.191  26.691  22.572  1.00  0.00    -0.237 OA
ATOM     75  O   UNL A   1      50.827  27.091  21.995  1.00  0.00    -0.744 OA
ENDBRANCH  68  72
ENDBRANCH  51  65
BRANCH  52  76
ATOM     76  C   UNL A   1      40.328  29.127  28.880  1.00  0.00     0.023 A 
ATOM     77  C   UNL A   1      40.010  29.036  30.243  1.00  0.00     0.031 A 
ATOM     78  C   UNL A   1      39.271  29.318  27.969  1.00  0.00     0.131 A 
ATOM     79  C   UNL A   1      38.669  29.079  30.652  1.00  0.00     0.055 A 
ATOM     80  C   UNL A   1      37.944  29.422  28.387  1.00  0.00     0.041 A 
ATOM     81  F   UNL A   1      39.517  29.416  26.652  1.00  0.00    -0.206 F 
ATOM     82  C   UNL A   1      37.635  29.285  29.735  1.00  0.00     0.022 A 
BRANCH  79  83
ATOM     83  S   UNL A   1      38.285  28.752  32.394  1.00  0.00     0.124 S 
ATOM     84  O   UNL A   1      36.865  29.077  32.452  1.00  0.00    -0.237 OA
ATOM     85  O   UNL A   1      38.625  27.339  32.518  1.00  0.00    -0.237 OA
ATOM     86  O   UNL A   1      39.166  29.669  33.114  1.00  0.00    -0.744 OA
ENDBRANCH  79  83
ENDBRANCH  52  76
BRANCH  64  87
ATOM     87  C   UNL A   1      45.932  33.279  28.969  1.00  0.00     0.023 A 
ATOM     88  C   UNL A   1      45.784  34.343  28.064  1.00  0.00     0.031 A 
ATOM     89  C   UNL A   1      46.302  33.579  30.291  1.00  0.00     0.131 A 
ATOM     90  C   UNL A   1      46.096  35.649  28.467  1.00  0.00     0.055 A 
ATOM     91  C   UNL A   1      46.528  34.891  30.709  1.00  0.00     0.041 A 
ATOM     92  F   UNL A   1      46.459  32.602  31.198  1.00  0.00    -0.206 F 
ATOM     93  C   UNL A   1      46.448  35.933  29.789  1.00  0.00     0.022 A 
BRANCH  90  94
ATOM     94  S   UNL A   1      46.184  36.945  27.202  1.00  0.00     0.124 S 
ATOM     95  O   UNL A   1      47.179  37.851  27.766  1.00  0.00    -0.237 OA
ATOM     96  O   UNL A   1      46.599  36.199  26.019  1.00  0.00    -0.237 OA
ATOM     97  O   UNL A   1      44.821  37.471  27.157  1.00  0.00    -0.744 OA
ENDBRANCH  90  94
ENDBRANCH  64  87
ENDBRANCH  38  39
ENDBRANCH  31  33
ENDBRANCH  30  31
ENDBRANCH  29  30
ENDBRANCH  28  29
ENDBRANCH  27  28
ENDBRANCH  26  27
ENDBRANCH   1  26
TORSDOF 25
ENDMDL
