MODEL 1
REMARK VINA RESULT:     -11.2      0.000      0.000
REMARK SMILES O=C(OCCOCCOCCOC(=O)c1ccc(F)cc1-c1ccc(F)c(Cl)c1)c1ccc(-c2c3nc(c(-c4cc(S(=O)(=O)[O-])ccc4F)c4ccc([nH]4)c(-c4cc(S(=O)(=O)[O-])ccc4F)c4nc(c(-c5cc(S(=O)(=O)[O-])ccc5F)c5ccc2[nH]5)C=C4)C=C3)cc1
REMARK SMILES IDX 7 1 6 2 5 3 4 4 3 5 2 6 1 7 30 8 31 9 92 10 32 11 91 12
REMARK SMILES IDX 33 13 34 14 35 15 85 16 36 17 90 18 84 19 86 20 37 21 89 22
REMARK SMILES IDX 83 23 82 24 38 26 70 27 50 28 69 29 51 30 54 31 68 32 87 33
REMARK SMILES IDX 52 34 53 35 67 37 88 38 55 39 39 40 40 41 48 42 41 43 47 44
REMARK SMILES IDX 49 45 46 46 42 47 43 48 44 49 45 50 71 51 72 52 80 53 73 54
REMARK SMILES IDX 79 55 81 56 78 57 74 58 75 59 76 60 77 61 56 62 57 63 65 64
REMARK SMILES IDX 58 65 64 66 66 67 63 68 59 69 60 70 61 71 62 72 8 73 9 74
REMARK SMILES IDX 10 75 11 76 12 77 13 78 14 79 15 80 16 81 21 82 17 83 20 84
REMARK SMILES IDX 18 85 19 86 22 87 23 88 29 89 24 90 27 91 25 92 28 93 26 94
REMARK H PARENT 86 25 54 36
REMARK Flexibility Score: inf
ROOT
ATOM      1  C   UNL A   1      30.629  29.302  23.442  1.00  0.00     0.188 C 
ENDROOT
BRANCH   1   2
ATOM      2  O   UNL A   1      31.053  29.354  24.798  1.00  0.00    -0.376 OA
BRANCH   2   3
ATOM      3  C   UNL A   1      31.158  30.645  25.381  1.00  0.00     0.202 C 
BRANCH   3   4
ATOM      4  C   UNL A   1      32.280  30.747  26.417  1.00  0.00     0.261 C 
BRANCH   4   5
ATOM      5  O   UNL A   1      32.336  32.062  26.998  1.00  0.00    -0.460 OA
BRANCH   5   6
ATOM      6  C   UNL A   1      33.329  32.660  27.698  1.00  0.00     0.338 C 
ATOM      7  O   UNL A   1      33.177  33.847  27.994  1.00  0.00    -0.246 OA
BRANCH   6   8
ATOM      8  C   UNL A   1      34.653  32.031  28.036  1.00  0.00     0.060 A 
ATOM      9  C   UNL A   1      34.885  30.691  28.344  1.00  0.00     0.016 A 
ATOM     10  C   UNL A   1      35.776  32.888  28.012  1.00  0.00     0.016 A 
ATOM     11  C   UNL A   1      36.156  30.232  28.689  1.00  0.00     0.010 A 
ATOM     12  C   UNL A   1      37.063  32.429  28.324  1.00  0.00     0.010 A 
ATOM     13  C   UNL A   1      37.242  31.104  28.721  1.00  0.00    -0.014 A 
BRANCH  13  14
ATOM     14  C   UNL A   1      38.467  30.645  29.413  1.00  0.00     0.031 A 
ATOM     15  C   UNL A   1      38.660  31.076  30.842  1.00  0.00     0.074 A 
ATOM     16  C   UNL A   1      39.269  29.722  28.851  1.00  0.00     0.049 A 
ATOM     17  N   UNL A   1      39.568  30.703  31.704  1.00  0.00    -0.248 NA
ATOM     18  C   UNL A   1      37.679  32.036  31.382  1.00  0.00     0.031 C 
ATOM     19  C   UNL A   1      39.102  29.170  27.505  1.00  0.00     0.029 A 
ATOM     20  N   UNL A   1      40.349  29.047  29.358  1.00  0.00    -0.354 N 
ATOM     21  C   UNL A   1      39.260  31.371  32.883  1.00  0.00     0.074 A 
ATOM     22  C   UNL A   1      38.107  32.201  32.622  1.00  0.00     0.031 C 
ATOM     23  C   UNL A   1      40.027  28.214  27.310  1.00  0.00     0.029 A 
ATOM     24  C   UNL A   1      40.872  28.111  28.496  1.00  0.00     0.049 A 
ATOM     25  H   UNL A   1      40.717  29.216  30.255  1.00  0.00     0.167 HD
ATOM     26  C   UNL A   1      39.873  31.287  34.086  1.00  0.00     0.034 A 
ATOM     27  C   UNL A   1      41.915  27.270  28.650  1.00  0.00     0.034 A 
ATOM     28  C   UNL A   1      41.022  30.464  34.332  1.00  0.00     0.049 A 
ATOM     29  C   UNL A   1      42.653  27.277  29.966  1.00  0.00     0.074 A 
ATOM     30  C   UNL A   1      41.768  30.346  35.490  1.00  0.00     0.029 A 
ATOM     31  N   UNL A   1      41.593  29.614  33.394  1.00  0.00    -0.354 N 
ATOM     32  N   UNL A   1      42.382  27.959  31.055  1.00  0.00    -0.248 NA
ATOM     33  C   UNL A   1      43.834  26.411  30.075  1.00  0.00     0.031 C 
ATOM     34  C   UNL A   1      42.822  29.462  35.237  1.00  0.00     0.029 A 
ATOM     35  C   UNL A   1      42.698  28.987  33.939  1.00  0.00     0.049 A 
ATOM     36  H   UNL A   1      41.261  29.479  32.478  1.00  0.00     0.167 HD
ATOM     37  C   UNL A   1      43.356  27.599  31.981  1.00  0.00     0.074 A 
ATOM     38  C   UNL A   1      44.212  26.629  31.328  1.00  0.00     0.031 C 
ATOM     39  C   UNL A   1      43.532  28.031  33.254  1.00  0.00     0.034 A 
BRANCH  26  40
ATOM     40  C   UNL A   1      39.338  32.156  35.188  1.00  0.00     0.023 A 
ATOM     41  C   UNL A   1      39.826  33.457  35.401  1.00  0.00     0.031 A 
ATOM     42  C   UNL A   1      38.360  31.657  36.065  1.00  0.00     0.131 A 
ATOM     43  C   UNL A   1      39.367  34.198  36.499  1.00  0.00     0.055 A 
ATOM     44  C   UNL A   1      37.866  32.423  37.121  1.00  0.00     0.041 A 
ATOM     45  F   UNL A   1      37.887  30.409  35.919  1.00  0.00    -0.206 F 
ATOM     46  C   UNL A   1      38.374  33.699  37.348  1.00  0.00     0.022 A 
BRANCH  43  47
ATOM     47  S   UNL A   1      40.138  35.800  36.857  1.00  0.00     0.124 S 
ATOM     48  O   UNL A   1      41.557  35.454  36.833  1.00  0.00    -0.237 OA
ATOM     49  O   UNL A   1      39.668  36.636  35.759  1.00  0.00    -0.237 OA
ATOM     50  O   UNL A   1      39.608  36.149  38.174  1.00  0.00    -0.744 OA
ENDBRANCH  43  47
ENDBRANCH  26  40
BRANCH  27  51
ATOM     51  C   UNL A   1      42.356  26.396  27.524  1.00  0.00     0.023 A 
ATOM     52  C   UNL A   1      42.081  25.019  27.505  1.00  0.00     0.031 A 
ATOM     53  C   UNL A   1      43.096  26.934  26.455  1.00  0.00     0.131 A 
ATOM     54  C   UNL A   1      42.565  24.225  26.451  1.00  0.00     0.055 A 
ATOM     55  C   UNL A   1      43.543  26.148  25.392  1.00  0.00     0.041 A 
ATOM     56  F   UNL A   1      43.384  28.245  26.422  1.00  0.00    -0.206 F 
ATOM     57  C   UNL A   1      43.285  24.782  25.390  1.00  0.00     0.022 A 
BRANCH  54  58
ATOM     58  S   UNL A   1      42.278  22.433  26.499  1.00  0.00     0.124 S 
ATOM     59  O   UNL A   1      42.517  22.132  27.906  1.00  0.00    -0.237 OA
ATOM     60  O   UNL A   1      40.895  22.338  26.046  1.00  0.00    -0.237 OA
ATOM     61  O   UNL A   1      43.272  21.904  25.568  1.00  0.00    -0.744 OA
ENDBRANCH  54  58
ENDBRANCH  27  51
BRANCH  39  62
ATOM     62  C   UNL A   1      44.681  27.454  34.028  1.00  0.00     0.023 A 
ATOM     63  C   UNL A   1      44.484  26.410  34.946  1.00  0.00     0.031 A 
ATOM     64  C   UNL A   1      45.993  27.893  33.780  1.00  0.00     0.131 A 
ATOM     65  C   UNL A   1      45.587  25.845  35.599  1.00  0.00     0.055 A 
ATOM     66  C   UNL A   1      47.090  27.302  34.405  1.00  0.00     0.041 A 
ATOM     67  F   UNL A   1      46.226  28.883  32.903  1.00  0.00    -0.206 F 
ATOM     68  C   UNL A   1      46.890  26.272  35.320  1.00  0.00     0.022 A 
BRANCH  65  69
ATOM     69  S   UNL A   1      45.302  24.537  36.821  1.00  0.00     0.124 S 
ATOM     70  O   UNL A   1      45.345  23.337  35.991  1.00  0.00    -0.237 OA
ATOM     71  O   UNL A   1      46.417  24.715  37.744  1.00  0.00    -0.237 OA
ATOM     72  O   UNL A   1      43.988  24.864  37.372  1.00  0.00    -0.744 OA
ENDBRANCH  65  69
ENDBRANCH  39  62
ENDBRANCH  13  14
ENDBRANCH   6   8
ENDBRANCH   5   6
ENDBRANCH   4   5
ENDBRANCH   3   4
ENDBRANCH   2   3
ENDBRANCH   1   2
BRANCH   1  73
ATOM     73  C   UNL A   1      30.326  27.917  22.859  1.00  0.00     0.188 C 
BRANCH  73  74
ATOM     74  O   UNL A   1      31.167  27.388  21.842  1.00  0.00    -0.376 OA
BRANCH  74  75
ATOM     75  C   UNL A   1      32.402  26.787  22.203  1.00  0.00     0.202 C 
BRANCH  75  76
ATOM     76  C   UNL A   1      32.426  25.267  22.349  1.00  0.00     0.261 C 
BRANCH  76  77
ATOM     77  O   UNL A   1      33.744  24.694  22.304  1.00  0.00    -0.460 OA
BRANCH  77  78
ATOM     78  C   UNL A   1      33.852  23.431  22.783  1.00  0.00     0.338 C 
ATOM     79  O   UNL A   1      33.122  22.487  22.544  1.00  0.00    -0.246 OA
BRANCH  78  80
ATOM     80  C   UNL A   1      34.963  23.358  23.756  1.00  0.00     0.068 A 
ATOM     81  C   UNL A   1      36.098  22.624  23.364  1.00  0.00     0.019 A 
ATOM     82  C   UNL A   1      34.952  24.088  24.965  1.00  0.00    -0.001 A 
ATOM     83  C   UNL A   1      37.249  22.643  24.148  1.00  0.00     0.040 A 
ATOM     84  C   UNL A   1      36.135  24.092  25.731  1.00  0.00     0.048 A 
ATOM     85  C   UNL A   1      37.262  23.391  25.316  1.00  0.00     0.123 A 
ATOM     86  F   UNL A   1      38.377  23.447  26.054  1.00  0.00    -0.207 F 
BRANCH  82  87
ATOM     87  C   UNL A   1      33.775  24.788  25.506  1.00  0.00    -0.016 A 
ATOM     88  C   UNL A   1      33.803  26.191  25.635  1.00  0.00     0.012 A 
ATOM     89  C   UNL A   1      32.592  24.114  25.845  1.00  0.00     0.032 A 
ATOM     90  C   UNL A   1      32.693  26.899  26.101  1.00  0.00     0.041 A 
ATOM     91  C   UNL A   1      31.479  24.824  26.308  1.00  0.00     0.077 A 
ATOM     92  C   UNL A   1      31.535  26.210  26.433  1.00  0.00     0.141 A 
ATOM     93  Cl  UNL A   1      30.037  23.972  26.707  1.00  0.00    -0.081 Cl
ATOM     94  F   UNL A   1      30.474  26.904  26.869  1.00  0.00    -0.205 F 
ENDBRANCH  82  87
ENDBRANCH  78  80
ENDBRANCH  77  78
ENDBRANCH  76  77
ENDBRANCH  75  76
ENDBRANCH  74  75
ENDBRANCH  73  74
ENDBRANCH   1  73
TORSDOF 21
ENDMDL
MODEL 2
REMARK VINA RESULT:     -10.9      1.373      2.516
REMARK SMILES O=C(OCCOCCOCCOC(=O)c1ccc(F)cc1-c1ccc(F)c(Cl)c1)c1ccc(-c2c3nc(c(-c4cc(S(=O)(=O)[O-])ccc4F)c4ccc([nH]4)c(-c4cc(S(=O)(=O)[O-])ccc4F)c4nc(c(-c5cc(S(=O)(=O)[O-])ccc5F)c5ccc2[nH]5)C=C4)C=C3)cc1
REMARK SMILES IDX 7 1 6 2 5 3 4 4 3 5 2 6 1 7 30 8 31 9 92 10 32 11 91 12
REMARK SMILES IDX 33 13 34 14 35 15 85 16 36 17 90 18 84 19 86 20 37 21 89 22
REMARK SMILES IDX 83 23 82 24 38 26 70 27 50 28 69 29 51 30 54 31 68 32 87 33
REMARK SMILES IDX 52 34 53 35 67 37 88 38 55 39 39 40 40 41 48 42 41 43 47 44
REMARK SMILES IDX 49 45 46 46 42 47 43 48 44 49 45 50 71 51 72 52 80 53 73 54
REMARK SMILES IDX 79 55 81 56 78 57 74 58 75 59 76 60 77 61 56 62 57 63 65 64
REMARK SMILES IDX 58 65 64 66 66 67 63 68 59 69 60 70 61 71 62 72 8 73 9 74
REMARK SMILES IDX 10 75 11 76 12 77 13 78 14 79 15 80 16 81 21 82 17 83 20 84
REMARK SMILES IDX 18 85 19 86 22 87 23 88 29 89 24 90 27 91 25 92 28 93 26 94
REMARK H PARENT 86 25 54 36
REMARK Flexibility Score: inf
ROOT
ATOM      1  C   UNL A   1      30.814  28.759  23.845  1.00  0.00     0.188 C 
ENDROOT
BRANCH   1   2
ATOM      2  O   UNL A   1      31.180  29.036  25.191  1.00  0.00    -0.376 OA
BRANCH   2   3
ATOM      3  C   UNL A   1      31.450  30.394  25.508  1.00  0.00     0.202 C 
BRANCH   3   4
ATOM      4  C   UNL A   1      32.537  30.557  26.573  1.00  0.00     0.261 C 
BRANCH   4   5
ATOM      5  O   UNL A   1      32.619  31.919  27.030  1.00  0.00    -0.460 OA
BRANCH   5   6
ATOM      6  C   UNL A   1      33.554  32.520  27.803  1.00  0.00     0.338 C 
ATOM      7  O   UNL A   1      33.357  33.694  28.120  1.00  0.00    -0.246 OA
BRANCH   6   8
ATOM      8  C   UNL A   1      34.871  31.912  28.203  1.00  0.00     0.060 A 
ATOM      9  C   UNL A   1      35.107  30.578  28.535  1.00  0.00     0.016 A 
ATOM     10  C   UNL A   1      35.983  32.783  28.216  1.00  0.00     0.016 A 
ATOM     11  C   UNL A   1      36.367  30.139  28.939  1.00  0.00     0.010 A 
ATOM     12  C   UNL A   1      37.261  32.344  28.588  1.00  0.00     0.010 A 
ATOM     13  C   UNL A   1      37.441  31.025  29.006  1.00  0.00    -0.014 A 
BRANCH  13  14
ATOM     14  C   UNL A   1      38.641  30.590  29.754  1.00  0.00     0.031 A 
ATOM     15  C   UNL A   1      38.792  31.078  31.170  1.00  0.00     0.074 A 
ATOM     16  C   UNL A   1      39.454  29.641  29.255  1.00  0.00     0.049 A 
ATOM     17  N   UNL A   1      39.671  30.737  32.073  1.00  0.00    -0.248 NA
ATOM     18  C   UNL A   1      37.801  32.064  31.639  1.00  0.00     0.031 C 
ATOM     19  C   UNL A   1      39.325  29.035  27.929  1.00  0.00     0.029 A 
ATOM     20  N   UNL A   1      40.514  28.982  29.822  1.00  0.00    -0.354 N 
ATOM     21  C   UNL A   1      39.331  31.455  33.214  1.00  0.00     0.074 A 
ATOM     22  C   UNL A   1      38.192  32.278  32.884  1.00  0.00     0.031 C 
ATOM     23  C   UNL A   1      40.250  28.067  27.801  1.00  0.00     0.029 A 
ATOM     24  C   UNL A   1      41.058  28.009  29.016  1.00  0.00     0.049 A 
ATOM     25  H   UNL A   1      40.855  29.186  30.723  1.00  0.00     0.167 HD
ATOM     26  C   UNL A   1      39.907  31.417  34.438  1.00  0.00     0.034 A 
ATOM     27  C   UNL A   1      42.091  27.170  29.236  1.00  0.00     0.034 A 
ATOM     28  C   UNL A   1      41.043  30.599  34.752  1.00  0.00     0.049 A 
ATOM     29  C   UNL A   1      42.788  27.228  30.573  1.00  0.00     0.074 A 
ATOM     30  C   UNL A   1      41.752  30.526  35.937  1.00  0.00     0.029 A 
ATOM     31  N   UNL A   1      41.638  29.709  33.869  1.00  0.00    -0.354 N 
ATOM     32  N   UNL A   1      42.488  27.956  31.625  1.00  0.00    -0.248 NA
ATOM     33  C   UNL A   1      43.960  26.362  30.754  1.00  0.00     0.031 C 
ATOM     34  C   UNL A   1      42.808  29.627  35.753  1.00  0.00     0.029 A 
ATOM     35  C   UNL A   1      42.721  29.100  34.473  1.00  0.00     0.049 A 
ATOM     36  H   UNL A   1      41.333  29.538  32.949  1.00  0.00     0.167 HD
ATOM     37  C   UNL A   1      43.431  27.630  32.594  1.00  0.00     0.074 A 
ATOM     38  C   UNL A   1      44.301  26.629  32.008  1.00  0.00     0.031 C 
ATOM     39  C   UNL A   1      43.570  28.112  33.853  1.00  0.00     0.034 A 
BRANCH  26  40
ATOM     40  C   UNL A   1      39.343  32.333  35.486  1.00  0.00     0.023 A 
ATOM     41  C   UNL A   1      39.809  33.650  35.639  1.00  0.00     0.031 A 
ATOM     42  C   UNL A   1      38.360  31.864  36.374  1.00  0.00     0.131 A 
ATOM     43  C   UNL A   1      39.323  34.440  36.691  1.00  0.00     0.055 A 
ATOM     44  C   UNL A   1      37.840  32.676  37.383  1.00  0.00     0.041 A 
ATOM     45  F   UNL A   1      37.908  30.604  36.287  1.00  0.00    -0.206 F 
ATOM     46  C   UNL A   1      38.326  33.970  37.550  1.00  0.00     0.022 A 
BRANCH  43  47
ATOM     47  S   UNL A   1      40.065  36.070  36.976  1.00  0.00     0.124 S 
ATOM     48  O   UNL A   1      39.820  36.731  35.697  1.00  0.00    -0.237 OA
ATOM     49  O   UNL A   1      39.303  36.577  38.111  1.00  0.00    -0.237 OA
ATOM     50  O   UNL A   1      41.467  35.764  37.256  1.00  0.00    -0.744 OA
ENDBRANCH  43  47
ENDBRANCH  26  40
BRANCH  27  51
ATOM     51  C   UNL A   1      42.561  26.249  28.161  1.00  0.00     0.023 A 
ATOM     52  C   UNL A   1      42.036  24.955  28.014  1.00  0.00     0.031 A 
ATOM     53  C   UNL A   1      43.579  26.650  27.277  1.00  0.00     0.131 A 
ATOM     54  C   UNL A   1      42.549  24.101  27.022  1.00  0.00     0.055 A 
ATOM     55  C   UNL A   1      44.060  25.812  26.270  1.00  0.00     0.041 A 
ATOM     56  F   UNL A   1      44.114  27.877  27.371  1.00  0.00    -0.206 F 
ATOM     57  C   UNL A   1      43.549  24.525  26.143  1.00  0.00     0.022 A 
BRANCH  54  58
ATOM     58  S   UNL A   1      41.920  22.402  26.916  1.00  0.00     0.124 S 
ATOM     59  O   UNL A   1      42.876  21.678  27.746  1.00  0.00    -0.237 OA
ATOM     60  O   UNL A   1      40.573  22.545  27.459  1.00  0.00    -0.237 OA
ATOM     61  O   UNL A   1      41.982  22.105  25.487  1.00  0.00    -0.744 OA
ENDBRANCH  54  58
ENDBRANCH  27  51
BRANCH  39  62
ATOM     62  C   UNL A   1      44.692  27.562  34.686  1.00  0.00     0.023 A 
ATOM     63  C   UNL A   1      44.521  26.398  35.451  1.00  0.00     0.031 A 
ATOM     64  C   UNL A   1      45.963  28.160  34.643  1.00  0.00     0.131 A 
ATOM     65  C   UNL A   1      45.609  25.870  36.159  1.00  0.00     0.055 A 
ATOM     66  C   UNL A   1      47.050  27.610  35.320  1.00  0.00     0.041 A 
ATOM     67  F   UNL A   1      46.171  29.269  33.916  1.00  0.00    -0.206 F 
ATOM     68  C   UNL A   1      46.876  26.458  36.084  1.00  0.00     0.022 A 
BRANCH  65  69
ATOM     69  S   UNL A   1      45.350  24.398  37.184  1.00  0.00     0.124 S 
ATOM     70  O   UNL A   1      44.597  23.533  36.282  1.00  0.00    -0.237 OA
ATOM     71  O   UNL A   1      46.714  23.974  37.483  1.00  0.00    -0.237 OA
ATOM     72  O   UNL A   1      44.597  24.906  38.330  1.00  0.00    -0.744 OA
ENDBRANCH  65  69
ENDBRANCH  39  62
ENDBRANCH  13  14
ENDBRANCH   6   8
ENDBRANCH   5   6
ENDBRANCH   4   5
ENDBRANCH   3   4
ENDBRANCH   2   3
ENDBRANCH   1   2
BRANCH   1  73
ATOM     73  C   UNL A   1      30.993  27.316  23.357  1.00  0.00     0.188 C 
BRANCH  73  74
ATOM     74  O   UNL A   1      31.725  27.068  22.164  1.00  0.00    -0.376 OA
BRANCH  74  75
ATOM     75  C   UNL A   1      33.132  26.886  22.235  1.00  0.00     0.202 C 
BRANCH  75  76
ATOM     76  C   UNL A   1      33.652  25.811  23.188  1.00  0.00     0.261 C 
BRANCH  76  77
ATOM     77  O   UNL A   1      34.139  24.629  22.528  1.00  0.00    -0.460 OA
BRANCH  77  78
ATOM     78  C   UNL A   1      33.343  23.537  22.616  1.00  0.00     0.338 C 
ATOM     79  O   UNL A   1      33.076  22.745  21.730  1.00  0.00    -0.246 OA
BRANCH  78  80
ATOM     80  C   UNL A   1      32.730  23.472  23.959  1.00  0.00     0.068 A 
ATOM     81  C   UNL A   1      31.387  23.883  24.061  1.00  0.00     0.019 A 
ATOM     82  C   UNL A   1      33.402  22.909  25.066  1.00  0.00    -0.001 A 
ATOM     83  C   UNL A   1      30.686  23.698  25.250  1.00  0.00     0.040 A 
ATOM     84  C   UNL A   1      32.662  22.729  26.252  1.00  0.00     0.048 A 
ATOM     85  C   UNL A   1      31.326  23.108  26.330  1.00  0.00     0.123 A 
ATOM     86  F   UNL A   1      30.648  22.889  27.463  1.00  0.00    -0.207 F 
BRANCH  82  87
ATOM     87  C   UNL A   1      34.832  22.557  25.083  1.00  0.00    -0.016 A 
ATOM     88  C   UNL A   1      35.791  23.566  25.297  1.00  0.00     0.012 A 
ATOM     89  C   UNL A   1      35.279  21.234  24.954  1.00  0.00     0.032 A 
ATOM     90  C   UNL A   1      37.153  23.270  25.366  1.00  0.00     0.041 A 
ATOM     91  C   UNL A   1      36.644  20.936  25.027  1.00  0.00     0.077 A 
ATOM     92  C   UNL A   1      37.573  21.954  25.231  1.00  0.00     0.141 A 
ATOM     93  Cl  UNL A   1      37.164  19.301  24.875  1.00  0.00    -0.081 Cl
ATOM     94  F   UNL A   1      38.883  21.682  25.309  1.00  0.00    -0.205 F 
ENDBRANCH  82  87
ENDBRANCH  78  80
ENDBRANCH  77  78
ENDBRANCH  76  77
ENDBRANCH  75  76
ENDBRANCH  74  75
ENDBRANCH  73  74
ENDBRANCH   1  73
TORSDOF 21
ENDMDL
MODEL 3
REMARK VINA RESULT:     -10.8      2.091      3.127
REMARK SMILES O=C(OCCOCCOCCOC(=O)c1ccc(F)cc1-c1ccc(F)c(Cl)c1)c1ccc(-c2c3nc(c(-c4cc(S(=O)(=O)[O-])ccc4F)c4ccc([nH]4)c(-c4cc(S(=O)(=O)[O-])ccc4F)c4nc(c(-c5cc(S(=O)(=O)[O-])ccc5F)c5ccc2[nH]5)C=C4)C=C3)cc1
REMARK SMILES IDX 7 1 6 2 5 3 4 4 3 5 2 6 1 7 30 8 31 9 92 10 32 11 91 12
REMARK SMILES IDX 33 13 34 14 35 15 85 16 36 17 90 18 84 19 86 20 37 21 89 22
REMARK SMILES IDX 83 23 82 24 38 26 70 27 50 28 69 29 51 30 54 31 68 32 87 33
REMARK SMILES IDX 52 34 53 35 67 37 88 38 55 39 39 40 40 41 48 42 41 43 47 44
REMARK SMILES IDX 49 45 46 46 42 47 43 48 44 49 45 50 71 51 72 52 80 53 73 54
REMARK SMILES IDX 79 55 81 56 78 57 74 58 75 59 76 60 77 61 56 62 57 63 65 64
REMARK SMILES IDX 58 65 64 66 66 67 63 68 59 69 60 70 61 71 62 72 8 73 9 74
REMARK SMILES IDX 10 75 11 76 12 77 13 78 14 79 15 80 16 81 21 82 17 83 20 84
REMARK SMILES IDX 18 85 19 86 22 87 23 88 29 89 24 90 27 91 25 92 28 93 26 94
REMARK H PARENT 86 25 54 36
REMARK Flexibility Score: inf
ROOT
ATOM      1  C   UNL A   1      33.321  28.345  24.287  1.00  0.00     0.188 C 
ENDROOT
BRANCH   1   2
ATOM      2  O   UNL A   1      32.300  29.301  24.545  1.00  0.00    -0.376 OA
BRANCH   2   3
ATOM      3  C   UNL A   1      31.873  29.425  25.894  1.00  0.00     0.202 C 
BRANCH   3   4
ATOM      4  C   UNL A   1      31.855  30.874  26.387  1.00  0.00     0.261 C 
BRANCH   4   5
ATOM      5  O   UNL A   1      32.600  31.018  27.609  1.00  0.00    -0.460 OA
BRANCH   5   6
ATOM      6  C   UNL A   1      33.703  31.760  27.871  1.00  0.00     0.338 C 
ATOM      7  O   UNL A   1      33.594  32.984  27.785  1.00  0.00    -0.246 OA
BRANCH   6   8
ATOM      8  C   UNL A   1      35.077  31.208  28.137  1.00  0.00     0.060 A 
ATOM      9  C   UNL A   1      35.415  29.868  28.326  1.00  0.00     0.016 A 
ATOM     10  C   UNL A   1      36.132  32.148  28.172  1.00  0.00     0.016 A 
ATOM     11  C   UNL A   1      36.723  29.481  28.614  1.00  0.00     0.010 A 
ATOM     12  C   UNL A   1      37.455  31.765  28.427  1.00  0.00     0.010 A 
ATOM     13  C   UNL A   1      37.742  30.428  28.706  1.00  0.00    -0.014 A 
BRANCH  13  14
ATOM     14  C   UNL A   1      39.011  30.008  29.341  1.00  0.00     0.031 A 
ATOM     15  C   UNL A   1      39.305  30.533  30.720  1.00  0.00     0.074 A 
ATOM     16  C   UNL A   1      39.768  29.042  28.789  1.00  0.00     0.049 A 
ATOM     17  N   UNL A   1      40.270  30.213  31.539  1.00  0.00    -0.248 NA
ATOM     18  C   UNL A   1      38.368  31.536  31.260  1.00  0.00     0.031 C 
ATOM     19  C   UNL A   1      39.505  28.402  27.499  1.00  0.00     0.029 A 
ATOM     20  N   UNL A   1      40.879  28.395  29.263  1.00  0.00    -0.354 N 
ATOM     21  C   UNL A   1      40.048  30.963  32.689  1.00  0.00     0.074 A 
ATOM     22  C   UNL A   1      38.882  31.782  32.453  1.00  0.00     0.031 C 
ATOM     23  C   UNL A   1      40.411  27.427  27.305  1.00  0.00     0.029 A 
ATOM     24  C   UNL A   1      41.337  27.398  28.433  1.00  0.00     0.049 A 
ATOM     25  H   UNL A   1      41.310  28.622  30.119  1.00  0.00     0.167 HD
ATOM     26  C   UNL A   1      40.745  30.956  33.849  1.00  0.00     0.034 A 
ATOM     27  C   UNL A   1      42.386  26.562  28.571  1.00  0.00     0.034 A 
ATOM     28  C   UNL A   1      41.906  30.142  34.069  1.00  0.00     0.049 A 
ATOM     29  C   UNL A   1      43.215  26.652  29.828  1.00  0.00     0.074 A 
ATOM     30  C   UNL A   1      42.730  30.098  35.177  1.00  0.00     0.029 A 
ATOM     31  N   UNL A   1      42.407  29.226  33.154  1.00  0.00    -0.354 N 
ATOM     32  N   UNL A   1      43.024  27.410  30.885  1.00  0.00    -0.248 NA
ATOM     33  C   UNL A   1      44.398  25.787  29.913  1.00  0.00     0.031 C 
ATOM     34  C   UNL A   1      43.761  29.190  34.912  1.00  0.00     0.029 A 
ATOM     35  C   UNL A   1      43.545  28.629  33.662  1.00  0.00     0.049 A 
ATOM     36  H   UNL A   1      42.010  29.031  32.275  1.00  0.00     0.167 HD
ATOM     37  C   UNL A   1      44.059  27.106  31.762  1.00  0.00     0.074 A 
ATOM     38  C   UNL A   1      44.864  26.086  31.119  1.00  0.00     0.031 C 
ATOM     39  C   UNL A   1      44.325  27.622  32.988  1.00  0.00     0.034 A 
BRANCH  26  40
ATOM     40  C   UNL A   1      40.291  31.902  34.923  1.00  0.00     0.023 A 
ATOM     41  C   UNL A   1      39.395  31.499  35.928  1.00  0.00     0.031 A 
ATOM     42  C   UNL A   1      40.726  33.239  34.912  1.00  0.00     0.131 A 
ATOM     43  C   UNL A   1      38.924  32.440  36.855  1.00  0.00     0.055 A 
ATOM     44  C   UNL A   1      40.297  34.155  35.873  1.00  0.00     0.041 A 
ATOM     45  F   UNL A   1      41.557  33.677  33.953  1.00  0.00    -0.206 F 
ATOM     46  C   UNL A   1      39.385  33.760  36.847  1.00  0.00     0.022 A 
BRANCH  43  47
ATOM     47  S   UNL A   1      37.635  31.941  38.029  1.00  0.00     0.124 S 
ATOM     48  O   UNL A   1      37.443  30.537  37.674  1.00  0.00    -0.237 OA
ATOM     49  O   UNL A   1      38.264  32.189  39.321  1.00  0.00    -0.237 OA
ATOM     50  O   UNL A   1      36.515  32.821  37.704  1.00  0.00    -0.744 OA
ENDBRANCH  43  47
ENDBRANCH  26  40
BRANCH  27  51
ATOM     51  C   UNL A   1      42.744  25.610  27.479  1.00  0.00     0.023 A 
ATOM     52  C   UNL A   1      42.184  24.324  27.406  1.00  0.00     0.031 A 
ATOM     53  C   UNL A   1      43.690  25.972  26.502  1.00  0.00     0.131 A 
ATOM     54  C   UNL A   1      42.593  23.441  26.391  1.00  0.00     0.055 A 
ATOM     55  C   UNL A   1      44.065  25.104  25.476  1.00  0.00     0.041 A 
ATOM     56  F   UNL A   1      44.254  27.189  26.524  1.00  0.00    -0.206 F 
ATOM     57  C   UNL A   1      43.521  23.826  25.421  1.00  0.00     0.022 A 
BRANCH  54  58
ATOM     58  S   UNL A   1      41.924  21.753  26.375  1.00  0.00     0.124 S 
ATOM     59  O   UNL A   1      41.969  21.402  27.790  1.00  0.00    -0.237 OA
ATOM     60  O   UNL A   1      40.597  21.961  25.805  1.00  0.00    -0.237 OA
ATOM     61  O   UNL A   1      42.858  21.026  25.520  1.00  0.00    -0.744 OA
ENDBRANCH  54  58
ENDBRANCH  27  51
BRANCH  39  62
ATOM     62  C   UNL A   1      45.525  27.090  33.717  1.00  0.00     0.023 A 
ATOM     63  C   UNL A   1      45.422  25.972  34.560  1.00  0.00     0.031 A 
ATOM     64  C   UNL A   1      46.794  27.653  33.498  1.00  0.00     0.131 A 
ATOM     65  C   UNL A   1      46.573  25.456  35.169  1.00  0.00     0.055 A 
ATOM     66  C   UNL A   1      47.941  27.114  34.077  1.00  0.00     0.041 A 
ATOM     67  F   UNL A   1      46.936  28.718  32.692  1.00  0.00    -0.206 F 
ATOM     68  C   UNL A   1      47.834  26.009  34.918  1.00  0.00     0.022 A 
BRANCH  65  69
ATOM     69  S   UNL A   1      46.407  24.047  36.296  1.00  0.00     0.124 S 
ATOM     70  O   UNL A   1      45.751  23.058  35.446  1.00  0.00    -0.237 OA
ATOM     71  O   UNL A   1      47.792  23.761  36.655  1.00  0.00    -0.237 OA
ATOM     72  O   UNL A   1      45.585  24.574  37.384  1.00  0.00    -0.744 OA
ENDBRANCH  65  69
ENDBRANCH  39  62
ENDBRANCH  13  14
ENDBRANCH   6   8
ENDBRANCH   5   6
ENDBRANCH   4   5
ENDBRANCH   3   4
ENDBRANCH   2   3
ENDBRANCH   1   2
BRANCH   1  73
ATOM     73  C   UNL A   1      33.445  27.828  22.848  1.00  0.00     0.188 C 
BRANCH  73  74
ATOM     74  O   UNL A   1      32.267  27.558  22.100  1.00  0.00    -0.376 OA
BRANCH  74  75
ATOM     75  C   UNL A   1      31.826  26.215  21.955  1.00  0.00     0.202 C 
BRANCH  75  76
ATOM     76  C   UNL A   1      32.886  25.159  21.648  1.00  0.00     0.261 C 
BRANCH  76  77
ATOM     77  O   UNL A   1      32.854  24.023  22.529  1.00  0.00    -0.460 OA
BRANCH  77  78
ATOM     78  C   UNL A   1      33.422  24.206  23.745  1.00  0.00     0.338 C 
ATOM     79  O   UNL A   1      34.592  24.442  23.984  1.00  0.00    -0.246 OA
BRANCH  78  80
ATOM     80  C   UNL A   1      32.419  23.978  24.806  1.00  0.00     0.068 A 
ATOM     81  C   UNL A   1      31.715  25.109  25.263  1.00  0.00     0.019 A 
ATOM     82  C   UNL A   1      32.081  22.683  25.255  1.00  0.00    -0.001 A 
ATOM     83  C   UNL A   1      30.642  24.960  26.138  1.00  0.00     0.040 A 
ATOM     84  C   UNL A   1      30.985  22.566  26.134  1.00  0.00     0.048 A 
ATOM     85  C   UNL A   1      30.277  23.687  26.551  1.00  0.00     0.123 A 
ATOM     86  F   UNL A   1      29.221  23.531  27.359  1.00  0.00    -0.207 F 
BRANCH  82  87
ATOM     87  C   UNL A   1      32.832  21.461  24.919  1.00  0.00    -0.016 A 
ATOM     88  C   UNL A   1      34.141  21.295  25.412  1.00  0.00     0.012 A 
ATOM     89  C   UNL A   1      32.267  20.418  24.170  1.00  0.00     0.032 A 
ATOM     90  C   UNL A   1      34.870  20.132  25.155  1.00  0.00     0.041 A 
ATOM     91  C   UNL A   1      32.997  19.251  23.916  1.00  0.00     0.077 A 
ATOM     92  C   UNL A   1      34.293  19.115  24.409  1.00  0.00     0.141 A 
ATOM     93  Cl  UNL A   1      32.276  17.983  23.002  1.00  0.00    -0.081 Cl
ATOM     94  F   UNL A   1      35.001  18.000  24.178  1.00  0.00    -0.205 F 
ENDBRANCH  82  87
ENDBRANCH  78  80
ENDBRANCH  77  78
ENDBRANCH  76  77
ENDBRANCH  75  76
ENDBRANCH  74  75
ENDBRANCH  73  74
ENDBRANCH   1  73
TORSDOF 21
ENDMDL
