MODEL 1
REMARK VINA RESULT:     -10.2      0.000      0.000
REMARK SMILES O=C(/C=C/c1ccccc1Oc1cccc(Cl)c1)OCCOCCOCCOC(=O)c1ccc(-c2c3nc(c(-c4cc(S(=O)(=O)[O-])ccc4F)c4ccc([nH]4)c(-c4cc(S(=O)(=O)[O-])ccc4F)c4nc(c(-c5cc(S(=O)(=O)[O-])ccc5F)c5ccc2[nH]5)C=C4)C=C3)cc1
REMARK SMILES IDX 23 1 22 2 21 3 20 4 19 5 2 6 1 7 3 8 4 9 5 10 6 11 10 12
REMARK SMILES IDX 7 13 9 14 8 15 11 16 12 17 13 18 18 19 14 20 16 21 15 22
REMARK SMILES IDX 17 23 24 24 25 25 26 26 27 27 28 28 29 29 30 30 31 31 32 32
REMARK SMILES IDX 93 33 33 34 92 35 34 36 35 37 36 38 86 39 37 40 91 41 85 42
REMARK SMILES IDX 87 43 38 44 90 45 84 46 83 47 39 49 71 50 51 51 70 52 52 53
REMARK SMILES IDX 55 54 69 55 88 56 53 57 54 58 68 60 89 61 56 62 40 63 41 64
REMARK SMILES IDX 49 65 42 66 48 67 50 68 47 69 43 70 44 71 45 72 46 73 72 74
REMARK SMILES IDX 73 75 81 76 74 77 80 78 82 79 79 80 75 81 76 82 77 83 78 84
REMARK SMILES IDX 57 85 58 86 66 87 59 88 65 89 67 90 64 91 60 92 61 93 62 94
REMARK SMILES IDX 63 95
REMARK H PARENT 87 48 55 59
REMARK Flexibility Score: inf
ROOT
ATOM      1  C   UNL A   1      44.686  40.559  26.395  1.00  0.00     0.188 C 
ENDROOT
BRANCH   1   2
ATOM      2  O   UNL A   1      44.311  41.130  25.147  1.00  0.00    -0.376 OA
BRANCH   2   3
ATOM      3  C   UNL A   1      44.989  42.347  24.839  1.00  0.00     0.202 C 
BRANCH   3   4
ATOM      4  C   UNL A   1      44.408  43.019  23.596  1.00  0.00     0.261 C 
BRANCH   4   5
ATOM      5  O   UNL A   1      43.010  42.813  23.294  1.00  0.00    -0.460 OA
BRANCH   5   6
ATOM      6  C   UNL A   1      42.455  42.578  22.089  1.00  0.00     0.330 C 
ATOM      7  O   UNL A   1      41.891  41.514  21.856  1.00  0.00    -0.247 OA
BRANCH   6   8
ATOM      8  C   UNL A   1      42.576  43.580  21.023  1.00  0.00     0.094 C 
ATOM      9  C   UNL A   1      42.370  43.343  19.721  1.00  0.00     0.019 C 
BRANCH   9  10
ATOM     10  C   UNL A   1      42.614  44.394  18.725  1.00  0.00     0.017 A 
ATOM     11  C   UNL A   1      41.486  45.149  18.343  1.00  0.00     0.012 A 
ATOM     12  C   UNL A   1      43.858  44.681  18.129  1.00  0.00     0.134 A 
ATOM     13  C   UNL A   1      41.579  46.156  17.382  1.00  0.00     0.001 A 
ATOM     14  C   UNL A   1      43.933  45.699  17.162  1.00  0.00     0.048 A 
ATOM     15  C   UNL A   1      42.805  46.432  16.791  1.00  0.00     0.004 A 
BRANCH  12  16
ATOM     16  O   UNL A   1      45.062  44.018  18.284  1.00  0.00    -0.457 OA
BRANCH  16  17
ATOM     17  C   UNL A   1      46.022  44.530  19.113  1.00  0.00     0.128 A 
ATOM     18  C   UNL A   1      47.108  43.752  19.515  1.00  0.00     0.047 A 
ATOM     19  C   UNL A   1      45.846  45.821  19.615  1.00  0.00     0.067 A 
ATOM     20  C   UNL A   1      48.067  44.300  20.369  1.00  0.00     0.005 A 
ATOM     21  C   UNL A   1      46.819  46.370  20.442  1.00  0.00     0.044 A 
ATOM     22  C   UNL A   1      47.929  45.616  20.823  1.00  0.00     0.021 A 
ATOM     23  Cl  UNL A   1      46.675  48.007  20.950  1.00  0.00    -0.084 Cl
ENDBRANCH  16  17
ENDBRANCH  12  16
ENDBRANCH   9  10
ENDBRANCH   6   8
ENDBRANCH   5   6
ENDBRANCH   4   5
ENDBRANCH   3   4
ENDBRANCH   2   3
ENDBRANCH   1   2
BRANCH   1  24
ATOM     24  C   UNL A   1      44.320  41.409  27.620  1.00  0.00     0.188 C 
BRANCH  24  25
ATOM     25  O   UNL A   1      43.453  40.869  28.606  1.00  0.00    -0.376 OA
BRANCH  25  26
ATOM     26  C   UNL A   1      42.837  39.614  28.367  1.00  0.00     0.202 C 
BRANCH  26  27
ATOM     27  C   UNL A   1      43.340  38.410  29.166  1.00  0.00     0.261 C 
BRANCH  27  28
ATOM     28  O   UNL A   1      44.462  37.729  28.578  1.00  0.00    -0.460 OA
BRANCH  28  29
ATOM     29  C   UNL A   1      45.198  37.014  29.468  1.00  0.00     0.338 C 
ATOM     30  O   UNL A   1      45.735  37.432  30.476  1.00  0.00    -0.246 OA
BRANCH  29  31
ATOM     31  C   UNL A   1      45.257  35.591  29.094  1.00  0.00     0.060 A 
ATOM     32  C   UNL A   1      44.661  35.191  27.891  1.00  0.00     0.016 A 
ATOM     33  C   UNL A   1      45.662  34.645  30.037  1.00  0.00     0.016 A 
ATOM     34  C   UNL A   1      44.400  33.838  27.659  1.00  0.00     0.010 A 
ATOM     35  C   UNL A   1      45.391  33.292  29.806  1.00  0.00     0.010 A 
ATOM     36  C   UNL A   1      44.710  32.889  28.642  1.00  0.00    -0.014 A 
BRANCH  36  37
ATOM     37  C   UNL A   1      44.130  31.522  28.586  1.00  0.00     0.031 A 
ATOM     38  C   UNL A   1      44.857  30.466  27.792  1.00  0.00     0.074 A 
ATOM     39  C   UNL A   1      42.968  31.223  29.190  1.00  0.00     0.049 A 
ATOM     40  N   UNL A   1      44.466  29.268  27.442  1.00  0.00    -0.248 NA
ATOM     41  C   UNL A   1      46.203  30.824  27.322  1.00  0.00     0.031 C 
ATOM     42  C   UNL A   1      42.196  32.131  30.035  1.00  0.00     0.029 A 
ATOM     43  N   UNL A   1      42.223  30.071  29.158  1.00  0.00    -0.354 N 
ATOM     44  C   UNL A   1      45.509  28.733  26.691  1.00  0.00     0.074 A 
ATOM     45  C   UNL A   1      46.538  29.751  26.623  1.00  0.00     0.031 C 
ATOM     46  C   UNL A   1      41.067  31.509  30.417  1.00  0.00     0.029 A 
ATOM     47  C   UNL A   1      41.014  30.181  29.803  1.00  0.00     0.049 A 
ATOM     48  H   UNL A   1      42.525  29.244  28.716  1.00  0.00     0.167 HD
ATOM     49  C   UNL A   1      45.600  27.511  26.108  1.00  0.00     0.034 A 
ATOM     50  C   UNL A   1      39.968  29.332  29.850  1.00  0.00     0.034 A 
ATOM     51  C   UNL A   1      44.564  26.510  26.170  1.00  0.00     0.049 A 
ATOM     52  C   UNL A   1      40.046  28.011  29.121  1.00  0.00     0.074 A 
ATOM     53  C   UNL A   1      44.553  25.242  25.617  1.00  0.00     0.029 A 
ATOM     54  N   UNL A   1      43.344  26.670  26.816  1.00  0.00    -0.354 N 
ATOM     55  N   UNL A   1      41.022  27.525  28.390  1.00  0.00    -0.248 NA
ATOM     56  C   UNL A   1      38.876  27.126  29.221  1.00  0.00     0.031 C 
ATOM     57  C   UNL A   1      43.305  24.660  25.874  1.00  0.00     0.029 A 
ATOM     58  C   UNL A   1      42.564  25.537  26.650  1.00  0.00     0.049 A 
ATOM     59  H   UNL A   1      43.074  27.472  27.318  1.00  0.00     0.167 HD
ATOM     60  C   UNL A   1      40.596  26.266  27.971  1.00  0.00     0.074 A 
ATOM     61  C   UNL A   1      39.275  26.068  28.528  1.00  0.00     0.031 C 
ATOM     62  C   UNL A   1      41.244  25.352  27.205  1.00  0.00     0.034 A 
BRANCH  49  63
ATOM     63  C   UNL A   1      46.841  27.231  25.294  1.00  0.00     0.023 A 
ATOM     64  C   UNL A   1      47.029  27.782  24.015  1.00  0.00     0.031 A 
ATOM     65  C   UNL A   1      47.823  26.351  25.783  1.00  0.00     0.131 A 
ATOM     66  C   UNL A   1      48.126  27.383  23.235  1.00  0.00     0.055 A 
ATOM     67  C   UNL A   1      48.955  26.021  25.035  1.00  0.00     0.041 A 
ATOM     68  F   UNL A   1      47.687  25.777  26.988  1.00  0.00    -0.206 F 
ATOM     69  C   UNL A   1      49.101  26.523  23.746  1.00  0.00     0.022 A 
BRANCH  66  70
ATOM     70  S   UNL A   1      48.171  27.872  21.489  1.00  0.00     0.124 S 
ATOM     71  O   UNL A   1      49.222  28.886  21.494  1.00  0.00    -0.237 OA
ATOM     72  O   UNL A   1      48.495  26.618  20.821  1.00  0.00    -0.237 OA
ATOM     73  O   UNL A   1      46.824  28.382  21.242  1.00  0.00    -0.744 OA
ENDBRANCH  66  70
ENDBRANCH  49  63
BRANCH  50  74
ATOM     74  C   UNL A   1      38.719  29.729  30.557  1.00  0.00     0.023 A 
ATOM     75  C   UNL A   1      37.761  30.545  29.937  1.00  0.00     0.031 A 
ATOM     76  C   UNL A   1      38.487  29.323  31.885  1.00  0.00     0.131 A 
ATOM     77  C   UNL A   1      36.630  30.960  30.657  1.00  0.00     0.055 A 
ATOM     78  C   UNL A   1      37.340  29.703  32.580  1.00  0.00     0.041 A 
ATOM     79  F   UNL A   1      39.373  28.539  32.519  1.00  0.00    -0.206 F 
ATOM     80  C   UNL A   1      36.407  30.534  31.969  1.00  0.00     0.022 A 
BRANCH  77  81
ATOM     81  S   UNL A   1      35.474  32.114  29.870  1.00  0.00     0.124 S 
ATOM     82  O   UNL A   1      36.360  33.211  29.496  1.00  0.00    -0.237 OA
ATOM     83  O   UNL A   1      34.945  31.313  28.771  1.00  0.00    -0.237 OA
ATOM     84  O   UNL A   1      34.518  32.417  30.934  1.00  0.00    -0.744 OA
ENDBRANCH  77  81
ENDBRANCH  50  74
BRANCH  62  85
ATOM     85  C   UNL A   1      40.561  24.025  26.975  1.00  0.00     0.023 A 
ATOM     86  C   UNL A   1      39.364  23.918  26.246  1.00  0.00     0.031 A 
ATOM     87  C   UNL A   1      41.135  22.846  27.484  1.00  0.00     0.131 A 
ATOM     88  C   UNL A   1      38.761  22.660  26.075  1.00  0.00     0.055 A 
ATOM     89  C   UNL A   1      40.556  21.595  27.272  1.00  0.00     0.041 A 
ATOM     90  F   UNL A   1      42.278  22.893  28.188  1.00  0.00    -0.206 F 
ATOM     91  C   UNL A   1      39.358  21.498  26.571  1.00  0.00     0.022 A 
BRANCH  88  92
ATOM     92  S   UNL A   1      37.152  22.564  25.240  1.00  0.00     0.124 S 
ATOM     93  O   UNL A   1      36.746  23.965  25.204  1.00  0.00    -0.237 OA
ATOM     94  O   UNL A   1      37.502  21.968  23.955  1.00  0.00    -0.237 OA
ATOM     95  O   UNL A   1      36.358  21.711  26.121  1.00  0.00    -0.744 OA
ENDBRANCH  88  92
ENDBRANCH  62  85
ENDBRANCH  36  37
ENDBRANCH  29  31
ENDBRANCH  28  29
ENDBRANCH  27  28
ENDBRANCH  26  27
ENDBRANCH  25  26
ENDBRANCH  24  25
ENDBRANCH   1  24
TORSDOF 23
ENDMDL
MODEL 2
REMARK VINA RESULT:      -9.8      9.599     13.960
REMARK SMILES O=C(/C=C/c1ccccc1Oc1cccc(Cl)c1)OCCOCCOCCOC(=O)c1ccc(-c2c3nc(c(-c4cc(S(=O)(=O)[O-])ccc4F)c4ccc([nH]4)c(-c4cc(S(=O)(=O)[O-])ccc4F)c4nc(c(-c5cc(S(=O)(=O)[O-])ccc5F)c5ccc2[nH]5)C=C4)C=C3)cc1
REMARK SMILES IDX 23 1 22 2 21 3 20 4 19 5 2 6 1 7 3 8 4 9 5 10 6 11 10 12
REMARK SMILES IDX 7 13 9 14 8 15 11 16 12 17 13 18 18 19 14 20 16 21 15 22
REMARK SMILES IDX 17 23 24 24 25 25 26 26 27 27 28 28 29 29 30 30 31 31 32 32
REMARK SMILES IDX 93 33 33 34 92 35 34 36 35 37 36 38 86 39 37 40 91 41 85 42
REMARK SMILES IDX 87 43 38 44 90 45 84 46 83 47 39 49 71 50 51 51 70 52 52 53
REMARK SMILES IDX 55 54 69 55 88 56 53 57 54 58 68 60 89 61 56 62 40 63 41 64
REMARK SMILES IDX 49 65 42 66 48 67 50 68 47 69 43 70 44 71 45 72 46 73 72 74
REMARK SMILES IDX 73 75 81 76 74 77 80 78 82 79 79 80 75 81 76 82 77 83 78 84
REMARK SMILES IDX 57 85 58 86 66 87 59 88 65 89 67 90 64 91 60 92 61 93 62 94
REMARK SMILES IDX 63 95
REMARK H PARENT 87 48 55 59
REMARK Flexibility Score: inf
ROOT
ATOM      1  C   UNL A   1      34.045  34.560  32.676  1.00  0.00     0.188 C 
ENDROOT
BRANCH   1   2
ATOM      2  O   UNL A   1      32.648  34.795  32.801  1.00  0.00    -0.376 OA
BRANCH   2   3
ATOM      3  C   UNL A   1      32.212  36.023  32.223  1.00  0.00     0.202 C 
BRANCH   3   4
ATOM      4  C   UNL A   1      33.377  36.815  31.630  1.00  0.00     0.261 C 
BRANCH   4   5
ATOM      5  O   UNL A   1      33.541  36.821  30.193  1.00  0.00    -0.460 OA
BRANCH   5   6
ATOM      6  C   UNL A   1      33.066  35.924  29.308  1.00  0.00     0.330 C 
ATOM      7  O   UNL A   1      32.048  36.158  28.665  1.00  0.00    -0.247 OA
BRANCH   6   8
ATOM      8  C   UNL A   1      33.739  34.628  29.151  1.00  0.00     0.094 C 
ATOM      9  C   UNL A   1      34.034  34.056  27.976  1.00  0.00     0.019 C 
BRANCH   9  10
ATOM     10  C   UNL A   1      34.619  32.709  27.931  1.00  0.00     0.017 A 
ATOM     11  C   UNL A   1      36.008  32.638  28.164  1.00  0.00     0.012 A 
ATOM     12  C   UNL A   1      33.913  31.520  27.663  1.00  0.00     0.134 A 
ATOM     13  C   UNL A   1      36.689  31.421  28.117  1.00  0.00     0.001 A 
ATOM     14  C   UNL A   1      34.615  30.304  27.620  1.00  0.00     0.048 A 
ATOM     15  C   UNL A   1      35.991  30.252  27.845  1.00  0.00     0.004 A 
BRANCH  12  16
ATOM     16  O   UNL A   1      32.581  31.367  27.321  1.00  0.00    -0.457 OA
BRANCH  16  17
ATOM     17  C   UNL A   1      32.154  30.205  26.739  1.00  0.00     0.128 A 
ATOM     18  C   UNL A   1      32.242  28.991  27.422  1.00  0.00     0.047 A 
ATOM     19  C   UNL A   1      31.709  30.249  25.418  1.00  0.00     0.067 A 
ATOM     20  C   UNL A   1      31.807  27.820  26.798  1.00  0.00     0.005 A 
ATOM     21  C   UNL A   1      31.251  29.083  24.813  1.00  0.00     0.044 A 
ATOM     22  C   UNL A   1      31.298  27.868  25.496  1.00  0.00     0.021 A 
ATOM     23  Cl  UNL A   1      30.572  29.158  23.234  1.00  0.00    -0.084 Cl
ENDBRANCH  16  17
ENDBRANCH  12  16
ENDBRANCH   9  10
ENDBRANCH   6   8
ENDBRANCH   5   6
ENDBRANCH   4   5
ENDBRANCH   3   4
ENDBRANCH   2   3
ENDBRANCH   1   2
BRANCH   1  24
ATOM     24  C   UNL A   1      34.751  34.200  33.991  1.00  0.00     0.188 C 
BRANCH  24  25
ATOM     25  O   UNL A   1      36.056  33.646  33.951  1.00  0.00    -0.376 OA
BRANCH  25  26
ATOM     26  C   UNL A   1      36.235  32.347  33.407  1.00  0.00     0.202 C 
BRANCH  26  27
ATOM     27  C   UNL A   1      36.234  32.208  31.883  1.00  0.00     0.261 C 
BRANCH  27  28
ATOM     28  O   UNL A   1      37.353  31.477  31.349  1.00  0.00    -0.460 OA
BRANCH  28  29
ATOM     29  C   UNL A   1      37.270  30.135  31.535  1.00  0.00     0.338 C 
ATOM     30  O   UNL A   1      36.358  29.404  31.196  1.00  0.00    -0.246 OA
BRANCH  29  31
ATOM     31  C   UNL A   1      38.477  29.609  32.193  1.00  0.00     0.060 A 
ATOM     32  C   UNL A   1      39.612  30.427  32.261  1.00  0.00     0.016 A 
ATOM     33  C   UNL A   1      38.562  28.249  32.499  1.00  0.00     0.016 A 
ATOM     34  C   UNL A   1      40.857  29.871  32.565  1.00  0.00     0.010 A 
ATOM     35  C   UNL A   1      39.810  27.692  32.796  1.00  0.00     0.010 A 
ATOM     36  C   UNL A   1      40.970  28.489  32.776  1.00  0.00    -0.014 A 
BRANCH  36  37
ATOM     37  C   UNL A   1      42.299  27.824  32.742  1.00  0.00     0.031 A 
ATOM     38  C   UNL A   1      43.043  27.641  34.040  1.00  0.00     0.074 A 
ATOM     39  C   UNL A   1      42.857  27.421  31.589  1.00  0.00     0.049 A 
ATOM     40  N   UNL A   1      44.278  27.265  34.250  1.00  0.00    -0.248 NA
ATOM     41  C   UNL A   1      42.286  27.940  35.266  1.00  0.00     0.031 C 
ATOM     42  C   UNL A   1      42.223  27.485  30.275  1.00  0.00     0.029 A 
ATOM     43  N   UNL A   1      44.104  26.903  31.342  1.00  0.00    -0.354 N 
ATOM     44  C   UNL A   1      44.456  27.300  35.630  1.00  0.00     0.074 A 
ATOM     45  C   UNL A   1      43.204  27.755  36.201  1.00  0.00     0.031 C 
ATOM     46  C   UNL A   1      43.099  27.049  29.352  1.00  0.00     0.029 A 
ATOM     47  C   UNL A   1      44.369  26.727  30.004  1.00  0.00     0.049 A 
ATOM     48  H   UNL A   1      44.747  26.677  32.053  1.00  0.00     0.167 HD
ATOM     49  C   UNL A   1      45.560  26.987  36.355  1.00  0.00     0.034 A 
ATOM     50  C   UNL A   1      45.515  26.394  29.377  1.00  0.00     0.034 A 
ATOM     51  C   UNL A   1      46.805  26.548  35.775  1.00  0.00     0.049 A 
ATOM     52  C   UNL A   1      46.762  26.135  30.189  1.00  0.00     0.074 A 
ATOM     53  C   UNL A   1      47.983  26.205  36.416  1.00  0.00     0.029 A 
ATOM     54  N   UNL A   1      47.039  26.403  34.413  1.00  0.00    -0.354 N 
ATOM     55  N   UNL A   1      46.931  26.198  31.490  1.00  0.00    -0.248 NA
ATOM     56  C   UNL A   1      47.976  25.765  29.446  1.00  0.00     0.031 C 
ATOM     57  C   UNL A   1      48.946  25.915  35.441  1.00  0.00     0.029 A 
ATOM     58  C   UNL A   1      48.349  26.006  34.194  1.00  0.00     0.049 A 
ATOM     59  H   UNL A   1      46.372  26.560  33.708  1.00  0.00     0.167 HD
ATOM     60  C   UNL A   1      48.260  25.844  31.721  1.00  0.00     0.074 A 
ATOM     61  C   UNL A   1      48.848  25.572  30.427  1.00  0.00     0.031 C 
ATOM     62  C   UNL A   1      48.928  25.743  32.898  1.00  0.00     0.034 A 
BRANCH  49  63
ATOM     63  C   UNL A   1      45.477  27.183  37.850  1.00  0.00     0.023 A 
ATOM     64  C   UNL A   1      45.732  28.428  38.450  1.00  0.00     0.031 A 
ATOM     65  C   UNL A   1      45.195  26.091  38.691  1.00  0.00     0.131 A 
ATOM     66  C   UNL A   1      45.784  28.533  39.848  1.00  0.00     0.055 A 
ATOM     67  C   UNL A   1      45.169  26.221  40.081  1.00  0.00     0.041 A 
ATOM     68  F   UNL A   1      44.966  24.873  38.176  1.00  0.00    -0.206 F 
ATOM     69  C   UNL A   1      45.482  27.442  40.668  1.00  0.00     0.022 A 
BRANCH  66  70
ATOM     70  S   UNL A   1      46.413  30.069  40.578  1.00  0.00     0.124 S 
ATOM     71  O   UNL A   1      47.409  29.562  41.520  1.00  0.00    -0.237 OA
ATOM     72  O   UNL A   1      46.936  30.778  39.416  1.00  0.00    -0.237 OA
ATOM     73  O   UNL A   1      45.230  30.665  41.195  1.00  0.00    -0.744 OA
ENDBRANCH  66  70
ENDBRANCH  49  63
BRANCH  50  74
ATOM     74  C   UNL A   1      45.563  26.352  27.889  1.00  0.00     0.023 A 
ATOM     75  C   UNL A   1      46.257  27.327  27.157  1.00  0.00     0.031 A 
ATOM     76  C   UNL A   1      44.880  25.348  27.178  1.00  0.00     0.131 A 
ATOM     77  C   UNL A   1      46.222  27.299  25.754  1.00  0.00     0.055 A 
ATOM     78  C   UNL A   1      44.887  25.300  25.784  1.00  0.00     0.041 A 
ATOM     79  F   UNL A   1      44.207  24.390  27.834  1.00  0.00    -0.206 F 
ATOM     80  C   UNL A   1      45.553  26.286  25.064  1.00  0.00     0.022 A 
BRANCH  77  81
ATOM     81  S   UNL A   1      47.023  28.644  24.839  1.00  0.00     0.124 S 
ATOM     82  O   UNL A   1      46.943  28.156  23.466  1.00  0.00    -0.237 OA
ATOM     83  O   UNL A   1      46.174  29.784  25.166  1.00  0.00    -0.237 OA
ATOM     84  O   UNL A   1      48.368  28.689  25.409  1.00  0.00    -0.744 OA
ENDBRANCH  77  81
ENDBRANCH  50  74
BRANCH  62  85
ATOM     85  C   UNL A   1      50.357  25.257  32.848  1.00  0.00     0.023 A 
ATOM     86  C   UNL A   1      50.689  23.898  32.981  1.00  0.00     0.031 A 
ATOM     87  C   UNL A   1      51.401  26.177  32.643  1.00  0.00     0.131 A 
ATOM     88  C   UNL A   1      52.035  23.501  32.942  1.00  0.00     0.055 A 
ATOM     89  C   UNL A   1      52.733  25.772  32.560  1.00  0.00     0.041 A 
ATOM     90  F   UNL A   1      51.138  27.487  32.510  1.00  0.00    -0.206 F 
ATOM     91  C   UNL A   1      53.057  24.428  32.718  1.00  0.00     0.022 A 
BRANCH  88  92
ATOM     92  S   UNL A   1      52.447  21.759  33.244  1.00  0.00     0.124 S 
ATOM     93  O   UNL A   1      51.414  21.067  32.480  1.00  0.00    -0.237 OA
ATOM     94  O   UNL A   1      53.804  21.662  32.717  1.00  0.00    -0.237 OA
ATOM     95  O   UNL A   1      52.337  21.626  34.695  1.00  0.00    -0.744 OA
ENDBRANCH  88  92
ENDBRANCH  62  85
ENDBRANCH  36  37
ENDBRANCH  29  31
ENDBRANCH  28  29
ENDBRANCH  27  28
ENDBRANCH  26  27
ENDBRANCH  25  26
ENDBRANCH  24  25
ENDBRANCH   1  24
TORSDOF 23
ENDMDL
MODEL 3
REMARK VINA RESULT:      -9.6     10.386     17.639
REMARK SMILES O=C(/C=C/c1ccccc1Oc1cccc(Cl)c1)OCCOCCOCCOC(=O)c1ccc(-c2c3nc(c(-c4cc(S(=O)(=O)[O-])ccc4F)c4ccc([nH]4)c(-c4cc(S(=O)(=O)[O-])ccc4F)c4nc(c(-c5cc(S(=O)(=O)[O-])ccc5F)c5ccc2[nH]5)C=C4)C=C3)cc1
REMARK SMILES IDX 23 1 22 2 21 3 20 4 19 5 2 6 1 7 3 8 4 9 5 10 6 11 10 12
REMARK SMILES IDX 7 13 9 14 8 15 11 16 12 17 13 18 18 19 14 20 16 21 15 22
REMARK SMILES IDX 17 23 24 24 25 25 26 26 27 27 28 28 29 29 30 30 31 31 32 32
REMARK SMILES IDX 93 33 33 34 92 35 34 36 35 37 36 38 86 39 37 40 91 41 85 42
REMARK SMILES IDX 87 43 38 44 90 45 84 46 83 47 39 49 71 50 51 51 70 52 52 53
REMARK SMILES IDX 55 54 69 55 88 56 53 57 54 58 68 60 89 61 56 62 40 63 41 64
REMARK SMILES IDX 49 65 42 66 48 67 50 68 47 69 43 70 44 71 45 72 46 73 72 74
REMARK SMILES IDX 73 75 81 76 74 77 80 78 82 79 79 80 75 81 76 82 77 83 78 84
REMARK SMILES IDX 57 85 58 86 66 87 59 88 65 89 67 90 64 91 60 92 61 93 62 94
REMARK SMILES IDX 63 95
REMARK H PARENT 87 48 55 59
REMARK Flexibility Score: inf
ROOT
ATOM      1  C   UNL A   1      42.674  19.649  25.493  1.00  0.00     0.188 C 
ENDROOT
BRANCH   1   2
ATOM      2  O   UNL A   1      42.268  20.205  26.738  1.00  0.00    -0.376 OA
BRANCH   2   3
ATOM      3  C   UNL A   1      40.872  20.082  27.001  1.00  0.00     0.202 C 
BRANCH   3   4
ATOM      4  C   UNL A   1      40.142  21.411  26.819  1.00  0.00     0.261 C 
BRANCH   4   5
ATOM      5  O   UNL A   1      39.232  21.547  25.703  1.00  0.00    -0.460 OA
BRANCH   5   6
ATOM      6  C   UNL A   1      38.087  22.253  25.659  1.00  0.00     0.330 C 
ATOM      7  O   UNL A   1      38.054  23.419  26.041  1.00  0.00    -0.247 OA
BRANCH   6   8
ATOM      8  C   UNL A   1      36.849  21.608  25.203  1.00  0.00     0.094 C 
ATOM      9  C   UNL A   1      35.721  21.522  25.920  1.00  0.00     0.019 C 
BRANCH   9  10
ATOM     10  C   UNL A   1      34.570  20.766  25.409  1.00  0.00     0.017 A 
ATOM     11  C   UNL A   1      34.869  19.524  24.814  1.00  0.00     0.012 A 
ATOM     12  C   UNL A   1      33.228  21.192  25.456  1.00  0.00     0.134 A 
ATOM     13  C   UNL A   1      33.868  18.725  24.261  1.00  0.00     0.001 A 
ATOM     14  C   UNL A   1      32.232  20.374  24.894  1.00  0.00     0.048 A 
ATOM     15  C   UNL A   1      32.547  19.150  24.302  1.00  0.00     0.004 A 
BRANCH  12  16
ATOM     16  O   UNL A   1      32.721  22.398  25.906  1.00  0.00    -0.457 OA
BRANCH  16  17
ATOM     17  C   UNL A   1      33.071  23.562  25.278  1.00  0.00     0.128 A 
ATOM     18  C   UNL A   1      33.691  24.595  25.984  1.00  0.00     0.047 A 
ATOM     19  C   UNL A   1      32.717  23.726  23.938  1.00  0.00     0.067 A 
ATOM     20  C   UNL A   1      34.028  25.775  25.318  1.00  0.00     0.005 A 
ATOM     21  C   UNL A   1      33.082  24.893  23.275  1.00  0.00     0.044 A 
ATOM     22  C   UNL A   1      33.735  25.919  23.958  1.00  0.00     0.021 A 
ATOM     23  Cl  UNL A   1      32.772  25.042  21.589  1.00  0.00    -0.084 Cl
ENDBRANCH  16  17
ENDBRANCH  12  16
ENDBRANCH   9  10
ENDBRANCH   6   8
ENDBRANCH   5   6
ENDBRANCH   4   5
ENDBRANCH   3   4
ENDBRANCH   2   3
ENDBRANCH   1   2
BRANCH   1  24
ATOM     24  C   UNL A   1      44.168  19.808  25.181  1.00  0.00     0.188 C 
BRANCH  24  25
ATOM     25  O   UNL A   1      44.585  20.813  24.270  1.00  0.00    -0.376 OA
BRANCH  25  26
ATOM     26  C   UNL A   1      44.313  22.173  24.575  1.00  0.00     0.202 C 
BRANCH  26  27
ATOM     27  C   UNL A   1      44.681  22.677  25.971  1.00  0.00     0.261 C 
BRANCH  27  28
ATOM     28  O   UNL A   1      43.556  23.056  26.785  1.00  0.00    -0.460 OA
BRANCH  28  29
ATOM     29  C   UNL A   1      43.702  24.260  27.395  1.00  0.00     0.338 C 
ATOM     30  O   UNL A   1      43.433  25.353  26.931  1.00  0.00    -0.246 OA
BRANCH  29  31
ATOM     31  C   UNL A   1      44.213  24.108  28.767  1.00  0.00     0.060 A 
ATOM     32  C   UNL A   1      43.457  23.365  29.683  1.00  0.00     0.016 A 
ATOM     33  C   UNL A   1      45.278  24.900  29.201  1.00  0.00     0.016 A 
ATOM     34  C   UNL A   1      43.719  23.470  31.051  1.00  0.00     0.010 A 
ATOM     35  C   UNL A   1      45.533  25.010  30.572  1.00  0.00     0.010 A 
ATOM     36  C   UNL A   1      44.720  24.339  31.505  1.00  0.00    -0.014 A 
BRANCH  36  37
ATOM     37  C   UNL A   1      44.783  24.743  32.934  1.00  0.00     0.031 A 
ATOM     38  C   UNL A   1      44.393  26.152  33.299  1.00  0.00     0.074 A 
ATOM     39  C   UNL A   1      45.209  23.899  33.888  1.00  0.00     0.049 A 
ATOM     40  N   UNL A   1      44.537  26.793  34.430  1.00  0.00    -0.248 NA
ATOM     41  C   UNL A   1      43.767  26.946  32.230  1.00  0.00     0.031 C 
ATOM     42  C   UNL A   1      45.560  22.496  33.681  1.00  0.00     0.029 A 
ATOM     43  N   UNL A   1      45.446  24.116  35.222  1.00  0.00    -0.354 N 
ATOM     44  C   UNL A   1      44.039  28.073  34.207  1.00  0.00     0.074 A 
ATOM     45  C   UNL A   1      43.609  28.119  32.823  1.00  0.00     0.031 C 
ATOM     46  C   UNL A   1      45.997  21.984  34.845  1.00  0.00     0.029 A 
ATOM     47  C   UNL A   1      46.005  23.036  35.863  1.00  0.00     0.049 A 
ATOM     48  H   UNL A   1      45.234  24.963  35.678  1.00  0.00     0.167 HD
ATOM     49  C   UNL A   1      43.952  29.117  35.071  1.00  0.00     0.034 A 
ATOM     50  C   UNL A   1      46.510  22.924  37.108  1.00  0.00     0.034 A 
ATOM     51  C   UNL A   1      44.396  29.065  36.442  1.00  0.00     0.049 A 
ATOM     52  C   UNL A   1      46.490  24.120  38.032  1.00  0.00     0.074 A 
ATOM     53  C   UNL A   1      44.353  30.061  37.402  1.00  0.00     0.029 A 
ATOM     54  N   UNL A   1      44.977  27.958  37.046  1.00  0.00    -0.354 N 
ATOM     55  N   UNL A   1      46.044  25.334  37.805  1.00  0.00    -0.248 NA
ATOM     56  C   UNL A   1      47.045  23.929  39.380  1.00  0.00     0.031 C 
ATOM     57  C   UNL A   1      44.966  29.577  38.565  1.00  0.00     0.029 A 
ATOM     58  C   UNL A   1      45.324  28.256  38.355  1.00  0.00     0.049 A 
ATOM     59  H   UNL A   1      45.121  27.088  36.609  1.00  0.00     0.167 HD
ATOM     60  C   UNL A   1      46.238  26.040  38.992  1.00  0.00     0.074 A 
ATOM     61  C   UNL A   1      46.841  25.118  39.930  1.00  0.00     0.031 C 
ATOM     62  C   UNL A   1      45.932  27.330  39.281  1.00  0.00     0.034 A 
BRANCH  49  63
ATOM     63  C   UNL A   1      43.418  30.418  34.522  1.00  0.00     0.023 A 
ATOM     64  C   UNL A   1      42.047  30.725  34.545  1.00  0.00     0.031 A 
ATOM     65  C   UNL A   1      44.290  31.340  33.915  1.00  0.00     0.131 A 
ATOM     66  C   UNL A   1      41.577  31.879  33.898  1.00  0.00     0.055 A 
ATOM     67  C   UNL A   1      43.825  32.526  33.344  1.00  0.00     0.041 A 
ATOM     68  F   UNL A   1      45.606  31.090  33.843  1.00  0.00    -0.206 F 
ATOM     69  C   UNL A   1      42.461  32.793  33.317  1.00  0.00     0.022 A 
BRANCH  66  70
ATOM     70  S   UNL A   1      39.788  32.084  33.682  1.00  0.00     0.124 S 
ATOM     71  O   UNL A   1      39.263  31.247  34.758  1.00  0.00    -0.237 OA
ATOM     72  O   UNL A   1      39.614  33.521  33.848  1.00  0.00    -0.237 OA
ATOM     73  O   UNL A   1      39.546  31.576  32.333  1.00  0.00    -0.744 OA
ENDBRANCH  66  70
ENDBRANCH  49  63
BRANCH  50  74
ATOM     74  C   UNL A   1      47.147  21.650  37.540  1.00  0.00     0.023 A 
ATOM     75  C   UNL A   1      46.413  20.663  38.215  1.00  0.00     0.031 A 
ATOM     76  C   UNL A   1      48.517  21.420  37.314  1.00  0.00     0.131 A 
ATOM     77  C   UNL A   1      47.061  19.504  38.672  1.00  0.00     0.055 A 
ATOM     78  C   UNL A   1      49.145  20.247  37.731  1.00  0.00     0.041 A 
ATOM     79  F   UNL A   1      49.261  22.332  36.669  1.00  0.00    -0.206 F 
ATOM     80  C   UNL A   1      48.417  19.284  38.424  1.00  0.00     0.022 A 
BRANCH  77  81
ATOM     81  S   UNL A   1      46.112  18.306  39.648  1.00  0.00     0.124 S 
ATOM     82  O   UNL A   1      47.165  17.425  40.139  1.00  0.00    -0.237 OA
ATOM     83  O   UNL A   1      45.474  19.162  40.644  1.00  0.00    -0.237 OA
ATOM     84  O   UNL A   1      45.205  17.712  38.668  1.00  0.00    -0.744 OA
ENDBRANCH  77  81
ENDBRANCH  50  74
BRANCH  62  85
ATOM     85  C   UNL A   1      46.187  27.807  40.691  1.00  0.00     0.023 A 
ATOM     86  C   UNL A   1      47.351  28.510  41.043  1.00  0.00     0.031 A 
ATOM     87  C   UNL A   1      45.231  27.564  41.694  1.00  0.00     0.131 A 
ATOM     88  C   UNL A   1      47.545  28.917  42.374  1.00  0.00     0.055 A 
ATOM     89  C   UNL A   1      45.408  28.010  43.004  1.00  0.00     0.041 A 
ATOM     90  F   UNL A   1      44.100  26.896  41.411  1.00  0.00    -0.206 F 
ATOM     91  C   UNL A   1      46.575  28.684  43.351  1.00  0.00     0.022 A 
BRANCH  88  92
ATOM     92  S   UNL A   1      49.113  29.711  42.829  1.00  0.00     0.124 S 
ATOM     93  O   UNL A   1      48.943  29.918  44.263  1.00  0.00    -0.237 OA
ATOM     94  O   UNL A   1      50.097  28.704  42.443  1.00  0.00    -0.237 OA
ATOM     95  O   UNL A   1      49.128  30.930  42.023  1.00  0.00    -0.744 OA
ENDBRANCH  88  92
ENDBRANCH  62  85
ENDBRANCH  36  37
ENDBRANCH  29  31
ENDBRANCH  28  29
ENDBRANCH  27  28
ENDBRANCH  26  27
ENDBRANCH  25  26
ENDBRANCH  24  25
ENDBRANCH   1  24
TORSDOF 23
ENDMDL
