MODEL 1
REMARK VINA RESULT:     -10.5      0.000      0.000
REMARK SMILES Cc1cccc(-c2cc(C(=O)OCCOCCOCCOC(=O)c3ccc(-c4c5nc(c(-c6cc(S(=O)(=O)[O-])ccc6F)c6ccc([nH]6)c(-c6cc(S(=O)(=O)[O-])ccc6F)c6nc(c(-c7cc(S(=O)(=O)[O-])ccc7F)c7ccc4[nH]7)C=C6)C=C5)cc3)ccn2)c1
REMARK SMILES IDX 17 1 16 2 15 3 14 4 13 5 12 6 10 7 11 8 9 9 7 10 8 11 89 12
REMARK SMILES IDX 88 13 87 14 6 15 1 16 2 17 3 18 90 19 4 20 5 21 18 22 19 23
REMARK SMILES IDX 20 24 21 25 22 26 23 27 24 28 25 29 86 30 26 31 85 32 27 33
REMARK SMILES IDX 28 34 29 35 79 36 30 37 84 38 78 39 80 40 31 41 83 42 77 43
REMARK SMILES IDX 76 44 32 46 64 47 44 48 63 49 45 50 48 51 62 52 81 53 46 54
REMARK SMILES IDX 47 55 61 57 82 58 49 59 33 60 34 61 42 62 35 63 41 64 43 65
REMARK SMILES IDX 40 66 36 67 37 68 38 69 39 70 65 71 66 72 74 73 67 74 73 75
REMARK SMILES IDX 75 76 72 77 68 78 69 79 70 80 71 81 50 82 51 83 59 84 52 85
REMARK SMILES IDX 58 86 60 87 57 88 53 89 54 90 55 91 56 92
REMARK H PARENT 80 45 48 56
REMARK Flexibility Score: inf
ROOT
ATOM      1  C   UNL A   1      39.418  22.073  26.397  1.00  0.00     0.188 C 
ENDROOT
BRANCH   1   2
ATOM      2  C   UNL A   1      38.319  21.580  25.442  1.00  0.00     0.188 C 
BRANCH   2   3
ATOM      3  O   UNL A   1      37.099  22.337  25.313  1.00  0.00    -0.376 OA
BRANCH   3   4
ATOM      4  C   UNL A   1      35.851  21.736  25.623  1.00  0.00     0.202 C 
BRANCH   4   5
ATOM      5  C   UNL A   1      34.749  21.793  24.497  1.00  0.00     0.261 C 
BRANCH   5   6
ATOM      6  O   UNL A   1      33.643  22.793  24.544  1.00  0.00    -0.460 OA
BRANCH   6   7
ATOM      7  C   UNL A   1      33.901  23.866  23.733  1.00  0.00     0.338 C 
ATOM      8  O   UNL A   1      34.825  23.730  22.942  1.00  0.00    -0.246 OA
BRANCH   7   9
ATOM      9  C   UNL A   1      32.961  25.140  23.705  1.00  0.00     0.063 A 
ATOM     10  C   UNL A   1      32.091  27.163  24.628  1.00  0.00     0.071 A 
ATOM     11  C   UNL A   1      32.671  25.880  24.821  1.00  0.00     0.044 A 
ATOM     12  N   UNL A   1      31.617  27.680  23.463  1.00  0.00    -0.256 NA
ATOM     13  C   UNL A   1      31.992  27.045  22.383  1.00  0.00     0.112 A 
ATOM     14  C   UNL A   1      32.685  25.860  22.508  1.00  0.00     0.036 A 
BRANCH  10  15
ATOM     15  C   UNL A   1      32.361  28.262  25.531  1.00  0.00     0.000 A 
ATOM     16  C   UNL A   1      35.301  29.373  27.659  1.00  0.00     0.044 C 
ATOM     17  C   UNL A   1      33.986  29.394  26.942  1.00  0.00    -0.050 A 
ATOM     18  C   UNL A   1      33.111  30.482  27.023  1.00  0.00     0.003 A 
ATOM     19  C   UNL A   1      33.600  28.287  26.193  1.00  0.00     0.013 A 
ATOM     20  C   UNL A   1      31.909  30.491  26.306  1.00  0.00     0.001 A 
ATOM     21  C   UNL A   1      31.543  29.390  25.545  1.00  0.00     0.010 A 
ENDBRANCH  10  15
ENDBRANCH   7   9
ENDBRANCH   6   7
ENDBRANCH   5   6
ENDBRANCH   4   5
ENDBRANCH   3   4
ENDBRANCH   2   3
ENDBRANCH   1   2
BRANCH   1  22
ATOM     22  O   UNL A   1      40.108  20.968  26.969  1.00  0.00    -0.376 OA
BRANCH  22  23
ATOM     23  C   UNL A   1      40.305  19.841  26.134  1.00  0.00     0.202 C 
BRANCH  23  24
ATOM     24  C   UNL A   1      41.786  19.527  25.855  1.00  0.00     0.261 C 
BRANCH  24  25
ATOM     25  O   UNL A   1      42.659  20.334  26.688  1.00  0.00    -0.460 OA
BRANCH  25  26
ATOM     26  C   UNL A   1      43.184  21.469  26.119  1.00  0.00     0.338 C 
ATOM     27  O   UNL A   1      43.513  21.530  24.939  1.00  0.00    -0.246 OA
BRANCH  26  28
ATOM     28  C   UNL A   1      43.176  22.627  27.079  1.00  0.00     0.060 A 
ATOM     29  C   UNL A   1      42.983  22.584  28.468  1.00  0.00     0.016 A 
ATOM     30  C   UNL A   1      43.228  23.875  26.533  1.00  0.00     0.016 A 
ATOM     31  C   UNL A   1      42.818  23.795  29.250  1.00  0.00     0.010 A 
ATOM     32  C   UNL A   1      42.779  24.965  27.270  1.00  0.00     0.010 A 
ATOM     33  C   UNL A   1      42.697  25.054  28.647  1.00  0.00    -0.014 A 
BRANCH  33  34
ATOM     34  C   UNL A   1      42.407  26.469  29.218  1.00  0.00     0.031 A 
ATOM     35  C   UNL A   1      41.224  27.544  28.953  1.00  0.00     0.074 A 
ATOM     36  C   UNL A   1      43.314  26.755  30.172  1.00  0.00     0.049 A 
ATOM     37  N   UNL A   1      41.370  28.852  28.892  1.00  0.00    -0.248 NA
ATOM     38  C   UNL A   1      39.796  27.309  28.602  1.00  0.00     0.031 C 
ATOM     39  C   UNL A   1      43.345  27.853  31.111  1.00  0.00     0.029 A 
ATOM     40  N   UNL A   1      44.592  26.194  30.241  1.00  0.00    -0.354 N 
ATOM     41  C   UNL A   1      40.068  29.414  28.811  1.00  0.00     0.074 A 
ATOM     42  C   UNL A   1      39.284  28.448  28.167  1.00  0.00     0.031 C 
ATOM     43  C   UNL A   1      44.634  28.097  31.410  1.00  0.00     0.029 A 
ATOM     44  C   UNL A   1      45.458  27.238  30.569  1.00  0.00     0.049 A 
ATOM     45  H   UNL A   1      44.832  25.251  30.089  1.00  0.00     0.167 HD
ATOM     46  C   UNL A   1      39.637  30.433  29.624  1.00  0.00     0.034 A 
ATOM     47  C   UNL A   1      46.378  27.617  29.633  1.00  0.00     0.034 A 
ATOM     48  C   UNL A   1      40.813  31.051  30.185  1.00  0.00     0.049 A 
ATOM     49  C   UNL A   1      46.133  29.036  29.154  1.00  0.00     0.074 A 
ATOM     50  C   UNL A   1      41.420  31.030  31.422  1.00  0.00     0.029 A 
ATOM     51  N   UNL A   1      41.749  31.504  29.282  1.00  0.00    -0.354 N 
ATOM     52  N   UNL A   1      45.074  29.738  29.467  1.00  0.00    -0.248 NA
ATOM     53  C   UNL A   1      47.054  29.796  28.315  1.00  0.00     0.031 C 
ATOM     54  C   UNL A   1      42.807  31.305  31.205  1.00  0.00     0.029 A 
ATOM     55  C   UNL A   1      43.000  31.545  29.855  1.00  0.00     0.049 A 
ATOM     56  H   UNL A   1      41.551  31.763  28.353  1.00  0.00     0.167 HD
ATOM     57  C   UNL A   1      45.127  30.971  28.879  1.00  0.00     0.074 A 
ATOM     58  C   UNL A   1      46.410  30.972  28.199  1.00  0.00     0.031 C 
ATOM     59  C   UNL A   1      44.105  31.873  28.968  1.00  0.00     0.034 A 
BRANCH  46  60
ATOM     60  C   UNL A   1      38.198  30.730  30.145  1.00  0.00     0.023 A 
ATOM     61  C   UNL A   1      37.437  31.715  29.463  1.00  0.00     0.031 A 
ATOM     62  C   UNL A   1      37.530  30.207  31.286  1.00  0.00     0.131 A 
ATOM     63  C   UNL A   1      36.185  32.184  29.942  1.00  0.00     0.055 A 
ATOM     64  C   UNL A   1      36.299  30.689  31.775  1.00  0.00     0.041 A 
ATOM     65  F   UNL A   1      37.976  29.170  31.997  1.00  0.00    -0.206 F 
ATOM     66  C   UNL A   1      35.624  31.694  31.113  1.00  0.00     0.022 A 
BRANCH  63  67
ATOM     67  S   UNL A   1      35.261  33.431  28.998  1.00  0.00     0.124 S 
ATOM     68  O   UNL A   1      35.320  32.895  27.642  1.00  0.00    -0.237 OA
ATOM     69  O   UNL A   1      33.957  33.416  29.648  1.00  0.00    -0.237 OA
ATOM     70  O   UNL A   1      36.033  34.658  29.207  1.00  0.00    -0.744 OA
ENDBRANCH  63  67
ENDBRANCH  46  60
BRANCH  47  71
ATOM     71  C   UNL A   1      46.968  26.443  28.885  1.00  0.00     0.023 A 
ATOM     72  C   UNL A   1      46.374  26.140  27.629  1.00  0.00     0.031 A 
ATOM     73  C   UNL A   1      48.219  25.867  29.137  1.00  0.00     0.131 A 
ATOM     74  C   UNL A   1      47.093  25.483  26.618  1.00  0.00     0.055 A 
ATOM     75  C   UNL A   1      48.892  25.104  28.158  1.00  0.00     0.041 A 
ATOM     76  F   UNL A   1      48.879  26.130  30.274  1.00  0.00    -0.206 F 
ATOM     77  C   UNL A   1      48.353  24.953  26.877  1.00  0.00     0.022 A 
BRANCH  74  78
ATOM     78  S   UNL A   1      46.510  25.599  24.893  1.00  0.00     0.124 S 
ATOM     79  O   UNL A   1      45.389  26.524  25.009  1.00  0.00    -0.237 OA
ATOM     80  O   UNL A   1      47.676  26.104  24.171  1.00  0.00    -0.237 OA
ATOM     81  O   UNL A   1      46.164  24.218  24.564  1.00  0.00    -0.744 OA
ENDBRANCH  74  78
ENDBRANCH  47  71
BRANCH  59  82
ATOM     82  C   UNL A   1      43.959  33.130  28.135  1.00  0.00     0.023 A 
ATOM     83  C   UNL A   1      43.949  34.411  28.688  1.00  0.00     0.031 A 
ATOM     84  C   UNL A   1      44.011  33.064  26.716  1.00  0.00     0.131 A 
ATOM     85  C   UNL A   1      43.934  35.546  27.863  1.00  0.00     0.055 A 
ATOM     86  C   UNL A   1      44.134  34.193  25.907  1.00  0.00     0.041 A 
ATOM     87  F   UNL A   1      43.977  31.891  26.064  1.00  0.00    -0.206 F 
ATOM     88  C   UNL A   1      44.078  35.450  26.480  1.00  0.00     0.022 A 
BRANCH  85  89
ATOM     89  S   UNL A   1      43.595  37.145  28.637  1.00  0.00     0.124 S 
ATOM     90  O   UNL A   1      44.386  38.050  27.805  1.00  0.00    -0.237 OA
ATOM     91  O   UNL A   1      42.147  37.260  28.499  1.00  0.00    -0.237 OA
ATOM     92  O   UNL A   1      44.083  36.976  30.002  1.00  0.00    -0.744 OA
ENDBRANCH  85  89
ENDBRANCH  59  82
ENDBRANCH  33  34
ENDBRANCH  26  28
ENDBRANCH  25  26
ENDBRANCH  24  25
ENDBRANCH  23  24
ENDBRANCH  22  23
ENDBRANCH   1  22
TORSDOF 21
ENDMDL
MODEL 2
REMARK VINA RESULT:     -10.2      3.988     11.018
REMARK SMILES Cc1cccc(-c2cc(C(=O)OCCOCCOCCOC(=O)c3ccc(-c4c5nc(c(-c6cc(S(=O)(=O)[O-])ccc6F)c6ccc([nH]6)c(-c6cc(S(=O)(=O)[O-])ccc6F)c6nc(c(-c7cc(S(=O)(=O)[O-])ccc7F)c7ccc4[nH]7)C=C6)C=C5)cc3)ccn2)c1
REMARK SMILES IDX 17 1 16 2 15 3 14 4 13 5 12 6 10 7 11 8 9 9 7 10 8 11 89 12
REMARK SMILES IDX 88 13 87 14 6 15 1 16 2 17 3 18 90 19 4 20 5 21 18 22 19 23
REMARK SMILES IDX 20 24 21 25 22 26 23 27 24 28 25 29 86 30 26 31 85 32 27 33
REMARK SMILES IDX 28 34 29 35 79 36 30 37 84 38 78 39 80 40 31 41 83 42 77 43
REMARK SMILES IDX 76 44 32 46 64 47 44 48 63 49 45 50 48 51 62 52 81 53 46 54
REMARK SMILES IDX 47 55 61 57 82 58 49 59 33 60 34 61 42 62 35 63 41 64 43 65
REMARK SMILES IDX 40 66 36 67 37 68 38 69 39 70 65 71 66 72 74 73 67 74 73 75
REMARK SMILES IDX 75 76 72 77 68 78 69 79 70 80 71 81 50 82 51 83 59 84 52 85
REMARK SMILES IDX 58 86 60 87 57 88 53 89 54 90 55 91 56 92
REMARK H PARENT 80 45 48 56
REMARK Flexibility Score: inf
ROOT
ATOM      1  C   UNL A   1      33.899  37.361  32.733  1.00  0.00     0.188 C 
ENDROOT
BRANCH   1   2
ATOM      2  C   UNL A   1      33.025  36.777  31.612  1.00  0.00     0.188 C 
BRANCH   2   3
ATOM      3  O   UNL A   1      33.107  37.333  30.285  1.00  0.00    -0.376 OA
BRANCH   3   4
ATOM      4  C   UNL A   1      32.907  36.504  29.150  1.00  0.00     0.202 C 
BRANCH   4   5
ATOM      5  C   UNL A   1      33.783  35.196  29.076  1.00  0.00     0.261 C 
BRANCH   5   6
ATOM      6  O   UNL A   1      33.333  34.002  28.303  1.00  0.00    -0.460 OA
BRANCH   6   7
ATOM      7  C   UNL A   1      34.374  33.155  28.033  1.00  0.00     0.338 C 
ATOM      8  O   UNL A   1      35.496  33.623  28.176  1.00  0.00    -0.246 OA
BRANCH   7   9
ATOM      9  C   UNL A   1      34.146  31.621  27.716  1.00  0.00     0.063 A 
ATOM     10  C   UNL A   1      33.165  29.825  26.485  1.00  0.00     0.071 A 
ATOM     11  C   UNL A   1      33.094  31.160  26.967  1.00  0.00     0.044 A 
ATOM     12  N   UNL A   1      34.077  28.878  26.829  1.00  0.00    -0.256 NA
ATOM     13  C   UNL A   1      35.142  29.330  27.438  1.00  0.00     0.112 A 
ATOM     14  C   UNL A   1      35.190  30.657  27.807  1.00  0.00     0.036 A 
BRANCH  10  15
ATOM     15  C   UNL A   1      32.576  29.444  25.218  1.00  0.00     0.000 A 
ATOM     16  C   UNL A   1      33.676  27.400  22.215  1.00  0.00     0.044 C 
ATOM     17  C   UNL A   1      32.803  28.162  23.164  1.00  0.00    -0.050 A 
ATOM     18  C   UNL A   1      31.445  28.384  22.913  1.00  0.00     0.003 A 
ATOM     19  C   UNL A   1      33.360  28.699  24.321  1.00  0.00     0.013 A 
ATOM     20  C   UNL A   1      30.645  29.062  23.840  1.00  0.00     0.001 A 
ATOM     21  C   UNL A   1      31.206  29.575  25.001  1.00  0.00     0.010 A 
ENDBRANCH  10  15
ENDBRANCH   7   9
ENDBRANCH   6   7
ENDBRANCH   5   6
ENDBRANCH   4   5
ENDBRANCH   3   4
ENDBRANCH   2   3
ENDBRANCH   1   2
BRANCH   1  22
ATOM     22  O   UNL A   1      34.734  36.351  33.285  1.00  0.00    -0.376 OA
BRANCH  22  23
ATOM     23  C   UNL A   1      34.608  35.052  32.736  1.00  0.00     0.202 C 
BRANCH  23  24
ATOM     24  C   UNL A   1      35.888  34.542  32.049  1.00  0.00     0.261 C 
BRANCH  24  25
ATOM     25  O   UNL A   1      36.146  33.153  32.385  1.00  0.00    -0.460 OA
BRANCH  25  26
ATOM     26  C   UNL A   1      35.710  32.208  31.490  1.00  0.00     0.338 C 
ATOM     27  O   UNL A   1      34.583  32.222  31.003  1.00  0.00    -0.246 OA
BRANCH  26  28
ATOM     28  C   UNL A   1      36.810  31.260  31.102  1.00  0.00     0.060 A 
ATOM     29  C   UNL A   1      36.818  29.862  31.226  1.00  0.00     0.016 A 
ATOM     30  C   UNL A   1      37.990  31.819  30.708  1.00  0.00     0.016 A 
ATOM     31  C   UNL A   1      38.018  29.083  30.980  1.00  0.00     0.010 A 
ATOM     32  C   UNL A   1      39.160  31.069  30.772  1.00  0.00     0.010 A 
ATOM     33  C   UNL A   1      39.260  29.691  30.752  1.00  0.00    -0.014 A 
BRANCH  33  34
ATOM     34  C   UNL A   1      40.693  29.118  30.575  1.00  0.00     0.031 A 
ATOM     35  C   UNL A   1      41.270  27.810  29.815  1.00  0.00     0.074 A 
ATOM     36  C   UNL A   1      41.581  29.973  31.118  1.00  0.00     0.049 A 
ATOM     37  N   UNL A   1      42.253  27.042  30.239  1.00  0.00    -0.248 NA
ATOM     38  C   UNL A   1      40.762  27.127  28.591  1.00  0.00     0.031 C 
ATOM     39  C   UNL A   1      43.024  29.973  31.036  1.00  0.00     0.029 A 
ATOM     40  N   UNL A   1      41.285  30.877  32.141  1.00  0.00    -0.354 N 
ATOM     41  C   UNL A   1      42.541  26.119  29.198  1.00  0.00     0.074 A 
ATOM     42  C   UNL A   1      41.331  25.936  28.517  1.00  0.00     0.031 C 
ATOM     43  C   UNL A   1      43.496  30.558  32.153  1.00  0.00     0.029 A 
ATOM     44  C   UNL A   1      42.361  30.829  33.027  1.00  0.00     0.049 A 
ATOM     45  H   UNL A   1      40.477  31.435  32.220  1.00  0.00     0.167 HD
ATOM     46  C   UNL A   1      43.810  25.892  28.724  1.00  0.00     0.034 A 
ATOM     47  C   UNL A   1      42.132  30.331  34.279  1.00  0.00     0.034 A 
ATOM     48  C   UNL A   1      44.727  26.386  29.721  1.00  0.00     0.049 A 
ATOM     49  C   UNL A   1      42.909  29.050  34.520  1.00  0.00     0.074 A 
ATOM     50  C   UNL A   1      45.535  27.498  29.826  1.00  0.00     0.029 A 
ATOM     51  N   UNL A   1      44.577  25.873  30.991  1.00  0.00    -0.354 N 
ATOM     52  N   UNL A   1      43.571  28.413  33.588  1.00  0.00    -0.248 NA
ATOM     53  C   UNL A   1      43.035  28.392  35.815  1.00  0.00     0.031 C 
ATOM     54  C   UNL A   1      45.712  27.747  31.223  1.00  0.00     0.029 A 
ATOM     55  C   UNL A   1      45.061  26.752  31.932  1.00  0.00     0.049 A 
ATOM     56  H   UNL A   1      44.177  24.997  31.196  1.00  0.00     0.167 HD
ATOM     57  C   UNL A   1      44.158  27.291  34.101  1.00  0.00     0.074 A 
ATOM     58  C   UNL A   1      43.825  27.344  35.513  1.00  0.00     0.031 C 
ATOM     59  C   UNL A   1      44.836  26.394  33.324  1.00  0.00     0.034 A 
BRANCH  46  60
ATOM     60  C   UNL A   1      44.262  25.487  27.288  1.00  0.00     0.023 A 
ATOM     61  C   UNL A   1      44.201  24.113  26.937  1.00  0.00     0.031 A 
ATOM     62  C   UNL A   1      44.822  26.295  26.262  1.00  0.00     0.131 A 
ATOM     63  C   UNL A   1      44.735  23.607  25.724  1.00  0.00     0.055 A 
ATOM     64  C   UNL A   1      45.375  25.790  25.067  1.00  0.00     0.041 A 
ATOM     65  F   UNL A   1      44.847  27.629  26.297  1.00  0.00    -0.206 F 
ATOM     66  C   UNL A   1      45.349  24.438  24.797  1.00  0.00     0.022 A 
BRANCH  63  67
ATOM     67  S   UNL A   1      44.595  21.838  25.338  1.00  0.00     0.124 S 
ATOM     68  O   UNL A   1      44.232  21.859  23.925  1.00  0.00    -0.237 OA
ATOM     69  O   UNL A   1      45.926  21.338  25.661  1.00  0.00    -0.237 OA
ATOM     70  O   UNL A   1      43.535  21.375  26.237  1.00  0.00    -0.744 OA
ENDBRANCH  63  67
ENDBRANCH  46  60
BRANCH  47  71
ATOM     71  C   UNL A   1      40.796  30.761  34.841  1.00  0.00     0.023 A 
ATOM     72  C   UNL A   1      40.746  32.064  35.407  1.00  0.00     0.031 A 
ATOM     73  C   UNL A   1      39.564  30.159  34.554  1.00  0.00     0.131 A 
ATOM     74  C   UNL A   1      39.546  32.790  35.472  1.00  0.00     0.055 A 
ATOM     75  C   UNL A   1      38.346  30.850  34.732  1.00  0.00     0.041 A 
ATOM     76  F   UNL A   1      39.508  28.951  33.978  1.00  0.00    -0.206 F 
ATOM     77  C   UNL A   1      38.337  32.187  35.143  1.00  0.00     0.022 A 
BRANCH  74  78
ATOM     78  S   UNL A   1      39.613  34.601  35.685  1.00  0.00     0.124 S 
ATOM     79  O   UNL A   1      38.622  35.060  34.718  1.00  0.00    -0.237 OA
ATOM     80  O   UNL A   1      39.262  34.793  37.091  1.00  0.00    -0.237 OA
ATOM     81  O   UNL A   1      41.003  34.923  35.374  1.00  0.00    -0.744 OA
ENDBRANCH  74  78
ENDBRANCH  47  71
BRANCH  59  82
ATOM     82  C   UNL A   1      45.272  25.008  33.749  1.00  0.00     0.023 A 
ATOM     83  C   UNL A   1      46.587  24.699  34.103  1.00  0.00     0.031 A 
ATOM     84  C   UNL A   1      44.308  23.990  33.984  1.00  0.00     0.131 A 
ATOM     85  C   UNL A   1      46.913  23.430  34.606  1.00  0.00     0.055 A 
ATOM     86  C   UNL A   1      44.616  22.782  34.610  1.00  0.00     0.041 A 
ATOM     87  F   UNL A   1      43.020  24.147  33.642  1.00  0.00    -0.206 F 
ATOM     88  C   UNL A   1      45.933  22.487  34.910  1.00  0.00     0.022 A 
BRANCH  85  89
ATOM     89  S   UNL A   1      48.664  23.000  34.733  1.00  0.00     0.124 S 
ATOM     90  O   UNL A   1      48.644  21.576  34.405  1.00  0.00    -0.237 OA
ATOM     91  O   UNL A   1      49.276  23.871  33.735  1.00  0.00    -0.237 OA
ATOM     92  O   UNL A   1      48.994  23.309  36.121  1.00  0.00    -0.744 OA
ENDBRANCH  85  89
ENDBRANCH  59  82
ENDBRANCH  33  34
ENDBRANCH  26  28
ENDBRANCH  25  26
ENDBRANCH  24  25
ENDBRANCH  23  24
ENDBRANCH  22  23
ENDBRANCH   1  22
TORSDOF 21
ENDMDL
MODEL 3
REMARK VINA RESULT:     -10.1      4.694      8.033
REMARK SMILES Cc1cccc(-c2cc(C(=O)OCCOCCOCCOC(=O)c3ccc(-c4c5nc(c(-c6cc(S(=O)(=O)[O-])ccc6F)c6ccc([nH]6)c(-c6cc(S(=O)(=O)[O-])ccc6F)c6nc(c(-c7cc(S(=O)(=O)[O-])ccc7F)c7ccc4[nH]7)C=C6)C=C5)cc3)ccn2)c1
REMARK SMILES IDX 17 1 16 2 15 3 14 4 13 5 12 6 10 7 11 8 9 9 7 10 8 11 89 12
REMARK SMILES IDX 88 13 87 14 6 15 1 16 2 17 3 18 90 19 4 20 5 21 18 22 19 23
REMARK SMILES IDX 20 24 21 25 22 26 23 27 24 28 25 29 86 30 26 31 85 32 27 33
REMARK SMILES IDX 28 34 29 35 79 36 30 37 84 38 78 39 80 40 31 41 83 42 77 43
REMARK SMILES IDX 76 44 32 46 64 47 44 48 63 49 45 50 48 51 62 52 81 53 46 54
REMARK SMILES IDX 47 55 61 57 82 58 49 59 33 60 34 61 42 62 35 63 41 64 43 65
REMARK SMILES IDX 40 66 36 67 37 68 38 69 39 70 65 71 66 72 74 73 67 74 73 75
REMARK SMILES IDX 75 76 72 77 68 78 69 79 70 80 71 81 50 82 51 83 59 84 52 85
REMARK SMILES IDX 58 86 60 87 57 88 53 89 54 90 55 91 56 92
REMARK H PARENT 80 45 48 56
REMARK Flexibility Score: inf
ROOT
ATOM      1  C   UNL A   1      46.246  24.248  26.224  1.00  0.00     0.188 C 
ENDROOT
BRANCH   1   2
ATOM      2  C   UNL A   1      46.070  23.764  24.776  1.00  0.00     0.188 C 
BRANCH   2   3
ATOM      3  O   UNL A   1      45.056  22.786  24.473  1.00  0.00    -0.376 OA
BRANCH   3   4
ATOM      4  C   UNL A   1      45.358  21.401  24.539  1.00  0.00     0.202 C 
BRANCH   4   5
ATOM      5  C   UNL A   1      44.288  20.485  25.247  1.00  0.00     0.261 C 
BRANCH   5   6
ATOM      6  O   UNL A   1      42.851  20.880  25.315  1.00  0.00    -0.460 OA
BRANCH   6   7
ATOM      7  C   UNL A   1      42.455  21.119  26.604  1.00  0.00     0.338 C 
ATOM      8  O   UNL A   1      41.860  20.204  27.159  1.00  0.00    -0.246 OA
BRANCH   7   9
ATOM      9  C   UNL A   1      42.883  22.429  27.383  1.00  0.00     0.063 A 
ATOM     10  C   UNL A   1      42.775  24.773  27.823  1.00  0.00     0.071 A 
ATOM     11  C   UNL A   1      42.641  23.693  26.910  1.00  0.00     0.044 A 
ATOM     12  N   UNL A   1      43.294  24.725  29.079  1.00  0.00    -0.256 NA
ATOM     13  C   UNL A   1      43.413  23.524  29.582  1.00  0.00     0.112 A 
ATOM     14  C   UNL A   1      43.158  22.432  28.780  1.00  0.00     0.036 A 
BRANCH  10  15
ATOM     15  C   UNL A   1      41.949  25.958  27.723  1.00  0.00     0.000 A 
ATOM     16  C   UNL A   1      41.776  28.965  25.413  1.00  0.00     0.044 C 
ATOM     17  C   UNL A   1      41.404  27.968  26.467  1.00  0.00    -0.050 A 
ATOM     18  C   UNL A   1      40.240  28.093  27.233  1.00  0.00     0.003 A 
ATOM     19  C   UNL A   1      42.253  26.896  26.721  1.00  0.00     0.013 A 
ATOM     20  C   UNL A   1      39.896  27.121  28.180  1.00  0.00     0.001 A 
ATOM     21  C   UNL A   1      40.741  26.045  28.411  1.00  0.00     0.010 A 
ENDBRANCH  10  15
ENDBRANCH   7   9
ENDBRANCH   6   7
ENDBRANCH   5   6
ENDBRANCH   4   5
ENDBRANCH   3   4
ENDBRANCH   2   3
ENDBRANCH   1   2
BRANCH   1  22
ATOM     22  O   UNL A   1      46.075  25.659  26.298  1.00  0.00    -0.376 OA
BRANCH  22  23
ATOM     23  C   UNL A   1      46.465  26.406  25.160  1.00  0.00     0.202 C 
BRANCH  23  24
ATOM     24  C   UNL A   1      45.933  27.851  25.154  1.00  0.00     0.261 C 
BRANCH  24  25
ATOM     25  O   UNL A   1      46.413  28.592  26.306  1.00  0.00    -0.460 OA
BRANCH  25  26
ATOM     26  C   UNL A   1      45.902  29.854  26.488  1.00  0.00     0.338 C 
ATOM     27  O   UNL A   1      46.148  30.788  25.730  1.00  0.00    -0.246 OA
BRANCH  26  28
ATOM     28  C   UNL A   1      44.926  29.899  27.631  1.00  0.00     0.060 A 
ATOM     29  C   UNL A   1      44.728  28.928  28.624  1.00  0.00     0.016 A 
ATOM     30  C   UNL A   1      44.036  30.932  27.636  1.00  0.00     0.016 A 
ATOM     31  C   UNL A   1      43.625  29.016  29.564  1.00  0.00     0.010 A 
ATOM     32  C   UNL A   1      42.852  30.814  28.356  1.00  0.00     0.010 A 
ATOM     33  C   UNL A   1      42.623  29.987  29.439  1.00  0.00    -0.014 A 
BRANCH  33  34
ATOM     34  C   UNL A   1      41.301  30.238  30.216  1.00  0.00     0.031 A 
ATOM     35  C   UNL A   1      40.319  31.521  30.333  1.00  0.00     0.074 A 
ATOM     36  C   UNL A   1      40.920  29.097  30.821  1.00  0.00     0.049 A 
ATOM     37  N   UNL A   1      39.692  31.915  31.422  1.00  0.00    -0.248 NA
ATOM     38  C   UNL A   1      40.016  32.574  29.324  1.00  0.00     0.031 C 
ATOM     39  C   UNL A   1      39.679  28.783  31.491  1.00  0.00     0.029 A 
ATOM     40  N   UNL A   1      41.791  28.068  31.189  1.00  0.00    -0.354 N 
ATOM     41  C   UNL A   1      38.817  32.968  31.043  1.00  0.00     0.074 A 
ATOM     42  C   UNL A   1      39.430  33.584  29.943  1.00  0.00     0.031 C 
ATOM     43  C   UNL A   1      39.945  27.855  32.430  1.00  0.00     0.029 A 
ATOM     44  C   UNL A   1      41.389  27.653  32.459  1.00  0.00     0.049 A 
ATOM     45  H   UNL A   1      42.539  27.710  30.658  1.00  0.00     0.167 HD
ATOM     46  C   UNL A   1      37.488  33.002  31.386  1.00  0.00     0.034 A 
ATOM     47  C   UNL A   1      42.244  27.876  33.501  1.00  0.00     0.034 A 
ATOM     48  C   UNL A   1      37.313  32.086  32.485  1.00  0.00     0.049 A 
ATOM     49  C   UNL A   1      41.654  28.847  34.507  1.00  0.00     0.074 A 
ATOM     50  C   UNL A   1      36.771  30.825  32.618  1.00  0.00     0.029 A 
ATOM     51  N   UNL A   1      38.112  32.300  33.587  1.00  0.00    -0.354 N 
ATOM     52  N   UNL A   1      40.548  29.516  34.312  1.00  0.00    -0.248 NA
ATOM     53  C   UNL A   1      42.229  29.128  35.818  1.00  0.00     0.031 C 
ATOM     54  C   UNL A   1      37.417  30.215  33.738  1.00  0.00     0.029 A 
ATOM     55  C   UNL A   1      38.289  31.134  34.296  1.00  0.00     0.049 A 
ATOM     56  H   UNL A   1      38.502  33.169  33.833  1.00  0.00     0.167 HD
ATOM     57  C   UNL A   1      40.277  30.317  35.386  1.00  0.00     0.074 A 
ATOM     58  C   UNL A   1      41.342  30.006  36.322  1.00  0.00     0.031 C 
ATOM     59  C   UNL A   1      39.227  31.191  35.406  1.00  0.00     0.034 A 
BRANCH  46  60
ATOM     60  C   UNL A   1      36.289  33.623  30.606  1.00  0.00     0.023 A 
ATOM     61  C   UNL A   1      35.367  34.421  31.333  1.00  0.00     0.031 A 
ATOM     62  C   UNL A   1      35.914  33.445  29.246  1.00  0.00     0.131 A 
ATOM     63  C   UNL A   1      34.157  34.900  30.769  1.00  0.00     0.055 A 
ATOM     64  C   UNL A   1      34.700  33.901  28.693  1.00  0.00     0.041 A 
ATOM     65  F   UNL A   1      36.691  32.864  28.331  1.00  0.00    -0.206 F 
ATOM     66  C   UNL A   1      33.805  34.620  29.456  1.00  0.00     0.022 A 
BRANCH  63  67
ATOM     67  S   UNL A   1      33.041  35.937  31.760  1.00  0.00     0.124 S 
ATOM     68  O   UNL A   1      32.243  36.598  30.733  1.00  0.00    -0.237 OA
ATOM     69  O   UNL A   1      32.352  34.955  32.589  1.00  0.00    -0.237 OA
ATOM     70  O   UNL A   1      33.954  36.819  32.490  1.00  0.00    -0.744 OA
ENDBRANCH  63  67
ENDBRANCH  46  60
BRANCH  47  71
ATOM     71  C   UNL A   1      43.691  27.645  33.127  1.00  0.00     0.023 A 
ATOM     72  C   UNL A   1      44.514  28.803  33.069  1.00  0.00     0.031 A 
ATOM     73  C   UNL A   1      44.354  26.412  33.175  1.00  0.00     0.131 A 
ATOM     74  C   UNL A   1      45.902  28.727  33.267  1.00  0.00     0.055 A 
ATOM     75  C   UNL A   1      45.761  26.333  33.255  1.00  0.00     0.041 A 
ATOM     76  F   UNL A   1      43.665  25.266  33.277  1.00  0.00    -0.206 F 
ATOM     77  C   UNL A   1      46.536  27.493  33.353  1.00  0.00     0.022 A 
BRANCH  74  78
ATOM     78  S   UNL A   1      46.819  30.237  33.722  1.00  0.00     0.124 S 
ATOM     79  O   UNL A   1      45.746  31.140  34.123  1.00  0.00    -0.237 OA
ATOM     80  O   UNL A   1      47.704  29.789  34.795  1.00  0.00    -0.237 OA
ATOM     81  O   UNL A   1      47.518  30.587  32.488  1.00  0.00    -0.744 OA
ENDBRANCH  74  78
ENDBRANCH  47  71
BRANCH  59  82
ATOM     82  C   UNL A   1      39.016  32.296  36.419  1.00  0.00     0.023 A 
ATOM     83  C   UNL A   1      39.544  33.579  36.266  1.00  0.00     0.031 A 
ATOM     84  C   UNL A   1      38.104  32.122  37.496  1.00  0.00     0.131 A 
ATOM     85  C   UNL A   1      39.218  34.600  37.173  1.00  0.00     0.055 A 
ATOM     86  C   UNL A   1      37.679  33.173  38.309  1.00  0.00     0.041 A 
ATOM     87  F   UNL A   1      37.565  30.926  37.777  1.00  0.00    -0.206 F 
ATOM     88  C   UNL A   1      38.252  34.423  38.161  1.00  0.00     0.022 A 
BRANCH  85  89
ATOM     89  S   UNL A   1      40.183  36.127  37.102  1.00  0.00     0.124 S 
ATOM     90  O   UNL A   1      41.534  35.636  37.374  1.00  0.00    -0.237 OA
ATOM     91  O   UNL A   1      39.940  36.591  35.742  1.00  0.00    -0.237 OA
ATOM     92  O   UNL A   1      39.602  36.950  38.159  1.00  0.00    -0.744 OA
ENDBRANCH  85  89
ENDBRANCH  59  82
ENDBRANCH  33  34
ENDBRANCH  26  28
ENDBRANCH  25  26
ENDBRANCH  24  25
ENDBRANCH  23  24
ENDBRANCH  22  23
ENDBRANCH   1  22
TORSDOF 21
ENDMDL
