MODEL 1
REMARK VINA RESULT:     -11.6      0.000      0.000
REMARK SMILES O=C(OCCOCCOCCOC(=O)[C@H]1CC2=c3ccccc3=N[C@H]2[C@@H](c2ccccc2)[NH2+]1)c1ccc(-c2c3nc(c(-c4cc(S(=O)(=O)[O-])ccc4F)c4ccc([nH]4)c(-c4cc(S(=O)(=O)[O-])ccc4F)c4nc(c(-c5cc(S(=O)(=O)[O-])ccc5F)c5ccc2[nH]5)C=C4)C=C3)cc1
REMARK SMILES IDX 7 1 6 2 5 3 4 4 3 5 2 6 1 7 34 8 35 9 96 10 36 11 95 12
REMARK SMILES IDX 37 13 38 14 39 15 89 16 40 17 94 18 88 19 90 20 41 21 93 22
REMARK SMILES IDX 87 23 86 24 42 26 74 27 54 28 73 29 55 30 58 31 72 32 91 33
REMARK SMILES IDX 56 34 57 35 71 37 92 38 59 39 43 40 44 41 52 42 45 43 51 44
REMARK SMILES IDX 53 45 50 46 46 47 47 48 48 49 49 50 75 51 76 52 84 53 77 54
REMARK SMILES IDX 83 55 85 56 82 57 78 58 79 59 80 60 81 61 60 62 61 63 69 64
REMARK SMILES IDX 62 65 68 66 70 67 67 68 63 69 64 70 65 71 66 72 8 73 9 74
REMARK SMILES IDX 10 75 11 76 12 77 13 78 14 79 15 80 16 81 33 82 17 83 26 84
REMARK SMILES IDX 18 87 25 88 19 89 23 90 24 91 20 92 22 93 21 94 27 95 28 96
REMARK SMILES IDX 32 97 29 98 31 99 30 100
REMARK H PARENT 90 25 58 36 33 85 33 86
REMARK Flexibility Score: inf
ROOT
ATOM      1  C   UNL A   1      41.601  19.195  26.133  1.00  0.00     0.188 C 
ENDROOT
BRANCH   1   2
ATOM      2  O   UNL A   1      42.430  19.540  25.017  1.00  0.00    -0.376 OA
BRANCH   2   3
ATOM      3  C   UNL A   1      43.832  19.471  25.262  1.00  0.00     0.202 C 
BRANCH   3   4
ATOM      4  C   UNL A   1      44.659  20.657  24.761  1.00  0.00     0.261 C 
BRANCH   4   5
ATOM      5  O   UNL A   1      44.642  21.826  25.593  1.00  0.00    -0.460 OA
BRANCH   5   6
ATOM      6  C   UNL A   1      43.780  22.873  25.565  1.00  0.00     0.338 C 
ATOM      7  O   UNL A   1      43.228  23.135  24.496  1.00  0.00    -0.246 OA
BRANCH   6   8
ATOM      8  C   UNL A   1      43.580  23.819  26.712  1.00  0.00     0.060 A 
ATOM      9  C   UNL A   1      44.416  24.949  26.744  1.00  0.00     0.016 A 
ATOM     10  C   UNL A   1      42.631  23.689  27.731  1.00  0.00     0.016 A 
ATOM     11  C   UNL A   1      44.317  25.894  27.775  1.00  0.00     0.010 A 
ATOM     12  C   UNL A   1      42.542  24.617  28.775  1.00  0.00     0.010 A 
ATOM     13  C   UNL A   1      43.368  25.739  28.799  1.00  0.00    -0.014 A 
BRANCH  13  14
ATOM     14  C   UNL A   1      43.038  26.875  29.687  1.00  0.00     0.031 A 
ATOM     15  C   UNL A   1      42.089  27.974  29.339  1.00  0.00     0.074 A 
ATOM     16  C   UNL A   1      43.690  26.946  30.861  1.00  0.00     0.049 A 
ATOM     17  N   UNL A   1      41.336  28.656  30.160  1.00  0.00    -0.248 NA
ATOM     18  C   UNL A   1      41.930  28.365  27.932  1.00  0.00     0.031 C 
ATOM     19  C   UNL A   1      44.780  26.062  31.275  1.00  0.00     0.029 A 
ATOM     20  N   UNL A   1      43.556  27.830  31.895  1.00  0.00    -0.354 N 
ATOM     21  C   UNL A   1      40.463  29.378  29.359  1.00  0.00     0.074 A 
ATOM     22  C   UNL A   1      40.876  29.181  27.993  1.00  0.00     0.031 C 
ATOM     23  C   UNL A   1      45.245  26.477  32.461  1.00  0.00     0.029 A 
ATOM     24  C   UNL A   1      44.472  27.635  32.898  1.00  0.00     0.049 A 
ATOM     25  H   UNL A   1      42.873  28.537  31.918  1.00  0.00     0.167 HD
ATOM     26  C   UNL A   1      39.385  30.070  29.783  1.00  0.00     0.034 A 
ATOM     27  C   UNL A   1      44.654  28.318  34.043  1.00  0.00     0.034 A 
ATOM     28  C   UNL A   1      39.248  30.515  31.145  1.00  0.00     0.049 A 
ATOM     29  C   UNL A   1      43.634  29.360  34.417  1.00  0.00     0.074 A 
ATOM     30  C   UNL A   1      38.250  31.306  31.680  1.00  0.00     0.029 A 
ATOM     31  N   UNL A   1      40.200  30.335  32.131  1.00  0.00    -0.354 N 
ATOM     32  N   UNL A   1      42.530  29.690  33.789  1.00  0.00    -0.248 NA
ATOM     33  C   UNL A   1      43.851  30.093  35.669  1.00  0.00     0.031 C 
ATOM     34  C   UNL A   1      38.669  31.716  32.943  1.00  0.00     0.029 A 
ATOM     35  C   UNL A   1      39.880  31.104  33.230  1.00  0.00     0.049 A 
ATOM     36  H   UNL A   1      40.988  29.747  32.060  1.00  0.00     0.167 HD
ATOM     37  C   UNL A   1      41.891  30.623  34.599  1.00  0.00     0.074 A 
ATOM     38  C   UNL A   1      42.735  30.806  35.760  1.00  0.00     0.031 C 
ATOM     39  C   UNL A   1      40.707  31.255  34.403  1.00  0.00     0.034 A 
BRANCH  26  40
ATOM     40  C   UNL A   1      38.231  30.398  28.879  1.00  0.00     0.023 A 
ATOM     41  C   UNL A   1      37.614  31.659  28.886  1.00  0.00     0.031 A 
ATOM     42  C   UNL A   1      37.510  29.298  28.368  1.00  0.00     0.131 A 
ATOM     43  C   UNL A   1      36.287  31.776  28.437  1.00  0.00     0.055 A 
ATOM     44  C   UNL A   1      36.178  29.417  27.980  1.00  0.00     0.041 A 
ATOM     45  F   UNL A   1      38.050  28.068  28.377  1.00  0.00    -0.206 F 
ATOM     46  C   UNL A   1      35.560  30.659  28.009  1.00  0.00     0.022 A 
BRANCH  43  47
ATOM     47  S   UNL A   1      35.397  33.352  28.550  1.00  0.00     0.124 S 
ATOM     48  O   UNL A   1      36.250  34.109  29.464  1.00  0.00    -0.237 OA
ATOM     49  O   UNL A   1      35.399  33.822  27.166  1.00  0.00    -0.237 OA
ATOM     50  O   UNL A   1      34.092  32.976  29.080  1.00  0.00    -0.744 OA
ENDBRANCH  43  47
ENDBRANCH  26  40
BRANCH  27  51
ATOM     51  C   UNL A   1      45.802  27.952  34.915  1.00  0.00     0.023 A 
ATOM     52  C   UNL A   1      47.077  28.495  34.671  1.00  0.00     0.031 A 
ATOM     53  C   UNL A   1      45.676  26.976  35.914  1.00  0.00     0.131 A 
ATOM     54  C   UNL A   1      48.188  28.009  35.370  1.00  0.00     0.055 A 
ATOM     55  C   UNL A   1      46.774  26.546  36.659  1.00  0.00     0.041 A 
ATOM     56  F   UNL A   1      44.484  26.412  36.164  1.00  0.00    -0.206 F 
ATOM     57  C   UNL A   1      48.041  27.050  36.376  1.00  0.00     0.022 A 
BRANCH  54  58
ATOM     58  S   UNL A   1      49.869  28.497  34.891  1.00  0.00     0.124 S 
ATOM     59  O   UNL A   1      50.133  27.608  33.765  1.00  0.00    -0.237 OA
ATOM     60  O   UNL A   1      49.688  29.908  34.554  1.00  0.00    -0.237 OA
ATOM     61  O   UNL A   1      50.656  28.246  36.093  1.00  0.00    -0.744 OA
ENDBRANCH  54  58
ENDBRANCH  27  51
BRANCH  39  62
ATOM     62  C   UNL A   1      40.196  32.208  35.451  1.00  0.00     0.023 A 
ATOM     63  C   UNL A   1      39.432  31.702  36.521  1.00  0.00     0.031 A 
ATOM     64  C   UNL A   1      40.266  33.599  35.281  1.00  0.00     0.131 A 
ATOM     65  C   UNL A   1      38.705  32.577  37.332  1.00  0.00     0.055 A 
ATOM     66  C   UNL A   1      39.600  34.472  36.139  1.00  0.00     0.041 A 
ATOM     67  F   UNL A   1      40.963  34.128  34.261  1.00  0.00    -0.206 F 
ATOM     68  C   UNL A   1      38.796  33.961  37.155  1.00  0.00     0.022 A 
BRANCH  65  69
ATOM     69  S   UNL A   1      37.498  31.942  38.528  1.00  0.00     0.124 S 
ATOM     70  O   UNL A   1      38.246  32.022  39.779  1.00  0.00    -0.237 OA
ATOM     71  O   UNL A   1      36.399  32.897  38.393  1.00  0.00    -0.237 OA
ATOM     72  O   UNL A   1      37.211  30.592  38.057  1.00  0.00    -0.744 OA
ENDBRANCH  65  69
ENDBRANCH  39  62
ENDBRANCH  13  14
ENDBRANCH   6   8
ENDBRANCH   5   6
ENDBRANCH   4   5
ENDBRANCH   3   4
ENDBRANCH   2   3
ENDBRANCH   1   2
BRANCH   1  73
ATOM     73  C   UNL A   1      41.757  20.105  27.357  1.00  0.00     0.188 C 
BRANCH  73  74
ATOM     74  O   UNL A   1      40.572  20.854  27.588  1.00  0.00    -0.376 OA
BRANCH  74  75
ATOM     75  C   UNL A   1      40.293  21.901  26.659  1.00  0.00     0.202 C 
BRANCH  75  76
ATOM     76  C   UNL A   1      38.860  22.474  26.499  1.00  0.00     0.261 C 
BRANCH  76  77
ATOM     77  O   UNL A   1      38.305  22.271  25.193  1.00  0.00    -0.459 OA
BRANCH  77  78
ATOM     78  C   UNL A   1      37.484  21.219  24.935  1.00  0.00     0.365 C 
ATOM     79  O   UNL A   1      37.846  20.046  24.845  1.00  0.00    -0.245 OA
BRANCH  78  80
ATOM     80  C   UNL A   1      36.030  21.700  25.046  1.00  0.00     0.298 C 
ATOM     81  C   UNL A   1      35.305  22.172  23.742  1.00  0.00     0.111 C 
ATOM     82  N   UNL A   1      35.290  20.737  25.935  1.00  0.00    -0.326 N 
ATOM     83  C   UNL A   1      33.923  22.664  24.092  1.00  0.00    -0.024 C 
ATOM     84  C   UNL A   1      33.830  20.652  25.600  1.00  0.00     0.243 C 
ATOM     85  H   UNL A   1      35.387  21.045  26.903  1.00  0.00     0.347 HD
ATOM     86  H   UNL A   1      35.696  19.811  25.794  1.00  0.00     0.347 HD
ATOM     87  C   UNL A   1      32.998  23.476  23.588  1.00  0.00     0.002 A 
ATOM     88  C   UNL A   1      33.461  22.156  25.419  1.00  0.00     0.196 C 
ATOM     89  C   UNL A   1      32.669  24.185  22.391  1.00  0.00     0.010 A 
ATOM     90  C   UNL A   1      32.119  23.652  24.772  1.00  0.00     0.066 A 
ATOM     91  N   UNL A   1      32.113  22.714  25.682  1.00  0.00    -0.270 NA
ATOM     92  C   UNL A   1      31.829  25.235  22.478  1.00  0.00     0.001 A 
ATOM     93  C   UNL A   1      31.471  24.985  24.878  1.00  0.00     0.028 A 
ATOM     94  C   UNL A   1      31.416  25.749  23.773  1.00  0.00     0.002 A 
BRANCH  84  95
ATOM     95  C   UNL A   1      33.562  19.577  24.514  1.00  0.00     0.012 A 
ATOM     96  C   UNL A   1      32.496  19.696  23.611  1.00  0.00     0.010 A 
ATOM     97  C   UNL A   1      34.295  18.360  24.451  1.00  0.00     0.010 A 
ATOM     98  C   UNL A   1      32.166  18.646  22.732  1.00  0.00     0.001 A 
ATOM     99  C   UNL A   1      33.987  17.330  23.556  1.00  0.00     0.001 A 
ATOM    100  C   UNL A   1      32.909  17.466  22.703  1.00  0.00     0.000 A 
ENDBRANCH  84  95
ENDBRANCH  78  80
ENDBRANCH  77  78
ENDBRANCH  76  77
ENDBRANCH  75  76
ENDBRANCH  74  75
ENDBRANCH  73  74
ENDBRANCH   1  73
TORSDOF 21
ENDMDL
MODEL 2
REMARK VINA RESULT:     -11.5      2.104      2.556
REMARK SMILES O=C(OCCOCCOCCOC(=O)[C@H]1CC2=c3ccccc3=N[C@H]2[C@@H](c2ccccc2)[NH2+]1)c1ccc(-c2c3nc(c(-c4cc(S(=O)(=O)[O-])ccc4F)c4ccc([nH]4)c(-c4cc(S(=O)(=O)[O-])ccc4F)c4nc(c(-c5cc(S(=O)(=O)[O-])ccc5F)c5ccc2[nH]5)C=C4)C=C3)cc1
REMARK SMILES IDX 7 1 6 2 5 3 4 4 3 5 2 6 1 7 34 8 35 9 96 10 36 11 95 12
REMARK SMILES IDX 37 13 38 14 39 15 89 16 40 17 94 18 88 19 90 20 41 21 93 22
REMARK SMILES IDX 87 23 86 24 42 26 74 27 54 28 73 29 55 30 58 31 72 32 91 33
REMARK SMILES IDX 56 34 57 35 71 37 92 38 59 39 43 40 44 41 52 42 45 43 51 44
REMARK SMILES IDX 53 45 50 46 46 47 47 48 48 49 49 50 75 51 76 52 84 53 77 54
REMARK SMILES IDX 83 55 85 56 82 57 78 58 79 59 80 60 81 61 60 62 61 63 69 64
REMARK SMILES IDX 62 65 68 66 70 67 67 68 63 69 64 70 65 71 66 72 8 73 9 74
REMARK SMILES IDX 10 75 11 76 12 77 13 78 14 79 15 80 16 81 33 82 17 83 26 84
REMARK SMILES IDX 18 87 25 88 19 89 23 90 24 91 20 92 22 93 21 94 27 95 28 96
REMARK SMILES IDX 32 97 29 98 31 99 30 100
REMARK H PARENT 90 25 58 36 33 85 33 86
REMARK Flexibility Score: inf
ROOT
ATOM      1  C   UNL A   1      40.860  21.206  26.885  1.00  0.00     0.188 C 
ENDROOT
BRANCH   1   2
ATOM      2  O   UNL A   1      41.554  20.338  25.981  1.00  0.00    -0.376 OA
BRANCH   2   3
ATOM      3  C   UNL A   1      42.971  20.324  26.127  1.00  0.00     0.202 C 
BRANCH   3   4
ATOM      4  C   UNL A   1      43.754  21.213  25.156  1.00  0.00     0.261 C 
BRANCH   4   5
ATOM      5  O   UNL A   1      43.196  22.511  24.911  1.00  0.00    -0.460 OA
BRANCH   5   6
ATOM      6  C   UNL A   1      43.737  23.728  25.170  1.00  0.00     0.338 C 
ATOM      7  O   UNL A   1      44.668  24.106  24.459  1.00  0.00    -0.246 OA
BRANCH   6   8
ATOM      8  C   UNL A   1      43.373  24.566  26.360  1.00  0.00     0.060 A 
ATOM      9  C   UNL A   1      44.242  25.628  26.666  1.00  0.00     0.016 A 
ATOM     10  C   UNL A   1      42.246  24.400  27.171  1.00  0.00     0.016 A 
ATOM     11  C   UNL A   1      44.000  26.469  27.761  1.00  0.00     0.010 A 
ATOM     12  C   UNL A   1      42.010  25.224  28.278  1.00  0.00     0.010 A 
ATOM     13  C   UNL A   1      42.871  26.278  28.574  1.00  0.00    -0.014 A 
BRANCH  13  14
ATOM     14  C   UNL A   1      42.438  27.340  29.509  1.00  0.00     0.031 A 
ATOM     15  C   UNL A   1      41.443  28.404  29.180  1.00  0.00     0.074 A 
ATOM     16  C   UNL A   1      43.032  27.377  30.715  1.00  0.00     0.049 A 
ATOM     17  N   UNL A   1      40.617  28.994  30.002  1.00  0.00    -0.248 NA
ATOM     18  C   UNL A   1      41.324  28.869  27.791  1.00  0.00     0.031 C 
ATOM     19  C   UNL A   1      44.152  26.531  31.128  1.00  0.00     0.029 A 
ATOM     20  N   UNL A   1      42.803  28.189  31.790  1.00  0.00    -0.354 N 
ATOM     21  C   UNL A   1      39.740  29.714  29.203  1.00  0.00     0.074 A 
ATOM     22  C   UNL A   1      40.223  29.620  27.849  1.00  0.00     0.031 C 
ATOM     23  C   UNL A   1      44.541  26.900  32.356  1.00  0.00     0.029 A 
ATOM     24  C   UNL A   1      43.683  27.986  32.822  1.00  0.00     0.049 A 
ATOM     25  H   UNL A   1      42.080  28.855  31.821  1.00  0.00     0.167 HD
ATOM     26  C   UNL A   1      38.606  30.319  29.615  1.00  0.00     0.034 A 
ATOM     27  C   UNL A   1      43.776  28.608  34.011  1.00  0.00     0.034 A 
ATOM     28  C   UNL A   1      38.385  30.673  30.991  1.00  0.00     0.049 A 
ATOM     29  C   UNL A   1      42.683  29.569  34.395  1.00  0.00     0.074 A 
ATOM     30  C   UNL A   1      37.320  31.376  31.523  1.00  0.00     0.029 A 
ATOM     31  N   UNL A   1      39.302  30.488  32.009  1.00  0.00    -0.354 N 
ATOM     32  N   UNL A   1      41.590  29.875  33.736  1.00  0.00    -0.248 NA
ATOM     33  C   UNL A   1      42.802  30.237  35.696  1.00  0.00     0.031 C 
ATOM     34  C   UNL A   1      37.659  31.732  32.825  1.00  0.00     0.029 A 
ATOM     35  C   UNL A   1      38.890  31.172  33.134  1.00  0.00     0.049 A 
ATOM     36  H   UNL A   1      40.124  29.949  31.942  1.00  0.00     0.167 HD
ATOM     37  C   UNL A   1      40.863  30.722  34.566  1.00  0.00     0.074 A 
ATOM     38  C   UNL A   1      41.644  30.882  35.774  1.00  0.00     0.031 C 
ATOM     39  C   UNL A   1      39.655  31.299  34.351  1.00  0.00     0.034 A 
BRANCH  26  40
ATOM     40  C   UNL A   1      37.476  30.636  28.677  1.00  0.00     0.023 A 
ATOM     41  C   UNL A   1      36.843  31.888  28.671  1.00  0.00     0.031 A 
ATOM     42  C   UNL A   1      36.786  29.529  28.140  1.00  0.00     0.131 A 
ATOM     43  C   UNL A   1      35.528  31.990  28.183  1.00  0.00     0.055 A 
ATOM     44  C   UNL A   1      35.464  29.633  27.712  1.00  0.00     0.041 A 
ATOM     45  F   UNL A   1      37.342  28.306  28.159  1.00  0.00    -0.206 F 
ATOM     46  C   UNL A   1      34.829  30.866  27.728  1.00  0.00     0.022 A 
BRANCH  43  47
ATOM     47  S   UNL A   1      34.614  33.554  28.276  1.00  0.00     0.124 S 
ATOM     48  O   UNL A   1      33.255  33.122  27.957  1.00  0.00    -0.237 OA
ATOM     49  O   UNL A   1      34.825  33.968  29.662  1.00  0.00    -0.237 OA
ATOM     50  O   UNL A   1      35.256  34.391  27.269  1.00  0.00    -0.744 OA
ENDBRANCH  43  47
ENDBRANCH  26  40
BRANCH  27  51
ATOM     51  C   UNL A   1      44.904  28.255  34.914  1.00  0.00     0.023 A 
ATOM     52  C   UNL A   1      44.727  27.292  35.925  1.00  0.00     0.031 A 
ATOM     53  C   UNL A   1      46.120  28.950  34.865  1.00  0.00     0.131 A 
ATOM     54  C   UNL A   1      45.725  27.098  36.886  1.00  0.00     0.055 A 
ATOM     55  C   UNL A   1      47.142  28.702  35.783  1.00  0.00     0.041 A 
ATOM     56  F   UNL A   1      46.324  29.896  33.935  1.00  0.00    -0.206 F 
ATOM     57  C   UNL A   1      46.939  27.785  36.811  1.00  0.00     0.022 A 
BRANCH  54  58
ATOM     58  S   UNL A   1      45.417  26.062  38.343  1.00  0.00     0.124 S 
ATOM     59  O   UNL A   1      45.367  24.725  37.760  1.00  0.00    -0.237 OA
ATOM     60  O   UNL A   1      46.588  26.348  39.169  1.00  0.00    -0.237 OA
ATOM     61  O   UNL A   1      44.153  26.569  38.867  1.00  0.00    -0.744 OA
ENDBRANCH  54  58
ENDBRANCH  27  51
BRANCH  39  62
ATOM     62  C   UNL A   1      39.045  32.157  35.426  1.00  0.00     0.023 A 
ATOM     63  C   UNL A   1      39.469  33.494  35.558  1.00  0.00     0.031 A 
ATOM     64  C   UNL A   1      38.237  31.612  36.436  1.00  0.00     0.131 A 
ATOM     65  C   UNL A   1      39.149  34.215  36.711  1.00  0.00     0.055 A 
ATOM     66  C   UNL A   1      37.856  32.360  37.549  1.00  0.00     0.041 A 
ATOM     67  F   UNL A   1      37.826  30.334  36.366  1.00  0.00    -0.206 F 
ATOM     68  C   UNL A   1      38.333  33.660  37.702  1.00  0.00     0.022 A 
BRANCH  65  69
ATOM     69  S   UNL A   1      39.914  35.828  37.035  1.00  0.00     0.124 S 
ATOM     70  O   UNL A   1      39.613  36.554  35.804  1.00  0.00    -0.237 OA
ATOM     71  O   UNL A   1      39.189  36.280  38.220  1.00  0.00    -0.237 OA
ATOM     72  O   UNL A   1      41.323  35.515  37.247  1.00  0.00    -0.744 OA
ENDBRANCH  65  69
ENDBRANCH  39  62
ENDBRANCH  13  14
ENDBRANCH   6   8
ENDBRANCH   5   6
ENDBRANCH   4   5
ENDBRANCH   3   4
ENDBRANCH   2   3
ENDBRANCH   1   2
BRANCH   1  73
ATOM     73  C   UNL A   1      39.568  21.816  26.328  1.00  0.00     0.188 C 
BRANCH  73  74
ATOM     74  O   UNL A   1      38.933  20.922  25.424  1.00  0.00    -0.376 OA
BRANCH  74  75
ATOM     75  C   UNL A   1      37.554  21.167  25.153  1.00  0.00     0.202 C 
BRANCH  75  76
ATOM     76  C   UNL A   1      37.113  22.041  23.950  1.00  0.00     0.261 C 
BRANCH  76  77
ATOM     77  O   UNL A   1      36.879  23.413  24.294  1.00  0.00    -0.459 OA
BRANCH  77  78
ATOM     78  C   UNL A   1      36.622  23.781  25.577  1.00  0.00     0.365 C 
ATOM     79  O   UNL A   1      37.461  24.205  26.371  1.00  0.00    -0.245 OA
BRANCH  78  80
ATOM     80  C   UNL A   1      35.100  23.832  25.771  1.00  0.00     0.298 C 
ATOM     81  C   UNL A   1      34.200  24.050  24.509  1.00  0.00     0.111 C 
ATOM     82  N   UNL A   1      34.715  22.720  26.708  1.00  0.00    -0.326 N 
ATOM     83  C   UNL A   1      32.756  24.138  24.939  1.00  0.00    -0.024 C 
ATOM     84  C   UNL A   1      33.323  22.217  26.461  1.00  0.00     0.243 C 
ATOM     85  H   UNL A   1      34.774  23.064  27.667  1.00  0.00     0.347 HD
ATOM     86  H   UNL A   1      35.359  21.944  26.549  1.00  0.00     0.347 HD
ATOM     87  C   UNL A   1      31.612  24.643  24.486  1.00  0.00     0.002 A 
ATOM     88  C   UNL A   1      32.532  23.550  26.294  1.00  0.00     0.196 C 
ATOM     89  C   UNL A   1      31.030  25.202  23.306  1.00  0.00     0.010 A 
ATOM     90  C   UNL A   1      30.787  24.589  25.719  1.00  0.00     0.066 A 
ATOM     91  N   UNL A   1      31.098  23.709  26.633  1.00  0.00    -0.270 NA
ATOM     92  C   UNL A   1      29.932  25.972  23.437  1.00  0.00     0.001 A 
ATOM     93  C   UNL A   1      29.793  25.686  25.855  1.00  0.00     0.028 A 
ATOM     94  C   UNL A   1      29.462  26.378  24.750  1.00  0.00     0.002 A 
BRANCH  84  95
ATOM     95  C   UNL A   1      33.312  21.085  25.399  1.00  0.00     0.012 A 
ATOM     96  C   UNL A   1      32.325  21.022  24.406  1.00  0.00     0.010 A 
ATOM     97  C   UNL A   1      34.217  19.989  25.447  1.00  0.00     0.010 A 
ATOM     98  C   UNL A   1      32.231  19.911  23.544  1.00  0.00     0.001 A 
ATOM     99  C   UNL A   1      34.143  18.902  24.570  1.00  0.00     0.001 A 
ATOM    100  C   UNL A   1      33.137  18.854  23.624  1.00  0.00     0.000 A 
ENDBRANCH  84  95
ENDBRANCH  78  80
ENDBRANCH  77  78
ENDBRANCH  76  77
ENDBRANCH  75  76
ENDBRANCH  74  75
ENDBRANCH  73  74
ENDBRANCH   1  73
TORSDOF 21
ENDMDL
MODEL 3
REMARK VINA RESULT:     -11.4      4.430      6.365
REMARK SMILES O=C(OCCOCCOCCOC(=O)[C@H]1CC2=c3ccccc3=N[C@H]2[C@@H](c2ccccc2)[NH2+]1)c1ccc(-c2c3nc(c(-c4cc(S(=O)(=O)[O-])ccc4F)c4ccc([nH]4)c(-c4cc(S(=O)(=O)[O-])ccc4F)c4nc(c(-c5cc(S(=O)(=O)[O-])ccc5F)c5ccc2[nH]5)C=C4)C=C3)cc1
REMARK SMILES IDX 7 1 6 2 5 3 4 4 3 5 2 6 1 7 34 8 35 9 96 10 36 11 95 12
REMARK SMILES IDX 37 13 38 14 39 15 89 16 40 17 94 18 88 19 90 20 41 21 93 22
REMARK SMILES IDX 87 23 86 24 42 26 74 27 54 28 73 29 55 30 58 31 72 32 91 33
REMARK SMILES IDX 56 34 57 35 71 37 92 38 59 39 43 40 44 41 52 42 45 43 51 44
REMARK SMILES IDX 53 45 50 46 46 47 47 48 48 49 49 50 75 51 76 52 84 53 77 54
REMARK SMILES IDX 83 55 85 56 82 57 78 58 79 59 80 60 81 61 60 62 61 63 69 64
REMARK SMILES IDX 62 65 68 66 70 67 67 68 63 69 64 70 65 71 66 72 8 73 9 74
REMARK SMILES IDX 10 75 11 76 12 77 13 78 14 79 15 80 16 81 33 82 17 83 26 84
REMARK SMILES IDX 18 87 25 88 19 89 23 90 24 91 20 92 22 93 21 94 27 95 28 96
REMARK SMILES IDX 32 97 29 98 31 99 30 100
REMARK H PARENT 90 25 58 36 33 85 33 86
REMARK Flexibility Score: inf
ROOT
ATOM      1  C   UNL A   1      41.269  20.529  25.916  1.00  0.00     0.188 C 
ENDROOT
BRANCH   1   2
ATOM      2  O   UNL A   1      41.529  19.130  25.743  1.00  0.00    -0.376 OA
BRANCH   2   3
ATOM      3  C   UNL A   1      42.521  18.589  26.611  1.00  0.00     0.202 C 
BRANCH   3   4
ATOM      4  C   UNL A   1      43.695  17.883  25.928  1.00  0.00     0.261 C 
BRANCH   4   5
ATOM      5  O   UNL A   1      44.086  18.413  24.654  1.00  0.00    -0.460 OA
BRANCH   5   6
ATOM      6  C   UNL A   1      45.013  19.365  24.382  1.00  0.00     0.338 C 
ATOM      7  O   UNL A   1      46.119  18.996  23.987  1.00  0.00    -0.246 OA
BRANCH   6   8
ATOM      8  C   UNL A   1      44.822  20.824  24.679  1.00  0.00     0.060 A 
ATOM      9  C   UNL A   1      44.927  21.206  26.028  1.00  0.00     0.016 A 
ATOM     10  C   UNL A   1      44.572  21.830  23.741  1.00  0.00     0.016 A 
ATOM     11  C   UNL A   1      44.759  22.541  26.418  1.00  0.00     0.010 A 
ATOM     12  C   UNL A   1      44.383  23.163  24.125  1.00  0.00     0.010 A 
ATOM     13  C   UNL A   1      44.494  23.537  25.462  1.00  0.00    -0.014 A 
BRANCH  13  14
ATOM     14  C   UNL A   1      44.643  24.966  25.815  1.00  0.00     0.031 A 
ATOM     15  C   UNL A   1      43.506  25.895  26.085  1.00  0.00     0.074 A 
ATOM     16  C   UNL A   1      45.891  25.467  25.832  1.00  0.00     0.049 A 
ATOM     17  N   UNL A   1      43.500  26.923  26.891  1.00  0.00    -0.248 NA
ATOM     18  C   UNL A   1      42.220  25.670  25.410  1.00  0.00     0.031 C 
ATOM     19  C   UNL A   1      47.094  24.748  25.413  1.00  0.00     0.029 A 
ATOM     20  N   UNL A   1      46.340  26.713  26.173  1.00  0.00    -0.354 N 
ATOM     21  C   UNL A   1      42.172  27.314  26.993  1.00  0.00     0.074 A 
ATOM     22  C   UNL A   1      41.421  26.524  26.051  1.00  0.00     0.031 C 
ATOM     23  C   UNL A   1      48.141  25.581  25.482  1.00  0.00     0.029 A 
ATOM     24  C   UNL A   1      47.686  26.879  25.972  1.00  0.00     0.049 A 
ATOM     25  H   UNL A   1      45.755  27.421  26.526  1.00  0.00     0.167 HD
ATOM     26  C   UNL A   1      41.675  28.212  27.869  1.00  0.00     0.034 A 
ATOM     27  C   UNL A   1      48.460  27.962  26.171  1.00  0.00     0.034 A 
ATOM     28  C   UNL A   1      42.505  29.199  28.508  1.00  0.00     0.049 A 
ATOM     29  C   UNL A   1      47.852  29.149  26.867  1.00  0.00     0.074 A 
ATOM     30  C   UNL A   1      42.108  30.227  29.342  1.00  0.00     0.029 A 
ATOM     31  N   UNL A   1      43.855  29.368  28.264  1.00  0.00    -0.354 N 
ATOM     32  N   UNL A   1      46.644  29.280  27.364  1.00  0.00    -0.248 NA
ATOM     33  C   UNL A   1      48.713  30.319  27.074  1.00  0.00     0.031 C 
ATOM     34  C   UNL A   1      43.189  31.092  29.488  1.00  0.00     0.029 A 
ATOM     35  C   UNL A   1      44.282  30.554  28.825  1.00  0.00     0.049 A 
ATOM     36  H   UNL A   1      44.426  28.738  27.766  1.00  0.00     0.167 HD
ATOM     37  C   UNL A   1      46.619  30.520  27.994  1.00  0.00     0.074 A 
ATOM     38  C   UNL A   1      47.932  31.100  27.812  1.00  0.00     0.031 C 
ATOM     39  C   UNL A   1      45.604  31.112  28.673  1.00  0.00     0.034 A 
BRANCH  26  40
ATOM     40  C   UNL A   1      40.228  28.229  28.272  1.00  0.00     0.023 A 
ATOM     41  C   UNL A   1      39.435  29.380  28.151  1.00  0.00     0.031 A 
ATOM     42  C   UNL A   1      39.824  27.224  29.176  1.00  0.00     0.131 A 
ATOM     43  C   UNL A   1      38.298  29.519  28.967  1.00  0.00     0.055 A 
ATOM     44  C   UNL A   1      38.728  27.400  30.018  1.00  0.00     0.041 A 
ATOM     45  F   UNL A   1      40.574  26.123  29.349  1.00  0.00    -0.206 F 
ATOM     46  C   UNL A   1      37.957  28.548  29.915  1.00  0.00     0.022 A 
BRANCH  43  47
ATOM     47  S   UNL A   1      37.314  31.043  28.948  1.00  0.00     0.124 S 
ATOM     48  O   UNL A   1      36.509  30.861  27.741  1.00  0.00    -0.237 OA
ATOM     49  O   UNL A   1      36.573  30.962  30.205  1.00  0.00    -0.237 OA
ATOM     50  O   UNL A   1      38.314  32.100  28.878  1.00  0.00    -0.744 OA
ENDBRANCH  43  47
ENDBRANCH  26  40
BRANCH  27  51
ATOM     51  C   UNL A   1      49.890  27.898  25.769  1.00  0.00     0.023 A 
ATOM     52  C   UNL A   1      50.253  28.043  24.416  1.00  0.00     0.031 A 
ATOM     53  C   UNL A   1      50.893  27.574  26.693  1.00  0.00     0.131 A 
ATOM     54  C   UNL A   1      51.571  27.797  24.017  1.00  0.00     0.055 A 
ATOM     55  C   UNL A   1      52.221  27.400  26.302  1.00  0.00     0.041 A 
ATOM     56  F   UNL A   1      50.590  27.401  27.989  1.00  0.00    -0.206 F 
ATOM     57  C   UNL A   1      52.562  27.493  24.955  1.00  0.00     0.022 A 
BRANCH  54  58
ATOM     58  S   UNL A   1      52.005  27.716  22.257  1.00  0.00     0.124 S 
ATOM     59  O   UNL A   1      52.788  26.486  22.195  1.00  0.00    -0.237 OA
ATOM     60  O   UNL A   1      50.688  27.659  21.625  1.00  0.00    -0.237 OA
ATOM     61  O   UNL A   1      52.747  28.950  22.027  1.00  0.00    -0.744 OA
ENDBRANCH  54  58
ENDBRANCH  27  51
BRANCH  39  62
ATOM     62  C   UNL A   1      45.829  32.458  29.309  1.00  0.00     0.023 A 
ATOM     63  C   UNL A   1      46.207  32.520  30.664  1.00  0.00     0.031 A 
ATOM     64  C   UNL A   1      45.461  33.649  28.663  1.00  0.00     0.131 A 
ATOM     65  C   UNL A   1      46.133  33.734  31.352  1.00  0.00     0.055 A 
ATOM     66  C   UNL A   1      45.463  34.871  29.334  1.00  0.00     0.041 A 
ATOM     67  F   UNL A   1      45.071  33.637  27.378  1.00  0.00    -0.206 F 
ATOM     68  C   UNL A   1      45.776  34.913  30.691  1.00  0.00     0.022 A 
BRANCH  65  69
ATOM     69  S   UNL A   1      46.337  33.790  33.154  1.00  0.00     0.124 S 
ATOM     70  O   UNL A   1      47.697  34.307  33.285  1.00  0.00    -0.237 OA
ATOM     71  O   UNL A   1      45.276  34.710  33.556  1.00  0.00    -0.237 OA
ATOM     72  O   UNL A   1      46.154  32.404  33.573  1.00  0.00    -0.744 OA
ENDBRANCH  65  69
ENDBRANCH  39  62
ENDBRANCH  13  14
ENDBRANCH   6   8
ENDBRANCH   5   6
ENDBRANCH   4   5
ENDBRANCH   3   4
ENDBRANCH   2   3
ENDBRANCH   1   2
BRANCH   1  73
ATOM     73  C   UNL A   1      40.762  20.922  27.309  1.00  0.00     0.188 C 
BRANCH  73  74
ATOM     74  O   UNL A   1      41.016  22.296  27.572  1.00  0.00    -0.376 OA
BRANCH  74  75
ATOM     75  C   UNL A   1      39.918  23.189  27.389  1.00  0.00     0.202 C 
BRANCH  75  76
ATOM     76  C   UNL A   1      39.026  23.119  26.123  1.00  0.00     0.261 C 
BRANCH  76  77
ATOM     77  O   UNL A   1      37.712  22.603  26.375  1.00  0.00    -0.459 OA
BRANCH  77  78
ATOM     78  C   UNL A   1      37.107  21.765  25.493  1.00  0.00     0.365 C 
ATOM     79  O   UNL A   1      37.653  20.814  24.934  1.00  0.00    -0.245 OA
BRANCH  78  80
ATOM     80  C   UNL A   1      35.596  22.037  25.524  1.00  0.00     0.298 C 
ATOM     81  C   UNL A   1      34.890  22.448  24.189  1.00  0.00     0.111 C 
ATOM     82  N   UNL A   1      34.947  20.952  26.340  1.00  0.00    -0.326 N 
ATOM     83  C   UNL A   1      33.435  22.733  24.464  1.00  0.00    -0.024 C 
ATOM     84  C   UNL A   1      33.535  20.678  25.912  1.00  0.00     0.243 C 
ATOM     85  H   UNL A   1      34.943  21.238  27.319  1.00  0.00     0.347 HD
ATOM     86  H   UNL A   1      35.486  20.097  26.202  1.00  0.00     0.347 HD
ATOM     87  C   UNL A   1      32.437  23.426  23.923  1.00  0.00     0.002 A 
ATOM     88  C   UNL A   1      32.971  22.122  25.746  1.00  0.00     0.196 C 
ATOM     89  C   UNL A   1      32.083  24.122  22.726  1.00  0.00     0.010 A 
ATOM     90  C   UNL A   1      31.474  23.439  25.054  1.00  0.00     0.066 A 
ATOM     91  N   UNL A   1      31.546  22.480  25.938  1.00  0.00    -0.270 NA
ATOM     92  C   UNL A   1      31.101  25.043  22.786  1.00  0.00     0.001 A 
ATOM     93  C   UNL A   1      30.641  24.667  25.151  1.00  0.00     0.028 A 
ATOM     94  C   UNL A   1      30.545  25.452  24.065  1.00  0.00     0.002 A 
BRANCH  84  95
ATOM     95  C   UNL A   1      33.484  19.613  24.785  1.00  0.00     0.012 A 
ATOM     96  C   UNL A   1      32.412  19.550  23.883  1.00  0.00     0.010 A 
ATOM     97  C   UNL A   1      34.447  18.572  24.678  1.00  0.00     0.010 A 
ATOM     98  C   UNL A   1      32.297  18.489  22.963  1.00  0.00     0.001 A 
ATOM     99  C   UNL A   1      34.348  17.536  23.744  1.00  0.00     0.001 A 
ATOM    100  C   UNL A   1      33.261  17.485  22.892  1.00  0.00     0.000 A 
ENDBRANCH  84  95
ENDBRANCH  78  80
ENDBRANCH  77  78
ENDBRANCH  76  77
ENDBRANCH  75  76
ENDBRANCH  74  75
ENDBRANCH  73  74
ENDBRANCH   1  73
TORSDOF 21
ENDMDL
