MODEL 1
REMARK VINA RESULT:     -10.2      0.000      0.000
REMARK SMILES O=C(Cc1cccn1-c1ccc2c(c1)OCCO2)OCCOCCOCCOC(=O)c1ccc(-c2c3nc(c(-c4cc(S(=O)(=O)[O-])ccc4F)c4ccc([nH]4)c(-c4cc(S(=O)(=O)[O-])ccc4F)c4nc(c(-c5cc(S(=O)(=O)[O-])ccc5F)c5ccc2[nH]5)C=C4)C=C3)cc1
REMARK SMILES IDX 24 1 23 2 22 3 21 4 20 5 19 6 2 7 1 8 3 9 4 10 5 11 8 12
REMARK SMILES IDX 6 13 7 14 9 15 10 16 14 17 11 18 13 19 12 20 15 21 18 22
REMARK SMILES IDX 16 23 17 24 25 25 26 26 27 27 28 28 29 29 30 30 31 31 32 32
REMARK SMILES IDX 93 33 33 34 92 35 34 36 35 37 36 38 86 39 37 40 91 41 85 42
REMARK SMILES IDX 87 43 38 44 90 45 84 46 83 47 39 49 71 50 51 51 70 52 52 53
REMARK SMILES IDX 55 54 69 55 88 56 53 57 54 58 68 60 89 61 56 62 40 63 41 64
REMARK SMILES IDX 49 65 42 66 48 67 50 68 47 69 43 70 44 71 45 72 46 73 72 74
REMARK SMILES IDX 73 75 81 76 74 77 80 78 82 79 79 80 75 81 76 82 77 83 78 84
REMARK SMILES IDX 57 85 58 86 66 87 59 88 65 89 67 90 64 91 60 92 61 93 62 94
REMARK SMILES IDX 63 95
REMARK H PARENT 87 48 55 59
REMARK Flexibility Score: inf
ROOT
ATOM      1  C   UNL A   1      33.621  35.330  29.908  1.00  0.00     0.188 C 
ENDROOT
BRANCH   1   2
ATOM      2  C   UNL A   1      32.556  36.070  30.741  1.00  0.00     0.188 C 
BRANCH   2   3
ATOM      3  O   UNL A   1      32.932  37.322  31.278  1.00  0.00    -0.376 OA
BRANCH   3   4
ATOM      4  C   UNL A   1      33.992  37.397  32.217  1.00  0.00     0.202 C 
BRANCH   4   5
ATOM      5  C   UNL A   1      33.865  36.620  33.530  1.00  0.00     0.261 C 
BRANCH   5   6
ATOM      6  O   UNL A   1      34.822  35.569  33.773  1.00  0.00    -0.463 OA
BRANCH   6   7
ATOM      7  C   UNL A   1      34.616  34.282  33.406  1.00  0.00     0.311 C 
ATOM      8  O   UNL A   1      33.499  33.895  33.074  1.00  0.00    -0.252 OA
BRANCH   7   9
ATOM      9  C   UNL A   1      35.760  33.326  33.632  1.00  0.00     0.177 C 
BRANCH   9  10
ATOM     10  C   UNL A   1      36.978  33.727  32.867  1.00  0.00     0.034 A 
ATOM     11  C   UNL A   1      37.053  34.202  31.567  1.00  0.00     0.024 A 
ATOM     12  N   UNL A   1      38.238  33.846  33.437  1.00  0.00    -0.320 N 
ATOM     13  C   UNL A   1      38.369  34.649  31.342  1.00  0.00     0.020 A 
ATOM     14  C   UNL A   1      39.065  34.452  32.512  1.00  0.00     0.091 A 
BRANCH  12  15
ATOM     15  C   UNL A   1      38.610  33.531  34.770  1.00  0.00     0.049 A 
ATOM     16  C   UNL A   1      38.913  32.203  35.094  1.00  0.00     0.031 A 
ATOM     17  C   UNL A   1      38.743  34.542  35.729  1.00  0.00     0.077 A 
ATOM     18  C   UNL A   1      39.405  31.898  36.366  1.00  0.00     0.052 A 
ATOM     19  C   UNL A   1      39.245  34.231  36.990  1.00  0.00     0.163 A 
ATOM     20  C   UNL A   1      39.564  32.909  37.312  1.00  0.00     0.161 A 
ATOM     21  O   UNL A   1      39.408  35.278  37.861  1.00  0.00    -0.486 OA
ATOM     22  O   UNL A   1      40.051  32.532  38.538  1.00  0.00    -0.486 OA
ATOM     23  C   UNL A   1      40.259  34.918  38.955  1.00  0.00     0.271 C 
ATOM     24  C   UNL A   1      39.860  33.563  39.514  1.00  0.00     0.271 C 
ENDBRANCH  12  15
ENDBRANCH   9  10
ENDBRANCH   7   9
ENDBRANCH   6   7
ENDBRANCH   5   6
ENDBRANCH   4   5
ENDBRANCH   3   4
ENDBRANCH   2   3
ENDBRANCH   1   2
BRANCH   1  25
ATOM     25  O   UNL A   1      33.443  34.984  28.540  1.00  0.00    -0.376 OA
BRANCH  25  26
ATOM     26  C   UNL A   1      34.066  33.867  27.928  1.00  0.00     0.202 C 
BRANCH  26  27
ATOM     27  C   UNL A   1      35.374  33.317  28.481  1.00  0.00     0.261 C 
BRANCH  27  28
ATOM     28  O   UNL A   1      35.589  31.946  28.184  1.00  0.00    -0.460 OA
BRANCH  28  29
ATOM     29  C   UNL A   1      35.831  31.212  29.281  1.00  0.00     0.338 C 
ATOM     30  O   UNL A   1      35.563  31.503  30.445  1.00  0.00    -0.246 OA
BRANCH  29  31
ATOM     31  C   UNL A   1      36.606  30.022  28.949  1.00  0.00     0.060 A 
ATOM     32  C   UNL A   1      36.999  29.242  30.040  1.00  0.00     0.016 A 
ATOM     33  C   UNL A   1      37.283  30.009  27.724  1.00  0.00     0.016 A 
ATOM     34  C   UNL A   1      38.241  28.660  30.001  1.00  0.00     0.010 A 
ATOM     35  C   UNL A   1      38.544  29.461  27.702  1.00  0.00     0.010 A 
ATOM     36  C   UNL A   1      39.039  28.871  28.871  1.00  0.00    -0.014 A 
BRANCH  36  37
ATOM     37  C   UNL A   1      40.427  28.415  28.934  1.00  0.00     0.031 A 
ATOM     38  C   UNL A   1      41.352  29.574  29.279  1.00  0.00     0.074 A 
ATOM     39  C   UNL A   1      40.636  27.100  28.614  1.00  0.00     0.049 A 
ATOM     40  N   UNL A   1      42.577  29.792  28.918  1.00  0.00    -0.248 NA
ATOM     41  C   UNL A   1      40.796  30.739  30.028  1.00  0.00     0.031 C 
ATOM     42  C   UNL A   1      39.570  26.126  28.259  1.00  0.00     0.029 A 
ATOM     43  N   UNL A   1      41.760  26.310  28.511  1.00  0.00    -0.354 N 
ATOM     44  C   UNL A   1      43.005  30.939  29.616  1.00  0.00     0.074 A 
ATOM     45  C   UNL A   1      41.827  31.576  30.110  1.00  0.00     0.031 C 
ATOM     46  C   UNL A   1      40.096  24.926  27.924  1.00  0.00     0.029 A 
ATOM     47  C   UNL A   1      41.539  24.981  28.056  1.00  0.00     0.049 A 
ATOM     48  H   UNL A   1      42.658  26.646  28.737  1.00  0.00     0.167 HD
ATOM     49  C   UNL A   1      44.314  31.179  29.913  1.00  0.00     0.034 A 
ATOM     50  C   UNL A   1      42.457  24.002  27.779  1.00  0.00     0.034 A 
ATOM     51  C   UNL A   1      45.134  30.151  29.356  1.00  0.00     0.049 A 
ATOM     52  C   UNL A   1      43.748  24.572  28.198  1.00  0.00     0.074 A 
ATOM     53  C   UNL A   1      45.478  29.811  28.076  1.00  0.00     0.029 A 
ATOM     54  N   UNL A   1      45.488  29.120  30.198  1.00  0.00    -0.354 N 
ATOM     55  N   UNL A   1      44.125  24.729  29.429  1.00  0.00    -0.248 NA
ATOM     56  C   UNL A   1      44.668  25.069  27.167  1.00  0.00     0.031 C 
ATOM     57  C   UNL A   1      45.633  28.409  28.127  1.00  0.00     0.029 A 
ATOM     58  C   UNL A   1      45.496  27.970  29.451  1.00  0.00     0.049 A 
ATOM     59  H   UNL A   1      45.697  29.195  31.157  1.00  0.00     0.167 HD
ATOM     60  C   UNL A   1      45.166  25.616  29.318  1.00  0.00     0.074 A 
ATOM     61  C   UNL A   1      45.640  25.522  27.954  1.00  0.00     0.031 C 
ATOM     62  C   UNL A   1      45.193  26.714  30.116  1.00  0.00     0.034 A 
BRANCH  49  63
ATOM     63  C   UNL A   1      44.960  32.112  30.904  1.00  0.00     0.023 A 
ATOM     64  C   UNL A   1      44.289  32.243  32.143  1.00  0.00     0.031 A 
ATOM     65  C   UNL A   1      45.950  33.069  30.633  1.00  0.00     0.131 A 
ATOM     66  C   UNL A   1      44.485  33.353  32.970  1.00  0.00     0.055 A 
ATOM     67  C   UNL A   1      46.208  34.135  31.507  1.00  0.00     0.041 A 
ATOM     68  F   UNL A   1      46.644  33.073  29.488  1.00  0.00    -0.206 F 
ATOM     69  C   UNL A   1      45.446  34.307  32.659  1.00  0.00     0.022 A 
BRANCH  66  70
ATOM     70  S   UNL A   1      43.312  33.613  34.329  1.00  0.00     0.124 S 
ATOM     71  O   UNL A   1      43.830  32.718  35.357  1.00  0.00    -0.237 OA
ATOM     72  O   UNL A   1      43.464  35.041  34.589  1.00  0.00    -0.237 OA
ATOM     73  O   UNL A   1      42.031  33.219  33.747  1.00  0.00    -0.744 OA
ENDBRANCH  66  70
ENDBRANCH  49  63
BRANCH  50  74
ATOM     74  C   UNL A   1      42.519  22.611  27.166  1.00  0.00     0.023 A 
ATOM     75  C   UNL A   1      43.524  22.111  26.319  1.00  0.00     0.031 A 
ATOM     76  C   UNL A   1      41.498  21.660  27.498  1.00  0.00     0.131 A 
ATOM     77  C   UNL A   1      43.507  20.746  25.911  1.00  0.00     0.055 A 
ATOM     78  C   UNL A   1      41.529  20.309  27.158  1.00  0.00     0.041 A 
ATOM     79  F   UNL A   1      40.401  21.998  28.187  1.00  0.00    -0.206 F 
ATOM     80  C   UNL A   1      42.547  19.838  26.366  1.00  0.00     0.022 A 
BRANCH  77  81
ATOM     81  S   UNL A   1      44.750  20.069  24.770  1.00  0.00     0.124 S 
ATOM     82  O   UNL A   1      44.372  18.660  24.714  1.00  0.00    -0.237 OA
ATOM     83  O   UNL A   1      44.539  20.838  23.549  1.00  0.00    -0.237 OA
ATOM     84  O   UNL A   1      46.010  20.344  25.463  1.00  0.00    -0.744 OA
ENDBRANCH  77  81
ENDBRANCH  50  74
BRANCH  62  85
ATOM     85  C   UNL A   1      44.446  26.545  31.439  1.00  0.00     0.023 A 
ATOM     86  C   UNL A   1      43.382  27.403  31.782  1.00  0.00     0.031 A 
ATOM     87  C   UNL A   1      44.839  25.633  32.436  1.00  0.00     0.131 A 
ATOM     88  C   UNL A   1      42.790  27.349  33.062  1.00  0.00     0.055 A 
ATOM     89  C   UNL A   1      44.251  25.570  33.704  1.00  0.00     0.041 A 
ATOM     90  F   UNL A   1      45.827  24.769  32.218  1.00  0.00    -0.206 F 
ATOM     91  C   UNL A   1      43.222  26.438  34.026  1.00  0.00     0.022 A 
BRANCH  88  92
ATOM     92  S   UNL A   1      41.419  28.470  33.464  1.00  0.00     0.124 S 
ATOM     93  O   UNL A   1      41.972  29.781  33.142  1.00  0.00    -0.237 OA
ATOM     94  O   UNL A   1      40.352  27.992  32.591  1.00  0.00    -0.237 OA
ATOM     95  O   UNL A   1      41.191  28.232  34.890  1.00  0.00    -0.744 OA
ENDBRANCH  88  92
ENDBRANCH  62  85
ENDBRANCH  36  37
ENDBRANCH  29  31
ENDBRANCH  28  29
ENDBRANCH  27  28
ENDBRANCH  26  27
ENDBRANCH  25  26
ENDBRANCH   1  25
TORSDOF 22
ENDMDL
MODEL 2
REMARK VINA RESULT:      -9.8      5.272     11.913
REMARK SMILES O=C(Cc1cccn1-c1ccc2c(c1)OCCO2)OCCOCCOCCOC(=O)c1ccc(-c2c3nc(c(-c4cc(S(=O)(=O)[O-])ccc4F)c4ccc([nH]4)c(-c4cc(S(=O)(=O)[O-])ccc4F)c4nc(c(-c5cc(S(=O)(=O)[O-])ccc5F)c5ccc2[nH]5)C=C4)C=C3)cc1
REMARK SMILES IDX 24 1 23 2 22 3 21 4 20 5 19 6 2 7 1 8 3 9 4 10 5 11 8 12
REMARK SMILES IDX 6 13 7 14 9 15 10 16 14 17 11 18 13 19 12 20 15 21 18 22
REMARK SMILES IDX 16 23 17 24 25 25 26 26 27 27 28 28 29 29 30 30 31 31 32 32
REMARK SMILES IDX 93 33 33 34 92 35 34 36 35 37 36 38 86 39 37 40 91 41 85 42
REMARK SMILES IDX 87 43 38 44 90 45 84 46 83 47 39 49 71 50 51 51 70 52 52 53
REMARK SMILES IDX 55 54 69 55 88 56 53 57 54 58 68 60 89 61 56 62 40 63 41 64
REMARK SMILES IDX 49 65 42 66 48 67 50 68 47 69 43 70 44 71 45 72 46 73 72 74
REMARK SMILES IDX 73 75 81 76 74 77 80 78 82 79 79 80 75 81 76 82 77 83 78 84
REMARK SMILES IDX 57 85 58 86 66 87 59 88 65 89 67 90 64 91 60 92 61 93 62 94
REMARK SMILES IDX 63 95
REMARK H PARENT 87 48 55 59
REMARK Flexibility Score: inf
ROOT
ATOM      1  C   UNL A   1      38.095  21.600  25.365  1.00  0.00     0.188 C 
ENDROOT
BRANCH   1   2
ATOM      2  C   UNL A   1      36.960  22.604  25.080  1.00  0.00     0.188 C 
BRANCH   2   3
ATOM      3  O   UNL A   1      36.980  23.238  23.817  1.00  0.00    -0.376 OA
BRANCH   3   4
ATOM      4  C   UNL A   1      35.939  22.991  22.887  1.00  0.00     0.202 C 
BRANCH   4   5
ATOM      5  C   UNL A   1      34.528  23.486  23.217  1.00  0.00     0.261 C 
BRANCH   5   6
ATOM      6  O   UNL A   1      33.840  24.248  22.205  1.00  0.00    -0.463 OA
BRANCH   6   7
ATOM      7  C   UNL A   1      33.047  25.307  22.488  1.00  0.00     0.311 C 
ATOM      8  O   UNL A   1      33.528  26.361  22.896  1.00  0.00    -0.252 OA
BRANCH   7   9
ATOM      9  C   UNL A   1      31.560  25.057  22.482  1.00  0.00     0.177 C 
BRANCH   9  10
ATOM     10  C   UNL A   1      31.037  24.786  23.854  1.00  0.00     0.034 A 
ATOM     11  C   UNL A   1      31.184  23.637  24.614  1.00  0.00     0.024 A 
ATOM     12  N   UNL A   1      30.454  25.757  24.658  1.00  0.00    -0.320 N 
ATOM     13  C   UNL A   1      30.715  23.911  25.913  1.00  0.00     0.020 A 
ATOM     14  C   UNL A   1      30.305  25.223  25.923  1.00  0.00     0.091 A 
BRANCH  12  15
ATOM     15  C   UNL A   1      30.169  27.102  24.308  1.00  0.00     0.049 A 
ATOM     16  C   UNL A   1      31.068  28.107  24.684  1.00  0.00     0.031 A 
ATOM     17  C   UNL A   1      29.043  27.412  23.535  1.00  0.00     0.077 A 
ATOM     18  C   UNL A   1      30.867  29.415  24.236  1.00  0.00     0.052 A 
ATOM     19  C   UNL A   1      28.858  28.716  23.083  1.00  0.00     0.163 A 
ATOM     20  C   UNL A   1      29.762  29.719  23.443  1.00  0.00     0.161 A 
ATOM     21  O   UNL A   1      27.768  28.938  22.280  1.00  0.00    -0.486 OA
ATOM     22  O   UNL A   1      29.633  31.024  23.043  1.00  0.00    -0.486 OA
ATOM     23  C   UNL A   1      27.881  30.183  21.582  1.00  0.00     0.271 C 
ATOM     24  C   UNL A   1      28.320  31.285  22.532  1.00  0.00     0.271 C 
ENDBRANCH  12  15
ENDBRANCH   9  10
ENDBRANCH   7   9
ENDBRANCH   6   7
ENDBRANCH   5   6
ENDBRANCH   4   5
ENDBRANCH   3   4
ENDBRANCH   2   3
ENDBRANCH   1   2
BRANCH   1  25
ATOM     25  O   UNL A   1      38.937  21.676  26.509  1.00  0.00    -0.376 OA
BRANCH  25  26
ATOM     26  C   UNL A   1      40.306  21.310  26.498  1.00  0.00     0.202 C 
BRANCH  26  27
ATOM     27  C   UNL A   1      41.388  22.373  26.644  1.00  0.00     0.261 C 
BRANCH  27  28
ATOM     28  O   UNL A   1      41.058  23.612  26.036  1.00  0.00    -0.460 OA
BRANCH  28  29
ATOM     29  C   UNL A   1      41.753  24.639  26.549  1.00  0.00     0.338 C 
ATOM     30  O   UNL A   1      42.959  24.678  26.782  1.00  0.00    -0.246 OA
BRANCH  29  31
ATOM     31  C   UNL A   1      40.861  25.722  26.947  1.00  0.00     0.060 A 
ATOM     32  C   UNL A   1      41.307  27.009  26.631  1.00  0.00     0.016 A 
ATOM     33  C   UNL A   1      39.949  25.466  27.978  1.00  0.00     0.016 A 
ATOM     34  C   UNL A   1      41.059  28.014  27.531  1.00  0.00     0.010 A 
ATOM     35  C   UNL A   1      39.738  26.465  28.900  1.00  0.00     0.010 A 
ATOM     36  C   UNL A   1      40.368  27.699  28.707  1.00  0.00    -0.014 A 
BRANCH  36  37
ATOM     37  C   UNL A   1      40.293  28.733  29.739  1.00  0.00     0.031 A 
ATOM     38  C   UNL A   1      41.252  28.418  30.878  1.00  0.00     0.074 A 
ATOM     39  C   UNL A   1      39.360  29.714  29.530  1.00  0.00     0.049 A 
ATOM     40  N   UNL A   1      41.148  28.674  32.144  1.00  0.00    -0.248 NA
ATOM     41  C   UNL A   1      42.449  27.572  30.597  1.00  0.00     0.031 C 
ATOM     42  C   UNL A   1      38.477  29.815  28.339  1.00  0.00     0.029 A 
ATOM     43  N   UNL A   1      38.951  30.811  30.256  1.00  0.00    -0.354 N 
ATOM     44  C   UNL A   1      42.365  28.283  32.737  1.00  0.00     0.074 A 
ATOM     45  C   UNL A   1      43.027  27.444  31.789  1.00  0.00     0.031 C 
ATOM     46  C   UNL A   1      37.614  30.850  28.457  1.00  0.00     0.029 A 
ATOM     47  C   UNL A   1      37.863  31.543  29.706  1.00  0.00     0.049 A 
ATOM     48  H   UNL A   1      39.384  31.070  31.102  1.00  0.00     0.167 HD
ATOM     49  C   UNL A   1      42.841  28.840  33.886  1.00  0.00     0.034 A 
ATOM     50  C   UNL A   1      37.193  32.616  30.232  1.00  0.00     0.034 A 
ATOM     51  C   UNL A   1      41.900  29.786  34.393  1.00  0.00     0.049 A 
ATOM     52  C   UNL A   1      37.941  32.960  31.453  1.00  0.00     0.074 A 
ATOM     53  C   UNL A   1      40.656  29.670  34.953  1.00  0.00     0.029 A 
ATOM     54  N   UNL A   1      42.116  31.107  34.069  1.00  0.00    -0.354 N 
ATOM     55  N   UNL A   1      39.102  33.538  31.473  1.00  0.00    -0.248 NA
ATOM     56  C   UNL A   1      37.384  32.573  32.755  1.00  0.00     0.031 C 
ATOM     57  C   UNL A   1      39.992  30.849  34.554  1.00  0.00     0.029 A 
ATOM     58  C   UNL A   1      40.887  31.685  33.874  1.00  0.00     0.049 A 
ATOM     59  H   UNL A   1      42.990  31.554  33.992  1.00  0.00     0.167 HD
ATOM     60  C   UNL A   1      39.541  33.294  32.750  1.00  0.00     0.074 A 
ATOM     61  C   UNL A   1      38.362  33.013  33.541  1.00  0.00     0.031 C 
ATOM     62  C   UNL A   1      40.789  32.795  32.942  1.00  0.00     0.034 A 
BRANCH  49  63
ATOM     63  C   UNL A   1      44.216  28.842  34.503  1.00  0.00     0.023 A 
ATOM     64  C   UNL A   1      44.322  28.188  35.754  1.00  0.00     0.031 A 
ATOM     65  C   UNL A   1      45.298  29.657  34.138  1.00  0.00     0.131 A 
ATOM     66  C   UNL A   1      45.365  28.467  36.642  1.00  0.00     0.055 A 
ATOM     67  C   UNL A   1      46.388  29.867  34.995  1.00  0.00     0.041 A 
ATOM     68  F   UNL A   1      45.315  30.350  32.993  1.00  0.00    -0.206 F 
ATOM     69  C   UNL A   1      46.406  29.308  36.269  1.00  0.00     0.022 A 
BRANCH  66  70
ATOM     70  S   UNL A   1      45.204  27.873  38.348  1.00  0.00     0.124 S 
ATOM     71  O   UNL A   1      44.969  29.110  39.083  1.00  0.00    -0.237 OA
ATOM     72  O   UNL A   1      44.066  26.964  38.244  1.00  0.00    -0.237 OA
ATOM     73  O   UNL A   1      46.491  27.231  38.604  1.00  0.00    -0.744 OA
ENDBRANCH  66  70
ENDBRANCH  49  63
BRANCH  50  74
ATOM     74  C   UNL A   1      35.959  33.462  29.955  1.00  0.00     0.023 A 
ATOM     75  C   UNL A   1      35.175  34.139  30.905  1.00  0.00     0.031 A 
ATOM     76  C   UNL A   1      35.545  33.662  28.597  1.00  0.00     0.131 A 
ATOM     77  C   UNL A   1      34.110  34.989  30.486  1.00  0.00     0.055 A 
ATOM     78  C   UNL A   1      34.554  34.552  28.190  1.00  0.00     0.041 A 
ATOM     79  F   UNL A   1      36.097  32.995  27.574  1.00  0.00    -0.206 F 
ATOM     80  C   UNL A   1      33.833  35.234  29.138  1.00  0.00     0.022 A 
BRANCH  77  81
ATOM     81  S   UNL A   1      33.032  35.837  31.678  1.00  0.00     0.124 S 
ATOM     82  O   UNL A   1      32.082  36.512  30.797  1.00  0.00    -0.237 OA
ATOM     83  O   UNL A   1      32.496  34.745  32.482  1.00  0.00    -0.237 OA
ATOM     84  O   UNL A   1      33.960  36.724  32.381  1.00  0.00    -0.744 OA
ENDBRANCH  77  81
ENDBRANCH  50  74
BRANCH  62  85
ATOM     85  C   UNL A   1      41.777  33.135  31.825  1.00  0.00     0.023 A 
ATOM     86  C   UNL A   1      42.297  32.124  30.991  1.00  0.00     0.031 A 
ATOM     87  C   UNL A   1      42.321  34.419  31.640  1.00  0.00     0.131 A 
ATOM     88  C   UNL A   1      43.321  32.407  30.061  1.00  0.00     0.055 A 
ATOM     89  C   UNL A   1      43.330  34.707  30.715  1.00  0.00     0.041 A 
ATOM     90  F   UNL A   1      41.897  35.449  32.367  1.00  0.00    -0.206 F 
ATOM     91  C   UNL A   1      43.842  33.694  29.921  1.00  0.00     0.022 A 
BRANCH  88  92
ATOM     92  S   UNL A   1      43.963  31.080  29.002  1.00  0.00     0.124 S 
ATOM     93  O   UNL A   1      42.754  30.562  28.370  1.00  0.00    -0.237 OA
ATOM     94  O   UNL A   1      44.889  31.792  28.127  1.00  0.00    -0.237 OA
ATOM     95  O   UNL A   1      44.601  30.166  29.950  1.00  0.00    -0.744 OA
ENDBRANCH  88  92
ENDBRANCH  62  85
ENDBRANCH  36  37
ENDBRANCH  29  31
ENDBRANCH  28  29
ENDBRANCH  27  28
ENDBRANCH  26  27
ENDBRANCH  25  26
ENDBRANCH   1  25
TORSDOF 22
ENDMDL
MODEL 3
REMARK VINA RESULT:      -9.8      5.740     10.749
REMARK SMILES O=C(Cc1cccn1-c1ccc2c(c1)OCCO2)OCCOCCOCCOC(=O)c1ccc(-c2c3nc(c(-c4cc(S(=O)(=O)[O-])ccc4F)c4ccc([nH]4)c(-c4cc(S(=O)(=O)[O-])ccc4F)c4nc(c(-c5cc(S(=O)(=O)[O-])ccc5F)c5ccc2[nH]5)C=C4)C=C3)cc1
REMARK SMILES IDX 24 1 23 2 22 3 21 4 20 5 19 6 2 7 1 8 3 9 4 10 5 11 8 12
REMARK SMILES IDX 6 13 7 14 9 15 10 16 14 17 11 18 13 19 12 20 15 21 18 22
REMARK SMILES IDX 16 23 17 24 25 25 26 26 27 27 28 28 29 29 30 30 31 31 32 32
REMARK SMILES IDX 93 33 33 34 92 35 34 36 35 37 36 38 86 39 37 40 91 41 85 42
REMARK SMILES IDX 87 43 38 44 90 45 84 46 83 47 39 49 71 50 51 51 70 52 52 53
REMARK SMILES IDX 55 54 69 55 88 56 53 57 54 58 68 60 89 61 56 62 40 63 41 64
REMARK SMILES IDX 49 65 42 66 48 67 50 68 47 69 43 70 44 71 45 72 46 73 72 74
REMARK SMILES IDX 73 75 81 76 74 77 80 78 82 79 79 80 75 81 76 82 77 83 78 84
REMARK SMILES IDX 57 85 58 86 66 87 59 88 65 89 67 90 64 91 60 92 61 93 62 94
REMARK SMILES IDX 63 95
REMARK H PARENT 87 48 55 59
REMARK Flexibility Score: inf
ROOT
ATOM      1  C   UNL A   1      41.174  20.540  26.854  1.00  0.00     0.188 C 
ENDROOT
BRANCH   1   2
ATOM      2  C   UNL A   1      41.312  21.831  27.683  1.00  0.00     0.188 C 
BRANCH   2   3
ATOM      3  O   UNL A   1      40.261  22.770  27.570  1.00  0.00    -0.376 OA
BRANCH   3   4
ATOM      4  C   UNL A   1      39.381  22.713  26.460  1.00  0.00     0.202 C 
BRANCH   4   5
ATOM      5  C   UNL A   1      38.256  23.748  26.362  1.00  0.00     0.261 C 
BRANCH   5   6
ATOM      6  O   UNL A   1      37.365  23.652  25.233  1.00  0.00    -0.463 OA
BRANCH   6   7
ATOM      7  C   UNL A   1      36.790  22.492  24.841  1.00  0.00     0.311 C 
ATOM      8  O   UNL A   1      37.029  22.014  23.735  1.00  0.00    -0.252 OA
BRANCH   7   9
ATOM      9  C   UNL A   1      35.700  21.946  25.729  1.00  0.00     0.177 C 
BRANCH   9  10
ATOM     10  C   UNL A   1      34.537  21.447  24.937  1.00  0.00     0.034 A 
ATOM     11  C   UNL A   1      34.069  20.146  24.832  1.00  0.00     0.024 A 
ATOM     12  N   UNL A   1      33.622  22.281  24.308  1.00  0.00    -0.320 N 
ATOM     13  C   UNL A   1      32.834  20.181  24.157  1.00  0.00     0.020 A 
ATOM     14  C   UNL A   1      32.567  21.501  23.877  1.00  0.00     0.091 A 
BRANCH  12  15
ATOM     15  C   UNL A   1      33.672  23.696  24.219  1.00  0.00     0.049 A 
ATOM     16  C   UNL A   1      33.775  24.295  22.958  1.00  0.00     0.031 A 
ATOM     17  C   UNL A   1      33.545  24.485  25.369  1.00  0.00     0.077 A 
ATOM     18  C   UNL A   1      33.694  25.684  22.845  1.00  0.00     0.052 A 
ATOM     19  C   UNL A   1      33.453  25.869  25.246  1.00  0.00     0.163 A 
ATOM     20  C   UNL A   1      33.539  26.469  23.987  1.00  0.00     0.161 A 
ATOM     21  O   UNL A   1      33.268  26.577  26.406  1.00  0.00    -0.486 OA
ATOM     22  O   UNL A   1      33.468  27.825  23.796  1.00  0.00    -0.486 OA
ATOM     23  C   UNL A   1      32.818  27.909  26.137  1.00  0.00     0.271 C 
ATOM     24  C   UNL A   1      33.646  28.535  25.027  1.00  0.00     0.271 C 
ENDBRANCH  12  15
ENDBRANCH   9  10
ENDBRANCH   7   9
ENDBRANCH   6   7
ENDBRANCH   5   6
ENDBRANCH   4   5
ENDBRANCH   3   4
ENDBRANCH   2   3
ENDBRANCH   1   2
BRANCH   1  25
ATOM     25  O   UNL A   1      42.010  19.403  27.031  1.00  0.00    -0.376 OA
BRANCH  25  26
ATOM     26  C   UNL A   1      42.531  18.639  25.957  1.00  0.00     0.202 C 
BRANCH  26  27
ATOM     27  C   UNL A   1      43.892  18.976  25.361  1.00  0.00     0.261 C 
BRANCH  27  28
ATOM     28  O   UNL A   1      44.269  20.334  25.531  1.00  0.00    -0.460 OA
BRANCH  28  29
ATOM     29  C   UNL A   1      44.445  20.970  24.363  1.00  0.00     0.338 C 
ATOM     30  O   UNL A   1      44.571  20.462  23.251  1.00  0.00    -0.246 OA
BRANCH  29  31
ATOM     31  C   UNL A   1      44.614  22.403  24.573  1.00  0.00     0.060 A 
ATOM     32  C   UNL A   1      45.898  22.805  24.953  1.00  0.00     0.016 A 
ATOM     33  C   UNL A   1      43.469  23.157  24.856  1.00  0.00     0.016 A 
ATOM     34  C   UNL A   1      46.010  23.821  25.867  1.00  0.00     0.010 A 
ATOM     35  C   UNL A   1      43.579  24.147  25.804  1.00  0.00     0.010 A 
ATOM     36  C   UNL A   1      44.838  24.405  26.360  1.00  0.00    -0.014 A 
BRANCH  36  37
ATOM     37  C   UNL A   1      44.971  25.341  27.476  1.00  0.00     0.031 A 
ATOM     38  C   UNL A   1      45.362  26.722  26.969  1.00  0.00     0.074 A 
ATOM     39  C   UNL A   1      44.797  24.804  28.724  1.00  0.00     0.049 A 
ATOM     40  N   UNL A   1      46.088  27.636  27.531  1.00  0.00    -0.248 NA
ATOM     41  C   UNL A   1      45.007  27.100  25.569  1.00  0.00     0.031 C 
ATOM     42  C   UNL A   1      44.450  23.387  29.005  1.00  0.00     0.029 A 
ATOM     43  N   UNL A   1      44.877  25.315  30.001  1.00  0.00    -0.354 N 
ATOM     44  C   UNL A   1      46.032  28.768  26.693  1.00  0.00     0.074 A 
ATOM     45  C   UNL A   1      45.533  28.316  25.434  1.00  0.00     0.031 C 
ATOM     46  C   UNL A   1      44.417  23.146  30.336  1.00  0.00     0.029 A 
ATOM     47  C   UNL A   1      44.704  24.374  31.053  1.00  0.00     0.049 A 
ATOM     48  H   UNL A   1      45.045  26.270  30.174  1.00  0.00     0.167 HD
ATOM     49  C   UNL A   1      46.208  30.039  27.153  1.00  0.00     0.034 A 
ATOM     50  C   UNL A   1      44.809  24.565  32.406  1.00  0.00     0.034 A 
ATOM     51  C   UNL A   1      46.516  30.011  28.547  1.00  0.00     0.049 A 
ATOM     52  C   UNL A   1      45.002  26.016  32.563  1.00  0.00     0.074 A 
ATOM     53  C   UNL A   1      47.605  29.591  29.263  1.00  0.00     0.029 A 
ATOM     54  N   UNL A   1      45.466  30.209  29.415  1.00  0.00    -0.354 N 
ATOM     55  N   UNL A   1      44.076  26.909  32.400  1.00  0.00    -0.248 NA
ATOM     56  C   UNL A   1      46.347  26.520  32.863  1.00  0.00     0.031 C 
ATOM     57  C   UNL A   1      47.055  29.134  30.480  1.00  0.00     0.029 A 
ATOM     58  C   UNL A   1      45.680  29.402  30.504  1.00  0.00     0.049 A 
ATOM     59  H   UNL A   1      44.704  30.817  29.280  1.00  0.00     0.167 HD
ATOM     60  C   UNL A   1      44.794  28.071  32.267  1.00  0.00     0.074 A 
ATOM     61  C   UNL A   1      46.086  27.825  32.870  1.00  0.00     0.031 C 
ATOM     62  C   UNL A   1      44.524  28.906  31.230  1.00  0.00     0.034 A 
BRANCH  49  63
ATOM     63  C   UNL A   1      45.868  31.377  26.551  1.00  0.00     0.023 A 
ATOM     64  C   UNL A   1      46.940  32.297  26.467  1.00  0.00     0.031 A 
ATOM     65  C   UNL A   1      44.583  31.906  26.355  1.00  0.00     0.131 A 
ATOM     66  C   UNL A   1      46.720  33.673  26.360  1.00  0.00     0.055 A 
ATOM     67  C   UNL A   1      44.370  33.278  26.159  1.00  0.00     0.041 A 
ATOM     68  F   UNL A   1      43.481  31.151  26.431  1.00  0.00    -0.206 F 
ATOM     69  C   UNL A   1      45.434  34.175  26.204  1.00  0.00     0.022 A 
BRANCH  66  70
ATOM     70  S   UNL A   1      48.130  34.779  26.642  1.00  0.00     0.124 S 
ATOM     71  O   UNL A   1      47.480  36.078  26.767  1.00  0.00    -0.237 OA
ATOM     72  O   UNL A   1      48.703  34.230  27.867  1.00  0.00    -0.237 OA
ATOM     73  O   UNL A   1      48.943  34.601  25.440  1.00  0.00    -0.744 OA
ENDBRANCH  66  70
ENDBRANCH  49  63
BRANCH  50  74
ATOM     74  C   UNL A   1      44.825  23.754  33.693  1.00  0.00     0.023 A 
ATOM     75  C   UNL A   1      45.576  22.594  33.945  1.00  0.00     0.031 A 
ATOM     76  C   UNL A   1      44.050  24.211  34.810  1.00  0.00     0.131 A 
ATOM     77  C   UNL A   1      45.576  22.003  35.243  1.00  0.00     0.055 A 
ATOM     78  C   UNL A   1      44.113  23.674  36.095  1.00  0.00     0.041 A 
ATOM     79  F   UNL A   1      43.179  25.224  34.712  1.00  0.00    -0.206 F 
ATOM     80  C   UNL A   1      44.891  22.567  36.323  1.00  0.00     0.022 A 
BRANCH  77  81
ATOM     81  S   UNL A   1      46.484  20.470  35.601  1.00  0.00     0.124 S 
ATOM     82  O   UNL A   1      47.677  20.627  34.775  1.00  0.00    -0.237 OA
ATOM     83  O   UNL A   1      46.691  20.532  37.043  1.00  0.00    -0.237 OA
ATOM     84  O   UNL A   1      45.554  19.431  35.155  1.00  0.00    -0.744 OA
ENDBRANCH  77  81
ENDBRANCH  50  74
BRANCH  62  85
ATOM     85  C   UNL A   1      43.093  28.804  30.701  1.00  0.00     0.023 A 
ATOM     86  C   UNL A   1      42.770  27.907  29.663  1.00  0.00     0.031 A 
ATOM     87  C   UNL A   1      42.057  29.663  31.110  1.00  0.00     0.131 A 
ATOM     88  C   UNL A   1      41.490  27.916  29.068  1.00  0.00     0.055 A 
ATOM     89  C   UNL A   1      40.783  29.672  30.529  1.00  0.00     0.041 A 
ATOM     90  F   UNL A   1      42.247  30.544  32.088  1.00  0.00    -0.206 F 
ATOM     91  C   UNL A   1      40.495  28.797  29.495  1.00  0.00     0.022 A 
BRANCH  88  92
ATOM     92  S   UNL A   1      41.111  26.744  27.735  1.00  0.00     0.124 S 
ATOM     93  O   UNL A   1      39.666  26.881  27.589  1.00  0.00    -0.237 OA
ATOM     94  O   UNL A   1      41.917  27.250  26.629  1.00  0.00    -0.237 OA
ATOM     95  O   UNL A   1      41.556  25.458  28.274  1.00  0.00    -0.744 OA
ENDBRANCH  88  92
ENDBRANCH  62  85
ENDBRANCH  36  37
ENDBRANCH  29  31
ENDBRANCH  28  29
ENDBRANCH  27  28
ENDBRANCH  26  27
ENDBRANCH  25  26
ENDBRANCH   1  25
TORSDOF 22
ENDMDL
