MODEL 1
REMARK VINA RESULT:     -10.4      0.000      0.000
REMARK SMILES CC1(C)[C@@](C)(C(=O)Nc2ccc(Cl)cc2Cl)CC[C@]1(C)C(=O)OCCOCCOCCOC(=O)c1ccc(-c2c3nc(c(-c4cc(S(=O)(=O)[O-])ccc4F)c4ccc([nH]4)c(-c4cc(S(=O)(=O)[O-])ccc4F)c4nc(c(-c5cc(S(=O)(=O)[O-])ccc5F)c5ccc2[nH]5)C=C4)C=C3)cc1
REMARK SMILES IDX 28 1 27 2 26 3 25 4 24 5 23 6 21 7 22 8 19 9 1 10 2 11 3 12
REMARK SMILES IDX 4 13 5 14 17 15 18 16 20 17 6 18 7 19 8 20 9 22 10 23 15 24
REMARK SMILES IDX 11 25 14 26 16 27 12 28 13 29 29 30 30 31 31 32 32 33 33 34
REMARK SMILES IDX 34 35 35 36 36 37 97 38 37 39 96 40 38 41 39 42 40 43 90 44
REMARK SMILES IDX 41 45 95 46 89 47 91 48 42 49 94 50 88 51 87 52 43 54 75 55
REMARK SMILES IDX 55 56 74 57 56 58 59 59 73 60 92 61 57 62 58 63 72 65 93 66
REMARK SMILES IDX 60 67 44 68 45 69 53 70 46 71 52 72 54 73 51 74 47 75 48 76
REMARK SMILES IDX 49 77 50 78 76 79 77 80 85 81 78 82 84 83 86 84 83 85 79 86
REMARK SMILES IDX 80 87 81 88 82 89 61 90 62 91 70 92 63 93 69 94 71 95 68 96
REMARK SMILES IDX 64 97 65 98 66 99 67 100
REMARK H PARENT 8 21 91 53 59 64
REMARK Flexibility Score: inf
ROOT
ATOM      1  C   UNL A   1      34.592  33.342  29.998  1.00  0.00     0.188 C 
ENDROOT
BRANCH   1   2
ATOM      2  C   UNL A   1      35.387  32.400  29.115  1.00  0.00     0.188 C 
BRANCH   2   3
ATOM      3  O   UNL A   1      34.740  31.244  28.598  1.00  0.00    -0.376 OA
BRANCH   3   4
ATOM      4  C   UNL A   1      34.117  31.288  27.322  1.00  0.00     0.202 C 
BRANCH   4   5
ATOM      5  C   UNL A   1      33.053  30.220  27.000  1.00  0.00     0.261 C 
BRANCH   5   6
ATOM      6  O   UNL A   1      33.460  29.024  26.283  1.00  0.00    -0.463 OA
BRANCH   6   7
ATOM      7  C   UNL A   1      32.639  28.647  25.266  1.00  0.00     0.312 C 
ATOM      8  O   UNL A   1      32.478  29.336  24.261  1.00  0.00    -0.252 OA
BRANCH   7   9
ATOM      9  C   UNL A   1      31.828  27.335  25.480  1.00  0.00     0.071 C 
ATOM     10  C   UNL A   1      33.360  25.429  26.098  1.00  0.00     0.013 C 
ATOM     11  C   UNL A   1      32.344  25.890  25.017  1.00  0.00    -0.005 C 
ATOM     12  C   UNL A   1      33.099  25.863  23.678  1.00  0.00     0.013 C 
ATOM     13  C   UNL A   1      30.986  25.014  24.782  1.00  0.00     0.053 C 
ATOM     14  C   UNL A   1      30.816  24.129  23.501  1.00  0.00     0.022 C 
ATOM     15  C   UNL A   1      29.909  26.136  24.510  1.00  0.00     0.018 C 
ATOM     16  C   UNL A   1      30.535  27.507  24.679  1.00  0.00     0.020 C 
ATOM     17  C   UNL A   1      31.485  27.379  26.993  1.00  0.00     0.024 C 
BRANCH  13  18
ATOM     18  C   UNL A   1      30.542  24.109  25.971  1.00  0.00     0.230 C 
ATOM     19  O   UNL A   1      29.617  24.462  26.714  1.00  0.00    -0.274 OA
ATOM     20  N   UNL A   1      31.051  22.866  26.249  1.00  0.00    -0.324 N 
ATOM     21  H   UNL A   1      30.470  22.368  26.868  1.00  0.00     0.170 HD
BRANCH  20  22
ATOM     22  C   UNL A   1      32.189  22.108  25.884  1.00  0.00     0.060 A 
ATOM     23  C   UNL A   1      32.348  21.538  24.630  1.00  0.00     0.029 A 
ATOM     24  C   UNL A   1      33.258  21.950  26.779  1.00  0.00     0.066 A 
ATOM     25  C   UNL A   1      33.503  20.875  24.225  1.00  0.00     0.023 A 
ATOM     26  C   UNL A   1      34.421  21.254  26.407  1.00  0.00     0.043 A 
ATOM     27  Cl  UNL A   1      33.175  22.579  28.387  1.00  0.00    -0.082 Cl
ATOM     28  C   UNL A   1      34.543  20.733  25.122  1.00  0.00     0.042 A 
ATOM     29  Cl  UNL A   1      35.969  19.912  24.632  1.00  0.00    -0.084 Cl
ENDBRANCH  20  22
ENDBRANCH  13  18
ENDBRANCH   7   9
ENDBRANCH   6   7
ENDBRANCH   5   6
ENDBRANCH   4   5
ENDBRANCH   3   4
ENDBRANCH   2   3
ENDBRANCH   1   2
BRANCH   1  30
ATOM     30  O   UNL A   1      34.349  32.844  31.301  1.00  0.00    -0.376 OA
BRANCH  30  31
ATOM     31  C   UNL A   1      35.184  33.357  32.331  1.00  0.00     0.202 C 
BRANCH  31  32
ATOM     32  C   UNL A   1      35.873  32.188  33.038  1.00  0.00     0.261 C 
BRANCH  32  33
ATOM     33  O   UNL A   1      36.988  31.644  32.304  1.00  0.00    -0.460 OA
BRANCH  33  34
ATOM     34  C   UNL A   1      36.906  30.329  31.988  1.00  0.00     0.338 C 
ATOM     35  O   UNL A   1      35.997  29.793  31.367  1.00  0.00    -0.246 OA
BRANCH  34  36
ATOM     36  C   UNL A   1      38.213  29.688  32.269  1.00  0.00     0.060 A 
ATOM     37  C   UNL A   1      39.325  30.518  32.463  1.00  0.00     0.016 A 
ATOM     38  C   UNL A   1      38.351  28.304  32.375  1.00  0.00     0.016 A 
ATOM     39  C   UNL A   1      40.583  29.974  32.714  1.00  0.00     0.010 A 
ATOM     40  C   UNL A   1      39.616  27.755  32.615  1.00  0.00     0.010 A 
ATOM     41  C   UNL A   1      40.747  28.584  32.749  1.00  0.00    -0.014 A 
BRANCH  41  42
ATOM     42  C   UNL A   1      42.117  28.006  32.726  1.00  0.00     0.031 A 
ATOM     43  C   UNL A   1      42.810  27.754  34.039  1.00  0.00     0.074 A 
ATOM     44  C   UNL A   1      42.721  27.663  31.574  1.00  0.00     0.049 A 
ATOM     45  N   UNL A   1      44.022  27.324  34.277  1.00  0.00    -0.248 NA
ATOM     46  C   UNL A   1      42.022  28.036  35.248  1.00  0.00     0.031 C 
ATOM     47  C   UNL A   1      42.135  27.791  30.241  1.00  0.00     0.029 A 
ATOM     48  N   UNL A   1      43.969  27.135  31.344  1.00  0.00    -0.354 N 
ATOM     49  C   UNL A   1      44.151  27.304  35.663  1.00  0.00     0.074 A 
ATOM     50  C   UNL A   1      42.905  27.806  36.205  1.00  0.00     0.031 C 
ATOM     51  C   UNL A   1      43.027  27.360  29.331  1.00  0.00     0.029 A 
ATOM     52  C   UNL A   1      44.263  26.973  30.011  1.00  0.00     0.049 A 
ATOM     53  H   UNL A   1      44.593  26.895  32.066  1.00  0.00     0.167 HD
ATOM     54  C   UNL A   1      45.206  26.900  36.413  1.00  0.00     0.034 A 
ATOM     55  C   UNL A   1      45.406  26.591  29.405  1.00  0.00     0.034 A 
ATOM     56  C   UNL A   1      46.443  26.407  35.856  1.00  0.00     0.049 A 
ATOM     57  C   UNL A   1      46.603  26.233  30.254  1.00  0.00     0.074 A 
ATOM     58  C   UNL A   1      47.570  25.958  36.523  1.00  0.00     0.029 A 
ATOM     59  N   UNL A   1      46.726  26.312  34.498  1.00  0.00    -0.354 N 
ATOM     60  N   UNL A   1      46.721  26.226  31.563  1.00  0.00    -0.248 NA
ATOM     61  C   UNL A   1      47.820  25.824  29.541  1.00  0.00     0.031 C 
ATOM     62  C   UNL A   1      48.561  25.680  35.574  1.00  0.00     0.029 A 
ATOM     63  C   UNL A   1      48.024  25.856  34.309  1.00  0.00     0.049 A 
ATOM     64  H   UNL A   1      46.097  26.537  33.774  1.00  0.00     0.167 HD
ATOM     65  C   UNL A   1      48.018  25.786  31.827  1.00  0.00     0.074 A 
ATOM     66  C   UNL A   1      48.630  25.518  30.542  1.00  0.00     0.031 C 
ATOM     67  C   UNL A   1      48.641  25.614  33.023  1.00  0.00     0.034 A 
BRANCH  54  68
ATOM     68  C   UNL A   1      45.082  27.051  37.913  1.00  0.00     0.023 A 
ATOM     69  C   UNL A   1      45.504  28.213  38.584  1.00  0.00     0.031 A 
ATOM     70  C   UNL A   1      44.597  25.985  38.693  1.00  0.00     0.131 A 
ATOM     71  C   UNL A   1      45.529  28.243  39.987  1.00  0.00     0.055 A 
ATOM     72  C   UNL A   1      44.530  26.061  40.086  1.00  0.00     0.041 A 
ATOM     73  F   UNL A   1      44.204  24.839  38.116  1.00  0.00    -0.206 F 
ATOM     74  C   UNL A   1      45.018  27.184  40.742  1.00  0.00     0.022 A 
BRANCH  71  75
ATOM     75  S   UNL A   1      46.419  29.594  40.808  1.00  0.00     0.124 S 
ATOM     76  O   UNL A   1      47.234  30.120  39.714  1.00  0.00    -0.237 OA
ATOM     77  O   UNL A   1      45.333  30.454  41.266  1.00  0.00    -0.237 OA
ATOM     78  O   UNL A   1      47.170  28.919  41.864  1.00  0.00    -0.744 OA
ENDBRANCH  71  75
ENDBRANCH  54  68
BRANCH  55  79
ATOM     79  C   UNL A   1      45.500  26.581  27.915  1.00  0.00     0.023 A 
ATOM     80  C   UNL A   1      45.413  25.387  27.180  1.00  0.00     0.031 A 
ATOM     81  C   UNL A   1      45.722  27.776  27.205  1.00  0.00     0.131 A 
ATOM     82  C   UNL A   1      45.580  25.411  25.786  1.00  0.00     0.055 A 
ATOM     83  C   UNL A   1      45.830  27.801  25.814  1.00  0.00     0.041 A 
ATOM     84  F   UNL A   1      45.826  28.944  27.858  1.00  0.00    -0.206 F 
ATOM     85  C   UNL A   1      45.769  26.611  25.096  1.00  0.00     0.022 A 
BRANCH  82  86
ATOM     86  S   UNL A   1      45.620  23.836  24.884  1.00  0.00     0.124 S 
ATOM     87  O   UNL A   1      46.659  24.088  23.892  1.00  0.00    -0.237 OA
ATOM     88  O   UNL A   1      45.960  22.889  25.942  1.00  0.00    -0.237 OA
ATOM     89  O   UNL A   1      44.264  23.712  24.353  1.00  0.00    -0.744 OA
ENDBRANCH  82  86
ENDBRANCH  55  79
BRANCH  67  90
ATOM     90  C   UNL A   1      50.055  25.073  32.992  1.00  0.00     0.023 A 
ATOM     91  C   UNL A   1      50.323  23.694  32.919  1.00  0.00     0.031 A 
ATOM     92  C   UNL A   1      51.153  25.950  33.072  1.00  0.00     0.131 A 
ATOM     93  C   UNL A   1      51.644  23.231  33.009  1.00  0.00     0.055 A 
ATOM     94  C   UNL A   1      52.469  25.486  33.080  1.00  0.00     0.041 A 
ATOM     95  F   UNL A   1      50.965  27.278  33.149  1.00  0.00    -0.206 F 
ATOM     96  C   UNL A   1      52.721  24.118  33.069  1.00  0.00     0.022 A 
BRANCH  93  97
ATOM     97  S   UNL A   1      51.930  21.447  33.192  1.00  0.00     0.124 S 
ATOM     98  O   UNL A   1      52.464  21.091  31.882  1.00  0.00    -0.237 OA
ATOM     99  O   UNL A   1      52.875  21.396  34.303  1.00  0.00    -0.237 OA
ATOM    100  O   UNL A   1      50.599  20.916  33.485  1.00  0.00    -0.744 OA
ENDBRANCH  93  97
ENDBRANCH  67  90
ENDBRANCH  41  42
ENDBRANCH  34  36
ENDBRANCH  33  34
ENDBRANCH  32  33
ENDBRANCH  31  32
ENDBRANCH  30  31
ENDBRANCH   1  30
TORSDOF 22
ENDMDL
MODEL 2
REMARK VINA RESULT:     -10.4      5.705      7.144
REMARK SMILES CC1(C)[C@@](C)(C(=O)Nc2ccc(Cl)cc2Cl)CC[C@]1(C)C(=O)OCCOCCOCCOC(=O)c1ccc(-c2c3nc(c(-c4cc(S(=O)(=O)[O-])ccc4F)c4ccc([nH]4)c(-c4cc(S(=O)(=O)[O-])ccc4F)c4nc(c(-c5cc(S(=O)(=O)[O-])ccc5F)c5ccc2[nH]5)C=C4)C=C3)cc1
REMARK SMILES IDX 28 1 27 2 26 3 25 4 24 5 23 6 21 7 22 8 19 9 1 10 2 11 3 12
REMARK SMILES IDX 4 13 5 14 17 15 18 16 20 17 6 18 7 19 8 20 9 22 10 23 15 24
REMARK SMILES IDX 11 25 14 26 16 27 12 28 13 29 29 30 30 31 31 32 32 33 33 34
REMARK SMILES IDX 34 35 35 36 36 37 97 38 37 39 96 40 38 41 39 42 40 43 90 44
REMARK SMILES IDX 41 45 95 46 89 47 91 48 42 49 94 50 88 51 87 52 43 54 75 55
REMARK SMILES IDX 55 56 74 57 56 58 59 59 73 60 92 61 57 62 58 63 72 65 93 66
REMARK SMILES IDX 60 67 44 68 45 69 53 70 46 71 52 72 54 73 51 74 47 75 48 76
REMARK SMILES IDX 49 77 50 78 76 79 77 80 85 81 78 82 84 83 86 84 83 85 79 86
REMARK SMILES IDX 80 87 81 88 82 89 61 90 62 91 70 92 63 93 69 94 71 95 68 96
REMARK SMILES IDX 64 97 65 98 66 99 67 100
REMARK H PARENT 8 21 91 53 59 64
REMARK Flexibility Score: inf
ROOT
ATOM      1  C   UNL A   1      36.259  30.746  30.077  1.00  0.00     0.188 C 
ENDROOT
BRANCH   1   2
ATOM      2  C   UNL A   1      36.189  30.077  28.718  1.00  0.00     0.188 C 
BRANCH   2   3
ATOM      3  O   UNL A   1      34.910  29.798  28.162  1.00  0.00    -0.376 OA
BRANCH   3   4
ATOM      4  C   UNL A   1      34.329  30.696  27.228  1.00  0.00     0.202 C 
BRANCH   4   5
ATOM      5  C   UNL A   1      32.999  30.288  26.563  1.00  0.00     0.261 C 
BRANCH   5   6
ATOM      6  O   UNL A   1      33.038  29.400  25.413  1.00  0.00    -0.463 OA
BRANCH   6   7
ATOM      7  C   UNL A   1      31.829  28.941  24.992  1.00  0.00     0.312 C 
ATOM      8  O   UNL A   1      30.980  29.681  24.500  1.00  0.00    -0.252 OA
BRANCH   7   9
ATOM      9  C   UNL A   1      31.529  27.435  25.252  1.00  0.00     0.071 C 
ATOM     10  C   UNL A   1      33.579  26.256  26.130  1.00  0.00     0.013 C 
ATOM     11  C   UNL A   1      32.573  26.258  24.945  1.00  0.00    -0.005 C 
ATOM     12  C   UNL A   1      33.412  26.444  23.670  1.00  0.00     0.013 C 
ATOM     13  C   UNL A   1      31.651  24.936  24.685  1.00  0.00     0.053 C 
ATOM     14  C   UNL A   1      31.935  23.989  23.472  1.00  0.00     0.022 C 
ATOM     15  C   UNL A   1      30.274  25.571  24.248  1.00  0.00     0.018 C 
ATOM     16  C   UNL A   1      30.344  27.082  24.351  1.00  0.00     0.020 C 
ATOM     17  C   UNL A   1      31.050  27.425  26.729  1.00  0.00     0.024 C 
BRANCH  13  18
ATOM     18  C   UNL A   1      31.452  23.991  25.909  1.00  0.00     0.230 C 
ATOM     19  O   UNL A   1      30.469  24.125  26.650  1.00  0.00    -0.274 OA
ATOM     20  N   UNL A   1      32.258  22.927  26.223  1.00  0.00    -0.324 N 
ATOM     21  H   UNL A   1      31.822  22.321  26.865  1.00  0.00     0.170 HD
BRANCH  20  22
ATOM     22  C   UNL A   1      33.549  22.467  25.872  1.00  0.00     0.060 A 
ATOM     23  C   UNL A   1      34.706  23.186  26.133  1.00  0.00     0.029 A 
ATOM     24  C   UNL A   1      33.722  21.205  25.284  1.00  0.00     0.066 A 
ATOM     25  C   UNL A   1      35.987  22.704  25.882  1.00  0.00     0.023 A 
ATOM     26  C   UNL A   1      35.003  20.709  24.988  1.00  0.00     0.043 A 
ATOM     27  Cl  UNL A   1      32.362  20.220  24.871  1.00  0.00    -0.082 Cl
ATOM     28  C   UNL A   1      36.132  21.458  25.306  1.00  0.00     0.042 A 
ATOM     29  Cl  UNL A   1      37.710  20.858  24.988  1.00  0.00    -0.084 Cl
ENDBRANCH  20  22
ENDBRANCH  13  18
ENDBRANCH   7   9
ENDBRANCH   6   7
ENDBRANCH   5   6
ENDBRANCH   4   5
ENDBRANCH   3   4
ENDBRANCH   2   3
ENDBRANCH   1   2
BRANCH   1  30
ATOM     30  O   UNL A   1      35.940  32.126  30.059  1.00  0.00    -0.376 OA
BRANCH  30  31
ATOM     31  C   UNL A   1      34.771  32.506  30.772  1.00  0.00     0.202 C 
BRANCH  31  32
ATOM     32  C   UNL A   1      35.078  32.488  32.271  1.00  0.00     0.261 C 
BRANCH  32  33
ATOM     33  O   UNL A   1      36.228  33.278  32.636  1.00  0.00    -0.460 OA
BRANCH  33  34
ATOM     34  C   UNL A   1      37.051  32.734  33.565  1.00  0.00     0.338 C 
ATOM     35  O   UNL A   1      36.755  32.474  34.725  1.00  0.00    -0.246 OA
BRANCH  34  36
ATOM     36  C   UNL A   1      38.278  32.249  32.891  1.00  0.00     0.060 A 
ATOM     37  C   UNL A   1      38.662  32.871  31.695  1.00  0.00     0.016 A 
ATOM     38  C   UNL A   1      39.063  31.229  33.427  1.00  0.00     0.016 A 
ATOM     39  C   UNL A   1      39.797  32.448  31.006  1.00  0.00     0.010 A 
ATOM     40  C   UNL A   1      40.197  30.794  32.730  1.00  0.00     0.010 A 
ATOM     41  C   UNL A   1      40.550  31.376  31.497  1.00  0.00    -0.014 A 
BRANCH  41  42
ATOM     42  C   UNL A   1      41.578  30.743  30.628  1.00  0.00     0.031 A 
ATOM     43  C   UNL A   1      42.878  31.470  30.409  1.00  0.00     0.074 A 
ATOM     44  C   UNL A   1      41.390  29.528  30.081  1.00  0.00     0.049 A 
ATOM     45  N   UNL A   1      43.894  31.158  29.646  1.00  0.00    -0.248 NA
ATOM     46  C   UNL A   1      43.046  32.727  31.153  1.00  0.00     0.031 C 
ATOM     47  C   UNL A   1      40.208  28.690  30.267  1.00  0.00     0.029 A 
ATOM     48  N   UNL A   1      42.199  28.789  29.251  1.00  0.00    -0.354 N 
ATOM     49  C   UNL A   1      44.814  32.191  29.801  1.00  0.00     0.074 A 
ATOM     50  C   UNL A   1      44.212  33.155  30.698  1.00  0.00     0.031 C 
ATOM     51  C   UNL A   1      40.365  27.553  29.565  1.00  0.00     0.029 A 
ATOM     52  C   UNL A   1      41.634  27.604  28.841  1.00  0.00     0.049 A 
ATOM     53  H   UNL A   1      43.098  29.080  28.977  1.00  0.00     0.167 HD
ATOM     54  C   UNL A   1      46.047  32.321  29.251  1.00  0.00     0.034 A 
ATOM     55  C   UNL A   1      42.073  26.683  27.958  1.00  0.00     0.034 A 
ATOM     56  C   UNL A   1      46.630  31.352  28.353  1.00  0.00     0.049 A 
ATOM     57  C   UNL A   1      43.408  26.889  27.283  1.00  0.00     0.074 A 
ATOM     58  C   UNL A   1      47.876  31.377  27.750  1.00  0.00     0.029 A 
ATOM     59  N   UNL A   1      46.004  30.191  27.915  1.00  0.00    -0.354 N 
ATOM     60  N   UNL A   1      44.268  27.873  27.426  1.00  0.00    -0.248 NA
ATOM     61  C   UNL A   1      43.834  25.855  26.332  1.00  0.00     0.031 C 
ATOM     62  C   UNL A   1      47.965  30.283  26.880  1.00  0.00     0.029 A 
ATOM     63  C   UNL A   1      46.818  29.517  27.014  1.00  0.00     0.049 A 
ATOM     64  H   UNL A   1      45.110  29.890  28.200  1.00  0.00     0.167 HD
ATOM     65  C   UNL A   1      45.348  27.560  26.602  1.00  0.00     0.074 A 
ATOM     66  C   UNL A   1      45.037  26.286  25.985  1.00  0.00     0.031 C 
ATOM     67  C   UNL A   1      46.493  28.258  26.380  1.00  0.00     0.034 A 
BRANCH  54  68
ATOM     68  C   UNL A   1      46.805  33.595  29.553  1.00  0.00     0.023 A 
ATOM     69  C   UNL A   1      46.705  34.735  28.735  1.00  0.00     0.031 A 
ATOM     70  C   UNL A   1      47.696  33.646  30.640  1.00  0.00     0.131 A 
ATOM     71  C   UNL A   1      47.553  35.832  28.955  1.00  0.00     0.055 A 
ATOM     72  C   UNL A   1      48.464  34.780  30.913  1.00  0.00     0.041 A 
ATOM     73  F   UNL A   1      47.857  32.582  31.443  1.00  0.00    -0.206 F 
ATOM     74  C   UNL A   1      48.412  35.873  30.056  1.00  0.00     0.022 A 
BRANCH  71  75
ATOM     75  S   UNL A   1      47.661  37.112  27.674  1.00  0.00     0.124 S 
ATOM     76  O   UNL A   1      47.022  38.248  28.335  1.00  0.00    -0.237 OA
ATOM     77  O   UNL A   1      49.099  37.223  27.460  1.00  0.00    -0.237 OA
ATOM     78  O   UNL A   1      46.904  36.546  26.558  1.00  0.00    -0.744 OA
ENDBRANCH  71  75
ENDBRANCH  54  68
BRANCH  55  79
ATOM     79  C   UNL A   1      41.219  25.508  27.612  1.00  0.00     0.023 A 
ATOM     80  C   UNL A   1      41.680  24.191  27.773  1.00  0.00     0.031 A 
ATOM     81  C   UNL A   1      39.934  25.694  27.070  1.00  0.00     0.131 A 
ATOM     82  C   UNL A   1      40.874  23.114  27.367  1.00  0.00     0.055 A 
ATOM     83  C   UNL A   1      39.115  24.618  26.721  1.00  0.00     0.041 A 
ATOM     84  F   UNL A   1      39.449  26.931  26.882  1.00  0.00    -0.206 F 
ATOM     85  C   UNL A   1      39.589  23.318  26.860  1.00  0.00     0.022 A 
BRANCH  82  86
ATOM     86  S   UNL A   1      41.560  21.435  27.441  1.00  0.00     0.124 S 
ATOM     87  O   UNL A   1      41.879  21.182  26.041  1.00  0.00    -0.237 OA
ATOM     88  O   UNL A   1      42.698  21.611  28.337  1.00  0.00    -0.237 OA
ATOM     89  O   UNL A   1      40.459  20.641  27.985  1.00  0.00    -0.744 OA
ENDBRANCH  82  86
ENDBRANCH  55  79
BRANCH  67  90
ATOM     90  C   UNL A   1      47.514  27.632  25.454  1.00  0.00     0.023 A 
ATOM     91  C   UNL A   1      47.634  28.017  24.107  1.00  0.00     0.031 A 
ATOM     92  C   UNL A   1      48.357  26.604  25.919  1.00  0.00     0.131 A 
ATOM     93  C   UNL A   1      48.513  27.330  23.256  1.00  0.00     0.055 A 
ATOM     94  C   UNL A   1      49.287  25.980  25.086  1.00  0.00     0.041 A 
ATOM     95  F   UNL A   1      48.289  26.186  27.193  1.00  0.00    -0.206 F 
ATOM     96  C   UNL A   1      49.355  26.327  23.741  1.00  0.00     0.022 A 
BRANCH  93  97
ATOM     97  S   UNL A   1      48.439  27.666  21.474  1.00  0.00     0.124 S 
ATOM     98  O   UNL A   1      47.090  28.202  21.324  1.00  0.00    -0.237 OA
ATOM     99  O   UNL A   1      49.528  28.619  21.291  1.00  0.00    -0.237 OA
ATOM    100  O   UNL A   1      48.655  26.352  20.868  1.00  0.00    -0.744 OA
ENDBRANCH  93  97
ENDBRANCH  67  90
ENDBRANCH  41  42
ENDBRANCH  34  36
ENDBRANCH  33  34
ENDBRANCH  32  33
ENDBRANCH  31  32
ENDBRANCH  30  31
ENDBRANCH   1  30
TORSDOF 22
ENDMDL
MODEL 3
REMARK VINA RESULT:     -10.3      6.242     10.016
REMARK SMILES CC1(C)[C@@](C)(C(=O)Nc2ccc(Cl)cc2Cl)CC[C@]1(C)C(=O)OCCOCCOCCOC(=O)c1ccc(-c2c3nc(c(-c4cc(S(=O)(=O)[O-])ccc4F)c4ccc([nH]4)c(-c4cc(S(=O)(=O)[O-])ccc4F)c4nc(c(-c5cc(S(=O)(=O)[O-])ccc5F)c5ccc2[nH]5)C=C4)C=C3)cc1
REMARK SMILES IDX 28 1 27 2 26 3 25 4 24 5 23 6 21 7 22 8 19 9 1 10 2 11 3 12
REMARK SMILES IDX 4 13 5 14 17 15 18 16 20 17 6 18 7 19 8 20 9 22 10 23 15 24
REMARK SMILES IDX 11 25 14 26 16 27 12 28 13 29 29 30 30 31 31 32 32 33 33 34
REMARK SMILES IDX 34 35 35 36 36 37 97 38 37 39 96 40 38 41 39 42 40 43 90 44
REMARK SMILES IDX 41 45 95 46 89 47 91 48 42 49 94 50 88 51 87 52 43 54 75 55
REMARK SMILES IDX 55 56 74 57 56 58 59 59 73 60 92 61 57 62 58 63 72 65 93 66
REMARK SMILES IDX 60 67 44 68 45 69 53 70 46 71 52 72 54 73 51 74 47 75 48 76
REMARK SMILES IDX 49 77 50 78 76 79 77 80 85 81 78 82 84 83 86 84 83 85 79 86
REMARK SMILES IDX 80 87 81 88 82 89 61 90 62 91 70 92 63 93 69 94 71 95 68 96
REMARK SMILES IDX 64 97 65 98 66 99 67 100
REMARK H PARENT 8 21 91 53 59 64
REMARK Flexibility Score: inf
ROOT
ATOM      1  C   UNL A   1      41.303  20.300  27.294  1.00  0.00     0.188 C 
ENDROOT
BRANCH   1   2
ATOM      2  C   UNL A   1      41.548  21.738  26.880  1.00  0.00     0.188 C 
BRANCH   2   3
ATOM      3  O   UNL A   1      40.575  22.388  26.073  1.00  0.00    -0.376 OA
BRANCH   3   4
ATOM      4  C   UNL A   1      39.205  22.360  26.446  1.00  0.00     0.202 C 
BRANCH   4   5
ATOM      5  C   UNL A   1      38.208  21.682  25.486  1.00  0.00     0.261 C 
BRANCH   5   6
ATOM      6  O   UNL A   1      36.785  21.821  25.747  1.00  0.00    -0.463 OA
BRANCH   6   7
ATOM      7  C   UNL A   1      36.058  22.364  24.733  1.00  0.00     0.312 C 
ATOM      8  O   UNL A   1      36.449  22.359  23.567  1.00  0.00    -0.252 OA
BRANCH   7   9
ATOM      9  C   UNL A   1      34.739  23.086  25.135  1.00  0.00     0.071 C 
ATOM     10  C   UNL A   1      33.423  21.693  26.776  1.00  0.00     0.013 C 
ATOM     11  C   UNL A   1      33.345  22.325  25.358  1.00  0.00    -0.005 C 
ATOM     12  C   UNL A   1      33.070  21.166  24.387  1.00  0.00     0.013 C 
ATOM     13  C   UNL A   1      32.200  23.448  25.053  1.00  0.00     0.053 C 
ATOM     14  C   UNL A   1      30.963  23.105  24.157  1.00  0.00     0.022 C 
ATOM     15  C   UNL A   1      32.968  24.462  24.119  1.00  0.00     0.018 C 
ATOM     16  C   UNL A   1      34.421  24.046  23.987  1.00  0.00     0.020 C 
ATOM     17  C   UNL A   1      35.159  23.917  26.377  1.00  0.00     0.024 C 
BRANCH  13  18
ATOM     18  C   UNL A   1      31.618  24.185  26.297  1.00  0.00     0.230 C 
ATOM     19  O   UNL A   1      31.528  23.602  27.385  1.00  0.00    -0.274 OA
ATOM     20  N   UNL A   1      31.244  25.505  26.328  1.00  0.00    -0.324 N 
ATOM     21  H   UNL A   1      31.151  25.832  27.252  1.00  0.00     0.170 HD
BRANCH  20  22
ATOM     22  C   UNL A   1      30.956  26.521  25.387  1.00  0.00     0.060 A 
ATOM     23  C   UNL A   1      29.864  26.475  24.533  1.00  0.00     0.029 A 
ATOM     24  C   UNL A   1      31.749  27.677  25.319  1.00  0.00     0.066 A 
ATOM     25  C   UNL A   1      29.513  27.511  23.672  1.00  0.00     0.023 A 
ATOM     26  C   UNL A   1      31.437  28.722  24.433  1.00  0.00     0.043 A 
ATOM     27  Cl  UNL A   1      33.161  27.848  26.301  1.00  0.00    -0.082 Cl
ATOM     28  C   UNL A   1      30.307  28.639  23.625  1.00  0.00     0.042 A 
ATOM     29  Cl  UNL A   1      29.884  29.920  22.562  1.00  0.00    -0.084 Cl
ENDBRANCH  20  22
ENDBRANCH  13  18
ENDBRANCH   7   9
ENDBRANCH   6   7
ENDBRANCH   5   6
ENDBRANCH   4   5
ENDBRANCH   3   4
ENDBRANCH   2   3
ENDBRANCH   1   2
BRANCH   1  30
ATOM     30  O   UNL A   1      42.478  19.593  27.650  1.00  0.00    -0.376 OA
BRANCH  30  31
ATOM     31  C   UNL A   1      42.701  18.368  26.964  1.00  0.00     0.202 C 
BRANCH  31  32
ATOM     32  C   UNL A   1      43.100  18.675  25.519  1.00  0.00     0.261 C 
BRANCH  32  33
ATOM     33  O   UNL A   1      44.445  19.175  25.383  1.00  0.00    -0.460 OA
BRANCH  33  34
ATOM     34  C   UNL A   1      44.651  20.059  24.379  1.00  0.00     0.338 C 
ATOM     35  O   UNL A   1      44.531  19.831  23.181  1.00  0.00    -0.246 OA
BRANCH  34  36
ATOM     36  C   UNL A   1      44.777  21.419  24.957  1.00  0.00     0.060 A 
ATOM     37  C   UNL A   1      44.416  22.510  24.156  1.00  0.00     0.016 A 
ATOM     38  C   UNL A   1      45.207  21.629  26.266  1.00  0.00     0.016 A 
ATOM     39  C   UNL A   1      44.528  23.813  24.637  1.00  0.00     0.010 A 
ATOM     40  C   UNL A   1      45.333  22.938  26.748  1.00  0.00     0.010 A 
ATOM     41  C   UNL A   1      45.029  24.040  25.924  1.00  0.00    -0.014 A 
BRANCH  41  42
ATOM     42  C   UNL A   1      45.419  25.416  26.328  1.00  0.00     0.031 A 
ATOM     43  C   UNL A   1      44.354  26.331  26.875  1.00  0.00     0.074 A 
ATOM     44  C   UNL A   1      46.694  25.839  26.262  1.00  0.00     0.049 A 
ATOM     45  N   UNL A   1      44.431  27.588  27.228  1.00  0.00    -0.248 NA
ATOM     46  C   UNL A   1      43.018  25.740  27.035  1.00  0.00     0.031 C 
ATOM     47  C   UNL A   1      47.829  25.035  25.816  1.00  0.00     0.029 A 
ATOM     48  N   UNL A   1      47.247  27.059  26.571  1.00  0.00    -0.354 N 
ATOM     49  C   UNL A   1      43.148  27.945  27.633  1.00  0.00     0.074 A 
ATOM     50  C   UNL A   1      42.309  26.781  27.439  1.00  0.00     0.031 C 
ATOM     51  C   UNL A   1      48.944  25.785  25.873  1.00  0.00     0.029 A 
ATOM     52  C   UNL A   1      48.595  27.136  26.311  1.00  0.00     0.049 A 
ATOM     53  H   UNL A   1      46.727  27.807  26.943  1.00  0.00     0.167 HD
ATOM     54  C   UNL A   1      42.712  29.131  28.127  1.00  0.00     0.034 A 
ATOM     55  C   UNL A   1      49.443  28.183  26.384  1.00  0.00     0.034 A 
ATOM     56  C   UNL A   1      43.561  30.284  28.309  1.00  0.00     0.049 A 
ATOM     57  C   UNL A   1      48.920  29.522  26.846  1.00  0.00     0.074 A 
ATOM     58  C   UNL A   1      43.227  31.530  28.813  1.00  0.00     0.029 A 
ATOM     59  N   UNL A   1      44.910  30.343  27.980  1.00  0.00    -0.354 N 
ATOM     60  N   UNL A   1      47.704  29.856  27.218  1.00  0.00    -0.248 NA
ATOM     61  C   UNL A   1      49.888  30.625  26.906  1.00  0.00     0.031 C 
ATOM     62  C   UNL A   1      44.346  32.364  28.703  1.00  0.00     0.029 A 
ATOM     63  C   UNL A   1      45.410  31.614  28.226  1.00  0.00     0.049 A 
ATOM     64  H   UNL A   1      45.436  29.591  27.622  1.00  0.00     0.167 HD
ATOM     65  C   UNL A   1      47.771  31.201  27.580  1.00  0.00     0.074 A 
ATOM     66  C   UNL A   1      49.150  31.606  27.403  1.00  0.00     0.031 C 
ATOM     67  C   UNL A   1      46.783  32.023  28.024  1.00  0.00     0.034 A 
BRANCH  54  68
ATOM     68  C   UNL A   1      41.234  29.250  28.427  1.00  0.00     0.023 A 
ATOM     69  C   UNL A   1      40.741  29.294  29.744  1.00  0.00     0.031 A 
ATOM     70  C   UNL A   1      40.297  29.249  27.377  1.00  0.00     0.131 A 
ATOM     71  C   UNL A   1      39.358  29.231  29.977  1.00  0.00     0.055 A 
ATOM     72  C   UNL A   1      38.922  29.290  27.616  1.00  0.00     0.041 A 
ATOM     73  F   UNL A   1      40.702  29.182  26.100  1.00  0.00    -0.206 F 
ATOM     74  C   UNL A   1      38.444  29.258  28.921  1.00  0.00     0.022 A 
BRANCH  71  75
ATOM     75  S   UNL A   1      38.779  28.913  31.667  1.00  0.00     0.124 S 
ATOM     76  O   UNL A   1      39.626  27.789  32.064  1.00  0.00    -0.237 OA
ATOM     77  O   UNL A   1      39.047  30.181  32.336  1.00  0.00    -0.237 OA
ATOM     78  O   UNL A   1      37.366  28.585  31.490  1.00  0.00    -0.744 OA
ENDBRANCH  71  75
ENDBRANCH  54  68
BRANCH  55  79
ATOM     79  C   UNL A   1      50.865  28.029  25.955  1.00  0.00     0.023 A 
ATOM     80  C   UNL A   1      51.228  28.033  24.598  1.00  0.00     0.031 A 
ATOM     81  C   UNL A   1      51.882  27.834  26.908  1.00  0.00     0.131 A 
ATOM     82  C   UNL A   1      52.566  27.812  24.232  1.00  0.00     0.055 A 
ATOM     83  C   UNL A   1      53.219  27.672  26.540  1.00  0.00     0.041 A 
ATOM     84  F   UNL A   1      51.589  27.809  28.217  1.00  0.00    -0.206 F 
ATOM     85  C   UNL A   1      53.566  27.650  25.193  1.00  0.00     0.022 A 
BRANCH  82  86
ATOM     86  S   UNL A   1      52.976  27.664  22.469  1.00  0.00     0.124 S 
ATOM     87  O   UNL A   1      54.233  28.400  22.394  1.00  0.00    -0.237 OA
ATOM     88  O   UNL A   1      53.067  26.218  22.299  1.00  0.00    -0.237 OA
ATOM     89  O   UNL A   1      51.841  28.297  21.801  1.00  0.00    -0.744 OA
ENDBRANCH  82  86
ENDBRANCH  55  79
BRANCH  67  90
ATOM     90  C   UNL A   1      47.176  33.439  28.386  1.00  0.00     0.023 A 
ATOM     91  C   UNL A   1      47.134  34.487  27.448  1.00  0.00     0.031 A 
ATOM     92  C   UNL A   1      47.635  33.739  29.683  1.00  0.00     0.131 A 
ATOM     93  C   UNL A   1      47.617  35.758  27.795  1.00  0.00     0.055 A 
ATOM     94  C   UNL A   1      48.038  35.026  30.044  1.00  0.00     0.041 A 
ATOM     95  F   UNL A   1      47.704  32.782  30.623  1.00  0.00    -0.206 F 
ATOM     96  C   UNL A   1      48.050  36.040  29.093  1.00  0.00     0.022 A 
BRANCH  93  97
ATOM     97  S   UNL A   1      47.807  37.003  26.487  1.00  0.00     0.124 S 
ATOM     98  O   UNL A   1      48.578  38.038  27.166  1.00  0.00    -0.237 OA
ATOM     99  O   UNL A   1      48.513  36.259  25.449  1.00  0.00    -0.237 OA
ATOM    100  O   UNL A   1      46.430  37.369  26.161  1.00  0.00    -0.744 OA
ENDBRANCH  93  97
ENDBRANCH  67  90
ENDBRANCH  41  42
ENDBRANCH  34  36
ENDBRANCH  33  34
ENDBRANCH  32  33
ENDBRANCH  31  32
ENDBRANCH  30  31
ENDBRANCH   1  30
TORSDOF 22
ENDMDL
