MODEL 1
REMARK VINA RESULT:     -11.5      0.000      0.000
REMARK SMILES O=C(OCCOCCOCCOC(=O)c1ccccc1Nc1cccc(S(F)(F)(F)(F)F)c1)c1ccc(-c2c3nc(c(-c4cc(S(=O)(=O)[O-])ccc4F)c4ccc([nH]4)c(-c4cc(S(=O)(=O)[O-])ccc4F)c4nc(c(-c5cc(S(=O)(=O)[O-])ccc5F)c5ccc2[nH]5)C=C4)C=C3)cc1
REMARK SMILES IDX 7 1 6 2 5 3 4 4 3 5 2 6 1 7 34 8 35 9 96 10 36 11 95 12
REMARK SMILES IDX 37 13 38 14 39 15 89 16 40 17 94 18 88 19 90 20 41 21 93 22
REMARK SMILES IDX 87 23 86 24 42 26 74 27 54 28 73 29 55 30 58 31 72 32 91 33
REMARK SMILES IDX 56 34 57 35 71 37 92 38 59 39 43 40 44 41 52 42 45 43 51 44
REMARK SMILES IDX 53 45 50 46 46 47 47 48 48 49 49 50 75 51 76 52 84 53 77 54
REMARK SMILES IDX 83 55 85 56 82 57 78 58 79 59 80 60 81 61 60 62 61 63 69 64
REMARK SMILES IDX 62 65 68 66 70 67 67 68 63 69 64 70 65 71 66 72 8 73 9 74
REMARK SMILES IDX 10 75 11 76 12 77 13 78 14 79 15 80 16 81 20 82 17 83 19 84
REMARK SMILES IDX 18 85 21 86 22 88 23 89 33 90 24 91 26 92 25 93 27 94 28 95
REMARK SMILES IDX 29 96 30 97 31 98 32 99
REMARK H PARENT 90 25 58 36 21 87
REMARK Flexibility Score: inf
ROOT
ATOM      1  C   UNL A   1      36.628  21.768  25.105  1.00  0.00     0.188 C 
ENDROOT
BRANCH   1   2
ATOM      2  O   UNL A   1      36.769  20.372  25.328  1.00  0.00    -0.376 OA
BRANCH   2   3
ATOM      3  C   UNL A   1      38.015  19.933  24.807  1.00  0.00     0.202 C 
BRANCH   3   4
ATOM      4  C   UNL A   1      39.117  20.230  25.810  1.00  0.00     0.261 C 
BRANCH   4   5
ATOM      5  O   UNL A   1      40.114  19.220  25.731  1.00  0.00    -0.460 OA
BRANCH   5   6
ATOM      6  C   UNL A   1      41.423  19.475  26.218  1.00  0.00     0.338 C 
ATOM      7  O   UNL A   1      42.225  18.511  26.418  1.00  0.00    -0.246 OA
BRANCH   6   8
ATOM      8  C   UNL A   1      41.865  20.903  26.498  1.00  0.00     0.060 A 
ATOM      9  C   UNL A   1      41.951  21.777  25.428  1.00  0.00     0.016 A 
ATOM     10  C   UNL A   1      42.184  21.286  27.729  1.00  0.00     0.016 A 
ATOM     11  C   UNL A   1      42.667  22.964  25.714  1.00  0.00     0.010 A 
ATOM     12  C   UNL A   1      42.756  22.515  27.953  1.00  0.00     0.010 A 
ATOM     13  C   UNL A   1      42.926  23.408  26.930  1.00  0.00    -0.014 A 
BRANCH  13  14
ATOM     14  C   UNL A   1      43.388  24.834  27.181  1.00  0.00     0.031 A 
ATOM     15  C   UNL A   1      42.494  25.778  27.689  1.00  0.00     0.074 A 
ATOM     16  C   UNL A   1      44.718  25.099  26.900  1.00  0.00     0.049 A 
ATOM     17  N   UNL A   1      42.750  27.046  28.016  1.00  0.00    -0.248 NA
ATOM     18  C   UNL A   1      41.073  25.509  27.956  1.00  0.00     0.031 C 
ATOM     19  C   UNL A   1      45.627  24.149  26.395  1.00  0.00     0.029 A 
ATOM     20  N   UNL A   1      45.392  26.290  27.049  1.00  0.00    -0.354 N 
ATOM     21  C   UNL A   1      41.646  27.632  28.487  1.00  0.00     0.074 A 
ATOM     22  C   UNL A   1      40.552  26.654  28.449  1.00  0.00     0.031 C 
ATOM     23  C   UNL A   1      46.829  24.763  26.231  1.00  0.00     0.029 A 
ATOM     24  C   UNL A   1      46.691  26.105  26.631  1.00  0.00     0.049 A 
ATOM     25  H   UNL A   1      45.011  27.130  27.394  1.00  0.00     0.167 HD
ATOM     26  C   UNL A   1      41.512  28.943  28.948  1.00  0.00     0.034 A 
ATOM     27  C   UNL A   1      47.712  27.041  26.592  1.00  0.00     0.034 A 
ATOM     28  C   UNL A   1      42.544  29.867  28.949  1.00  0.00     0.049 A 
ATOM     29  C   UNL A   1      47.562  28.370  26.998  1.00  0.00     0.074 A 
ATOM     30  C   UNL A   1      42.427  31.189  29.418  1.00  0.00     0.029 A 
ATOM     31  N   UNL A   1      43.837  29.688  28.509  1.00  0.00    -0.354 N 
ATOM     32  N   UNL A   1      46.469  28.943  27.505  1.00  0.00    -0.248 NA
ATOM     33  C   UNL A   1      48.627  29.379  26.931  1.00  0.00     0.031 C 
ATOM     34  C   UNL A   1      43.630  31.803  29.254  1.00  0.00     0.029 A 
ATOM     35  C   UNL A   1      44.517  30.873  28.679  1.00  0.00     0.049 A 
ATOM     36  H   UNL A   1      44.211  28.856  28.137  1.00  0.00     0.167 HD
ATOM     37  C   UNL A   1      46.715  30.223  27.795  1.00  0.00     0.074 A 
ATOM     38  C   UNL A   1      48.104  30.523  27.423  1.00  0.00     0.031 C 
ATOM     39  C   UNL A   1      45.837  31.151  28.357  1.00  0.00     0.034 A 
BRANCH  26  40
ATOM     40  C   UNL A   1      40.156  29.380  29.479  1.00  0.00     0.023 A 
ATOM     41  C   UNL A   1      40.009  29.548  30.845  1.00  0.00     0.031 A 
ATOM     42  C   UNL A   1      39.167  29.667  28.640  1.00  0.00     0.131 A 
ATOM     43  C   UNL A   1      38.671  29.752  31.258  1.00  0.00     0.055 A 
ATOM     44  C   UNL A   1      37.919  29.991  29.113  1.00  0.00     0.041 A 
ATOM     45  F   UNL A   1      39.388  29.639  27.328  1.00  0.00    -0.206 F 
ATOM     46  C   UNL A   1      37.688  30.117  30.455  1.00  0.00     0.022 A 
BRANCH  43  47
ATOM     47  S   UNL A   1      38.281  29.498  33.007  1.00  0.00     0.124 S 
ATOM     48  O   UNL A   1      37.336  28.302  33.149  1.00  0.00    -0.237 OA
ATOM     49  O   UNL A   1      39.571  29.224  33.783  1.00  0.00    -0.237 OA
ATOM     50  O   UNL A   1      37.526  30.899  33.632  1.00  0.00    -0.744 OA
ENDBRANCH  43  47
ENDBRANCH  26  40
BRANCH  27  51
ATOM     51  C   UNL A   1      49.072  26.598  26.077  1.00  0.00     0.023 A 
ATOM     52  C   UNL A   1      50.069  26.279  26.984  1.00  0.00     0.031 A 
ATOM     53  C   UNL A   1      49.306  26.605  24.770  1.00  0.00     0.131 A 
ATOM     54  C   UNL A   1      51.368  26.262  26.424  1.00  0.00     0.055 A 
ATOM     55  C   UNL A   1      50.582  26.446  24.287  1.00  0.00     0.041 A 
ATOM     56  F   UNL A   1      48.294  26.767  23.921  1.00  0.00    -0.206 F 
ATOM     57  C   UNL A   1      51.626  26.187  25.131  1.00  0.00     0.022 A 
BRANCH  54  58
ATOM     58  S   UNL A   1      52.776  26.349  27.559  1.00  0.00     0.124 S 
ATOM     59  O   UNL A   1      52.277  26.231  29.001  1.00  0.00    -0.237 OA
ATOM     60  O   UNL A   1      53.744  25.201  27.258  1.00  0.00    -0.237 OA
ATOM     61  O   UNL A   1      53.583  27.842  27.354  1.00  0.00    -0.744 OA
ENDBRANCH  54  58
ENDBRANCH  27  51
BRANCH  39  62
ATOM     62  C   UNL A   1      46.359  32.552  28.633  1.00  0.00     0.023 A 
ATOM     63  C   UNL A   1      46.285  33.480  27.608  1.00  0.00     0.031 A 
ATOM     64  C   UNL A   1      46.901  32.861  29.806  1.00  0.00     0.131 A 
ATOM     65  C   UNL A   1      47.076  34.634  27.823  1.00  0.00     0.055 A 
ATOM     66  C   UNL A   1      47.541  34.064  29.986  1.00  0.00     0.041 A 
ATOM     67  F   UNL A   1      46.823  31.999  30.816  1.00  0.00    -0.206 F 
ATOM     68  C   UNL A   1      47.557  35.005  28.994  1.00  0.00     0.022 A 
BRANCH  65  69
ATOM     69  S   UNL A   1      47.454  35.673  26.389  1.00  0.00     0.124 S 
ATOM     70  O   UNL A   1      48.605  36.619  26.735  1.00  0.00    -0.237 OA
ATOM     71  O   UNL A   1      47.859  34.787  25.209  1.00  0.00    -0.237 OA
ATOM     72  O   UNL A   1      46.072  36.587  25.968  1.00  0.00    -0.744 OA
ENDBRANCH  65  69
ENDBRANCH  39  62
ENDBRANCH  13  14
ENDBRANCH   6   8
ENDBRANCH   5   6
ENDBRANCH   4   5
ENDBRANCH   3   4
ENDBRANCH   2   3
ENDBRANCH   1   2
BRANCH   1  73
ATOM     73  C   UNL A   1      35.155  22.141  25.144  1.00  0.00     0.188 C 
BRANCH  73  74
ATOM     74  O   UNL A   1      34.718  22.479  23.836  1.00  0.00    -0.376 OA
BRANCH  74  75
ATOM     75  C   UNL A   1      33.316  22.270  23.737  1.00  0.00     0.202 C 
BRANCH  75  76
ATOM     76  C   UNL A   1      32.743  23.183  22.666  1.00  0.00     0.261 C 
BRANCH  76  77
ATOM     77  O   UNL A   1      33.741  24.097  22.238  1.00  0.00    -0.460 OA
BRANCH  77  78
ATOM     78  C   UNL A   1      33.572  25.489  22.464  1.00  0.00     0.340 C 
ATOM     79  O   UNL A   1      33.639  26.303  21.489  1.00  0.00    -0.246 OA
BRANCH  78  80
ATOM     80  C   UNL A   1      33.311  26.006  23.869  1.00  0.00     0.083 A 
ATOM     81  C   UNL A   1      34.177  25.717  24.910  1.00  0.00     0.018 A 
ATOM     82  C   UNL A   1      32.194  26.694  24.072  1.00  0.00     0.053 A 
ATOM     83  C   UNL A   1      33.628  25.951  26.193  1.00  0.00     0.001 A 
ATOM     84  C   UNL A   1      31.787  27.007  25.347  1.00  0.00     0.027 A 
ATOM     85  C   UNL A   1      32.565  26.698  26.429  1.00  0.00     0.002 A 
BRANCH  82  86
ATOM     86  N   UNL A   1      31.384  27.125  22.923  1.00  0.00    -0.355 N 
ATOM     87  H   UNL A   1      31.699  26.952  22.007  1.00  0.00     0.167 HD
BRANCH  86  88
ATOM     88  C   UNL A   1      30.105  27.815  23.144  1.00  0.00     0.040 A 
ATOM     89  C   UNL A   1      29.022  27.056  23.554  1.00  0.00     0.026 A 
ATOM     90  C   UNL A   1      29.968  29.100  22.835  1.00  0.00     0.050 A 
ATOM     91  C   UNL A   1      27.770  27.675  23.329  1.00  0.00     0.004 A 
ATOM     92  C   UNL A   1      28.722  29.674  22.766  1.00  0.00     0.109 A 
ATOM     93  C   UNL A   1      27.602  28.965  23.101  1.00  0.00     0.024 A 
BRANCH  92  94
ATOM     94  S   UNL A   1      28.560  31.393  22.224  1.00  0.00     0.310 S 
ATOM     95  F   UNL A   1      27.220  31.600  23.046  1.00  0.00    -0.094 F 
ATOM     96  F   UNL A   1      27.666  30.920  21.017  1.00  0.00    -0.094 F 
ATOM     97  F   UNL A   1      28.439  32.875  21.770  1.00  0.00    -0.094 F 
ATOM     98  F   UNL A   1      29.339  31.861  23.517  1.00  0.00    -0.094 F 
ATOM     99  F   UNL A   1      28.597  29.906  22.759  1.00  0.00    -0.094 F 
ENDBRANCH  92  94
ENDBRANCH  86  88
ENDBRANCH  82  86
ENDBRANCH  78  80
ENDBRANCH  77  78
ENDBRANCH  76  77
ENDBRANCH  75  76
ENDBRANCH  74  75
ENDBRANCH  73  74
ENDBRANCH   1  73
TORSDOF 23
ENDMDL
MODEL 2
REMARK VINA RESULT:     -11.3      2.598      7.717
REMARK SMILES O=C(OCCOCCOCCOC(=O)c1ccccc1Nc1cccc(S(F)(F)(F)(F)F)c1)c1ccc(-c2c3nc(c(-c4cc(S(=O)(=O)[O-])ccc4F)c4ccc([nH]4)c(-c4cc(S(=O)(=O)[O-])ccc4F)c4nc(c(-c5cc(S(=O)(=O)[O-])ccc5F)c5ccc2[nH]5)C=C4)C=C3)cc1
REMARK SMILES IDX 7 1 6 2 5 3 4 4 3 5 2 6 1 7 34 8 35 9 96 10 36 11 95 12
REMARK SMILES IDX 37 13 38 14 39 15 89 16 40 17 94 18 88 19 90 20 41 21 93 22
REMARK SMILES IDX 87 23 86 24 42 26 74 27 54 28 73 29 55 30 58 31 72 32 91 33
REMARK SMILES IDX 56 34 57 35 71 37 92 38 59 39 43 40 44 41 52 42 45 43 51 44
REMARK SMILES IDX 53 45 50 46 46 47 47 48 48 49 49 50 75 51 76 52 84 53 77 54
REMARK SMILES IDX 83 55 85 56 82 57 78 58 79 59 80 60 81 61 60 62 61 63 69 64
REMARK SMILES IDX 62 65 68 66 70 67 67 68 63 69 64 70 65 71 66 72 8 73 9 74
REMARK SMILES IDX 10 75 11 76 12 77 13 78 14 79 15 80 16 81 20 82 17 83 19 84
REMARK SMILES IDX 18 85 21 86 22 88 23 89 33 90 24 91 26 92 25 93 27 94 28 95
REMARK SMILES IDX 29 96 30 97 31 98 32 99
REMARK H PARENT 90 25 58 36 21 87
REMARK Flexibility Score: inf
ROOT
ATOM      1  C   UNL A   1      36.484  21.979  24.974  1.00  0.00     0.188 C 
ENDROOT
BRANCH   1   2
ATOM      2  O   UNL A   1      36.577  20.607  25.329  1.00  0.00    -0.376 OA
BRANCH   2   3
ATOM      3  C   UNL A   1      37.819  20.085  24.880  1.00  0.00     0.202 C 
BRANCH   3   4
ATOM      4  C   UNL A   1      38.936  20.589  25.778  1.00  0.00     0.261 C 
BRANCH   4   5
ATOM      5  O   UNL A   1      39.912  19.570  25.937  1.00  0.00    -0.460 OA
BRANCH   5   6
ATOM      6  C   UNL A   1      41.240  19.910  26.309  1.00  0.00     0.338 C 
ATOM      7  O   UNL A   1      42.153  19.027  26.284  1.00  0.00    -0.246 OA
BRANCH   6   8
ATOM      8  C   UNL A   1      41.568  21.332  26.737  1.00  0.00     0.060 A 
ATOM      9  C   UNL A   1      41.890  22.248  25.750  1.00  0.00     0.016 A 
ATOM     10  C   UNL A   1      41.572  21.672  28.021  1.00  0.00     0.016 A 
ATOM     11  C   UNL A   1      42.489  23.433  26.240  1.00  0.00     0.010 A 
ATOM     12  C   UNL A   1      42.045  22.899  28.418  1.00  0.00     0.010 A 
ATOM     13  C   UNL A   1      42.436  23.833  27.497  1.00  0.00    -0.014 A 
BRANCH  13  14
ATOM     14  C   UNL A   1      42.792  25.254  27.901  1.00  0.00     0.031 A 
ATOM     15  C   UNL A   1      44.116  25.692  27.819  1.00  0.00     0.074 A 
ATOM     16  C   UNL A   1      41.738  26.051  28.314  1.00  0.00     0.049 A 
ATOM     17  N   UNL A   1      44.586  26.913  28.080  1.00  0.00    -0.248 NA
ATOM     18  C   UNL A   1      45.243  24.839  27.415  1.00  0.00     0.031 C 
ATOM     19  C   UNL A   1      40.400  25.618  28.391  1.00  0.00     0.029 A 
ATOM     20  N   UNL A   1      41.779  27.367  28.717  1.00  0.00    -0.354 N 
ATOM     21  C   UNL A   1      45.904  26.954  27.870  1.00  0.00     0.074 A 
ATOM     22  C   UNL A   1      46.346  25.619  27.446  1.00  0.00     0.031 C 
ATOM     23  C   UNL A   1      39.647  26.656  28.844  1.00  0.00     0.029 A 
ATOM     24  C   UNL A   1      40.502  27.753  29.057  1.00  0.00     0.049 A 
ATOM     25  H   UNL A   1      42.583  27.933  28.754  1.00  0.00     0.167 HD
ATOM     26  C   UNL A   1      46.753  28.053  28.015  1.00  0.00     0.034 A 
ATOM     27  C   UNL A   1      40.086  28.987  29.531  1.00  0.00     0.034 A 
ATOM     28  C   UNL A   1      46.329  29.299  28.447  1.00  0.00     0.049 A 
ATOM     29  C   UNL A   1      40.946  30.070  29.732  1.00  0.00     0.074 A 
ATOM     30  C   UNL A   1      47.171  30.419  28.590  1.00  0.00     0.029 A 
ATOM     31  N   UNL A   1      45.056  29.679  28.811  1.00  0.00    -0.354 N 
ATOM     32  N   UNL A   1      42.256  30.121  29.484  1.00  0.00    -0.248 NA
ATOM     33  C   UNL A   1      40.523  31.372  30.263  1.00  0.00     0.031 C 
ATOM     34  C   UNL A   1      46.418  31.457  29.043  1.00  0.00     0.029 A 
ATOM     35  C   UNL A   1      45.094  31.001  29.191  1.00  0.00     0.049 A 
ATOM     36  H   UNL A   1      44.257  29.103  28.800  1.00  0.00     0.167 HD
ATOM     37  C   UNL A   1      42.733  31.332  29.783  1.00  0.00     0.074 A 
ATOM     38  C   UNL A   1      41.626  32.152  30.296  1.00  0.00     0.031 C 
ATOM     39  C   UNL A   1      44.045  31.787  29.647  1.00  0.00     0.034 A 
BRANCH  26  40
ATOM     40  C   UNL A   1      48.224  27.871  27.678  1.00  0.00     0.023 A 
ATOM     41  C   UNL A   1      48.668  28.284  26.434  1.00  0.00     0.031 A 
ATOM     42  C   UNL A   1      49.067  27.399  28.589  1.00  0.00     0.131 A 
ATOM     43  C   UNL A   1      49.995  27.889  26.137  1.00  0.00     0.055 A 
ATOM     44  C   UNL A   1      50.382  27.163  28.270  1.00  0.00     0.041 A 
ATOM     45  F   UNL A   1      48.634  27.152  29.823  1.00  0.00    -0.206 F 
ATOM     46  C   UNL A   1      50.876  27.494  27.038  1.00  0.00     0.022 A 
BRANCH  43  47
ATOM     47  S   UNL A   1      50.518  27.928  24.406  1.00  0.00     0.124 S 
ATOM     48  O   UNL A   1      49.289  27.831  23.499  1.00  0.00    -0.237 OA
ATOM     49  O   UNL A   1      51.257  29.239  24.125  1.00  0.00    -0.237 OA
ATOM     50  O   UNL A   1      51.561  26.608  24.096  1.00  0.00    -0.744 OA
ENDBRANCH  43  47
ENDBRANCH  26  40
BRANCH  27  51
ATOM     51  C   UNL A   1      38.612  29.173  29.851  1.00  0.00     0.023 A 
ATOM     52  C   UNL A   1      37.779  29.742  28.901  1.00  0.00     0.031 A 
ATOM     53  C   UNL A   1      38.166  28.865  31.062  1.00  0.00     0.131 A 
ATOM     54  C   UNL A   1      36.554  30.216  29.425  1.00  0.00     0.055 A 
ATOM     55  C   UNL A   1      36.907  29.241  31.461  1.00  0.00     0.041 A 
ATOM     56  F   UNL A   1      38.946  28.185  31.898  1.00  0.00    -0.206 F 
ATOM     57  C   UNL A   1      36.050  29.861  30.594  1.00  0.00     0.022 A 
BRANCH  54  58
ATOM     58  S   UNL A   1      35.609  31.394  28.425  1.00  0.00     0.124 S 
ATOM     59  O   UNL A   1      36.532  32.521  27.957  1.00  0.00    -0.237 OA
ATOM     60  O   UNL A   1      35.025  30.673  27.207  1.00  0.00    -0.237 OA
ATOM     61  O   UNL A   1      34.338  32.048  29.363  1.00  0.00    -0.744 OA
ENDBRANCH  54  58
ENDBRANCH  27  51
BRANCH  39  62
ATOM     62  C   UNL A   1      44.343  33.230  30.019  1.00  0.00     0.023 A 
ATOM     63  C   UNL A   1      44.651  33.503  31.341  1.00  0.00     0.031 A 
ATOM     64  C   UNL A   1      44.275  34.198  29.112  1.00  0.00     0.131 A 
ATOM     65  C   UNL A   1      44.588  34.878  31.671  1.00  0.00     0.055 A 
ATOM     66  C   UNL A   1      44.358  35.517  29.489  1.00  0.00     0.041 A 
ATOM     67  F   UNL A   1      44.127  33.889  27.827  1.00  0.00    -0.206 F 
ATOM     68  C   UNL A   1      44.601  35.861  30.790  1.00  0.00     0.022 A 
BRANCH  65  69
ATOM     69  S   UNL A   1      44.482  35.319  33.424  1.00  0.00     0.124 S 
ATOM     70  O   UNL A   1      45.513  34.512  34.215  1.00  0.00    -0.237 OA
ATOM     71  O   UNL A   1      44.765  36.813  33.592  1.00  0.00    -0.237 OA
ATOM     72  O   UNL A   1      42.913  34.966  34.006  1.00  0.00    -0.744 OA
ENDBRANCH  65  69
ENDBRANCH  39  62
ENDBRANCH  13  14
ENDBRANCH   6   8
ENDBRANCH   5   6
ENDBRANCH   4   5
ENDBRANCH   3   4
ENDBRANCH   2   3
ENDBRANCH   1   2
BRANCH   1  73
ATOM     73  C   UNL A   1      35.025  22.405  24.973  1.00  0.00     0.188 C 
BRANCH  73  74
ATOM     74  O   UNL A   1      34.622  22.707  23.646  1.00  0.00    -0.376 OA
BRANCH  74  75
ATOM     75  C   UNL A   1      33.214  22.548  23.531  1.00  0.00     0.202 C 
BRANCH  75  76
ATOM     76  C   UNL A   1      32.681  23.502  22.476  1.00  0.00     0.261 C 
BRANCH  76  77
ATOM     77  O   UNL A   1      33.682  24.456  22.150  1.00  0.00    -0.460 OA
BRANCH  77  78
ATOM     78  C   UNL A   1      33.463  25.833  22.417  1.00  0.00     0.340 C 
ATOM     79  O   UNL A   1      33.521  26.681  21.471  1.00  0.00    -0.246 OA
BRANCH  78  80
ATOM     80  C   UNL A   1      33.160  26.295  23.833  1.00  0.00     0.083 A 
ATOM     81  C   UNL A   1      34.086  26.139  24.851  1.00  0.00     0.018 A 
ATOM     82  C   UNL A   1      31.954  26.797  24.070  1.00  0.00     0.053 A 
ATOM     83  C   UNL A   1      33.540  26.276  26.149  1.00  0.00     0.001 A 
ATOM     84  C   UNL A   1      31.535  27.034  25.358  1.00  0.00     0.027 A 
ATOM     85  C   UNL A   1      32.379  26.846  26.418  1.00  0.00     0.002 A 
BRANCH  82  86
ATOM     86  N   UNL A   1      31.058  27.102  22.946  1.00  0.00    -0.355 N 
ATOM     87  H   UNL A   1      31.325  26.871  22.027  1.00  0.00     0.167 HD
BRANCH  86  88
ATOM     88  C   UNL A   1      29.763  27.753  23.193  1.00  0.00     0.040 A 
ATOM     89  C   UNL A   1      28.734  26.978  23.701  1.00  0.00     0.026 A 
ATOM     90  C   UNL A   1      29.557  29.012  22.820  1.00  0.00     0.050 A 
ATOM     91  C   UNL A   1      27.448  27.534  23.508  1.00  0.00     0.004 A 
ATOM     92  C   UNL A   1      28.286  29.532  22.785  1.00  0.00     0.109 A 
ATOM     93  C   UNL A   1      27.215  28.801  23.216  1.00  0.00     0.024 A 
BRANCH  92  94
ATOM     94  S   UNL A   1      28.026  31.209  22.157  1.00  0.00     0.310 S 
ATOM     95  F   UNL A   1      29.531  31.337  21.671  1.00  0.00    -0.094 F 
ATOM     96  F   UNL A   1      28.496  31.792  23.543  1.00  0.00    -0.094 F 
ATOM     97  F   UNL A   1      27.789  32.643  21.603  1.00  0.00    -0.094 F 
ATOM     98  F   UNL A   1      27.693  30.612  20.733  1.00  0.00    -0.094 F 
ATOM     99  F   UNL A   1      28.369  29.754  22.670  1.00  0.00    -0.094 F 
ENDBRANCH  92  94
ENDBRANCH  86  88
ENDBRANCH  82  86
ENDBRANCH  78  80
ENDBRANCH  77  78
ENDBRANCH  76  77
ENDBRANCH  75  76
ENDBRANCH  74  75
ENDBRANCH  73  74
ENDBRANCH   1  73
TORSDOF 23
ENDMDL
MODEL 3
REMARK VINA RESULT:     -11.2      2.891      3.577
REMARK SMILES O=C(OCCOCCOCCOC(=O)c1ccccc1Nc1cccc(S(F)(F)(F)(F)F)c1)c1ccc(-c2c3nc(c(-c4cc(S(=O)(=O)[O-])ccc4F)c4ccc([nH]4)c(-c4cc(S(=O)(=O)[O-])ccc4F)c4nc(c(-c5cc(S(=O)(=O)[O-])ccc5F)c5ccc2[nH]5)C=C4)C=C3)cc1
REMARK SMILES IDX 7 1 6 2 5 3 4 4 3 5 2 6 1 7 34 8 35 9 96 10 36 11 95 12
REMARK SMILES IDX 37 13 38 14 39 15 89 16 40 17 94 18 88 19 90 20 41 21 93 22
REMARK SMILES IDX 87 23 86 24 42 26 74 27 54 28 73 29 55 30 58 31 72 32 91 33
REMARK SMILES IDX 56 34 57 35 71 37 92 38 59 39 43 40 44 41 52 42 45 43 51 44
REMARK SMILES IDX 53 45 50 46 46 47 47 48 48 49 49 50 75 51 76 52 84 53 77 54
REMARK SMILES IDX 83 55 85 56 82 57 78 58 79 59 80 60 81 61 60 62 61 63 69 64
REMARK SMILES IDX 62 65 68 66 70 67 67 68 63 69 64 70 65 71 66 72 8 73 9 74
REMARK SMILES IDX 10 75 11 76 12 77 13 78 14 79 15 80 16 81 20 82 17 83 19 84
REMARK SMILES IDX 18 85 21 86 22 88 23 89 33 90 24 91 26 92 25 93 27 94 28 95
REMARK SMILES IDX 29 96 30 97 31 98 32 99
REMARK H PARENT 90 25 58 36 21 87
REMARK Flexibility Score: inf
ROOT
ATOM      1  C   UNL A   1      35.690  19.934  24.946  1.00  0.00     0.188 C 
ENDROOT
BRANCH   1   2
ATOM      2  O   UNL A   1      36.965  20.557  24.979  1.00  0.00    -0.376 OA
BRANCH   2   3
ATOM      3  C   UNL A   1      37.974  19.564  25.096  1.00  0.00     0.202 C 
BRANCH   3   4
ATOM      4  C   UNL A   1      39.215  20.174  25.725  1.00  0.00     0.261 C 
BRANCH   4   5
ATOM      5  O   UNL A   1      40.255  19.206  25.754  1.00  0.00    -0.460 OA
BRANCH   5   6
ATOM      6  C   UNL A   1      41.516  19.535  26.319  1.00  0.00     0.338 C 
ATOM      7  O   UNL A   1      42.344  18.615  26.603  1.00  0.00    -0.246 OA
BRANCH   6   8
ATOM      8  C   UNL A   1      41.874  20.989  26.583  1.00  0.00     0.060 A 
ATOM      9  C   UNL A   1      41.823  21.442  27.891  1.00  0.00     0.016 A 
ATOM     10  C   UNL A   1      42.198  21.801  25.584  1.00  0.00     0.016 A 
ATOM     11  C   UNL A   1      41.848  22.852  28.010  1.00  0.00     0.010 A 
ATOM     12  C   UNL A   1      42.340  23.151  25.799  1.00  0.00     0.010 A 
ATOM     13  C   UNL A   1      42.244  23.676  27.058  1.00  0.00    -0.014 A 
BRANCH  13  14
ATOM     14  C   UNL A   1      42.573  25.132  27.346  1.00  0.00     0.031 A 
ATOM     15  C   UNL A   1      41.622  25.957  27.950  1.00  0.00     0.074 A 
ATOM     16  C   UNL A   1      43.848  25.546  26.998  1.00  0.00     0.049 A 
ATOM     17  N   UNL A   1      41.767  27.231  28.318  1.00  0.00    -0.248 NA
ATOM     18  C   UNL A   1      40.256  25.529  28.288  1.00  0.00     0.031 C 
ATOM     19  C   UNL A   1      44.815  24.718  26.396  1.00  0.00     0.029 A 
ATOM     20  N   UNL A   1      44.404  26.795  27.160  1.00  0.00    -0.354 N 
ATOM     21  C   UNL A   1      40.642  27.679  28.880  1.00  0.00     0.074 A 
ATOM     22  C   UNL A   1      39.653  26.593  28.863  1.00  0.00     0.031 C 
ATOM     23  C   UNL A   1      45.935  25.460  26.189  1.00  0.00     0.029 A 
ATOM     24  C   UNL A   1      45.686  26.764  26.657  1.00  0.00     0.049 A 
ATOM     25  H   UNL A   1      43.963  27.576  27.565  1.00  0.00     0.167 HD
ATOM     26  C   UNL A   1      40.404  28.949  29.407  1.00  0.00     0.034 A 
ATOM     27  C   UNL A   1      46.601  27.803  26.599  1.00  0.00     0.034 A 
ATOM     28  C   UNL A   1      41.334  29.976  29.389  1.00  0.00     0.049 A 
ATOM     29  C   UNL A   1      46.342  29.091  27.074  1.00  0.00     0.074 A 
ATOM     30  C   UNL A   1      41.112  31.260  29.923  1.00  0.00     0.029 A 
ATOM     31  N   UNL A   1      42.608  29.951  28.864  1.00  0.00    -0.354 N 
ATOM     32  N   UNL A   1      45.232  29.526  27.671  1.00  0.00    -0.248 NA
ATOM     33  C   UNL A   1      47.292  30.209  26.988  1.00  0.00     0.031 C 
ATOM     34  C   UNL A   1      42.233  32.002  29.715  1.00  0.00     0.029 A 
ATOM     35  C   UNL A   1      43.172  31.193  29.046  1.00  0.00     0.049 A 
ATOM     36  H   UNL A   1      43.039  29.178  28.433  1.00  0.00     0.167 HD
ATOM     37  C   UNL A   1      45.363  30.813  28.003  1.00  0.00     0.074 A 
ATOM     38  C   UNL A   1      46.688  31.272  27.562  1.00  0.00     0.031 C 
ATOM     39  C   UNL A   1      44.433  31.621  28.659  1.00  0.00     0.034 A 
BRANCH  26  40
ATOM     40  C   UNL A   1      39.048  29.221  30.038  1.00  0.00     0.023 A 
ATOM     41  C   UNL A   1      38.065  29.805  29.256  1.00  0.00     0.031 A 
ATOM     42  C   UNL A   1      38.797  28.834  31.283  1.00  0.00     0.131 A 
ATOM     43  C   UNL A   1      36.917  30.204  29.981  1.00  0.00     0.055 A 
ATOM     44  C   UNL A   1      37.600  29.140  31.885  1.00  0.00     0.041 A 
ATOM     45  F   UNL A   1      39.714  28.142  31.955  1.00  0.00    -0.206 F 
ATOM     46  C   UNL A   1      36.606  29.769  31.188  1.00  0.00     0.022 A 
BRANCH  43  47
ATOM     47  S   UNL A   1      35.798  31.392  29.199  1.00  0.00     0.124 S 
ATOM     48  O   UNL A   1      34.874  31.996  30.258  1.00  0.00    -0.237 OA
ATOM     49  O   UNL A   1      36.616  32.506  28.541  1.00  0.00    -0.237 OA
ATOM     50  O   UNL A   1      34.861  30.595  28.011  1.00  0.00    -0.744 OA
ENDBRANCH  43  47
ENDBRANCH  26  40
BRANCH  27  51
ATOM     51  C   UNL A   1      47.963  27.526  25.983  1.00  0.00     0.023 A 
ATOM     52  C   UNL A   1      48.186  27.852  24.655  1.00  0.00     0.031 A 
ATOM     53  C   UNL A   1      48.887  26.902  26.704  1.00  0.00     0.131 A 
ATOM     54  C   UNL A   1      49.315  27.214  24.091  1.00  0.00     0.055 A 
ATOM     55  C   UNL A   1      50.031  26.425  26.112  1.00  0.00     0.041 A 
ATOM     56  F   UNL A   1      48.703  26.738  28.011  1.00  0.00    -0.206 F 
ATOM     57  C   UNL A   1      50.289  26.657  24.789  1.00  0.00     0.022 A 
BRANCH  54  58
ATOM     58  S   UNL A   1      49.436  27.157  22.286  1.00  0.00     0.124 S 
ATOM     59  O   UNL A   1      50.904  27.026  21.876  1.00  0.00    -0.237 OA
ATOM     60  O   UNL A   1      48.651  25.951  21.761  1.00  0.00    -0.237 OA
ATOM     61  O   UNL A   1      48.784  28.592  21.623  1.00  0.00    -0.744 OA
ENDBRANCH  54  58
ENDBRANCH  27  51
BRANCH  39  62
ATOM     62  C   UNL A   1      44.826  33.057  28.966  1.00  0.00     0.023 A 
ATOM     63  C   UNL A   1      45.441  33.310  30.181  1.00  0.00     0.031 A 
ATOM     64  C   UNL A   1      44.554  34.038  28.113  1.00  0.00     0.131 A 
ATOM     65  C   UNL A   1      45.473  34.680  30.532  1.00  0.00     0.055 A 
ATOM     66  C   UNL A   1      44.738  35.351  28.475  1.00  0.00     0.041 A 
ATOM     67  F   UNL A   1      44.102  33.748  26.896  1.00  0.00    -0.206 F 
ATOM     68  C   UNL A   1      45.287  35.675  29.685  1.00  0.00     0.022 A 
BRANCH  65  69
ATOM     69  S   UNL A   1      45.790  35.098  32.265  1.00  0.00     0.124 S 
ATOM     70  O   UNL A   1      46.919  34.215  32.803  1.00  0.00    -0.237 OA
ATOM     71  O   UNL A   1      46.199  36.569  32.369  1.00  0.00    -0.237 OA
ATOM     72  O   UNL A   1      44.373  34.833  33.183  1.00  0.00    -0.744 OA
ENDBRANCH  65  69
ENDBRANCH  39  62
ENDBRANCH  13  14
ENDBRANCH   6   8
ENDBRANCH   5   6
ENDBRANCH   4   5
ENDBRANCH   3   4
ENDBRANCH   2   3
ENDBRANCH   1   2
BRANCH   1  73
ATOM     73  C   UNL A   1      34.613  20.968  25.232  1.00  0.00     0.188 C 
BRANCH  73  74
ATOM     74  O   UNL A   1      34.415  21.069  26.635  1.00  0.00    -0.376 OA
BRANCH  74  75
ATOM     75  C   UNL A   1      34.570  22.423  27.038  1.00  0.00     0.202 C 
BRANCH  75  76
ATOM     76  C   UNL A   1      33.453  22.796  27.999  1.00  0.00     0.261 C 
BRANCH  76  77
ATOM     77  O   UNL A   1      32.202  22.693  27.334  1.00  0.00    -0.460 OA
BRANCH  77  78
ATOM     78  C   UNL A   1      31.775  23.728  26.460  1.00  0.00     0.340 C 
ATOM     79  O   UNL A   1      31.089  24.698  26.913  1.00  0.00    -0.246 OA
BRANCH  78  80
ATOM     80  C   UNL A   1      32.138  23.676  24.985  1.00  0.00     0.083 A 
ATOM     81  C   UNL A   1      31.549  22.757  24.135  1.00  0.00     0.018 A 
ATOM     82  C   UNL A   1      33.083  24.505  24.557  1.00  0.00     0.053 A 
ATOM     83  C   UNL A   1      32.233  22.590  22.907  1.00  0.00     0.001 A 
ATOM     84  C   UNL A   1      33.612  24.370  23.295  1.00  0.00     0.027 A 
ATOM     85  C   UNL A   1      33.118  23.442  22.421  1.00  0.00     0.002 A 
BRANCH  82  86
ATOM     86  N   UNL A   1      33.568  25.576  25.439  1.00  0.00    -0.355 N 
ATOM     87  H   UNL A   1      34.311  25.403  26.061  1.00  0.00     0.167 HD
BRANCH  86  88
ATOM     88  C   UNL A   1      32.943  26.906  25.392  1.00  0.00     0.040 A 
ATOM     89  C   UNL A   1      33.098  27.733  26.492  1.00  0.00     0.026 A 
ATOM     90  C   UNL A   1      32.152  27.246  24.380  1.00  0.00     0.050 A 
ATOM     91  C   UNL A   1      32.145  28.777  26.563  1.00  0.00     0.004 A 
ATOM     92  C   UNL A   1      31.347  28.356  24.464  1.00  0.00     0.109 A 
ATOM     93  C   UNL A   1      31.405  29.186  25.548  1.00  0.00     0.024 A 
BRANCH  92  94
ATOM     94  S   UNL A   1      30.192  28.724  23.120  1.00  0.00     0.310 S 
ATOM     95  F   UNL A   1      29.618  29.998  23.868  1.00  0.00    -0.094 F 
ATOM     96  F   UNL A   1      29.083  27.878  23.853  1.00  0.00    -0.094 F 
ATOM     97  F   UNL A   1      29.217  29.044  21.952  1.00  0.00    -0.094 F 
ATOM     98  F   UNL A   1      31.270  29.680  22.472  1.00  0.00    -0.094 F 
ATOM     99  F   UNL A   1      31.155  28.499  24.353  1.00  0.00    -0.094 F 
ENDBRANCH  92  94
ENDBRANCH  86  88
ENDBRANCH  82  86
ENDBRANCH  78  80
ENDBRANCH  77  78
ENDBRANCH  76  77
ENDBRANCH  75  76
ENDBRANCH  74  75
ENDBRANCH  73  74
ENDBRANCH   1  73
TORSDOF 23
ENDMDL
