MODEL 1
REMARK VINA RESULT:     -10.5      0.000      0.000
REMARK SMILES NS(=O)(=O)c1ccc(N2N=C(C(=O)OCCOCCOCCOC(=O)c3ccc(-c4c5nc(c(-c6cc(S(=O)(=O)[O-])ccc6F)c6ccc([nH]6)c(-c6cc(S(=O)(=O)[O-])ccc6F)c6nc(c(-c7cc(S(=O)(=O)[O-])ccc7F)c7ccc4[nH]7)C=C6)C=C5)cc3)C[C@H]2c2cccs2)cc1
REMARK SMILES IDX 18 1 17 2 16 3 15 4 14 5 12 6 13 7 11 8 9 9 10 10 90 11
REMARK SMILES IDX 89 12 8 13 5 14 6 15 97 16 7 17 96 18 2 19 3 20 4 21 1 22
REMARK SMILES IDX 91 25 92 26 95 27 93 28 94 29 19 30 20 31 21 32 22 33 23 34
REMARK SMILES IDX 24 35 25 36 26 37 27 38 88 39 28 40 87 41 29 42 30 43 31 44
REMARK SMILES IDX 81 45 32 46 86 47 80 48 82 49 33 50 85 51 79 52 78 53 34 55
REMARK SMILES IDX 66 56 46 57 65 58 47 59 50 60 64 61 83 62 48 63 49 64 63 66
REMARK SMILES IDX 84 67 51 68 35 69 36 70 44 71 37 72 43 73 45 74 42 75 38 76
REMARK SMILES IDX 39 77 40 78 41 79 67 80 68 81 76 82 69 83 75 84 77 85 74 86
REMARK SMILES IDX 70 87 71 88 72 89 73 90 52 91 53 92 61 93 54 94 60 95 62 96
REMARK SMILES IDX 59 97 55 98 56 99 57 100 58 101
REMARK H PARENT 1 23 1 24 82 54 50 65
REMARK Flexibility Score: inf
ROOT
ATOM      1  C   UNL A   1      35.530  22.506  26.003  1.00  0.00     0.188 C 
ENDROOT
BRANCH   1   2
ATOM      2  O   UNL A   1      34.642  23.087  25.062  1.00  0.00    -0.376 OA
BRANCH   2   3
ATOM      3  C   UNL A   1      34.684  22.690  23.700  1.00  0.00     0.202 C 
BRANCH   3   4
ATOM      4  C   UNL A   1      33.410  22.299  22.937  1.00  0.00     0.261 C 
BRANCH   4   5
ATOM      5  O   UNL A   1      32.326  23.220  23.107  1.00  0.00    -0.459 OA
BRANCH   5   6
ATOM      6  C   UNL A   1      31.550  23.002  24.187  1.00  0.00     0.354 C 
ATOM      7  O   UNL A   1      31.447  21.980  24.836  1.00  0.00    -0.245 OA
BRANCH   6   8
ATOM      8  C   UNL A   1      30.835  24.274  24.565  1.00  0.00     0.148 C 
ATOM      9  N   UNL A   1      29.979  26.200  24.436  1.00  0.00    -0.256 N 
ATOM     10  N   UNL A   1      30.413  25.140  23.691  1.00  0.00    -0.169 NA
ATOM     11  C   UNL A   1      30.430  26.114  25.838  1.00  0.00     0.154 C 
ATOM     12  C   UNL A   1      30.523  24.589  25.996  1.00  0.00     0.099 C 
BRANCH   9  13
ATOM     13  C   UNL A   1      29.537  27.359  23.810  1.00  0.00     0.060 A 
ATOM     14  C   UNL A   1      28.579  29.766  22.694  1.00  0.00     0.082 A 
ATOM     15  C   UNL A   1      27.692  28.718  22.944  1.00  0.00     0.024 A 
ATOM     16  C   UNL A   1      29.942  29.604  22.938  1.00  0.00     0.024 A 
ATOM     17  C   UNL A   1      28.178  27.523  23.497  1.00  0.00     0.029 A 
ATOM     18  C   UNL A   1      30.410  28.402  23.481  1.00  0.00     0.029 A 
BRANCH  14  19
ATOM     19  S   UNL A   1      28.008  31.319  22.060  1.00  0.00     0.238 S 
ATOM     20  O   UNL A   1      27.141  31.928  23.050  1.00  0.00    -0.207 OA
ATOM     21  O   UNL A   1      27.584  31.109  20.700  1.00  0.00    -0.207 OA
BRANCH  19  22
ATOM     22  N   UNL A   1      29.378  32.276  22.005  1.00  0.00    -0.225 NA
ATOM     23  H   UNL A   1      29.820  32.290  22.925  1.00  0.00     0.137 HD
ATOM     24  H   UNL A   1      29.119  33.225  21.737  1.00  0.00     0.137 HD
ENDBRANCH  19  22
ENDBRANCH  14  19
ENDBRANCH   9  13
BRANCH  11  25
ATOM     25  C   UNL A   1      31.734  26.822  26.199  1.00  0.00     0.030 A 
ATOM     26  C   UNL A   1      32.994  26.559  25.687  1.00  0.00     0.017 A 
ATOM     27  S   UNL A   1      31.815  28.089  27.363  1.00  0.00    -0.147 S 
ATOM     28  C   UNL A   1      34.009  27.375  26.266  1.00  0.00     0.012 A 
ATOM     29  C   UNL A   1      33.495  28.275  27.168  1.00  0.00     0.065 A 
ENDBRANCH  11  25
ENDBRANCH   6   8
ENDBRANCH   5   6
ENDBRANCH   4   5
ENDBRANCH   3   4
ENDBRANCH   2   3
ENDBRANCH   1   2
BRANCH   1  30
ATOM     30  C   UNL A   1      37.047  22.541  25.728  1.00  0.00     0.188 C 
BRANCH  30  31
ATOM     31  O   UNL A   1      37.684  21.328  25.410  1.00  0.00    -0.376 OA
BRANCH  31  32
ATOM     32  C   UNL A   1      39.053  21.143  25.733  1.00  0.00     0.202 C 
BRANCH  32  33
ATOM     33  C   UNL A   1      39.784  19.792  25.894  1.00  0.00     0.261 C 
BRANCH  33  34
ATOM     34  O   UNL A   1      40.941  19.727  26.728  1.00  0.00    -0.460 OA
BRANCH  34  35
ATOM     35  C   UNL A   1      42.104  20.155  26.170  1.00  0.00     0.338 C 
ATOM     36  O   UNL A   1      42.821  19.539  25.404  1.00  0.00    -0.246 OA
BRANCH  35  37
ATOM     37  C   UNL A   1      42.258  21.588  26.495  1.00  0.00     0.060 A 
ATOM     38  C   UNL A   1      42.331  22.525  25.454  1.00  0.00     0.016 A 
ATOM     39  C   UNL A   1      42.301  22.003  27.825  1.00  0.00     0.016 A 
ATOM     40  C   UNL A   1      42.426  23.887  25.743  1.00  0.00     0.010 A 
ATOM     41  C   UNL A   1      42.429  23.363  28.113  1.00  0.00     0.010 A 
ATOM     42  C   UNL A   1      42.500  24.312  27.076  1.00  0.00    -0.014 A 
BRANCH  42  43
ATOM     43  C   UNL A   1      42.781  25.731  27.402  1.00  0.00     0.031 A 
ATOM     44  C   UNL A   1      44.192  26.230  27.280  1.00  0.00     0.074 A 
ATOM     45  C   UNL A   1      41.804  26.553  27.826  1.00  0.00     0.049 A 
ATOM     46  N   UNL A   1      44.705  27.375  27.646  1.00  0.00    -0.248 NA
ATOM     47  C   UNL A   1      45.155  25.304  26.664  1.00  0.00     0.031 C 
ATOM     48  C   UNL A   1      40.388  26.205  27.918  1.00  0.00     0.029 A 
ATOM     49  N   UNL A   1      41.864  27.849  28.278  1.00  0.00    -0.354 N 
ATOM     50  C   UNL A   1      46.054  27.306  27.318  1.00  0.00     0.074 A 
ATOM     51  C   UNL A   1      46.282  25.995  26.748  1.00  0.00     0.031 C 
ATOM     52  C   UNL A   1      39.715  27.255  28.421  1.00  0.00     0.029 A 
ATOM     53  C   UNL A   1      40.657  28.326  28.738  1.00  0.00     0.049 A 
ATOM     54  H   UNL A   1      42.690  28.384  28.274  1.00  0.00     0.167 HD
ATOM     55  C   UNL A   1      47.010  28.253  27.478  1.00  0.00     0.034 A 
ATOM     56  C   UNL A   1      40.360  29.476  29.379  1.00  0.00     0.034 A 
ATOM     57  C   UNL A   1      46.767  29.546  28.068  1.00  0.00     0.049 A 
ATOM     58  C   UNL A   1      41.469  30.464  29.665  1.00  0.00     0.074 A 
ATOM     59  C   UNL A   1      47.661  30.584  28.263  1.00  0.00     0.029 A 
ATOM     60  N   UNL A   1      45.547  29.971  28.579  1.00  0.00    -0.354 N 
ATOM     61  N   UNL A   1      42.743  30.395  29.347  1.00  0.00    -0.248 NA
ATOM     62  C   UNL A   1      41.102  31.684  30.399  1.00  0.00     0.031 C 
ATOM     63  C   UNL A   1      47.004  31.601  28.965  1.00  0.00     0.029 A 
ATOM     64  C   UNL A   1      45.677  31.237  29.130  1.00  0.00     0.049 A 
ATOM     65  H   UNL A   1      44.713  29.450  28.553  1.00  0.00     0.167 HD
ATOM     66  C   UNL A   1      43.317  31.574  29.818  1.00  0.00     0.074 A 
ATOM     67  C   UNL A   1      42.252  32.341  30.427  1.00  0.00     0.031 C 
ATOM     68  C   UNL A   1      44.609  31.989  29.745  1.00  0.00     0.034 A 
BRANCH  55  69
ATOM     69  C   UNL A   1      48.416  27.895  27.062  1.00  0.00     0.023 A 
ATOM     70  C   UNL A   1      48.817  27.917  25.716  1.00  0.00     0.031 A 
ATOM     71  C   UNL A   1      49.362  27.502  28.025  1.00  0.00     0.131 A 
ATOM     72  C   UNL A   1      50.104  27.487  25.362  1.00  0.00     0.055 A 
ATOM     73  C   UNL A   1      50.668  27.154  27.675  1.00  0.00     0.041 A 
ATOM     74  F   UNL A   1      49.030  27.437  29.324  1.00  0.00    -0.206 F 
ATOM     75  C   UNL A   1      51.042  27.131  26.335  1.00  0.00     0.022 A 
BRANCH  72  76
ATOM     76  S   UNL A   1      50.486  27.259  23.604  1.00  0.00     0.124 S 
ATOM     77  O   UNL A   1      50.374  28.625  23.098  1.00  0.00    -0.237 OA
ATOM     78  O   UNL A   1      51.835  26.703  23.645  1.00  0.00    -0.237 OA
ATOM     79  O   UNL A   1      49.445  26.343  23.142  1.00  0.00    -0.744 OA
ENDBRANCH  72  76
ENDBRANCH  55  69
BRANCH  56  80
ATOM     80  C   UNL A   1      38.972  29.741  29.858  1.00  0.00     0.023 A 
ATOM     81  C   UNL A   1      38.117  30.610  29.161  1.00  0.00     0.031 A 
ATOM     82  C   UNL A   1      38.502  29.184  31.062  1.00  0.00     0.131 A 
ATOM     83  C   UNL A   1      36.859  30.934  29.694  1.00  0.00     0.055 A 
ATOM     84  C   UNL A   1      37.226  29.459  31.556  1.00  0.00     0.041 A 
ATOM     85  F   UNL A   1      39.281  28.358  31.778  1.00  0.00    -0.206 F 
ATOM     86  C   UNL A   1      36.400  30.351  30.878  1.00  0.00     0.022 A 
BRANCH  83  87
ATOM     87  S   UNL A   1      35.871  32.216  28.874  1.00  0.00     0.124 S 
ATOM     88  O   UNL A   1      35.028  32.684  29.967  1.00  0.00    -0.237 OA
ATOM     89  O   UNL A   1      36.900  33.143  28.414  1.00  0.00    -0.237 OA
ATOM     90  O   UNL A   1      35.177  31.485  27.816  1.00  0.00    -0.744 OA
ENDBRANCH  83  87
ENDBRANCH  56  80
BRANCH  68  91
ATOM     91  C   UNL A   1      44.933  33.355  30.302  1.00  0.00     0.023 A 
ATOM     92  C   UNL A   1      44.799  34.523  29.531  1.00  0.00     0.031 A 
ATOM     93  C   UNL A   1      45.365  33.490  31.634  1.00  0.00     0.131 A 
ATOM     94  C   UNL A   1      45.133  35.769  30.084  1.00  0.00     0.055 A 
ATOM     95  C   UNL A   1      45.637  34.737  32.198  1.00  0.00     0.041 A 
ATOM     96  F   UNL A   1      45.516  32.409  32.416  1.00  0.00    -0.206 F 
ATOM     97  C   UNL A   1      45.531  35.885  31.419  1.00  0.00     0.022 A 
BRANCH  94  98
ATOM     98  S   UNL A   1      45.109  37.235  29.016  1.00  0.00     0.124 S 
ATOM     99  O   UNL A   1      45.801  38.221  29.839  1.00  0.00    -0.237 OA
ATOM    100  O   UNL A   1      45.830  36.773  27.834  1.00  0.00    -0.237 OA
ATOM    101  O   UNL A   1      43.684  37.487  28.811  1.00  0.00    -0.744 OA
ENDBRANCH  94  98
ENDBRANCH  68  91
ENDBRANCH  42  43
ENDBRANCH  35  37
ENDBRANCH  34  35
ENDBRANCH  33  34
ENDBRANCH  32  33
ENDBRANCH  31  32
ENDBRANCH  30  31
ENDBRANCH   1  30
TORSDOF 24
ENDMDL
MODEL 2
REMARK VINA RESULT:     -10.4      2.449      7.985
REMARK SMILES NS(=O)(=O)c1ccc(N2N=C(C(=O)OCCOCCOCCOC(=O)c3ccc(-c4c5nc(c(-c6cc(S(=O)(=O)[O-])ccc6F)c6ccc([nH]6)c(-c6cc(S(=O)(=O)[O-])ccc6F)c6nc(c(-c7cc(S(=O)(=O)[O-])ccc7F)c7ccc4[nH]7)C=C6)C=C5)cc3)C[C@H]2c2cccs2)cc1
REMARK SMILES IDX 18 1 17 2 16 3 15 4 14 5 12 6 13 7 11 8 9 9 10 10 90 11
REMARK SMILES IDX 89 12 8 13 5 14 6 15 97 16 7 17 96 18 2 19 3 20 4 21 1 22
REMARK SMILES IDX 91 25 92 26 95 27 93 28 94 29 19 30 20 31 21 32 22 33 23 34
REMARK SMILES IDX 24 35 25 36 26 37 27 38 88 39 28 40 87 41 29 42 30 43 31 44
REMARK SMILES IDX 81 45 32 46 86 47 80 48 82 49 33 50 85 51 79 52 78 53 34 55
REMARK SMILES IDX 66 56 46 57 65 58 47 59 50 60 64 61 83 62 48 63 49 64 63 66
REMARK SMILES IDX 84 67 51 68 35 69 36 70 44 71 37 72 43 73 45 74 42 75 38 76
REMARK SMILES IDX 39 77 40 78 41 79 67 80 68 81 76 82 69 83 75 84 77 85 74 86
REMARK SMILES IDX 70 87 71 88 72 89 73 90 52 91 53 92 61 93 54 94 60 95 62 96
REMARK SMILES IDX 59 97 55 98 56 99 57 100 58 101
REMARK H PARENT 1 23 1 24 82 54 50 65
REMARK Flexibility Score: inf
ROOT
ATOM      1  C   UNL A   1      35.268  21.681  26.021  1.00  0.00     0.188 C 
ENDROOT
BRANCH   1   2
ATOM      2  O   UNL A   1      34.091  22.134  25.372  1.00  0.00    -0.376 OA
BRANCH   2   3
ATOM      3  C   UNL A   1      32.916  21.336  25.384  1.00  0.00     0.202 C 
BRANCH   3   4
ATOM      4  C   UNL A   1      31.534  21.944  25.667  1.00  0.00     0.261 C 
BRANCH   4   5
ATOM      5  O   UNL A   1      31.385  23.288  25.193  1.00  0.00    -0.459 OA
BRANCH   5   6
ATOM      6  C   UNL A   1      31.327  24.233  26.153  1.00  0.00     0.354 C 
ATOM      7  O   UNL A   1      30.787  24.159  27.240  1.00  0.00    -0.245 OA
BRANCH   6   8
ATOM      8  C   UNL A   1      32.122  25.441  25.727  1.00  0.00     0.148 C 
ATOM      9  N   UNL A   1      32.982  27.369  25.726  1.00  0.00    -0.256 N 
ATOM     10  N   UNL A   1      32.405  26.425  26.528  1.00  0.00    -0.169 NA
ATOM     11  C   UNL A   1      32.776  27.081  24.294  1.00  0.00     0.154 C 
ATOM     12  C   UNL A   1      32.680  25.548  24.341  1.00  0.00     0.099 C 
BRANCH   9  13
ATOM     13  C   UNL A   1      33.334  28.608  26.248  1.00  0.00     0.060 A 
ATOM     14  C   UNL A   1      33.971  31.076  27.456  1.00  0.00     0.082 A 
ATOM     15  C   UNL A   1      32.677  30.851  26.983  1.00  0.00     0.024 A 
ATOM     16  C   UNL A   1      34.960  30.110  27.278  1.00  0.00     0.024 A 
ATOM     17  C   UNL A   1      32.369  29.621  26.381  1.00  0.00     0.029 A 
ATOM     18  C   UNL A   1      34.638  28.893  26.667  1.00  0.00     0.029 A 
BRANCH  14  19
ATOM     19  S   UNL A   1      34.395  32.584  28.285  1.00  0.00     0.238 S 
ATOM     20  O   UNL A   1      33.226  33.441  28.303  1.00  0.00    -0.207 OA
ATOM     21  O   UNL A   1      35.660  33.030  27.763  1.00  0.00    -0.207 OA
BRANCH  19  22
ATOM     22  N   UNL A   1      34.651  32.128  29.873  1.00  0.00    -0.225 NA
ATOM     23  H   UNL A   1      34.629  31.111  29.942  1.00  0.00     0.137 HD
ATOM     24  H   UNL A   1      33.920  32.525  30.463  1.00  0.00     0.137 HD
ENDBRANCH  19  22
ENDBRANCH  14  19
ENDBRANCH   9  13
BRANCH  11  25
ATOM     25  C   UNL A   1      31.568  27.724  23.617  1.00  0.00     0.030 A 
ATOM     26  C   UNL A   1      31.539  28.926  22.929  1.00  0.00     0.017 A 
ATOM     27  S   UNL A   1      29.999  27.013  23.643  1.00  0.00    -0.147 S 
ATOM     28  C   UNL A   1      30.239  29.261  22.452  1.00  0.00     0.012 A 
ATOM     29  C   UNL A   1      29.316  28.286  22.744  1.00  0.00     0.065 A 
ENDBRANCH  11  25
ENDBRANCH   6   8
ENDBRANCH   5   6
ENDBRANCH   4   5
ENDBRANCH   3   4
ENDBRANCH   2   3
ENDBRANCH   1   2
BRANCH   1  30
ATOM     30  C   UNL A   1      36.563  21.513  25.201  1.00  0.00     0.188 C 
BRANCH  30  31
ATOM     31  O   UNL A   1      37.124  20.225  25.120  1.00  0.00    -0.376 OA
BRANCH  31  32
ATOM     32  C   UNL A   1      38.521  20.073  24.936  1.00  0.00     0.202 C 
BRANCH  32  33
ATOM     33  C   UNL A   1      39.460  19.152  25.745  1.00  0.00     0.261 C 
BRANCH  33  34
ATOM     34  O   UNL A   1      40.423  19.741  26.620  1.00  0.00    -0.460 OA
BRANCH  34  35
ATOM     35  C   UNL A   1      41.677  19.887  26.117  1.00  0.00     0.338 C 
ATOM     36  O   UNL A   1      42.265  19.120  25.378  1.00  0.00    -0.246 OA
BRANCH  35  37
ATOM     37  C   UNL A   1      42.144  21.246  26.460  1.00  0.00     0.060 A 
ATOM     38  C   UNL A   1      42.252  22.212  25.449  1.00  0.00     0.016 A 
ATOM     39  C   UNL A   1      42.447  21.568  27.782  1.00  0.00     0.016 A 
ATOM     40  C   UNL A   1      42.644  23.514  25.763  1.00  0.00     0.010 A 
ATOM     41  C   UNL A   1      42.870  22.863  28.090  1.00  0.00     0.010 A 
ATOM     42  C   UNL A   1      42.978  23.841  27.083  1.00  0.00    -0.014 A 
BRANCH  42  43
ATOM     43  C   UNL A   1      43.567  25.162  27.409  1.00  0.00     0.031 A 
ATOM     44  C   UNL A   1      42.676  26.220  27.997  1.00  0.00     0.074 A 
ATOM     45  C   UNL A   1      44.862  25.426  27.161  1.00  0.00     0.049 A 
ATOM     46  N   UNL A   1      42.922  27.482  28.225  1.00  0.00    -0.248 NA
ATOM     47  C   UNL A   1      41.321  25.789  28.372  1.00  0.00     0.031 C 
ATOM     48  C   UNL A   1      45.839  24.463  26.659  1.00  0.00     0.029 A 
ATOM     49  N   UNL A   1      45.572  26.596  27.282  1.00  0.00    -0.354 N 
ATOM     50  C   UNL A   1      41.750  28.005  28.758  1.00  0.00     0.074 A 
ATOM     51  C   UNL A   1      40.787  26.925  28.795  1.00  0.00     0.031 C 
ATOM     52  C   UNL A   1      47.018  25.087  26.490  1.00  0.00     0.029 A 
ATOM     53  C   UNL A   1      46.865  26.503  26.819  1.00  0.00     0.049 A 
ATOM     54  H   UNL A   1      45.192  27.421  27.661  1.00  0.00     0.167 HD
ATOM     55  C   UNL A   1      41.506  29.269  29.180  1.00  0.00     0.034 A 
ATOM     56  C   UNL A   1      47.800  27.461  26.641  1.00  0.00     0.034 A 
ATOM     57  C   UNL A   1      42.473  30.337  29.116  1.00  0.00     0.049 A 
ATOM     58  C   UNL A   1      47.461  28.891  26.997  1.00  0.00     0.074 A 
ATOM     59  C   UNL A   1      42.334  31.650  29.530  1.00  0.00     0.029 A 
ATOM     60  N   UNL A   1      43.752  30.222  28.585  1.00  0.00    -0.354 N 
ATOM     61  N   UNL A   1      46.351  29.378  27.507  1.00  0.00    -0.248 NA
ATOM     62  C   UNL A   1      48.499  29.903  26.750  1.00  0.00     0.031 C 
ATOM     63  C   UNL A   1      43.494  32.346  29.174  1.00  0.00     0.029 A 
ATOM     64  C   UNL A   1      44.393  31.451  28.619  1.00  0.00     0.049 A 
ATOM     65  H   UNL A   1      44.144  29.390  28.235  1.00  0.00     0.167 HD
ATOM     66  C   UNL A   1      46.573  30.744  27.667  1.00  0.00     0.074 A 
ATOM     67  C   UNL A   1      47.923  31.002  27.213  1.00  0.00     0.031 C 
ATOM     68  C   UNL A   1      45.737  31.699  28.153  1.00  0.00     0.034 A 
BRANCH  55  69
ATOM     69  C   UNL A   1      40.118  29.574  29.691  1.00  0.00     0.023 A 
ATOM     70  C   UNL A   1      39.832  29.632  31.065  1.00  0.00     0.031 A 
ATOM     71  C   UNL A   1      39.061  29.783  28.788  1.00  0.00     0.131 A 
ATOM     72  C   UNL A   1      38.512  29.824  31.498  1.00  0.00     0.055 A 
ATOM     73  C   UNL A   1      37.763  30.056  29.225  1.00  0.00     0.041 A 
ATOM     74  F   UNL A   1      39.268  29.714  27.463  1.00  0.00    -0.206 F 
ATOM     75  C   UNL A   1      37.480  30.063  30.587  1.00  0.00     0.022 A 
BRANCH  72  76
ATOM     76  S   UNL A   1      38.140  29.610  33.259  1.00  0.00     0.124 S 
ATOM     77  O   UNL A   1      37.694  30.951  33.632  1.00  0.00    -0.237 OA
ATOM     78  O   UNL A   1      37.109  28.578  33.240  1.00  0.00    -0.237 OA
ATOM     79  O   UNL A   1      39.421  29.205  33.834  1.00  0.00    -0.744 OA
ENDBRANCH  72  76
ENDBRANCH  55  69
BRANCH  56  80
ATOM     80  C   UNL A   1      49.125  27.126  26.042  1.00  0.00     0.023 A 
ATOM     81  C   UNL A   1      49.470  27.565  24.753  1.00  0.00     0.031 A 
ATOM     82  C   UNL A   1      50.040  26.300  26.721  1.00  0.00     0.131 A 
ATOM     83  C   UNL A   1      50.672  27.140  24.166  1.00  0.00     0.055 A 
ATOM     84  C   UNL A   1      51.262  25.931  26.158  1.00  0.00     0.041 A 
ATOM     85  F   UNL A   1      49.757  25.839  27.949  1.00  0.00    -0.206 F 
ATOM     86  C   UNL A   1      51.579  26.340  24.866  1.00  0.00     0.022 A 
BRANCH  83  87
ATOM     87  S   UNL A   1      50.985  27.556  22.428  1.00  0.00     0.124 S 
ATOM     88  O   UNL A   1      50.033  28.637  22.207  1.00  0.00    -0.237 OA
ATOM     89  O   UNL A   1      52.393  27.937  22.456  1.00  0.00    -0.237 OA
ATOM     90  O   UNL A   1      50.693  26.311  21.722  1.00  0.00    -0.744 OA
ENDBRANCH  83  87
ENDBRANCH  56  80
BRANCH  68  91
ATOM     91  C   UNL A   1      46.276  33.106  28.260  1.00  0.00     0.023 A 
ATOM     92  C   UNL A   1      47.011  33.537  29.378  1.00  0.00     0.031 A 
ATOM     93  C   UNL A   1      46.066  34.024  27.214  1.00  0.00     0.131 A 
ATOM     94  C   UNL A   1      47.473  34.861  29.443  1.00  0.00     0.055 A 
ATOM     95  C   UNL A   1      46.580  35.320  27.257  1.00  0.00     0.041 A 
ATOM     96  F   UNL A   1      45.368  33.668  26.124  1.00  0.00    -0.206 F 
ATOM     97  C   UNL A   1      47.280  35.749  28.381  1.00  0.00     0.022 A 
BRANCH  94  98
ATOM     98  S   UNL A   1      48.270  35.435  30.969  1.00  0.00     0.124 S 
ATOM     99  O   UNL A   1      49.674  35.486  30.575  1.00  0.00    -0.237 OA
ATOM    100  O   UNL A   1      47.624  36.723  31.195  1.00  0.00    -0.237 OA
ATOM    101  O   UNL A   1      47.936  34.397  31.942  1.00  0.00    -0.744 OA
ENDBRANCH  94  98
ENDBRANCH  68  91
ENDBRANCH  42  43
ENDBRANCH  35  37
ENDBRANCH  34  35
ENDBRANCH  33  34
ENDBRANCH  32  33
ENDBRANCH  31  32
ENDBRANCH  30  31
ENDBRANCH   1  30
TORSDOF 24
ENDMDL
MODEL 3
REMARK VINA RESULT:      -9.9      2.097      7.581
REMARK SMILES NS(=O)(=O)c1ccc(N2N=C(C(=O)OCCOCCOCCOC(=O)c3ccc(-c4c5nc(c(-c6cc(S(=O)(=O)[O-])ccc6F)c6ccc([nH]6)c(-c6cc(S(=O)(=O)[O-])ccc6F)c6nc(c(-c7cc(S(=O)(=O)[O-])ccc7F)c7ccc4[nH]7)C=C6)C=C5)cc3)C[C@H]2c2cccs2)cc1
REMARK SMILES IDX 18 1 17 2 16 3 15 4 14 5 12 6 13 7 11 8 9 9 10 10 90 11
REMARK SMILES IDX 89 12 8 13 5 14 6 15 97 16 7 17 96 18 2 19 3 20 4 21 1 22
REMARK SMILES IDX 91 25 92 26 95 27 93 28 94 29 19 30 20 31 21 32 22 33 23 34
REMARK SMILES IDX 24 35 25 36 26 37 27 38 88 39 28 40 87 41 29 42 30 43 31 44
REMARK SMILES IDX 81 45 32 46 86 47 80 48 82 49 33 50 85 51 79 52 78 53 34 55
REMARK SMILES IDX 66 56 46 57 65 58 47 59 50 60 64 61 83 62 48 63 49 64 63 66
REMARK SMILES IDX 84 67 51 68 35 69 36 70 44 71 37 72 43 73 45 74 42 75 38 76
REMARK SMILES IDX 39 77 40 78 41 79 67 80 68 81 76 82 69 83 75 84 77 85 74 86
REMARK SMILES IDX 70 87 71 88 72 89 73 90 52 91 53 92 61 93 54 94 60 95 62 96
REMARK SMILES IDX 59 97 55 98 56 99 57 100 58 101
REMARK H PARENT 1 23 1 24 82 54 50 65
REMARK Flexibility Score: inf
ROOT
ATOM      1  C   UNL A   1      35.299  21.916  26.288  1.00  0.00     0.188 C 
ENDROOT
BRANCH   1   2
ATOM      2  O   UNL A   1      34.945  23.289  26.290  1.00  0.00    -0.376 OA
BRANCH   2   3
ATOM      3  C   UNL A   1      35.013  24.047  25.091  1.00  0.00     0.202 C 
BRANCH   3   4
ATOM      4  C   UNL A   1      34.423  23.520  23.774  1.00  0.00     0.261 C 
BRANCH   4   5
ATOM      5  O   UNL A   1      34.419  24.484  22.714  1.00  0.00    -0.459 OA
BRANCH   5   6
ATOM      6  C   UNL A   1      33.329  24.461  21.920  1.00  0.00     0.354 C 
ATOM      7  O   UNL A   1      33.184  23.863  20.872  1.00  0.00    -0.245 OA
BRANCH   6   8
ATOM      8  C   UNL A   1      32.217  25.251  22.561  1.00  0.00     0.148 C 
ATOM      9  N   UNL A   1      30.861  26.815  22.981  1.00  0.00    -0.256 N 
ATOM     10  N   UNL A   1      31.707  26.323  22.028  1.00  0.00    -0.169 NA
ATOM     11  C   UNL A   1      31.079  26.181  24.296  1.00  0.00     0.154 C 
ATOM     12  C   UNL A   1      31.593  24.805  23.847  1.00  0.00     0.099 C 
BRANCH   9  13
ATOM     13  C   UNL A   1      30.205  28.022  22.777  1.00  0.00     0.060 A 
ATOM     14  C   UNL A   1      28.847  30.483  22.535  1.00  0.00     0.082 A 
ATOM     15  C   UNL A   1      28.119  29.305  22.708  1.00  0.00     0.024 A 
ATOM     16  C   UNL A   1      30.236  30.437  22.421  1.00  0.00     0.024 A 
ATOM     17  C   UNL A   1      28.802  28.085  22.825  1.00  0.00     0.029 A 
ATOM     18  C   UNL A   1      30.901  29.211  22.531  1.00  0.00     0.029 A 
BRANCH  14  19
ATOM     19  S   UNL A   1      28.039  32.057  22.450  1.00  0.00     0.238 S 
ATOM     20  O   UNL A   1      29.049  33.096  22.505  1.00  0.00    -0.207 OA
ATOM     21  O   UNL A   1      26.924  32.028  23.361  1.00  0.00    -0.207 OA
BRANCH  19  22
ATOM     22  N   UNL A   1      27.407  32.118  20.903  1.00  0.00    -0.225 NA
ATOM     23  H   UNL A   1      27.480  31.198  20.470  1.00  0.00     0.137 HD
ATOM     24  H   UNL A   1      27.929  32.797  20.349  1.00  0.00     0.137 HD
ENDBRANCH  19  22
ENDBRANCH  14  19
ENDBRANCH   9  13
BRANCH  11  25
ATOM     25  C   UNL A   1      32.035  26.880  25.259  1.00  0.00     0.030 A 
ATOM     26  C   UNL A   1      31.778  27.247  26.570  1.00  0.00     0.017 A 
ATOM     27  S   UNL A   1      33.632  27.345  24.812  1.00  0.00    -0.147 S 
ATOM     28  C   UNL A   1      32.874  27.920  27.183  1.00  0.00     0.012 A 
ATOM     29  C   UNL A   1      33.959  28.008  26.344  1.00  0.00     0.065 A 
ENDBRANCH  11  25
ENDBRANCH   6   8
ENDBRANCH   5   6
ENDBRANCH   4   5
ENDBRANCH   3   4
ENDBRANCH   2   3
ENDBRANCH   1   2
BRANCH   1  30
ATOM     30  C   UNL A   1      36.627  21.481  25.635  1.00  0.00     0.188 C 
BRANCH  30  31
ATOM     31  O   UNL A   1      36.793  20.117  25.334  1.00  0.00    -0.376 OA
BRANCH  31  32
ATOM     32  C   UNL A   1      38.014  19.661  24.775  1.00  0.00     0.202 C 
BRANCH  32  33
ATOM     33  C   UNL A   1      39.285  19.254  25.554  1.00  0.00     0.261 C 
BRANCH  33  34
ATOM     34  O   UNL A   1      40.054  20.267  26.202  1.00  0.00    -0.460 OA
BRANCH  34  35
ATOM     35  C   UNL A   1      41.398  20.067  26.238  1.00  0.00     0.338 C 
ATOM     36  O   UNL A   1      41.997  19.058  25.917  1.00  0.00    -0.246 OA
BRANCH  35  37
ATOM     37  C   UNL A   1      42.038  21.362  26.548  1.00  0.00     0.060 A 
ATOM     38  C   UNL A   1      42.498  21.606  27.850  1.00  0.00     0.016 A 
ATOM     39  C   UNL A   1      42.205  22.317  25.547  1.00  0.00     0.016 A 
ATOM     40  C   UNL A   1      43.150  22.803  28.149  1.00  0.00     0.010 A 
ATOM     41  C   UNL A   1      42.828  23.528  25.855  1.00  0.00     0.010 A 
ATOM     42  C   UNL A   1      43.298  23.782  27.158  1.00  0.00    -0.014 A 
BRANCH  42  43
ATOM     43  C   UNL A   1      43.823  25.126  27.495  1.00  0.00     0.031 A 
ATOM     44  C   UNL A   1      42.870  26.155  28.034  1.00  0.00     0.074 A 
ATOM     45  C   UNL A   1      45.117  25.437  27.300  1.00  0.00     0.049 A 
ATOM     46  N   UNL A   1      43.059  27.428  28.260  1.00  0.00    -0.248 NA
ATOM     47  C   UNL A   1      41.516  25.678  28.356  1.00  0.00     0.031 C 
ATOM     48  C   UNL A   1      46.149  24.506  26.849  1.00  0.00     0.029 A 
ATOM     49  N   UNL A   1      45.778  26.633  27.439  1.00  0.00    -0.354 N 
ATOM     50  C   UNL A   1      41.847  27.911  28.738  1.00  0.00     0.074 A 
ATOM     51  C   UNL A   1      40.924  26.797  28.745  1.00  0.00     0.031 C 
ATOM     52  C   UNL A   1      47.311  25.172  26.725  1.00  0.00     0.029 A 
ATOM     53  C   UNL A   1      47.092  26.584  27.033  1.00  0.00     0.049 A 
ATOM     54  H   UNL A   1      45.352  27.446  27.794  1.00  0.00     0.167 HD
ATOM     55  C   UNL A   1      41.539  29.169  29.137  1.00  0.00     0.034 A 
ATOM     56  C   UNL A   1      47.998  27.574  26.886  1.00  0.00     0.034 A 
ATOM     57  C   UNL A   1      42.468  30.271  29.104  1.00  0.00     0.049 A 
ATOM     58  C   UNL A   1      47.592  28.994  27.212  1.00  0.00     0.074 A 
ATOM     59  C   UNL A   1      42.264  31.581  29.499  1.00  0.00     0.029 A 
ATOM     60  N   UNL A   1      43.772  30.199  28.628  1.00  0.00    -0.354 N 
ATOM     61  N   UNL A   1      46.445  29.443  27.671  1.00  0.00    -0.248 NA
ATOM     62  C   UNL A   1      48.602  30.041  27.000  1.00  0.00     0.031 C 
ATOM     63  C   UNL A   1      43.411  32.318  29.185  1.00  0.00     0.029 A 
ATOM     64  C   UNL A   1      44.366  31.451  28.678  1.00  0.00     0.049 A 
ATOM     65  H   UNL A   1      44.209  29.380  28.304  1.00  0.00     0.167 HD
ATOM     66  C   UNL A   1      46.609  30.818  27.826  1.00  0.00     0.074 A 
ATOM     67  C   UNL A   1      47.967  31.122  27.428  1.00  0.00     0.031 C 
ATOM     68  C   UNL A   1      45.719  31.745  28.267  1.00  0.00     0.034 A 
BRANCH  55  69
ATOM     69  C   UNL A   1      40.121  29.426  29.585  1.00  0.00     0.023 A 
ATOM     70  C   UNL A   1      39.780  29.520  30.945  1.00  0.00     0.031 A 
ATOM     71  C   UNL A   1      39.090  29.553  28.638  1.00  0.00     0.131 A 
ATOM     72  C   UNL A   1      38.438  29.665  31.322  1.00  0.00     0.055 A 
ATOM     73  C   UNL A   1      37.766  29.781  29.017  1.00  0.00     0.041 A 
ATOM     74  F   UNL A   1      39.350  29.446  27.325  1.00  0.00    -0.206 F 
ATOM     75  C   UNL A   1      37.430  29.823  30.367  1.00  0.00     0.022 A 
BRANCH  72  76
ATOM     76  S   UNL A   1      38.009  29.498  33.076  1.00  0.00     0.124 S 
ATOM     77  O   UNL A   1      39.323  29.582  33.710  1.00  0.00    -0.237 OA
ATOM     78  O   UNL A   1      37.122  30.635  33.293  1.00  0.00    -0.237 OA
ATOM     79  O   UNL A   1      37.372  28.184  33.150  1.00  0.00    -0.744 OA
ENDBRANCH  72  76
ENDBRANCH  55  69
BRANCH  56  80
ATOM     80  C   UNL A   1      49.359  27.284  26.346  1.00  0.00     0.023 A 
ATOM     81  C   UNL A   1      49.707  27.631  25.031  1.00  0.00     0.031 A 
ATOM     82  C   UNL A   1      50.310  26.589  27.115  1.00  0.00     0.131 A 
ATOM     83  C   UNL A   1      50.951  27.243  24.509  1.00  0.00     0.055 A 
ATOM     84  C   UNL A   1      51.570  26.261  26.613  1.00  0.00     0.041 A 
ATOM     85  F   UNL A   1      50.027  26.218  28.374  1.00  0.00    -0.206 F 
ATOM     86  C   UNL A   1      51.893  26.575  25.296  1.00  0.00     0.022 A 
BRANCH  83  87
ATOM     87  S   UNL A   1      51.282  27.526  22.748  1.00  0.00     0.124 S 
ATOM     88  O   UNL A   1      50.446  26.508  22.123  1.00  0.00    -0.237 OA
ATOM     89  O   UNL A   1      50.847  28.908  22.576  1.00  0.00    -0.237 OA
ATOM     90  O   UNL A   1      52.722  27.310  22.633  1.00  0.00    -0.744 OA
ENDBRANCH  83  87
ENDBRANCH  56  80
BRANCH  68  91
ATOM     91  C   UNL A   1      46.201  33.172  28.383  1.00  0.00     0.023 A 
ATOM     92  C   UNL A   1      46.812  33.657  29.552  1.00  0.00     0.031 A 
ATOM     93  C   UNL A   1      46.062  34.055  27.296  1.00  0.00     0.131 A 
ATOM     94  C   UNL A   1      47.224  34.997  29.622  1.00  0.00     0.055 A 
ATOM     95  C   UNL A   1      46.528  35.368  27.350  1.00  0.00     0.041 A 
ATOM     96  F   UNL A   1      45.481  33.647  26.156  1.00  0.00    -0.206 F 
ATOM     97  C   UNL A   1      47.105  35.849  28.521  1.00  0.00     0.022 A 
BRANCH  94  98
ATOM     98  S   UNL A   1      47.856  35.637  31.198  1.00  0.00     0.124 S 
ATOM     99  O   UNL A   1      47.535  37.057  31.098  1.00  0.00    -0.237 OA
ATOM    100  O   UNL A   1      47.085  34.876  32.176  1.00  0.00    -0.237 OA
ATOM    101  O   UNL A   1      49.281  35.318  31.151  1.00  0.00    -0.744 OA
ENDBRANCH  94  98
ENDBRANCH  68  91
ENDBRANCH  42  43
ENDBRANCH  35  37
ENDBRANCH  34  35
ENDBRANCH  33  34
ENDBRANCH  32  33
ENDBRANCH  31  32
ENDBRANCH  30  31
ENDBRANCH   1  30
TORSDOF 24
ENDMDL
