MODEL 1
REMARK VINA RESULT:      -7.8      0.000      0.000
REMARK SMILES COc1ccccc1N1C(=O)[C@@H]2[C@@H](C1=O)[C@@](Cc1ccccc1)(C(=O)OCCOCCOCCOC(=O)c1ccc(-c3c4nc(c(-c5cc(S(=O)(=O)[O-])ccc5F)c5ccc([nH]5)c(-c5cc(S(=O)(=O)[O-])ccc5F)c5nc(c(-c6cc(S(=O)(=O)[O-])ccc6F)c6ccc3[nH]6)C=C5)C=C4)cc1)[NH2+][C@H]2c1ccc(C)cc1
REMARK SMILES IDX 31 1 30 2 29 3 28 4 27 5 26 6 24 7 25 8 16 9 9 10 10 11
REMARK SMILES IDX 14 12 11 13 12 14 13 15 15 16 102 17 101 18 8 21 3 22 4 23
REMARK SMILES IDX 5 24 7 25 6 26 2 27 1 28 103 29 104 30 109 31 105 32 108 33
REMARK SMILES IDX 106 34 107 35 17 36 18 37 19 38 23 39 20 40 22 41 21 42
REMARK SMILES IDX 32 43 33 44 34 45 35 46 36 47 37 48 38 49 39 50 100 51 40 52
REMARK SMILES IDX 99 53 41 54 42 55 43 56 93 57 44 58 98 59 92 60 94 61 45 62
REMARK SMILES IDX 97 63 91 64 90 65 46 67 78 68 58 69 77 70 59 71 62 72 76 73
REMARK SMILES IDX 95 74 60 75 61 76 75 78 96 79 63 80 47 81 48 82 56 83 49 84
REMARK SMILES IDX 55 85 57 86 54 87 50 88 51 89 52 90 53 91 79 92 80 93 88 94
REMARK SMILES IDX 81 95 87 96 89 97 86 98 82 99 83 100 84 101 85 102 64 103
REMARK SMILES IDX 65 104 73 105 66 106 72 107 74 108 71 109 67 110 68 111
REMARK SMILES IDX 69 112 70 113
REMARK H PARENT 101 19 101 20 94 66 62 77
REMARK Flexibility Score: inf
ROOT
ATOM      1  C   UNL A   1      47.502  23.126  34.565  1.00  0.00     0.188 C 
ENDROOT
BRANCH   1   2
ATOM      2  C   UNL A   1      48.208  24.380  34.075  1.00  0.00     0.188 C 
BRANCH   2   3
ATOM      3  O   UNL A   1      47.448  25.582  34.088  1.00  0.00    -0.376 OA
BRANCH   3   4
ATOM      4  C   UNL A   1      47.135  26.180  32.840  1.00  0.00     0.202 C 
BRANCH   4   5
ATOM      5  C   UNL A   1      46.519  25.298  31.745  1.00  0.00     0.261 C 
BRANCH   5   6
ATOM      6  O   UNL A   1      45.631  25.961  30.831  1.00  0.00    -0.459 OA
BRANCH   6   7
ATOM      7  C   UNL A   1      45.992  25.790  29.522  1.00  0.00     0.369 C 
ATOM      8  O   UNL A   1      46.963  25.122  29.201  1.00  0.00    -0.245 OA
BRANCH   7   9
ATOM      9  C   UNL A   1      45.035  26.522  28.541  1.00  0.00     0.211 C 
ATOM     10  N   UNL A   1      43.498  23.612  26.859  1.00  0.00    -0.246 N 
ATOM     11  C   UNL A   1      44.176  24.268  25.836  1.00  0.00     0.244 C 
ATOM     12  C   UNL A   1      43.804  24.183  28.088  1.00  0.00     0.245 C 
ATOM     13  O   UNL A   1      44.134  24.079  24.631  1.00  0.00    -0.273 OA
ATOM     14  C   UNL A   1      45.091  25.213  26.555  1.00  0.00     0.162 C 
ATOM     15  C   UNL A   1      44.198  25.572  27.735  1.00  0.00     0.172 C 
ATOM     16  O   UNL A   1      43.872  23.655  29.179  1.00  0.00    -0.273 OA
ATOM     17  C   UNL A   1      45.530  26.573  26.107  1.00  0.00     0.228 C 
ATOM     18  N   UNL A   1      45.813  27.245  27.419  1.00  0.00    -0.324 N 
ATOM     19  H   UNL A   1      46.814  27.200  27.616  1.00  0.00     0.347 HD
ATOM     20  H   UNL A   1      45.520  28.220  27.375  1.00  0.00     0.347 HD
BRANCH  10  21
ATOM     21  C   UNL A   1      42.757  22.422  26.750  1.00  0.00     0.094 A 
ATOM     22  C   UNL A   1      43.312  21.274  26.152  1.00  0.00     0.143 A 
ATOM     23  C   UNL A   1      42.512  20.164  25.881  1.00  0.00     0.048 A 
ATOM     24  C   UNL A   1      41.164  20.172  26.234  1.00  0.00     0.004 A 
ATOM     25  C   UNL A   1      41.415  22.399  27.150  1.00  0.00     0.031 A 
ATOM     26  C   UNL A   1      40.618  21.284  26.874  1.00  0.00     0.002 A 
BRANCH  22  27
ATOM     27  O   UNL A   1      44.624  21.170  25.762  1.00  0.00    -0.495 OA
ATOM     28  C   UNL A   1      44.844  20.129  24.809  1.00  0.00     0.278 C 
ENDBRANCH  22  27
ENDBRANCH  10  21
BRANCH  17  29
ATOM     29  C   UNL A   1      46.735  26.644  25.190  1.00  0.00     0.010 A 
ATOM     30  C   UNL A   1      47.925  25.950  25.459  1.00  0.00     0.010 A 
ATOM     31  C   UNL A   1      46.722  27.511  24.085  1.00  0.00     0.010 A 
ATOM     32  C   UNL A   1      49.062  26.129  24.667  1.00  0.00     0.004 A 
ATOM     33  C   UNL A   1      47.867  27.705  23.302  1.00  0.00     0.004 A 
ATOM     34  C   UNL A   1      49.052  27.026  23.597  1.00  0.00    -0.051 A 
ATOM     35  C   UNL A   1      50.325  27.350  22.875  1.00  0.00     0.044 C 
ENDBRANCH  17  29
BRANCH   9  36
ATOM     36  C   UNL A   1      44.189  27.631  29.247  1.00  0.00     0.117 C 
BRANCH  36  37
ATOM     37  C   UNL A   1      42.707  27.881  29.007  1.00  0.00    -0.041 A 
ATOM     38  C   UNL A   1      42.342  29.134  28.477  1.00  0.00     0.004 A 
ATOM     39  C   UNL A   1      41.667  27.020  29.365  1.00  0.00     0.004 A 
ATOM     40  C   UNL A   1      41.003  29.534  28.403  1.00  0.00     0.000 A 
ATOM     41  C   UNL A   1      40.330  27.429  29.332  1.00  0.00     0.000 A 
ATOM     42  C   UNL A   1      39.997  28.692  28.863  1.00  0.00     0.000 A 
ENDBRANCH  36  37
ENDBRANCH   9  36
ENDBRANCH   7   9
ENDBRANCH   6   7
ENDBRANCH   5   6
ENDBRANCH   4   5
ENDBRANCH   3   4
ENDBRANCH   2   3
ENDBRANCH   1   2
BRANCH   1  43
ATOM     43  O   UNL A   1      47.742  22.775  35.925  1.00  0.00    -0.376 OA
BRANCH  43  44
ATOM     44  C   UNL A   1      46.803  23.291  36.875  1.00  0.00     0.202 C 
BRANCH  44  45
ATOM     45  C   UNL A   1      45.285  23.326  36.585  1.00  0.00     0.261 C 
BRANCH  45  46
ATOM     46  O   UNL A   1      44.772  24.545  36.047  1.00  0.00    -0.460 OA
BRANCH  46  47
ATOM     47  C   UNL A   1      43.427  24.598  35.880  1.00  0.00     0.338 C 
ATOM     48  O   UNL A   1      42.605  23.901  36.446  1.00  0.00    -0.246 OA
BRANCH  47  49
ATOM     49  C   UNL A   1      43.120  25.804  35.060  1.00  0.00     0.060 A 
ATOM     50  C   UNL A   1      43.455  25.778  33.699  1.00  0.00     0.016 A 
ATOM     51  C   UNL A   1      42.393  26.886  35.576  1.00  0.00     0.016 A 
ATOM     52  C   UNL A   1      43.113  26.851  32.868  1.00  0.00     0.010 A 
ATOM     53  C   UNL A   1      42.057  27.961  34.746  1.00  0.00     0.010 A 
ATOM     54  C   UNL A   1      42.449  27.966  33.395  1.00  0.00    -0.014 A 
BRANCH  54  55
ATOM     55  C   UNL A   1      42.390  29.235  32.619  1.00  0.00     0.031 A 
ATOM     56  C   UNL A   1      43.700  29.876  32.239  1.00  0.00     0.074 A 
ATOM     57  C   UNL A   1      41.230  29.802  32.239  1.00  0.00     0.049 A 
ATOM     58  N   UNL A   1      43.931  31.011  31.633  1.00  0.00    -0.248 NA
ATOM     59  C   UNL A   1      44.916  29.128  32.602  1.00  0.00     0.031 C 
ATOM     60  C   UNL A   1      39.895  29.264  32.492  1.00  0.00     0.029 A 
ATOM     61  N   UNL A   1      40.994  30.975  31.560  1.00  0.00    -0.354 N 
ATOM     62  C   UNL A   1      45.316  31.113  31.540  1.00  0.00     0.074 A 
ATOM     63  C   UNL A   1      45.871  29.946  32.190  1.00  0.00     0.031 C 
ATOM     64  C   UNL A   1      38.980  30.112  31.988  1.00  0.00     0.029 A 
ATOM     65  C   UNL A   1      39.659  31.273  31.410  1.00  0.00     0.049 A 
ATOM     66  H   UNL A   1      41.715  31.550  31.214  1.00  0.00     0.167 HD
ATOM     67  C   UNL A   1      46.060  32.082  30.955  1.00  0.00     0.034 A 
ATOM     68  C   UNL A   1      39.059  32.368  30.894  1.00  0.00     0.034 A 
ATOM     69  C   UNL A   1      45.506  33.251  30.323  1.00  0.00     0.049 A 
ATOM     70  C   UNL A   1      39.914  33.492  30.344  1.00  0.00     0.074 A 
ATOM     71  C   UNL A   1      46.174  34.294  29.709  1.00  0.00     0.029 A 
ATOM     72  N   UNL A   1      44.150  33.539  30.233  1.00  0.00    -0.354 N 
ATOM     73  N   UNL A   1      41.223  33.576  30.262  1.00  0.00    -0.248 NA
ATOM     74  C   UNL A   1      39.209  34.668  29.812  1.00  0.00     0.031 C 
ATOM     75  C   UNL A   1      45.230  35.246  29.310  1.00  0.00     0.029 A 
ATOM     76  C   UNL A   1      43.966  34.758  29.600  1.00  0.00     0.049 A 
ATOM     77  H   UNL A   1      43.427  32.962  30.569  1.00  0.00     0.167 HD
ATOM     78  C   UNL A   1      41.489  34.794  29.634  1.00  0.00     0.074 A 
ATOM     79  C   UNL A   1      40.208  35.403  29.348  1.00  0.00     0.031 C 
ATOM     80  C   UNL A   1      42.683  35.356  29.317  1.00  0.00     0.034 A 
BRANCH  67  81
ATOM     81  C   UNL A   1      47.558  31.933  31.021  1.00  0.00     0.023 A 
ATOM     82  C   UNL A   1      48.266  31.164  30.081  1.00  0.00     0.031 A 
ATOM     83  C   UNL A   1      48.286  32.551  32.052  1.00  0.00     0.131 A 
ATOM     84  C   UNL A   1      49.650  30.985  30.225  1.00  0.00     0.055 A 
ATOM     85  C   UNL A   1      49.673  32.431  32.146  1.00  0.00     0.041 A 
ATOM     86  F   UNL A   1      47.658  33.274  32.994  1.00  0.00    -0.206 F 
ATOM     87  C   UNL A   1      50.362  31.635  31.237  1.00  0.00     0.022 A 
BRANCH  84  88
ATOM     88  S   UNL A   1      50.487  29.787  29.151  1.00  0.00     0.124 S 
ATOM     89  O   UNL A   1      49.362  28.996  28.659  1.00  0.00    -0.237 OA
ATOM     90  O   UNL A   1      51.142  30.645  28.172  1.00  0.00    -0.237 OA
ATOM     91  O   UNL A   1      51.385  29.080  30.062  1.00  0.00    -0.744 OA
ENDBRANCH  84  88
ENDBRANCH  67  81
BRANCH  68  92
ATOM     92  C   UNL A   1      37.571  32.511  30.912  1.00  0.00     0.023 A 
ATOM     93  C   UNL A   1      36.806  32.351  29.744  1.00  0.00     0.031 A 
ATOM     94  C   UNL A   1      36.901  32.916  32.082  1.00  0.00     0.131 A 
ATOM     95  C   UNL A   1      35.435  32.657  29.753  1.00  0.00     0.055 A 
ATOM     96  C   UNL A   1      35.526  33.158  32.101  1.00  0.00     0.041 A 
ATOM     97  F   UNL A   1      37.581  33.097  33.225  1.00  0.00    -0.206 F 
ATOM     98  C   UNL A   1      34.788  33.046  30.927  1.00  0.00     0.022 A 
BRANCH  95  99
ATOM     99  S   UNL A   1      34.533  32.658  28.179  1.00  0.00     0.124 S 
ATOM    100  O   UNL A   1      33.165  32.901  28.622  1.00  0.00    -0.237 OA
ATOM    101  O   UNL A   1      35.179  33.752  27.462  1.00  0.00    -0.237 OA
ATOM    102  O   UNL A   1      34.788  31.324  27.639  1.00  0.00    -0.744 OA
ENDBRANCH  95  99
ENDBRANCH  68  92
BRANCH  80 103
ATOM    103  C   UNL A   1      42.661  36.669  28.567  1.00  0.00     0.023 A 
ATOM    104  C   UNL A   1      42.868  37.901  29.212  1.00  0.00     0.031 A 
ATOM    105  C   UNL A   1      42.432  36.682  27.178  1.00  0.00     0.131 A 
ATOM    106  C   UNL A   1      42.791  39.096  28.479  1.00  0.00     0.055 A 
ATOM    107  C   UNL A   1      42.417  37.868  26.445  1.00  0.00     0.041 A 
ATOM    108  F   UNL A   1      42.227  35.536  26.509  1.00  0.00    -0.206 F 
ATOM    109  C   UNL A   1      42.584  39.086  27.097  1.00  0.00     0.022 A 
BRANCH 106 110
ATOM    110  S   UNL A   1      42.881  40.674  29.369  1.00  0.00     0.124 S 
ATOM    111  O   UNL A   1      43.698  41.483  28.471  1.00  0.00    -0.237 OA
ATOM    112  O   UNL A   1      41.476  41.056  29.470  1.00  0.00    -0.237 OA
ATOM    113  O   UNL A   1      43.518  40.319  30.637  1.00  0.00    -0.744 OA
ENDBRANCH 106 110
ENDBRANCH  80 103
ENDBRANCH  54  55
ENDBRANCH  47  49
ENDBRANCH  46  47
ENDBRANCH  45  46
ENDBRANCH  44  45
ENDBRANCH  43  44
ENDBRANCH   1  43
TORSDOF 25
ENDMDL
MODEL 2
REMARK VINA RESULT:      -7.6      1.721      1.991
REMARK SMILES COc1ccccc1N1C(=O)[C@@H]2[C@@H](C1=O)[C@@](Cc1ccccc1)(C(=O)OCCOCCOCCOC(=O)c1ccc(-c3c4nc(c(-c5cc(S(=O)(=O)[O-])ccc5F)c5ccc([nH]5)c(-c5cc(S(=O)(=O)[O-])ccc5F)c5nc(c(-c6cc(S(=O)(=O)[O-])ccc6F)c6ccc3[nH]6)C=C5)C=C4)cc1)[NH2+][C@H]2c1ccc(C)cc1
REMARK SMILES IDX 31 1 30 2 29 3 28 4 27 5 26 6 24 7 25 8 16 9 9 10 10 11
REMARK SMILES IDX 14 12 11 13 12 14 13 15 15 16 102 17 101 18 8 21 3 22 4 23
REMARK SMILES IDX 5 24 7 25 6 26 2 27 1 28 103 29 104 30 109 31 105 32 108 33
REMARK SMILES IDX 106 34 107 35 17 36 18 37 19 38 23 39 20 40 22 41 21 42
REMARK SMILES IDX 32 43 33 44 34 45 35 46 36 47 37 48 38 49 39 50 100 51 40 52
REMARK SMILES IDX 99 53 41 54 42 55 43 56 93 57 44 58 98 59 92 60 94 61 45 62
REMARK SMILES IDX 97 63 91 64 90 65 46 67 78 68 58 69 77 70 59 71 62 72 76 73
REMARK SMILES IDX 95 74 60 75 61 76 75 78 96 79 63 80 47 81 48 82 56 83 49 84
REMARK SMILES IDX 55 85 57 86 54 87 50 88 51 89 52 90 53 91 79 92 80 93 88 94
REMARK SMILES IDX 81 95 87 96 89 97 86 98 82 99 83 100 84 101 85 102 64 103
REMARK SMILES IDX 65 104 73 105 66 106 72 107 74 108 71 109 67 110 68 111
REMARK SMILES IDX 69 112 70 113
REMARK H PARENT 101 19 101 20 94 66 62 77
REMARK Flexibility Score: inf
ROOT
ATOM      1  C   UNL A   1      47.490  23.007  34.575  1.00  0.00     0.188 C 
ENDROOT
BRANCH   1   2
ATOM      2  C   UNL A   1      48.170  24.227  33.973  1.00  0.00     0.188 C 
BRANCH   2   3
ATOM      3  O   UNL A   1      47.428  25.440  33.992  1.00  0.00    -0.376 OA
BRANCH   3   4
ATOM      4  C   UNL A   1      46.999  25.973  32.749  1.00  0.00     0.202 C 
BRANCH   4   5
ATOM      5  C   UNL A   1      46.452  25.002  31.693  1.00  0.00     0.261 C 
BRANCH   5   6
ATOM      6  O   UNL A   1      45.447  25.533  30.815  1.00  0.00    -0.459 OA
BRANCH   6   7
ATOM      7  C   UNL A   1      45.838  25.541  29.503  1.00  0.00     0.369 C 
ATOM      8  O   UNL A   1      46.894  25.046  29.141  1.00  0.00    -0.245 OA
BRANCH   7   9
ATOM      9  C   UNL A   1      44.798  26.228  28.577  1.00  0.00     0.211 C 
ATOM     10  N   UNL A   1      43.413  23.261  26.862  1.00  0.00    -0.246 N 
ATOM     11  C   UNL A   1      44.006  23.991  25.837  1.00  0.00     0.244 C 
ATOM     12  C   UNL A   1      43.721  23.820  28.096  1.00  0.00     0.245 C 
ATOM     13  O   UNL A   1      43.935  23.833  24.629  1.00  0.00    -0.273 OA
ATOM     14  C   UNL A   1      44.876  24.980  26.553  1.00  0.00     0.162 C 
ATOM     15  C   UNL A   1      44.003  25.242  27.772  1.00  0.00     0.172 C 
ATOM     16  O   UNL A   1      43.864  23.269  29.169  1.00  0.00    -0.273 OA
ATOM     17  C   UNL A   1      45.201  26.380  26.130  1.00  0.00     0.228 C 
ATOM     18  N   UNL A   1      45.482  27.035  27.452  1.00  0.00    -0.324 N 
ATOM     19  H   UNL A   1      46.490  27.058  27.614  1.00  0.00     0.347 HD
ATOM     20  H   UNL A   1      45.119  27.988  27.445  1.00  0.00     0.347 HD
BRANCH  10  21
ATOM     21  C   UNL A   1      42.755  22.025  26.743  1.00  0.00     0.094 A 
ATOM     22  C   UNL A   1      43.406  20.907  26.185  1.00  0.00     0.143 A 
ATOM     23  C   UNL A   1      42.690  19.744  25.901  1.00  0.00     0.048 A 
ATOM     24  C   UNL A   1      41.332  19.669  26.201  1.00  0.00     0.004 A 
ATOM     25  C   UNL A   1      41.402  21.919  27.091  1.00  0.00     0.031 A 
ATOM     26  C   UNL A   1      40.691  20.752  26.802  1.00  0.00     0.002 A 
BRANCH  22  27
ATOM     27  O   UNL A   1      44.736  20.883  25.848  1.00  0.00    -0.495 OA
ATOM     28  C   UNL A   1      44.967  20.447  24.508  1.00  0.00     0.278 C 
ENDBRANCH  22  27
ENDBRANCH  10  21
BRANCH  17  29
ATOM     29  C   UNL A   1      46.365  26.562  25.176  1.00  0.00     0.010 A 
ATOM     30  C   UNL A   1      47.482  25.712  25.184  1.00  0.00     0.010 A 
ATOM     31  C   UNL A   1      46.398  27.675  24.319  1.00  0.00     0.010 A 
ATOM     32  C   UNL A   1      48.596  25.974  24.381  1.00  0.00     0.004 A 
ATOM     33  C   UNL A   1      47.522  27.948  23.529  1.00  0.00     0.004 A 
ATOM     34  C   UNL A   1      48.637  27.107  23.566  1.00  0.00    -0.051 A 
ATOM     35  C   UNL A   1      49.905  27.477  22.857  1.00  0.00     0.044 C 
ENDBRANCH  17  29
BRANCH   9  36
ATOM     36  C   UNL A   1      43.901  27.254  29.343  1.00  0.00     0.117 C 
BRANCH  36  37
ATOM     37  C   UNL A   1      42.532  27.731  28.878  1.00  0.00    -0.041 A 
ATOM     38  C   UNL A   1      42.488  28.533  27.720  1.00  0.00     0.004 A 
ATOM     39  C   UNL A   1      41.327  27.536  29.556  1.00  0.00     0.004 A 
ATOM     40  C   UNL A   1      41.313  29.180  27.323  1.00  0.00     0.000 A 
ATOM     41  C   UNL A   1      40.159  28.213  29.189  1.00  0.00     0.000 A 
ATOM     42  C   UNL A   1      40.154  29.046  28.079  1.00  0.00     0.000 A 
ENDBRANCH  36  37
ENDBRANCH   9  36
ENDBRANCH   7   9
ENDBRANCH   6   7
ENDBRANCH   5   6
ENDBRANCH   4   5
ENDBRANCH   3   4
ENDBRANCH   2   3
ENDBRANCH   1   2
BRANCH   1  43
ATOM     43  O   UNL A   1      47.882  22.675  35.904  1.00  0.00    -0.376 OA
BRANCH  43  44
ATOM     44  C   UNL A   1      47.102  23.266  36.948  1.00  0.00     0.202 C 
BRANCH  44  45
ATOM     45  C   UNL A   1      45.563  23.379  36.854  1.00  0.00     0.261 C 
BRANCH  45  46
ATOM     46  O   UNL A   1      45.054  24.548  36.212  1.00  0.00    -0.460 OA
BRANCH  46  47
ATOM     47  C   UNL A   1      43.716  24.564  35.988  1.00  0.00     0.338 C 
ATOM     48  O   UNL A   1      42.893  23.827  36.500  1.00  0.00    -0.246 OA
BRANCH  47  49
ATOM     49  C   UNL A   1      43.405  25.781  35.186  1.00  0.00     0.060 A 
ATOM     50  C   UNL A   1      43.492  25.690  33.789  1.00  0.00     0.016 A 
ATOM     51  C   UNL A   1      42.906  26.950  35.776  1.00  0.00     0.016 A 
ATOM     52  C   UNL A   1      43.131  26.779  32.989  1.00  0.00     0.010 A 
ATOM     53  C   UNL A   1      42.550  28.040  34.975  1.00  0.00     0.010 A 
ATOM     54  C   UNL A   1      42.697  27.974  33.578  1.00  0.00    -0.014 A 
BRANCH  54  55
ATOM     55  C   UNL A   1      42.644  29.225  32.774  1.00  0.00     0.031 A 
ATOM     56  C   UNL A   1      43.957  29.862  32.395  1.00  0.00     0.074 A 
ATOM     57  C   UNL A   1      41.487  29.782  32.370  1.00  0.00     0.049 A 
ATOM     58  N   UNL A   1      44.192  30.984  31.768  1.00  0.00    -0.248 NA
ATOM     59  C   UNL A   1      45.170  29.125  32.788  1.00  0.00     0.031 C 
ATOM     60  C   UNL A   1      40.150  29.246  32.619  1.00  0.00     0.029 A 
ATOM     61  N   UNL A   1      41.256  30.939  31.663  1.00  0.00    -0.354 N 
ATOM     62  C   UNL A   1      45.577  31.087  31.688  1.00  0.00     0.074 A 
ATOM     63  C   UNL A   1      46.128  29.936  32.370  1.00  0.00     0.031 C 
ATOM     64  C   UNL A   1      39.239  30.081  32.086  1.00  0.00     0.029 A 
ATOM     65  C   UNL A   1      39.922  31.231  31.491  1.00  0.00     0.049 A 
ATOM     66  H   UNL A   1      41.980  31.508  31.313  1.00  0.00     0.167 HD
ATOM     67  C   UNL A   1      46.326  32.045  31.091  1.00  0.00     0.034 A 
ATOM     68  C   UNL A   1      39.325  32.313  30.945  1.00  0.00     0.034 A 
ATOM     69  C   UNL A   1      45.776  33.200  30.428  1.00  0.00     0.049 A 
ATOM     70  C   UNL A   1      40.184  33.427  30.381  1.00  0.00     0.074 A 
ATOM     71  C   UNL A   1      46.449  34.231  29.799  1.00  0.00     0.029 A 
ATOM     72  N   UNL A   1      44.421  33.482  30.317  1.00  0.00    -0.354 N 
ATOM     73  N   UNL A   1      41.494  33.513  30.312  1.00  0.00    -0.248 NA
ATOM     74  C   UNL A   1      39.482  34.590  29.816  1.00  0.00     0.031 C 
ATOM     75  C   UNL A   1      45.507  35.172  29.369  1.00  0.00     0.029 A 
ATOM     76  C   UNL A   1      44.241  34.687  29.656  1.00  0.00     0.049 A 
ATOM     77  H   UNL A   1      43.696  32.910  30.656  1.00  0.00     0.167 HD
ATOM     78  C   UNL A   1      41.764  34.718  29.661  1.00  0.00     0.074 A 
ATOM     79  C   UNL A   1      40.485  35.317  29.348  1.00  0.00     0.031 C 
ATOM     80  C   UNL A   1      42.960  35.276  29.345  1.00  0.00     0.034 A 
BRANCH  67  81
ATOM     81  C   UNL A   1      47.824  31.902  31.177  1.00  0.00     0.023 A 
ATOM     82  C   UNL A   1      48.566  32.513  32.204  1.00  0.00     0.031 A 
ATOM     83  C   UNL A   1      48.522  31.163  30.207  1.00  0.00     0.131 A 
ATOM     84  C   UNL A   1      49.965  32.424  32.202  1.00  0.00     0.055 A 
ATOM     85  C   UNL A   1      49.909  31.014  30.254  1.00  0.00     0.041 A 
ATOM     86  F   UNL A   1      47.867  30.583  29.188  1.00  0.00    -0.206 F 
ATOM     87  C   UNL A   1      50.640  31.656  31.249  1.00  0.00     0.022 A 
BRANCH  84  88
ATOM     88  S   UNL A   1      50.901  33.429  33.386  1.00  0.00     0.124 S 
ATOM     89  O   UNL A   1      51.153  34.640  32.609  1.00  0.00    -0.237 OA
ATOM     90  O   UNL A   1      49.965  33.565  34.494  1.00  0.00    -0.237 OA
ATOM     91  O   UNL A   1      52.085  32.618  33.663  1.00  0.00    -0.744 OA
ENDBRANCH  84  88
ENDBRANCH  67  81
BRANCH  68  92
ATOM     92  C   UNL A   1      37.837  32.452  30.944  1.00  0.00     0.023 A 
ATOM     93  C   UNL A   1      37.174  33.230  31.910  1.00  0.00     0.031 A 
ATOM     94  C   UNL A   1      37.047  31.720  30.039  1.00  0.00     0.131 A 
ATOM     95  C   UNL A   1      35.772  33.206  31.989  1.00  0.00     0.055 A 
ATOM     96  C   UNL A   1      35.651  31.750  30.082  1.00  0.00     0.041 A 
ATOM     97  F   UNL A   1      37.624  30.950  29.103  1.00  0.00    -0.206 F 
ATOM     98  C   UNL A   1      35.006  32.482  31.074  1.00  0.00     0.022 A 
BRANCH  95  99
ATOM     99  S   UNL A   1      34.966  34.038  33.386  1.00  0.00     0.124 S 
ATOM    100  O   UNL A   1      35.327  33.166  34.498  1.00  0.00    -0.237 OA
ATOM    101  O   UNL A   1      35.605  35.349  33.366  1.00  0.00    -0.237 OA
ATOM    102  O   UNL A   1      33.552  34.029  33.018  1.00  0.00    -0.744 OA
ENDBRANCH  95  99
ENDBRANCH  68  92
BRANCH  80 103
ATOM    103  C   UNL A   1      42.944  36.572  28.567  1.00  0.00     0.023 A 
ATOM    104  C   UNL A   1      43.321  37.796  29.147  1.00  0.00     0.031 A 
ATOM    105  C   UNL A   1      42.545  36.577  27.218  1.00  0.00     0.131 A 
ATOM    106  C   UNL A   1      43.244  38.979  28.397  1.00  0.00     0.055 A 
ATOM    107  C   UNL A   1      42.528  37.747  26.459  1.00  0.00     0.041 A 
ATOM    108  F   UNL A   1      42.174  35.438  26.611  1.00  0.00    -0.206 F 
ATOM    109  C   UNL A   1      42.866  38.960  27.051  1.00  0.00     0.022 A 
BRANCH 106 110
ATOM    110  S   UNL A   1      43.561  40.562  29.224  1.00  0.00     0.124 S 
ATOM    111  O   UNL A   1      42.861  40.389  30.492  1.00  0.00    -0.237 OA
ATOM    112  O   UNL A   1      45.019  40.589  29.298  1.00  0.00    -0.237 OA
ATOM    113  O   UNL A   1      42.971  41.548  28.319  1.00  0.00    -0.744 OA
ENDBRANCH 106 110
ENDBRANCH  80 103
ENDBRANCH  54  55
ENDBRANCH  47  49
ENDBRANCH  46  47
ENDBRANCH  45  46
ENDBRANCH  44  45
ENDBRANCH  43  44
ENDBRANCH   1  43
TORSDOF 25
ENDMDL
MODEL 3
REMARK VINA RESULT:      -7.1      3.989     11.774
REMARK SMILES COc1ccccc1N1C(=O)[C@@H]2[C@@H](C1=O)[C@@](Cc1ccccc1)(C(=O)OCCOCCOCCOC(=O)c1ccc(-c3c4nc(c(-c5cc(S(=O)(=O)[O-])ccc5F)c5ccc([nH]5)c(-c5cc(S(=O)(=O)[O-])ccc5F)c5nc(c(-c6cc(S(=O)(=O)[O-])ccc6F)c6ccc3[nH]6)C=C5)C=C4)cc1)[NH2+][C@H]2c1ccc(C)cc1
REMARK SMILES IDX 31 1 30 2 29 3 28 4 27 5 26 6 24 7 25 8 16 9 9 10 10 11
REMARK SMILES IDX 14 12 11 13 12 14 13 15 15 16 102 17 101 18 8 21 3 22 4 23
REMARK SMILES IDX 5 24 7 25 6 26 2 27 1 28 103 29 104 30 109 31 105 32 108 33
REMARK SMILES IDX 106 34 107 35 17 36 18 37 19 38 23 39 20 40 22 41 21 42
REMARK SMILES IDX 32 43 33 44 34 45 35 46 36 47 37 48 38 49 39 50 100 51 40 52
REMARK SMILES IDX 99 53 41 54 42 55 43 56 93 57 44 58 98 59 92 60 94 61 45 62
REMARK SMILES IDX 97 63 91 64 90 65 46 67 78 68 58 69 77 70 59 71 62 72 76 73
REMARK SMILES IDX 95 74 60 75 61 76 75 78 96 79 63 80 47 81 48 82 56 83 49 84
REMARK SMILES IDX 55 85 57 86 54 87 50 88 51 89 52 90 53 91 79 92 80 93 88 94
REMARK SMILES IDX 81 95 87 96 89 97 86 98 82 99 83 100 84 101 85 102 64 103
REMARK SMILES IDX 65 104 73 105 66 106 72 107 74 108 71 109 67 110 68 111
REMARK SMILES IDX 69 112 70 113
REMARK H PARENT 101 19 101 20 94 66 62 77
REMARK Flexibility Score: inf
ROOT
ATOM      1  C   UNL A   1      42.024  39.979  28.554  1.00  0.00     0.188 C 
ENDROOT
BRANCH   1   2
ATOM      2  C   UNL A   1      41.293  40.804  27.506  1.00  0.00     0.188 C 
BRANCH   2   3
ATOM      3  O   UNL A   1      41.856  40.814  26.201  1.00  0.00    -0.376 OA
BRANCH   3   4
ATOM      4  C   UNL A   1      42.976  41.656  25.971  1.00  0.00     0.202 C 
BRANCH   4   5
ATOM      5  C   UNL A   1      44.326  40.998  25.656  1.00  0.00     0.261 C 
BRANCH   5   6
ATOM      6  O   UNL A   1      44.564  39.726  26.279  1.00  0.00    -0.459 OA
BRANCH   6   7
ATOM      7  C   UNL A   1      45.893  39.402  26.336  1.00  0.00     0.369 C 
ATOM      8  O   UNL A   1      46.737  40.027  25.714  1.00  0.00    -0.245 OA
BRANCH   7   9
ATOM      9  C   UNL A   1      46.170  38.189  27.266  1.00  0.00     0.211 C 
ATOM     10  N   UNL A   1      48.236  39.827  29.855  1.00  0.00    -0.246 N 
ATOM     11  C   UNL A   1      49.097  38.897  29.282  1.00  0.00     0.244 C 
ATOM     12  C   UNL A   1      47.049  39.897  29.137  1.00  0.00     0.245 C 
ATOM     13  O   UNL A   1      50.204  38.536  29.647  1.00  0.00    -0.273 OA
ATOM     14  C   UNL A   1      48.407  38.500  28.012  1.00  0.00     0.162 C 
ATOM     15  C   UNL A   1      46.962  38.564  28.484  1.00  0.00     0.172 C 
ATOM     16  O   UNL A   1      46.317  40.850  28.962  1.00  0.00    -0.273 OA
ATOM     17  C   UNL A   1      48.429  37.157  27.346  1.00  0.00     0.228 C 
ATOM     18  N   UNL A   1      47.124  37.170  26.604  1.00  0.00    -0.324 N 
ATOM     19  H   UNL A   1      47.287  37.438  25.632  1.00  0.00     0.347 HD
ATOM     20  H   UNL A   1      46.705  36.241  26.633  1.00  0.00     0.347 HD
BRANCH  10  21
ATOM     21  C   UNL A   1      48.541  40.733  30.886  1.00  0.00     0.094 A 
ATOM     22  C   UNL A   1      48.442  40.353  32.239  1.00  0.00     0.143 A 
ATOM     23  C   UNL A   1      48.565  41.306  33.250  1.00  0.00     0.048 A 
ATOM     24  C   UNL A   1      48.821  42.637  32.927  1.00  0.00     0.004 A 
ATOM     25  C   UNL A   1      48.853  42.063  30.576  1.00  0.00     0.031 A 
ATOM     26  C   UNL A   1      48.972  43.013  31.593  1.00  0.00     0.002 A 
BRANCH  22  27
ATOM     27  O   UNL A   1      48.186  39.071  32.659  1.00  0.00    -0.495 OA
ATOM     28  C   UNL A   1      49.319  38.441  33.257  1.00  0.00     0.278 C 
ENDBRANCH  22  27
ENDBRANCH  10  21
BRANCH  17  29
ATOM     29  C   UNL A   1      49.584  36.868  26.408  1.00  0.00     0.010 A 
ATOM     30  C   UNL A   1      50.919  36.855  26.843  1.00  0.00     0.010 A 
ATOM     31  C   UNL A   1      49.345  36.712  25.033  1.00  0.00     0.010 A 
ATOM     32  C   UNL A   1      51.973  36.710  25.937  1.00  0.00     0.004 A 
ATOM     33  C   UNL A   1      50.402  36.585  24.123  1.00  0.00     0.004 A 
ATOM     34  C   UNL A   1      51.726  36.599  24.567  1.00  0.00    -0.051 A 
ATOM     35  C   UNL A   1      52.865  36.634  23.593  1.00  0.00     0.044 C 
ENDBRANCH  17  29
BRANCH   9  36
ATOM     36  C   UNL A   1      44.871  37.388  27.606  1.00  0.00     0.117 C 
BRANCH  36  37
ATOM     37  C   UNL A   1      44.446  36.090  26.931  1.00  0.00    -0.041 A 
ATOM     38  C   UNL A   1      45.394  35.049  26.882  1.00  0.00     0.004 A 
ATOM     39  C   UNL A   1      43.239  35.877  26.262  1.00  0.00     0.004 A 
ATOM     40  C   UNL A   1      45.175  33.897  26.119  1.00  0.00     0.000 A 
ATOM     41  C   UNL A   1      43.031  34.747  25.464  1.00  0.00     0.000 A 
ATOM     42  C   UNL A   1      44.004  33.762  25.382  1.00  0.00     0.000 A 
ENDBRANCH  36  37
ENDBRANCH   9  36
ENDBRANCH   7   9
ENDBRANCH   6   7
ENDBRANCH   5   6
ENDBRANCH   4   5
ENDBRANCH   3   4
ENDBRANCH   2   3
ENDBRANCH   1   2
BRANCH   1  43
ATOM     43  O   UNL A   1      43.025  40.672  29.295  1.00  0.00    -0.376 OA
BRANCH  43  44
ATOM     44  C   UNL A   1      42.575  41.330  30.484  1.00  0.00     0.202 C 
BRANCH  44  45
ATOM     45  C   UNL A   1      43.485  41.490  31.723  1.00  0.00     0.261 C 
BRANCH  45  46
ATOM     46  O   UNL A   1      43.300  40.536  32.769  1.00  0.00    -0.460 OA
BRANCH  46  47
ATOM     47  C   UNL A   1      44.358  39.727  33.025  1.00  0.00     0.338 C 
ATOM     48  O   UNL A   1      45.291  39.976  33.766  1.00  0.00    -0.246 OA
BRANCH  47  49
ATOM     49  C   UNL A   1      44.066  38.395  32.422  1.00  0.00     0.060 A 
ATOM     50  C   UNL A   1      43.732  37.341  33.283  1.00  0.00     0.016 A 
ATOM     51  C   UNL A   1      43.985  38.211  31.035  1.00  0.00     0.016 A 
ATOM     52  C   UNL A   1      43.369  36.094  32.763  1.00  0.00     0.010 A 
ATOM     53  C   UNL A   1      43.628  36.962  30.516  1.00  0.00     0.010 A 
ATOM     54  C   UNL A   1      43.354  35.885  31.377  1.00  0.00    -0.014 A 
BRANCH  54  55
ATOM     55  C   UNL A   1      43.310  34.501  30.832  1.00  0.00     0.031 A 
ATOM     56  C   UNL A   1      44.608  33.906  30.348  1.00  0.00     0.074 A 
ATOM     57  C   UNL A   1      42.178  33.777  30.776  1.00  0.00     0.049 A 
ATOM     58  N   UNL A   1      44.835  32.758  29.765  1.00  0.00    -0.248 NA
ATOM     59  C   UNL A   1      45.813  34.730  30.548  1.00  0.00     0.031 C 
ATOM     60  C   UNL A   1      40.866  34.208  31.256  1.00  0.00     0.029 A 
ATOM     61  N   UNL A   1      41.952  32.515  30.276  1.00  0.00    -0.354 N 
ATOM     62  C   UNL A   1      46.207  32.720  29.532  1.00  0.00     0.074 A 
ATOM     63  C   UNL A   1      46.750  33.978  29.996  1.00  0.00     0.031 C 
ATOM     64  C   UNL A   1      39.971  33.232  31.014  1.00  0.00     0.029 A 
ATOM     65  C   UNL A   1      40.634  32.123  30.327  1.00  0.00     0.049 A 
ATOM     66  H   UNL A   1      42.669  31.945  29.914  1.00  0.00     0.167 HD
ATOM     67  C   UNL A   1      46.950  31.724  28.992  1.00  0.00     0.034 A 
ATOM     68  C   UNL A   1      40.032  31.012  29.847  1.00  0.00     0.034 A 
ATOM     69  C   UNL A   1      46.404  30.480  28.515  1.00  0.00     0.049 A 
ATOM     70  C   UNL A   1      40.868  29.959  29.147  1.00  0.00     0.074 A 
ATOM     71  C   UNL A   1      47.072  29.411  27.945  1.00  0.00     0.029 A 
ATOM     72  N   UNL A   1      45.058  30.141  28.542  1.00  0.00    -0.354 N 
ATOM     73  N   UNL A   1      42.164  29.936  28.933  1.00  0.00    -0.248 NA
ATOM     74  C   UNL A   1      40.158  28.780  28.629  1.00  0.00     0.031 C 
ATOM     75  C   UNL A   1      46.124  28.456  27.563  1.00  0.00     0.029 A 
ATOM     76  C   UNL A   1      44.874  28.892  27.970  1.00  0.00     0.049 A 
ATOM     77  H   UNL A   1      44.341  30.704  28.912  1.00  0.00     0.167 HD
ATOM     78  C   UNL A   1      42.423  28.723  28.292  1.00  0.00     0.074 A 
ATOM     79  C   UNL A   1      41.154  28.040  28.166  1.00  0.00     0.031 C 
ATOM     80  C   UNL A   1      43.603  28.217  27.852  1.00  0.00     0.034 A 
BRANCH  67  81
ATOM     81  C   UNL A   1      48.430  31.972  28.847  1.00  0.00     0.023 A 
ATOM     82  C   UNL A   1      49.006  32.292  27.605  1.00  0.00     0.031 A 
ATOM     83  C   UNL A   1      49.279  31.864  29.962  1.00  0.00     0.131 A 
ATOM     84  C   UNL A   1      50.398  32.434  27.497  1.00  0.00     0.055 A 
ATOM     85  C   UNL A   1      50.654  32.082  29.863  1.00  0.00     0.041 A 
ATOM     86  F   UNL A   1      48.786  31.532  31.166  1.00  0.00    -0.206 F 
ATOM     87  C   UNL A   1      51.222  32.357  28.623  1.00  0.00     0.022 A 
BRANCH  84  88
ATOM     88  S   UNL A   1      51.128  32.592  25.845  1.00  0.00     0.124 S 
ATOM     89  O   UNL A   1      50.125  33.399  25.155  1.00  0.00    -0.237 OA
ATOM     90  O   UNL A   1      52.398  33.253  26.124  1.00  0.00    -0.237 OA
ATOM     91  O   UNL A   1      51.232  31.210  25.382  1.00  0.00    -0.744 OA
ENDBRANCH  84  88
ENDBRANCH  67  81
BRANCH  68  92
ATOM     92  C   UNL A   1      38.551  30.837  29.946  1.00  0.00     0.023 A 
ATOM     93  C   UNL A   1      37.673  31.547  29.108  1.00  0.00     0.031 A 
ATOM     94  C   UNL A   1      37.987  30.034  30.955  1.00  0.00     0.131 A 
ATOM     95  C   UNL A   1      36.288  31.493  29.336  1.00  0.00     0.055 A 
ATOM     96  C   UNL A   1      36.606  29.935  31.136  1.00  0.00     0.041 A 
ATOM     97  F   UNL A   1      38.775  29.343  31.793  1.00  0.00    -0.206 F 
ATOM     98  C   UNL A   1      35.748  30.682  30.335  1.00  0.00     0.022 A 
BRANCH  95  99
ATOM     99  S   UNL A   1      35.207  32.597  28.384  1.00  0.00     0.124 S 
ATOM    100  O   UNL A   1      34.276  31.651  27.778  1.00  0.00    -0.237 OA
ATOM    101  O   UNL A   1      34.659  33.457  29.427  1.00  0.00    -0.237 OA
ATOM    102  O   UNL A   1      36.124  33.254  27.455  1.00  0.00    -0.744 OA
ENDBRANCH  95  99
ENDBRANCH  68  92
BRANCH  80 103
ATOM    103  C   UNL A   1      43.588  26.830  27.250  1.00  0.00     0.023 A 
ATOM    104  C   UNL A   1      43.442  25.675  28.039  1.00  0.00     0.031 A 
ATOM    105  C   UNL A   1      43.719  26.665  25.859  1.00  0.00     0.131 A 
ATOM    106  C   UNL A   1      43.481  24.407  27.438  1.00  0.00     0.055 A 
ATOM    107  C   UNL A   1      43.697  25.406  25.260  1.00  0.00     0.041 A 
ATOM    108  F   UNL A   1      43.862  27.732  25.055  1.00  0.00    -0.206 F 
ATOM    109  C   UNL A   1      43.590  24.266  26.052  1.00  0.00     0.022 A 
BRANCH 106 110
ATOM    110  S   UNL A   1      43.473  22.936  28.499  1.00  0.00     0.124 S 
ATOM    111  O   UNL A   1      44.897  22.643  28.623  1.00  0.00    -0.237 OA
ATOM    112  O   UNL A   1      42.815  23.425  29.706  1.00  0.00    -0.237 OA
ATOM    113  O   UNL A   1      42.704  21.960  27.728  1.00  0.00    -0.744 OA
ENDBRANCH 106 110
ENDBRANCH  80 103
ENDBRANCH  54  55
ENDBRANCH  47  49
ENDBRANCH  46  47
ENDBRANCH  45  46
ENDBRANCH  44  45
ENDBRANCH  43  44
ENDBRANCH   1  43
TORSDOF 25
ENDMDL
