MODEL 1
REMARK VINA RESULT:      -7.0      0.000      0.000
REMARK SMILES COc1cc(Br)c(OC)c(C(=O)NCCC(=O)OCCOCCOCCOC(=O)c2ccc(-c3c4nc(c(-c5cc(S(=O)(=O)[O-])ccc5F)c5ccc([nH]5)c(-c5cc(S(=O)(=O)[O-])ccc5F)c5nc(c(-c6cc(S(=O)(=O)[O-])ccc6F)c6ccc3[nH]6)C=C5)C=C4)cc2)c1
REMARK SMILES IDX 22 1 21 2 20 3 19 4 18 5 16 6 17 7 15 8 14 9 13 10 11 11
REMARK SMILES IDX 12 12 10 14 3 15 4 16 93 17 5 18 6 19 7 20 2 21 1 22 8 23
REMARK SMILES IDX 9 24 23 25 24 26 25 27 26 28 27 29 28 30 29 31 30 32 31 33
REMARK SMILES IDX 92 34 32 35 91 36 33 37 34 38 35 39 85 40 36 41 90 42 84 43
REMARK SMILES IDX 86 44 37 45 89 46 83 47 82 48 38 50 70 51 50 52 69 53 51 54
REMARK SMILES IDX 54 55 68 56 87 57 52 58 53 59 67 61 88 62 55 63 39 64 40 65
REMARK SMILES IDX 48 66 41 67 47 68 49 69 46 70 42 71 43 72 44 73 45 74 71 75
REMARK SMILES IDX 72 76 80 77 73 78 79 79 81 80 78 81 74 82 75 83 76 84 77 85
REMARK SMILES IDX 56 86 57 87 65 88 58 89 64 90 66 91 63 92 59 93 60 94 61 95
REMARK SMILES IDX 62 96
REMARK H PARENT 13 13 86 49 54 60
REMARK Flexibility Score: inf
ROOT
ATOM      1  C   UNL A   1      43.986  25.196  38.093  1.00  0.00     0.188 C 
ENDROOT
BRANCH   1   2
ATOM      2  O   UNL A   1      43.282  26.413  38.319  1.00  0.00    -0.376 OA
BRANCH   2   3
ATOM      3  C   UNL A   1      43.147  27.288  37.203  1.00  0.00     0.202 C 
BRANCH   3   4
ATOM      4  C   UNL A   1      41.909  27.081  36.314  1.00  0.00     0.261 C 
BRANCH   4   5
ATOM      5  O   UNL A   1      40.982  28.191  36.279  1.00  0.00    -0.463 OA
BRANCH   5   6
ATOM      6  C   UNL A   1      41.519  29.380  35.902  1.00  0.00     0.307 C 
ATOM      7  O   UNL A   1      41.598  30.367  36.629  1.00  0.00    -0.252 OA
BRANCH   6   8
ATOM      8  C   UNL A   1      42.078  29.425  34.500  1.00  0.00     0.144 C 
BRANCH   8   9
ATOM      9  C   UNL A   1      41.193  29.285  33.270  1.00  0.00     0.128 C 
BRANCH   9  10
ATOM     10  N   UNL A   1      40.008  28.452  33.412  1.00  0.00    -0.351 N 
ATOM     11  C   UNL A   1      38.930  28.211  32.580  1.00  0.00     0.255 C 
ATOM     12  O   UNL A   1      38.134  27.329  32.905  1.00  0.00    -0.269 OA
ATOM     13  H   UNL A   1      39.966  27.965  34.267  1.00  0.00     0.163 HD
BRANCH  11  14
ATOM     14  C   UNL A   1      38.701  28.971  31.312  1.00  0.00     0.086 A 
ATOM     15  C   UNL A   1      38.732  29.026  28.887  1.00  0.00     0.121 A 
ATOM     16  C   UNL A   1      38.385  30.371  28.905  1.00  0.00     0.066 A 
ATOM     17  C   UNL A   1      38.799  28.310  30.079  1.00  0.00     0.064 A 
ATOM     18  C   UNL A   1      38.186  31.030  30.122  1.00  0.00     0.064 A 
ATOM     19  Br  UNL A   1      37.819  32.893  29.973  1.00  0.00    -0.047 Br
ATOM     20  C   UNL A   1      38.345  30.343  31.342  1.00  0.00     0.146 A 
BRANCH  15  21
ATOM     21  O   UNL A   1      39.021  28.340  27.739  1.00  0.00    -0.497 OA
ATOM     22  C   UNL A   1      40.323  28.629  27.221  1.00  0.00     0.278 C 
ENDBRANCH  15  21
BRANCH  20  23
ATOM     23  O   UNL A   1      38.324  30.976  32.560  1.00  0.00    -0.495 OA
ATOM     24  C   UNL A   1      37.034  31.371  33.029  1.00  0.00     0.278 C 
ENDBRANCH  20  23
ENDBRANCH  11  14
ENDBRANCH   9  10
ENDBRANCH   8   9
ENDBRANCH   6   8
ENDBRANCH   5   6
ENDBRANCH   4   5
ENDBRANCH   3   4
ENDBRANCH   2   3
ENDBRANCH   1   2
BRANCH   1  25
ATOM     25  C   UNL A   1      45.161  24.918  39.032  1.00  0.00     0.188 C 
BRANCH  25  26
ATOM     26  O   UNL A   1      46.265  24.224  38.467  1.00  0.00    -0.376 OA
BRANCH  26  27
ATOM     27  C   UNL A   1      46.864  23.222  39.297  1.00  0.00     0.202 C 
BRANCH  27  28
ATOM     28  C   UNL A   1      46.533  21.740  38.993  1.00  0.00     0.261 C 
BRANCH  28  29
ATOM     29  O   UNL A   1      47.296  21.088  37.954  1.00  0.00    -0.460 OA
BRANCH  29  30
ATOM     30  C   UNL A   1      46.643  20.596  36.874  1.00  0.00     0.338 C 
ATOM     31  O   UNL A   1      46.191  19.469  36.761  1.00  0.00    -0.246 OA
BRANCH  30  32
ATOM     32  C   UNL A   1      46.298  21.735  35.971  1.00  0.00     0.060 A 
ATOM     33  C   UNL A   1      47.336  22.382  35.279  1.00  0.00     0.016 A 
ATOM     34  C   UNL A   1      44.975  22.120  35.741  1.00  0.00     0.016 A 
ATOM     35  C   UNL A   1      47.058  23.428  34.388  1.00  0.00     0.010 A 
ATOM     36  C   UNL A   1      44.700  23.182  34.867  1.00  0.00     0.010 A 
ATOM     37  C   UNL A   1      45.740  23.865  34.209  1.00  0.00    -0.014 A 
BRANCH  37  38
ATOM     38  C   UNL A   1      45.448  25.170  33.553  1.00  0.00     0.031 A 
ATOM     39  C   UNL A   1      44.924  25.130  32.139  1.00  0.00     0.074 A 
ATOM     40  C   UNL A   1      45.657  26.358  34.152  1.00  0.00     0.049 A 
ATOM     41  N   UNL A   1      44.776  26.100  31.276  1.00  0.00    -0.248 NA
ATOM     42  C   UNL A   1      44.528  23.805  31.634  1.00  0.00     0.031 C 
ATOM     43  C   UNL A   1      46.082  26.548  35.536  1.00  0.00     0.029 A 
ATOM     44  N   UNL A   1      45.560  27.638  33.654  1.00  0.00    -0.354 N 
ATOM     45  C   UNL A   1      44.299  25.499  30.115  1.00  0.00     0.074 A 
ATOM     46  C   UNL A   1      44.195  24.082  30.383  1.00  0.00     0.031 C 
ATOM     47  C   UNL A   1      46.239  27.865  35.767  1.00  0.00     0.029 A 
ATOM     48  C   UNL A   1      45.984  28.611  34.533  1.00  0.00     0.049 A 
ATOM     49  H   UNL A   1      45.219  27.840  32.752  1.00  0.00     0.167 HD
ATOM     50  C   UNL A   1      43.983  26.075  28.930  1.00  0.00     0.034 A 
ATOM     51  C   UNL A   1      46.191  29.935  34.349  1.00  0.00     0.034 A 
ATOM     52  C   UNL A   1      44.088  27.488  28.672  1.00  0.00     0.049 A 
ATOM     53  C   UNL A   1      45.926  30.545  32.985  1.00  0.00     0.074 A 
ATOM     54  C   UNL A   1      43.778  28.174  27.510  1.00  0.00     0.029 A 
ATOM     55  N   UNL A   1      44.547  28.432  29.580  1.00  0.00    -0.354 N 
ATOM     56  N   UNL A   1      45.491  29.966  31.889  1.00  0.00    -0.248 NA
ATOM     57  C   UNL A   1      46.181  31.986  32.830  1.00  0.00     0.031 C 
ATOM     58  C   UNL A   1      44.128  29.514  27.687  1.00  0.00     0.029 A 
ATOM     59  C   UNL A   1      44.561  29.685  28.991  1.00  0.00     0.049 A 
ATOM     60  H   UNL A   1      44.822  28.239  30.506  1.00  0.00     0.167 HD
ATOM     61  C   UNL A   1      45.374  30.981  30.938  1.00  0.00     0.074 A 
ATOM     62  C   UNL A   1      45.787  32.207  31.584  1.00  0.00     0.031 C 
ATOM     63  C   UNL A   1      44.952  30.907  29.651  1.00  0.00     0.034 A 
BRANCH  50  64
ATOM     64  C   UNL A   1      43.558  25.171  27.803  1.00  0.00     0.023 A 
ATOM     65  C   UNL A   1      44.489  24.505  26.989  1.00  0.00     0.031 A 
ATOM     66  C   UNL A   1      42.190  24.973  27.541  1.00  0.00     0.131 A 
ATOM     67  C   UNL A   1      44.041  23.715  25.919  1.00  0.00     0.055 A 
ATOM     68  C   UNL A   1      41.750  24.124  26.525  1.00  0.00     0.041 A 
ATOM     69  F   UNL A   1      41.256  25.606  28.269  1.00  0.00    -0.206 F 
ATOM     70  C   UNL A   1      42.679  23.497  25.700  1.00  0.00     0.022 A 
BRANCH  67  71
ATOM     71  S   UNL A   1      45.263  23.074  24.743  1.00  0.00     0.124 S 
ATOM     72  O   UNL A   1      45.994  24.288  24.388  1.00  0.00    -0.237 OA
ATOM     73  O   UNL A   1      45.994  22.101  25.545  1.00  0.00    -0.237 OA
ATOM     74  O   UNL A   1      44.444  22.512  23.671  1.00  0.00    -0.744 OA
ENDBRANCH  67  71
ENDBRANCH  50  64
BRANCH  51  75
ATOM     75  C   UNL A   1      46.751  30.787  35.445  1.00  0.00     0.023 A 
ATOM     76  C   UNL A   1      48.134  30.852  35.686  1.00  0.00     0.031 A 
ATOM     77  C   UNL A   1      45.901  31.467  36.337  1.00  0.00     0.131 A 
ATOM     78  C   UNL A   1      48.619  31.521  36.822  1.00  0.00     0.055 A 
ATOM     79  C   UNL A   1      46.393  32.190  37.426  1.00  0.00     0.041 A 
ATOM     80  F   UNL A   1      44.570  31.430  36.169  1.00  0.00    -0.206 F 
ATOM     81  C   UNL A   1      47.760  32.204  37.685  1.00  0.00     0.022 A 
BRANCH  78  82
ATOM     82  S   UNL A   1      50.381  31.370  37.234  1.00  0.00     0.124 S 
ATOM     83  O   UNL A   1      50.675  30.017  36.777  1.00  0.00    -0.237 OA
ATOM     84  O   UNL A   1      50.968  32.454  36.453  1.00  0.00    -0.237 OA
ATOM     85  O   UNL A   1      50.409  31.561  38.683  1.00  0.00    -0.744 OA
ENDBRANCH  78  82
ENDBRANCH  51  75
BRANCH  63  86
ATOM     86  C   UNL A   1      44.814  32.194  28.871  1.00  0.00     0.023 A 
ATOM     87  C   UNL A   1      45.797  32.643  27.973  1.00  0.00     0.031 A 
ATOM     88  C   UNL A   1      43.636  32.956  28.998  1.00  0.00     0.131 A 
ATOM     89  C   UNL A   1      45.595  33.835  27.258  1.00  0.00     0.055 A 
ATOM     90  C   UNL A   1      43.417  34.108  28.243  1.00  0.00     0.041 A 
ATOM     91  F   UNL A   1      42.665  32.575  29.843  1.00  0.00    -0.206 F 
ATOM     92  C   UNL A   1      44.403  34.557  27.371  1.00  0.00     0.022 A 
BRANCH  89  93
ATOM     93  S   UNL A   1      46.933  34.466  26.206  1.00  0.00     0.124 S 
ATOM     94  O   UNL A   1      48.026  33.554  26.524  1.00  0.00    -0.237 OA
ATOM     95  O   UNL A   1      46.365  34.339  24.867  1.00  0.00    -0.237 OA
ATOM     96  O   UNL A   1      47.117  35.840  26.670  1.00  0.00    -0.744 OA
ENDBRANCH  89  93
ENDBRANCH  63  86
ENDBRANCH  37  38
ENDBRANCH  30  32
ENDBRANCH  29  30
ENDBRANCH  28  29
ENDBRANCH  27  28
ENDBRANCH  26  27
ENDBRANCH  25  26
ENDBRANCH   1  25
TORSDOF 25
ENDMDL
MODEL 2
REMARK VINA RESULT:      -6.9      5.419     11.550
REMARK SMILES COc1cc(Br)c(OC)c(C(=O)NCCC(=O)OCCOCCOCCOC(=O)c2ccc(-c3c4nc(c(-c5cc(S(=O)(=O)[O-])ccc5F)c5ccc([nH]5)c(-c5cc(S(=O)(=O)[O-])ccc5F)c5nc(c(-c6cc(S(=O)(=O)[O-])ccc6F)c6ccc3[nH]6)C=C5)C=C4)cc2)c1
REMARK SMILES IDX 22 1 21 2 20 3 19 4 18 5 16 6 17 7 15 8 14 9 13 10 11 11
REMARK SMILES IDX 12 12 10 14 3 15 4 16 93 17 5 18 6 19 7 20 2 21 1 22 8 23
REMARK SMILES IDX 9 24 23 25 24 26 25 27 26 28 27 29 28 30 29 31 30 32 31 33
REMARK SMILES IDX 92 34 32 35 91 36 33 37 34 38 35 39 85 40 36 41 90 42 84 43
REMARK SMILES IDX 86 44 37 45 89 46 83 47 82 48 38 50 70 51 50 52 69 53 51 54
REMARK SMILES IDX 54 55 68 56 87 57 52 58 53 59 67 61 88 62 55 63 39 64 40 65
REMARK SMILES IDX 48 66 41 67 47 68 49 69 46 70 42 71 43 72 44 73 45 74 71 75
REMARK SMILES IDX 72 76 80 77 73 78 79 79 81 80 78 81 74 82 75 83 76 84 77 85
REMARK SMILES IDX 56 86 57 87 65 88 58 89 64 90 66 91 63 92 59 93 60 94 61 95
REMARK SMILES IDX 62 96
REMARK H PARENT 13 13 86 49 54 60
REMARK Flexibility Score: inf
ROOT
ATOM      1  C   UNL A   1      33.965  35.109  31.548  1.00  0.00     0.188 C 
ENDROOT
BRANCH   1   2
ATOM      2  O   UNL A   1      33.362  34.657  30.340  1.00  0.00    -0.376 OA
BRANCH   2   3
ATOM      3  C   UNL A   1      34.219  34.015  29.401  1.00  0.00     0.202 C 
BRANCH   3   4
ATOM      4  C   UNL A   1      33.643  33.781  27.993  1.00  0.00     0.261 C 
BRANCH   4   5
ATOM      5  O   UNL A   1      33.474  32.393  27.619  1.00  0.00    -0.463 OA
BRANCH   5   6
ATOM      6  C   UNL A   1      32.298  32.100  27.006  1.00  0.00     0.307 C 
ATOM      7  O   UNL A   1      31.296  32.810  27.050  1.00  0.00    -0.252 OA
BRANCH   6   8
ATOM      8  C   UNL A   1      32.289  30.825  26.196  1.00  0.00     0.144 C 
BRANCH   8   9
ATOM      9  C   UNL A   1      32.864  29.522  26.730  1.00  0.00     0.128 C 
BRANCH   9  10
ATOM     10  N   UNL A   1      31.905  28.517  27.164  1.00  0.00    -0.351 N 
ATOM     11  C   UNL A   1      31.295  27.462  26.509  1.00  0.00     0.255 C 
ATOM     12  O   UNL A   1      30.628  26.673  27.180  1.00  0.00    -0.269 OA
ATOM     13  H   UNL A   1      31.638  28.605  28.108  1.00  0.00     0.163 HD
BRANCH  11  14
ATOM     14  C   UNL A   1      31.420  27.245  25.035  1.00  0.00     0.086 A 
ATOM     15  C   UNL A   1      30.724  27.822  22.783  1.00  0.00     0.121 A 
ATOM     16  C   UNL A   1      31.536  26.819  22.266  1.00  0.00     0.066 A 
ATOM     17  C   UNL A   1      30.738  28.092  24.148  1.00  0.00     0.064 A 
ATOM     18  C   UNL A   1      32.303  26.024  23.124  1.00  0.00     0.064 A 
ATOM     19  Br  UNL A   1      33.278  24.631  22.266  1.00  0.00    -0.047 Br
ATOM     20  C   UNL A   1      32.253  26.221  24.518  1.00  0.00     0.146 A 
BRANCH  15  21
ATOM     21  O   UNL A   1      29.888  28.582  22.012  1.00  0.00    -0.497 OA
ATOM     22  C   UNL A   1      29.519  29.819  22.630  1.00  0.00     0.278 C 
ENDBRANCH  15  21
BRANCH  20  23
ATOM     23  O   UNL A   1      32.853  25.368  25.412  1.00  0.00    -0.495 OA
ATOM     24  C   UNL A   1      32.234  24.090  25.558  1.00  0.00     0.278 C 
ENDBRANCH  20  23
ENDBRANCH  11  14
ENDBRANCH   9  10
ENDBRANCH   8   9
ENDBRANCH   6   8
ENDBRANCH   5   6
ENDBRANCH   4   5
ENDBRANCH   3   4
ENDBRANCH   2   3
ENDBRANCH   1   2
BRANCH   1  25
ATOM     25  C   UNL A   1      34.222  34.039  32.609  1.00  0.00     0.188 C 
BRANCH  25  26
ATOM     26  O   UNL A   1      35.559  33.572  32.719  1.00  0.00    -0.376 OA
BRANCH  26  27
ATOM     27  C   UNL A   1      35.749  32.167  32.514  1.00  0.00     0.202 C 
BRANCH  27  28
ATOM     28  C   UNL A   1      35.586  31.619  31.075  1.00  0.00     0.261 C 
BRANCH  28  29
ATOM     29  O   UNL A   1      36.090  30.291  30.809  1.00  0.00    -0.460 OA
BRANCH  29  30
ATOM     30  C   UNL A   1      36.382  29.946  29.532  1.00  0.00     0.338 C 
ATOM     31  O   UNL A   1      35.796  30.331  28.533  1.00  0.00    -0.246 OA
BRANCH  30  32
ATOM     32  C   UNL A   1      37.712  29.268  29.517  1.00  0.00     0.060 A 
ATOM     33  C   UNL A   1      37.933  28.203  30.406  1.00  0.00     0.016 A 
ATOM     34  C   UNL A   1      38.707  29.613  28.598  1.00  0.00     0.016 A 
ATOM     35  C   UNL A   1      39.150  27.507  30.401  1.00  0.00     0.010 A 
ATOM     36  C   UNL A   1      39.933  28.932  28.610  1.00  0.00     0.010 A 
ATOM     37  C   UNL A   1      40.176  27.896  29.531  1.00  0.00    -0.014 A 
BRANCH  37  38
ATOM     38  C   UNL A   1      41.573  27.419  29.733  1.00  0.00     0.031 A 
ATOM     39  C   UNL A   1      42.360  28.045  30.857  1.00  0.00     0.074 A 
ATOM     40  C   UNL A   1      42.155  26.493  28.948  1.00  0.00     0.049 A 
ATOM     41  N   UNL A   1      43.636  27.964  31.128  1.00  0.00    -0.248 NA
ATOM     42  C   UNL A   1      41.596  28.887  31.790  1.00  0.00     0.031 C 
ATOM     43  C   UNL A   1      41.494  25.748  27.879  1.00  0.00     0.029 A 
ATOM     44  N   UNL A   1      43.454  26.037  28.917  1.00  0.00    -0.354 N 
ATOM     45  C   UNL A   1      43.833  28.769  32.246  1.00  0.00     0.074 A 
ATOM     46  C   UNL A   1      42.550  29.337  32.591  1.00  0.00     0.031 C 
ATOM     47  C   UNL A   1      42.398  24.953  27.277  1.00  0.00     0.029 A 
ATOM     48  C   UNL A   1      43.716  25.172  27.876  1.00  0.00     0.049 A 
ATOM     49  H   UNL A   1      44.134  26.305  29.577  1.00  0.00     0.167 HD
ATOM     50  C   UNL A   1      44.983  29.019  32.918  1.00  0.00     0.034 A 
ATOM     51  C   UNL A   1      44.886  24.659  27.430  1.00  0.00     0.034 A 
ATOM     52  C   UNL A   1      46.258  28.448  32.568  1.00  0.00     0.049 A 
ATOM     53  C   UNL A   1      46.176  25.030  28.137  1.00  0.00     0.074 A 
ATOM     54  C   UNL A   1      47.479  28.627  33.195  1.00  0.00     0.029 A 
ATOM     55  N   UNL A   1      46.482  27.600  31.492  1.00  0.00    -0.354 N 
ATOM     56  N   UNL A   1      46.355  25.806  29.182  1.00  0.00    -0.248 NA
ATOM     57  C   UNL A   1      47.424  24.461  27.604  1.00  0.00     0.031 C 
ATOM     58  C   UNL A   1      48.454  27.956  32.452  1.00  0.00     0.029 A 
ATOM     59  C   UNL A   1      47.828  27.277  31.420  1.00  0.00     0.049 A 
ATOM     60  H   UNL A   1      45.789  27.276  30.874  1.00  0.00     0.167 HD
ATOM     61  C   UNL A   1      47.723  25.772  29.456  1.00  0.00     0.074 A 
ATOM     62  C   UNL A   1      48.325  24.905  28.469  1.00  0.00     0.031 C 
ATOM     63  C   UNL A   1      48.416  26.392  30.445  1.00  0.00     0.034 A 
BRANCH  50  64
ATOM     64  C   UNL A   1      44.927  30.002  34.059  1.00  0.00     0.023 A 
ATOM     65  C   UNL A   1      45.037  31.387  33.857  1.00  0.00     0.031 A 
ATOM     66  C   UNL A   1      44.759  29.537  35.376  1.00  0.00     0.131 A 
ATOM     67  C   UNL A   1      45.031  32.256  34.959  1.00  0.00     0.055 A 
ATOM     68  C   UNL A   1      44.675  30.411  36.460  1.00  0.00     0.041 A 
ATOM     69  F   UNL A   1      44.677  28.222  35.631  1.00  0.00    -0.206 F 
ATOM     70  C   UNL A   1      44.822  31.780  36.255  1.00  0.00     0.022 A 
BRANCH  67  71
ATOM     71  S   UNL A   1      45.423  34.005  34.687  1.00  0.00     0.124 S 
ATOM     72  O   UNL A   1      44.297  34.433  33.859  1.00  0.00    -0.237 OA
ATOM     73  O   UNL A   1      45.456  34.537  36.044  1.00  0.00    -0.237 OA
ATOM     74  O   UNL A   1      46.712  33.963  34.000  1.00  0.00    -0.744 OA
ENDBRANCH  67  71
ENDBRANCH  50  64
BRANCH  51  75
ATOM     75  C   UNL A   1      44.933  23.799  26.206  1.00  0.00     0.023 A 
ATOM     76  C   UNL A   1      44.547  22.448  26.247  1.00  0.00     0.031 A 
ATOM     77  C   UNL A   1      45.465  24.289  24.999  1.00  0.00     0.131 A 
ATOM     78  C   UNL A   1      44.761  21.622  25.130  1.00  0.00     0.055 A 
ATOM     79  C   UNL A   1      45.611  23.481  23.870  1.00  0.00     0.041 A 
ATOM     80  F   UNL A   1      45.866  25.567  24.902  1.00  0.00    -0.206 F 
ATOM     81  C   UNL A   1      45.274  22.133  23.937  1.00  0.00     0.022 A 
BRANCH  78  82
ATOM     82  S   UNL A   1      44.485  19.836  25.304  1.00  0.00     0.124 S 
ATOM     83  O   UNL A   1      43.423  19.798  26.303  1.00  0.00    -0.237 OA
ATOM     84  O   UNL A   1      44.105  19.455  23.948  1.00  0.00    -0.237 OA
ATOM     85  O   UNL A   1      45.782  19.333  25.751  1.00  0.00    -0.744 OA
ENDBRANCH  78  82
ENDBRANCH  51  75
BRANCH  63  86
ATOM     86  C   UNL A   1      49.889  26.087  30.581  1.00  0.00     0.023 A 
ATOM     87  C   UNL A   1      50.870  26.733  29.809  1.00  0.00     0.031 A 
ATOM     88  C   UNL A   1      50.317  25.161  31.552  1.00  0.00     0.131 A 
ATOM     89  C   UNL A   1      52.226  26.425  30.004  1.00  0.00     0.055 A 
ATOM     90  C   UNL A   1      51.668  24.901  31.781  1.00  0.00     0.041 A 
ATOM     91  F   UNL A   1      49.423  24.513  32.317  1.00  0.00    -0.206 F 
ATOM     92  C   UNL A   1      52.631  25.530  30.999  1.00  0.00     0.022 A 
BRANCH  89  93
ATOM     93  S   UNL A   1      53.464  27.170  28.907  1.00  0.00     0.124 S 
ATOM     94  O   UNL A   1      53.882  26.029  28.100  1.00  0.00    -0.237 OA
ATOM     95  O   UNL A   1      52.691  28.194  28.212  1.00  0.00    -0.237 OA
ATOM     96  O   UNL A   1      54.478  27.682  29.828  1.00  0.00    -0.744 OA
ENDBRANCH  89  93
ENDBRANCH  63  86
ENDBRANCH  37  38
ENDBRANCH  30  32
ENDBRANCH  29  30
ENDBRANCH  28  29
ENDBRANCH  27  28
ENDBRANCH  26  27
ENDBRANCH  25  26
ENDBRANCH   1  25
TORSDOF 25
ENDMDL
MODEL 3
REMARK VINA RESULT:      -6.4      5.980     10.207
REMARK SMILES COc1cc(Br)c(OC)c(C(=O)NCCC(=O)OCCOCCOCCOC(=O)c2ccc(-c3c4nc(c(-c5cc(S(=O)(=O)[O-])ccc5F)c5ccc([nH]5)c(-c5cc(S(=O)(=O)[O-])ccc5F)c5nc(c(-c6cc(S(=O)(=O)[O-])ccc6F)c6ccc3[nH]6)C=C5)C=C4)cc2)c1
REMARK SMILES IDX 22 1 21 2 20 3 19 4 18 5 16 6 17 7 15 8 14 9 13 10 11 11
REMARK SMILES IDX 12 12 10 14 3 15 4 16 93 17 5 18 6 19 7 20 2 21 1 22 8 23
REMARK SMILES IDX 9 24 23 25 24 26 25 27 26 28 27 29 28 30 29 31 30 32 31 33
REMARK SMILES IDX 92 34 32 35 91 36 33 37 34 38 35 39 85 40 36 41 90 42 84 43
REMARK SMILES IDX 86 44 37 45 89 46 83 47 82 48 38 50 70 51 50 52 69 53 51 54
REMARK SMILES IDX 54 55 68 56 87 57 52 58 53 59 67 61 88 62 55 63 39 64 40 65
REMARK SMILES IDX 48 66 41 67 47 68 49 69 46 70 42 71 43 72 44 73 45 74 71 75
REMARK SMILES IDX 72 76 80 77 73 78 79 79 81 80 78 81 74 82 75 83 76 84 77 85
REMARK SMILES IDX 56 86 57 87 65 88 58 89 64 90 66 91 63 92 59 93 60 94 61 95
REMARK SMILES IDX 62 96
REMARK H PARENT 13 13 86 49 54 60
REMARK Flexibility Score: inf
ROOT
ATOM      1  C   UNL A   1      34.314  34.137  30.177  1.00  0.00     0.188 C 
ENDROOT
BRANCH   1   2
ATOM      2  O   UNL A   1      35.038  34.347  28.968  1.00  0.00    -0.376 OA
BRANCH   2   3
ATOM      3  C   UNL A   1      35.237  33.208  28.137  1.00  0.00     0.202 C 
BRANCH   3   4
ATOM      4  C   UNL A   1      34.115  32.156  28.133  1.00  0.00     0.261 C 
BRANCH   4   5
ATOM      5  O   UNL A   1      34.498  30.847  27.647  1.00  0.00    -0.463 OA
BRANCH   5   6
ATOM      6  C   UNL A   1      33.467  30.034  27.304  1.00  0.00     0.307 C 
ATOM      7  O   UNL A   1      32.331  30.425  27.044  1.00  0.00    -0.252 OA
BRANCH   6   8
ATOM      8  C   UNL A   1      33.802  28.564  27.212  1.00  0.00     0.144 C 
BRANCH   8   9
ATOM      9  C   UNL A   1      33.602  27.766  25.933  1.00  0.00     0.128 C 
BRANCH   9  10
ATOM     10  N   UNL A   1      32.226  27.484  25.550  1.00  0.00    -0.351 N 
ATOM     11  C   UNL A   1      31.631  26.398  24.933  1.00  0.00     0.255 C 
ATOM     12  O   UNL A   1      30.402  26.372  24.868  1.00  0.00    -0.269 OA
ATOM     13  H   UNL A   1      31.597  28.207  25.772  1.00  0.00     0.163 HD
BRANCH  11  14
ATOM     14  C   UNL A   1      32.419  25.265  24.355  1.00  0.00     0.086 A 
ATOM     15  C   UNL A   1      33.324  24.146  22.402  1.00  0.00     0.121 A 
ATOM     16  C   UNL A   1      33.802  23.116  23.203  1.00  0.00     0.066 A 
ATOM     17  C   UNL A   1      32.719  25.256  22.985  1.00  0.00     0.064 A 
ATOM     18  C   UNL A   1      33.601  23.150  24.586  1.00  0.00     0.064 A 
ATOM     19  Br  UNL A   1      34.225  21.614  25.525  1.00  0.00    -0.047 Br
ATOM     20  C   UNL A   1      32.904  24.220  25.182  1.00  0.00     0.146 A 
BRANCH  15  21
ATOM     21  O   UNL A   1      33.413  24.139  21.037  1.00  0.00    -0.497 OA
ATOM     22  C   UNL A   1      32.971  22.911  20.448  1.00  0.00     0.278 C 
ENDBRANCH  15  21
BRANCH  20  23
ATOM     23  O   UNL A   1      32.537  24.224  26.505  1.00  0.00    -0.495 OA
ATOM     24  C   UNL A   1      31.331  23.525  26.814  1.00  0.00     0.278 C 
ENDBRANCH  20  23
ENDBRANCH  11  14
ENDBRANCH   9  10
ENDBRANCH   8   9
ENDBRANCH   6   8
ENDBRANCH   5   6
ENDBRANCH   4   5
ENDBRANCH   3   4
ENDBRANCH   2   3
ENDBRANCH   1   2
BRANCH   1  25
ATOM     25  C   UNL A   1      35.110  34.302  31.471  1.00  0.00     0.188 C 
BRANCH  25  26
ATOM     26  O   UNL A   1      36.210  33.420  31.649  1.00  0.00    -0.376 OA
BRANCH  26  27
ATOM     27  C   UNL A   1      36.075  32.456  32.700  1.00  0.00     0.202 C 
BRANCH  27  28
ATOM     28  C   UNL A   1      37.239  32.325  33.713  1.00  0.00     0.261 C 
BRANCH  28  29
ATOM     29  O   UNL A   1      37.704  30.992  34.022  1.00  0.00    -0.460 OA
BRANCH  29  30
ATOM     30  C   UNL A   1      37.836  30.096  33.015  1.00  0.00     0.338 C 
ATOM     31  O   UNL A   1      37.009  29.263  32.682  1.00  0.00    -0.246 OA
BRANCH  30  32
ATOM     32  C   UNL A   1      39.015  30.488  32.186  1.00  0.00     0.060 A 
ATOM     33  C   UNL A   1      40.230  30.763  32.835  1.00  0.00     0.016 A 
ATOM     34  C   UNL A   1      38.962  30.511  30.790  1.00  0.00     0.016 A 
ATOM     35  C   UNL A   1      41.376  31.093  32.099  1.00  0.00     0.010 A 
ATOM     36  C   UNL A   1      40.103  30.864  30.055  1.00  0.00     0.010 A 
ATOM     37  C   UNL A   1      41.310  31.188  30.703  1.00  0.00    -0.014 A 
BRANCH  37  38
ATOM     38  C   UNL A   1      42.390  31.860  29.928  1.00  0.00     0.031 A 
ATOM     39  C   UNL A   1      43.558  31.010  29.492  1.00  0.00     0.074 A 
ATOM     40  C   UNL A   1      42.377  33.174  29.634  1.00  0.00     0.049 A 
ATOM     41  N   UNL A   1      44.708  31.368  28.987  1.00  0.00    -0.248 NA
ATOM     42  C   UNL A   1      43.400  29.557  29.667  1.00  0.00     0.031 C 
ATOM     43  C   UNL A   1      41.283  34.098  29.920  1.00  0.00     0.029 A 
ATOM     44  N   UNL A   1      43.337  33.967  29.045  1.00  0.00    -0.354 N 
ATOM     45  C   UNL A   1      45.425  30.188  28.813  1.00  0.00     0.074 A 
ATOM     46  C   UNL A   1      44.583  29.108  29.277  1.00  0.00     0.031 C 
ATOM     47  C   UNL A   1      41.645  35.336  29.535  1.00  0.00     0.029 A 
ATOM     48  C   UNL A   1      43.018  35.308  29.028  1.00  0.00     0.049 A 
ATOM     49  H   UNL A   1      44.174  33.608  28.670  1.00  0.00     0.167 HD
ATOM     50  C   UNL A   1      46.674  30.020  28.317  1.00  0.00     0.034 A 
ATOM     51  C   UNL A   1      43.764  36.386  28.694  1.00  0.00     0.034 A 
ATOM     52  C   UNL A   1      47.506  31.102  27.855  1.00  0.00     0.049 A 
ATOM     53  C   UNL A   1      45.196  36.185  28.235  1.00  0.00     0.074 A 
ATOM     54  C   UNL A   1      48.782  31.035  27.322  1.00  0.00     0.029 A 
ATOM     55  N   UNL A   1      47.155  32.444  27.882  1.00  0.00    -0.354 N 
ATOM     56  N   UNL A   1      45.870  35.067  28.089  1.00  0.00    -0.248 NA
ATOM     57  C   UNL A   1      45.971  37.390  27.898  1.00  0.00     0.031 C 
ATOM     58  C   UNL A   1      49.233  32.340  27.105  1.00  0.00     0.029 A 
ATOM     59  C   UNL A   1      48.204  33.215  27.407  1.00  0.00     0.049 A 
ATOM     60  H   UNL A   1      46.290  32.796  28.192  1.00  0.00     0.167 HD
ATOM     61  C   UNL A   1      47.123  35.435  27.597  1.00  0.00     0.074 A 
ATOM     62  C   UNL A   1      47.116  36.875  27.474  1.00  0.00     0.031 C 
ATOM     63  C   UNL A   1      48.179  34.650  27.265  1.00  0.00     0.034 A 
BRANCH  50  64
ATOM     64  C   UNL A   1      47.244  28.625  28.311  1.00  0.00     0.023 A 
ATOM     65  C   UNL A   1      48.034  28.137  29.364  1.00  0.00     0.031 A 
ATOM     66  C   UNL A   1      46.987  27.769  27.225  1.00  0.00     0.131 A 
ATOM     67  C   UNL A   1      48.584  26.848  29.285  1.00  0.00     0.055 A 
ATOM     68  C   UNL A   1      47.471  26.461  27.189  1.00  0.00     0.041 A 
ATOM     69  F   UNL A   1      46.261  28.192  26.178  1.00  0.00    -0.206 F 
ATOM     70  C   UNL A   1      48.283  25.997  28.219  1.00  0.00     0.022 A 
BRANCH  67  71
ATOM     71  S   UNL A   1      49.795  26.344  30.536  1.00  0.00     0.124 S 
ATOM     72  O   UNL A   1      50.149  27.627  31.137  1.00  0.00    -0.237 OA
ATOM     73  O   UNL A   1      49.023  25.436  31.376  1.00  0.00    -0.237 OA
ATOM     74  O   UNL A   1      50.857  25.718  29.751  1.00  0.00    -0.744 OA
ENDBRANCH  67  71
ENDBRANCH  50  64
BRANCH  51  75
ATOM     75  C   UNL A   1      43.222  37.773  28.845  1.00  0.00     0.023 A 
ATOM     76  C   UNL A   1      42.425  38.360  27.848  1.00  0.00     0.031 A 
ATOM     77  C   UNL A   1      43.583  38.572  29.946  1.00  0.00     0.131 A 
ATOM     78  C   UNL A   1      42.073  39.717  27.937  1.00  0.00     0.055 A 
ATOM     79  C   UNL A   1      43.171  39.902  30.064  1.00  0.00     0.041 A 
ATOM     80  F   UNL A   1      44.356  38.074  30.924  1.00  0.00    -0.206 F 
ATOM     81  C   UNL A   1      42.426  40.488  29.046  1.00  0.00     0.022 A 
BRANCH  78  82
ATOM     82  S   UNL A   1      41.260  40.500  26.515  1.00  0.00     0.124 S 
ATOM     83  O   UNL A   1      40.781  39.340  25.774  1.00  0.00    -0.237 OA
ATOM     84  O   UNL A   1      40.238  41.316  27.162  1.00  0.00    -0.237 OA
ATOM     85  O   UNL A   1      42.340  41.248  25.875  1.00  0.00    -0.744 OA
ENDBRANCH  78  82
ENDBRANCH  51  75
BRANCH  63  86
ATOM     86  C   UNL A   1      49.388  35.309  26.642  1.00  0.00     0.023 A 
ATOM     87  C   UNL A   1      50.507  35.701  27.394  1.00  0.00     0.031 A 
ATOM     88  C   UNL A   1      49.431  35.494  25.246  1.00  0.00     0.131 A 
ATOM     89  C   UNL A   1      51.611  36.283  26.750  1.00  0.00     0.055 A 
ATOM     90  C   UNL A   1      50.553  36.019  24.605  1.00  0.00     0.041 A 
ATOM     91  F   UNL A   1      48.388  35.138  24.478  1.00  0.00    -0.206 F 
ATOM     92  C   UNL A   1      51.649  36.424  25.359  1.00  0.00     0.022 A 
BRANCH  89  93
ATOM     93  S   UNL A   1      52.989  36.905  27.754  1.00  0.00     0.124 S 
ATOM     94  O   UNL A   1      52.775  38.347  27.705  1.00  0.00    -0.237 OA
ATOM     95  O   UNL A   1      52.748  36.268  29.045  1.00  0.00    -0.237 OA
ATOM     96  O   UNL A   1      54.176  36.429  27.044  1.00  0.00    -0.744 OA
ENDBRANCH  89  93
ENDBRANCH  63  86
ENDBRANCH  37  38
ENDBRANCH  30  32
ENDBRANCH  29  30
ENDBRANCH  28  29
ENDBRANCH  27  28
ENDBRANCH  26  27
ENDBRANCH  25  26
ENDBRANCH   1  25
TORSDOF 25
ENDMDL
