MODEL 1
REMARK VINA RESULT:     -10.4      0.000      0.000
REMARK SMILES O=C(COCC(=O)OCCOCCOCCOC(=O)c1ccc(-c2c3nc(c(-c4cc(S(=O)(=O)[O-])ccc4F)c4ccc([nH]4)c(-c4cc(S(=O)(=O)[O-])ccc4F)c4nc(c(-c5cc(S(=O)(=O)[O-])ccc5F)c5ccc2[nH]5)C=C4)C=C3)cc1)/[NH+]=C1\S[C@@H]2CS(=O)(=O)C[C@H]2N1c1ccc(Cl)cc1
REMARK SMILES IDX 12 1 11 2 10 3 9 4 8 5 6 6 7 7 5 8 4 9 3 10 2 11 1 12 83 13
REMARK SMILES IDX 84 14 85 16 93 17 86 18 92 19 87 20 91 21 88 22 89 23 90 24
REMARK SMILES IDX 94 25 95 26 100 27 96 28 99 29 97 30 98 31 13 32 14 33 15 34
REMARK SMILES IDX 16 35 17 36 18 37 19 38 20 39 21 40 82 41 22 42 81 43 23 44
REMARK SMILES IDX 24 45 25 46 75 47 26 48 80 49 74 50 76 51 27 52 79 53 73 54
REMARK SMILES IDX 72 55 28 57 60 58 40 59 59 60 41 61 44 62 58 63 77 64 42 65
REMARK SMILES IDX 43 66 57 68 78 69 45 70 29 71 30 72 38 73 31 74 37 75 39 76
REMARK SMILES IDX 36 77 32 78 33 79 34 80 35 81 61 82 62 83 70 84 63 85 69 86
REMARK SMILES IDX 71 87 68 88 64 89 65 90 66 91 67 92 46 93 47 94 55 95 48 96
REMARK SMILES IDX 54 97 56 98 53 99 49 100 50 101 51 102 52 103
REMARK H PARENT 83 15 76 56 44 67
REMARK Flexibility Score: inf
ROOT
ATOM      1  C   UNL A   1      32.437  26.963  25.107  1.00  0.00     0.188 C 
ENDROOT
BRANCH   1   2
ATOM      2  O   UNL A   1      33.187  25.902  24.529  1.00  0.00    -0.376 OA
BRANCH   2   3
ATOM      3  C   UNL A   1      33.561  24.842  25.403  1.00  0.00     0.202 C 
BRANCH   3   4
ATOM      4  C   UNL A   1      34.615  23.854  24.878  1.00  0.00     0.261 C 
BRANCH   4   5
ATOM      5  O   UNL A   1      35.292  23.097  25.900  1.00  0.00    -0.462 OA
BRANCH   5   6
ATOM      6  C   UNL A   1      35.603  21.806  25.580  1.00  0.00     0.332 C 
ATOM      7  O   UNL A   1      34.879  20.840  25.791  1.00  0.00    -0.250 OA
BRANCH   6   8
ATOM      8  C   UNL A   1      36.955  21.676  24.853  1.00  0.00     0.283 C 
BRANCH   8   9
ATOM      9  O   UNL A   1      38.068  22.437  25.295  1.00  0.00    -0.358 OA
BRANCH   9  10
ATOM     10  C   UNL A   1      39.146  21.644  25.760  1.00  0.00     0.288 C 
BRANCH  10  11
ATOM     11  C   UNL A   1      40.169  22.235  26.749  1.00  0.00     0.333 C 
ATOM     12  O   UNL A   1      39.978  22.142  27.958  1.00  0.00    -0.244 OA
ATOM     13  N   UNL A   1      41.307  22.802  26.239  1.00  0.00    -0.202 N 
ATOM     14  C   UNL A   1      42.328  22.013  26.192  1.00  0.00     0.319 C 
ATOM     15  H   UNL A   1      41.345  23.737  25.934  1.00  0.00     0.316 HD
ATOM     16  S   UNL A   1      42.189  20.241  26.541  1.00  0.00    -0.029 SA
ATOM     17  N   UNL A   1      43.637  22.297  25.781  1.00  0.00    -0.217 N 
ATOM     18  C   UNL A   1      43.510  19.967  25.379  1.00  0.00     0.120 C 
ATOM     19  C   UNL A   1      44.488  21.092  25.749  1.00  0.00     0.212 C 
ATOM     20  C   UNL A   1      44.266  18.675  25.408  1.00  0.00     0.156 C 
ATOM     21  C   UNL A   1      45.573  20.946  24.706  1.00  0.00     0.188 C 
ATOM     22  S   UNL A   1      45.790  19.157  24.601  1.00  0.00     0.155 S 
ATOM     23  O   UNL A   1      45.707  18.768  23.208  1.00  0.00    -0.229 OA
ATOM     24  O   UNL A   1      46.892  18.761  25.448  1.00  0.00    -0.229 OA
BRANCH  17  25
ATOM     25  C   UNL A   1      44.259  23.547  25.974  1.00  0.00     0.128 A 
ATOM     26  C   UNL A   1      44.751  23.920  27.236  1.00  0.00     0.053 A 
ATOM     27  C   UNL A   1      44.414  24.469  24.924  1.00  0.00     0.053 A 
ATOM     28  C   UNL A   1      45.357  25.165  27.448  1.00  0.00     0.025 A 
ATOM     29  C   UNL A   1      45.016  25.721  25.132  1.00  0.00     0.025 A 
ATOM     30  C   UNL A   1      45.484  26.063  26.396  1.00  0.00     0.041 A 
ATOM     31  Cl  UNL A   1      46.227  27.591  26.665  1.00  0.00    -0.084 Cl
ENDBRANCH  17  25
ENDBRANCH  10  11
ENDBRANCH   9  10
ENDBRANCH   8   9
ENDBRANCH   6   8
ENDBRANCH   5   6
ENDBRANCH   4   5
ENDBRANCH   3   4
ENDBRANCH   2   3
ENDBRANCH   1   2
BRANCH   1  32
ATOM     32  C   UNL A   1      33.029  28.371  24.998  1.00  0.00     0.188 C 
BRANCH  32  33
ATOM     33  O   UNL A   1      32.126  29.435  25.297  1.00  0.00    -0.376 OA
BRANCH  33  34
ATOM     34  C   UNL A   1      32.222  29.954  26.633  1.00  0.00     0.202 C 
BRANCH  34  35
ATOM     35  C   UNL A   1      32.619  31.438  26.776  1.00  0.00     0.261 C 
BRANCH  35  36
ATOM     36  O   UNL A   1      33.392  31.716  27.962  1.00  0.00    -0.460 OA
BRANCH  36  37
ATOM     37  C   UNL A   1      33.407  33.014  28.359  1.00  0.00     0.338 C 
ATOM     38  O   UNL A   1      32.567  33.853  28.097  1.00  0.00    -0.246 OA
BRANCH  37  39
ATOM     39  C   UNL A   1      34.501  33.177  29.343  1.00  0.00     0.060 A 
ATOM     40  C   UNL A   1      34.519  34.324  30.142  1.00  0.00     0.016 A 
ATOM     41  C   UNL A   1      35.502  32.221  29.486  1.00  0.00     0.016 A 
ATOM     42  C   UNL A   1      35.556  34.571  31.034  1.00  0.00     0.010 A 
ATOM     43  C   UNL A   1      36.546  32.460  30.389  1.00  0.00     0.010 A 
ATOM     44  C   UNL A   1      36.598  33.653  31.141  1.00  0.00    -0.014 A 
BRANCH  44  45
ATOM     45  C   UNL A   1      37.835  34.021  31.874  1.00  0.00     0.031 A 
ATOM     46  C   UNL A   1      39.042  34.388  31.058  1.00  0.00     0.074 A 
ATOM     47  C   UNL A   1      37.885  34.077  33.218  1.00  0.00     0.049 A 
ATOM     48  N   UNL A   1      40.292  34.485  31.420  1.00  0.00    -0.248 NA
ATOM     49  C   UNL A   1      38.801  34.674  29.633  1.00  0.00     0.031 C 
ATOM     50  C   UNL A   1      36.748  33.894  34.121  1.00  0.00     0.029 A 
ATOM     51  N   UNL A   1      38.948  34.296  34.061  1.00  0.00    -0.354 N 
ATOM     52  C   UNL A   1      40.997  34.773  30.256  1.00  0.00     0.074 A 
ATOM     53  C   UNL A   1      40.031  34.852  29.181  1.00  0.00     0.031 C 
ATOM     54  C   UNL A   1      37.180  33.992  35.391  1.00  0.00     0.029 A 
ATOM     55  C   UNL A   1      38.631  34.155  35.394  1.00  0.00     0.049 A 
ATOM     56  H   UNL A   1      39.849  34.531  33.743  1.00  0.00     0.167 HD
ATOM     57  C   UNL A   1      42.332  34.933  30.105  1.00  0.00     0.034 A 
ATOM     58  C   UNL A   1      39.433  34.095  36.479  1.00  0.00     0.034 A 
ATOM     59  C   UNL A   1      43.264  34.896  31.201  1.00  0.00     0.049 A 
ATOM     60  C   UNL A   1      40.930  34.192  36.277  1.00  0.00     0.074 A 
ATOM     61  C   UNL A   1      44.639  35.038  31.170  1.00  0.00     0.029 A 
ATOM     62  N   UNL A   1      42.912  34.713  32.532  1.00  0.00    -0.354 N 
ATOM     63  N   UNL A   1      41.605  34.370  35.163  1.00  0.00    -0.248 NA
ATOM     64  C   UNL A   1      41.775  34.065  37.473  1.00  0.00     0.031 C 
ATOM     65  C   UNL A   1      45.124  34.882  32.473  1.00  0.00     0.029 A 
ATOM     66  C   UNL A   1      44.044  34.715  33.327  1.00  0.00     0.049 A 
ATOM     67  H   UNL A   1      41.990  34.598  32.861  1.00  0.00     0.167 HD
ATOM     68  C   UNL A   1      42.948  34.412  35.534  1.00  0.00     0.074 A 
ATOM     69  C   UNL A   1      42.988  34.249  36.972  1.00  0.00     0.031 C 
ATOM     70  C   UNL A   1      44.051  34.572  34.762  1.00  0.00     0.034 A 
BRANCH  57  71
ATOM     71  C   UNL A   1      42.865  35.067  28.704  1.00  0.00     0.023 A 
ATOM     72  C   UNL A   1      43.481  34.003  28.024  1.00  0.00     0.031 A 
ATOM     73  C   UNL A   1      42.763  36.305  28.042  1.00  0.00     0.131 A 
ATOM     74  C   UNL A   1      44.013  34.212  26.741  1.00  0.00     0.055 A 
ATOM     75  C   UNL A   1      43.231  36.487  26.742  1.00  0.00     0.041 A 
ATOM     76  F   UNL A   1      42.210  37.363  28.658  1.00  0.00    -0.206 F 
ATOM     77  C   UNL A   1      43.870  35.439  26.086  1.00  0.00     0.022 A 
BRANCH  74  78
ATOM     78  S   UNL A   1      44.987  32.889  25.976  1.00  0.00     0.124 S 
ATOM     79  O   UNL A   1      44.844  31.813  26.952  1.00  0.00    -0.237 OA
ATOM     80  O   UNL A   1      44.305  32.689  24.702  1.00  0.00    -0.237 OA
ATOM     81  O   UNL A   1      46.329  33.462  25.880  1.00  0.00    -0.744 OA
ENDBRANCH  74  78
ENDBRANCH  57  71
BRANCH  58  82
ATOM     82  C   UNL A   1      38.872  33.827  37.840  1.00  0.00     0.023 A 
ATOM     83  C   UNL A   1      38.241  32.609  38.141  1.00  0.00     0.031 A 
ATOM     84  C   UNL A   1      38.866  34.828  38.829  1.00  0.00     0.131 A 
ATOM     85  C   UNL A   1      37.579  32.446  39.369  1.00  0.00     0.055 A 
ATOM     86  C   UNL A   1      38.266  34.636  40.076  1.00  0.00     0.041 A 
ATOM     87  F   UNL A   1      39.439  36.020  38.596  1.00  0.00    -0.206 F 
ATOM     88  C   UNL A   1      37.600  33.445  40.344  1.00  0.00     0.022 A 
BRANCH  85  89
ATOM     89  S   UNL A   1      36.568  30.960  39.622  1.00  0.00     0.124 S 
ATOM     90  O   UNL A   1      36.974  30.130  38.494  1.00  0.00    -0.237 OA
ATOM     91  O   UNL A   1      37.011  30.515  40.939  1.00  0.00    -0.237 OA
ATOM     92  O   UNL A   1      35.198  31.467  39.564  1.00  0.00    -0.744 OA
ENDBRANCH  85  89
ENDBRANCH  58  82
BRANCH  70  93
ATOM     93  C   UNL A   1      45.381  34.662  35.465  1.00  0.00     0.023 A 
ATOM     94  C   UNL A   1      45.821  35.847  36.078  1.00  0.00     0.031 A 
ATOM     95  C   UNL A   1      46.209  33.527  35.538  1.00  0.00     0.131 A 
ATOM     96  C   UNL A   1      47.074  35.880  36.706  1.00  0.00     0.055 A 
ATOM     97  C   UNL A   1      47.431  33.552  36.207  1.00  0.00     0.041 A 
ATOM     98  F   UNL A   1      45.833  32.370  34.969  1.00  0.00    -0.206 F 
ATOM     99  C   UNL A   1      47.875  34.737  36.789  1.00  0.00     0.022 A 
BRANCH  96 100
ATOM    100  S   UNL A   1      47.676  37.457  37.369  1.00  0.00     0.124 S 
ATOM    101  O   UNL A   1      48.908  37.056  38.041  1.00  0.00    -0.237 OA
ATOM    102  O   UNL A   1      47.842  38.262  36.163  1.00  0.00    -0.237 OA
ATOM    103  O   UNL A   1      46.598  37.891  38.257  1.00  0.00    -0.744 OA
ENDBRANCH  96 100
ENDBRANCH  70  93
ENDBRANCH  44  45
ENDBRANCH  37  39
ENDBRANCH  36  37
ENDBRANCH  35  36
ENDBRANCH  34  35
ENDBRANCH  33  34
ENDBRANCH  32  33
ENDBRANCH   1  32
TORSDOF 24
ENDMDL
MODEL 2
REMARK VINA RESULT:     -10.3      3.712      8.155
REMARK SMILES O=C(COCC(=O)OCCOCCOCCOC(=O)c1ccc(-c2c3nc(c(-c4cc(S(=O)(=O)[O-])ccc4F)c4ccc([nH]4)c(-c4cc(S(=O)(=O)[O-])ccc4F)c4nc(c(-c5cc(S(=O)(=O)[O-])ccc5F)c5ccc2[nH]5)C=C4)C=C3)cc1)/[NH+]=C1\S[C@@H]2CS(=O)(=O)C[C@H]2N1c1ccc(Cl)cc1
REMARK SMILES IDX 12 1 11 2 10 3 9 4 8 5 6 6 7 7 5 8 4 9 3 10 2 11 1 12 83 13
REMARK SMILES IDX 84 14 85 16 93 17 86 18 92 19 87 20 91 21 88 22 89 23 90 24
REMARK SMILES IDX 94 25 95 26 100 27 96 28 99 29 97 30 98 31 13 32 14 33 15 34
REMARK SMILES IDX 16 35 17 36 18 37 19 38 20 39 21 40 82 41 22 42 81 43 23 44
REMARK SMILES IDX 24 45 25 46 75 47 26 48 80 49 74 50 76 51 27 52 79 53 73 54
REMARK SMILES IDX 72 55 28 57 60 58 40 59 59 60 41 61 44 62 58 63 77 64 42 65
REMARK SMILES IDX 43 66 57 68 78 69 45 70 29 71 30 72 38 73 31 74 37 75 39 76
REMARK SMILES IDX 36 77 32 78 33 79 34 80 35 81 61 82 62 83 70 84 63 85 69 86
REMARK SMILES IDX 71 87 68 88 64 89 65 90 66 91 67 92 46 93 47 94 55 95 48 96
REMARK SMILES IDX 54 97 56 98 53 99 49 100 50 101 51 102 52 103
REMARK H PARENT 83 15 76 56 44 67
REMARK Flexibility Score: inf
ROOT
ATOM      1  C   UNL A   1      33.489  27.930  23.695  1.00  0.00     0.188 C 
ENDROOT
BRANCH   1   2
ATOM      2  O   UNL A   1      33.912  26.746  24.361  1.00  0.00    -0.376 OA
BRANCH   2   3
ATOM      3  C   UNL A   1      33.747  25.525  23.649  1.00  0.00     0.202 C 
BRANCH   3   4
ATOM      4  C   UNL A   1      34.324  24.260  24.304  1.00  0.00     0.261 C 
BRANCH   4   5
ATOM      5  O   UNL A   1      35.645  24.416  24.857  1.00  0.00    -0.462 OA
BRANCH   5   6
ATOM      6  C   UNL A   1      36.097  23.383  25.626  1.00  0.00     0.332 C 
ATOM      7  O   UNL A   1      35.479  22.884  26.561  1.00  0.00    -0.250 OA
BRANCH   6   8
ATOM      8  C   UNL A   1      37.463  22.840  25.163  1.00  0.00     0.283 C 
BRANCH   8   9
ATOM      9  O   UNL A   1      38.366  22.302  26.115  1.00  0.00    -0.358 OA
BRANCH   9  10
ATOM     10  C   UNL A   1      39.713  22.680  25.893  1.00  0.00     0.288 C 
BRANCH  10  11
ATOM     11  C   UNL A   1      40.710  22.713  27.067  1.00  0.00     0.333 C 
ATOM     12  O   UNL A   1      40.345  22.384  28.191  1.00  0.00    -0.244 OA
ATOM     13  N   UNL A   1      42.010  23.057  26.802  1.00  0.00    -0.202 N 
ATOM     14  C   UNL A   1      42.804  22.058  26.608  1.00  0.00     0.319 C 
ATOM     15  H   UNL A   1      42.314  23.993  26.763  1.00  0.00     0.316 HD
ATOM     16  S   UNL A   1      42.192  20.360  26.458  1.00  0.00    -0.029 SA
ATOM     17  N   UNL A   1      44.185  22.069  26.373  1.00  0.00    -0.217 N 
ATOM     18  C   UNL A   1      43.547  20.030  25.352  1.00  0.00     0.120 C 
ATOM     19  C   UNL A   1      44.713  20.724  26.072  1.00  0.00     0.212 C 
ATOM     20  C   UNL A   1      43.953  18.615  25.079  1.00  0.00     0.156 C 
ATOM     21  C   UNL A   1      45.856  20.549  25.099  1.00  0.00     0.188 C 
ATOM     22  S   UNL A   1      45.641  18.849  24.530  1.00  0.00     0.155 S 
ATOM     23  O   UNL A   1      45.651  18.848  23.081  1.00  0.00    -0.229 OA
ATOM     24  O   UNL A   1      46.492  17.976  25.307  1.00  0.00    -0.229 OA
BRANCH  17  25
ATOM     25  C   UNL A   1      45.062  23.018  26.934  1.00  0.00     0.128 A 
ATOM     26  C   UNL A   1      44.831  23.544  28.217  1.00  0.00     0.053 A 
ATOM     27  C   UNL A   1      46.198  23.478  26.245  1.00  0.00     0.053 A 
ATOM     28  C   UNL A   1      45.685  24.500  28.782  1.00  0.00     0.025 A 
ATOM     29  C   UNL A   1      47.055  24.441  26.805  1.00  0.00     0.025 A 
ATOM     30  C   UNL A   1      46.792  24.948  28.072  1.00  0.00     0.041 A 
ATOM     31  Cl  UNL A   1      47.833  26.124  28.772  1.00  0.00    -0.084 Cl
ENDBRANCH  17  25
ENDBRANCH  10  11
ENDBRANCH   9  10
ENDBRANCH   8   9
ENDBRANCH   6   8
ENDBRANCH   5   6
ENDBRANCH   4   5
ENDBRANCH   3   4
ENDBRANCH   2   3
ENDBRANCH   1   2
BRANCH   1  32
ATOM     32  C   UNL A   1      32.045  27.961  23.186  1.00  0.00     0.188 C 
BRANCH  32  33
ATOM     33  O   UNL A   1      31.227  28.990  23.742  1.00  0.00    -0.376 OA
BRANCH  33  34
ATOM     34  C   UNL A   1      31.270  29.090  25.175  1.00  0.00     0.202 C 
BRANCH  34  35
ATOM     35  C   UNL A   1      31.809  30.410  25.764  1.00  0.00     0.261 C 
BRANCH  35  36
ATOM     36  O   UNL A   1      33.054  30.258  26.477  1.00  0.00    -0.460 OA
BRANCH  36  37
ATOM     37  C   UNL A   1      33.428  31.320  27.234  1.00  0.00     0.338 C 
ATOM     38  O   UNL A   1      32.706  32.225  27.607  1.00  0.00    -0.246 OA
BRANCH  37  39
ATOM     39  C   UNL A   1      34.810  31.077  27.708  1.00  0.00     0.060 A 
ATOM     40  C   UNL A   1      35.280  29.761  27.759  1.00  0.00     0.016 A 
ATOM     41  C   UNL A   1      35.640  32.122  28.101  1.00  0.00     0.016 A 
ATOM     42  C   UNL A   1      36.540  29.460  28.261  1.00  0.00     0.010 A 
ATOM     43  C   UNL A   1      36.915  31.826  28.599  1.00  0.00     0.010 A 
ATOM     44  C   UNL A   1      37.358  30.491  28.717  1.00  0.00    -0.014 A 
BRANCH  44  45
ATOM     45  C   UNL A   1      38.580  30.175  29.498  1.00  0.00     0.031 A 
ATOM     46  C   UNL A   1      38.607  30.590  30.943  1.00  0.00     0.074 A 
ATOM     47  C   UNL A   1      39.618  29.501  28.969  1.00  0.00     0.049 A 
ATOM     48  N   UNL A   1      39.618  30.681  31.762  1.00  0.00    -0.248 NA
ATOM     49  C   UNL A   1      37.311  30.965  31.535  1.00  0.00     0.031 C 
ATOM     50  C   UNL A   1      39.657  28.910  27.631  1.00  0.00     0.029 A 
ATOM     51  N   UNL A   1      40.852  29.208  29.498  1.00  0.00    -0.354 N 
ATOM     52  C   UNL A   1      39.094  31.190  32.946  1.00  0.00     0.074 A 
ATOM     53  C   UNL A   1      37.673  31.370  32.742  1.00  0.00     0.031 C 
ATOM     54  C   UNL A   1      40.860  28.341  27.440  1.00  0.00     0.029 A 
ATOM     55  C   UNL A   1      41.705  28.603  28.603  1.00  0.00     0.049 A 
ATOM     56  H   UNL A   1      41.102  29.412  30.428  1.00  0.00     0.167 HD
ATOM     57  C   UNL A   1      39.753  31.496  34.088  1.00  0.00     0.034 A 
ATOM     58  C   UNL A   1      43.030  28.357  28.690  1.00  0.00     0.034 A 
ATOM     59  C   UNL A   1      41.160  31.260  34.280  1.00  0.00     0.049 A 
ATOM     60  C   UNL A   1      43.763  28.784  29.944  1.00  0.00     0.074 A 
ATOM     61  C   UNL A   1      41.937  31.535  35.390  1.00  0.00     0.029 A 
ATOM     62  N   UNL A   1      42.000  30.681  33.337  1.00  0.00    -0.354 N 
ATOM     63  N   UNL A   1      43.285  29.353  31.028  1.00  0.00    -0.248 NA
ATOM     64  C   UNL A   1      45.213  28.552  29.981  1.00  0.00     0.031 C 
ATOM     65  C   UNL A   1      43.258  31.178  35.096  1.00  0.00     0.029 A 
ATOM     66  C   UNL A   1      43.290  30.612  33.830  1.00  0.00     0.049 A 
ATOM     67  H   UNL A   1      41.717  30.367  32.447  1.00  0.00     0.167 HD
ATOM     68  C   UNL A   1      44.372  29.511  31.886  1.00  0.00     0.074 A 
ATOM     69  C   UNL A   1      45.526  28.971  31.199  1.00  0.00     0.031 C 
ATOM     70  C   UNL A   1      44.417  30.049  33.130  1.00  0.00     0.034 A 
BRANCH  57  71
ATOM     71  C   UNL A   1      38.981  32.199  35.172  1.00  0.00     0.023 A 
ATOM     72  C   UNL A   1      38.565  31.550  36.347  1.00  0.00     0.031 A 
ATOM     73  C   UNL A   1      38.642  33.555  35.010  1.00  0.00     0.131 A 
ATOM     74  C   UNL A   1      37.795  32.247  37.292  1.00  0.00     0.055 A 
ATOM     75  C   UNL A   1      37.936  34.261  35.982  1.00  0.00     0.041 A 
ATOM     76  F   UNL A   1      38.988  34.214  33.892  1.00  0.00    -0.206 F 
ATOM     77  C   UNL A   1      37.499  33.604  37.129  1.00  0.00     0.022 A 
BRANCH  74  78
ATOM     78  S   UNL A   1      37.093  31.333  38.691  1.00  0.00     0.124 S 
ATOM     79  O   UNL A   1      37.028  29.977  38.154  1.00  0.00    -0.237 OA
ATOM     80  O   UNL A   1      38.080  31.555  39.742  1.00  0.00    -0.237 OA
ATOM     81  O   UNL A   1      35.797  31.975  38.906  1.00  0.00    -0.744 OA
ENDBRANCH  74  78
ENDBRANCH  57  71
BRANCH  58  82
ATOM     82  C   UNL A   1      43.786  27.777  27.536  1.00  0.00     0.023 A 
ATOM     83  C   UNL A   1      44.921  28.416  27.014  1.00  0.00     0.031 A 
ATOM     84  C   UNL A   1      43.320  26.626  26.872  1.00  0.00     0.131 A 
ATOM     85  C   UNL A   1      45.513  27.942  25.831  1.00  0.00     0.055 A 
ATOM     86  C   UNL A   1      43.953  26.118  25.736  1.00  0.00     0.041 A 
ATOM     87  F   UNL A   1      42.229  25.980  27.313  1.00  0.00    -0.206 F 
ATOM     88  C   UNL A   1      45.046  26.789  25.197  1.00  0.00     0.022 A 
BRANCH  85  89
ATOM     89  S   UNL A   1      46.818  28.934  25.052  1.00  0.00     0.124 S 
ATOM     90  O   UNL A   1      46.408  30.289  25.402  1.00  0.00    -0.237 OA
ATOM     91  O   UNL A   1      48.016  28.434  25.719  1.00  0.00    -0.237 OA
ATOM     92  O   UNL A   1      46.705  28.593  23.636  1.00  0.00    -0.744 OA
ENDBRANCH  85  89
ENDBRANCH  58  82
BRANCH  70  93
ATOM     93  C   UNL A   1      45.738  30.005  33.856  1.00  0.00     0.023 A 
ATOM     94  C   UNL A   1      46.156  28.872  34.572  1.00  0.00     0.031 A 
ATOM     95  C   UNL A   1      46.599  31.115  33.803  1.00  0.00     0.131 A 
ATOM     96  C   UNL A   1      47.388  28.889  35.242  1.00  0.00     0.055 A 
ATOM     97  C   UNL A   1      47.845  31.108  34.429  1.00  0.00     0.041 A 
ATOM     98  F   UNL A   1      46.246  32.222  33.129  1.00  0.00    -0.206 F 
ATOM     99  C   UNL A   1      48.242  29.993  35.162  1.00  0.00     0.022 A 
BRANCH  96 100
ATOM    100  S   UNL A   1      47.841  27.467  36.272  1.00  0.00     0.124 S 
ATOM    101  O   UNL A   1      46.837  26.480  35.889  1.00  0.00    -0.237 OA
ATOM    102  O   UNL A   1      49.206  27.188  35.839  1.00  0.00    -0.237 OA
ATOM    103  O   UNL A   1      47.719  27.978  37.637  1.00  0.00    -0.744 OA
ENDBRANCH  96 100
ENDBRANCH  70  93
ENDBRANCH  44  45
ENDBRANCH  37  39
ENDBRANCH  36  37
ENDBRANCH  35  36
ENDBRANCH  34  35
ENDBRANCH  33  34
ENDBRANCH  32  33
ENDBRANCH   1  32
TORSDOF 24
ENDMDL
MODEL 3
REMARK VINA RESULT:     -10.0      3.779      4.232
REMARK SMILES O=C(COCC(=O)OCCOCCOCCOC(=O)c1ccc(-c2c3nc(c(-c4cc(S(=O)(=O)[O-])ccc4F)c4ccc([nH]4)c(-c4cc(S(=O)(=O)[O-])ccc4F)c4nc(c(-c5cc(S(=O)(=O)[O-])ccc5F)c5ccc2[nH]5)C=C4)C=C3)cc1)/[NH+]=C1\S[C@@H]2CS(=O)(=O)C[C@H]2N1c1ccc(Cl)cc1
REMARK SMILES IDX 12 1 11 2 10 3 9 4 8 5 6 6 7 7 5 8 4 9 3 10 2 11 1 12 83 13
REMARK SMILES IDX 84 14 85 16 93 17 86 18 92 19 87 20 91 21 88 22 89 23 90 24
REMARK SMILES IDX 94 25 95 26 100 27 96 28 99 29 97 30 98 31 13 32 14 33 15 34
REMARK SMILES IDX 16 35 17 36 18 37 19 38 20 39 21 40 82 41 22 42 81 43 23 44
REMARK SMILES IDX 24 45 25 46 75 47 26 48 80 49 74 50 76 51 27 52 79 53 73 54
REMARK SMILES IDX 72 55 28 57 60 58 40 59 59 60 41 61 44 62 58 63 77 64 42 65
REMARK SMILES IDX 43 66 57 68 78 69 45 70 29 71 30 72 38 73 31 74 37 75 39 76
REMARK SMILES IDX 36 77 32 78 33 79 34 80 35 81 61 82 62 83 70 84 63 85 69 86
REMARK SMILES IDX 71 87 68 88 64 89 65 90 66 91 67 92 46 93 47 94 55 95 48 96
REMARK SMILES IDX 54 97 56 98 53 99 49 100 50 101 51 102 52 103
REMARK H PARENT 83 15 76 56 44 67
REMARK Flexibility Score: inf
ROOT
ATOM      1  C   UNL A   1      32.490  27.612  24.926  1.00  0.00     0.188 C 
ENDROOT
BRANCH   1   2
ATOM      2  O   UNL A   1      33.183  26.490  24.394  1.00  0.00    -0.376 OA
BRANCH   2   3
ATOM      3  C   UNL A   1      33.451  25.424  25.298  1.00  0.00     0.202 C 
BRANCH   3   4
ATOM      4  C   UNL A   1      34.590  24.465  24.917  1.00  0.00     0.261 C 
BRANCH   4   5
ATOM      5  O   UNL A   1      35.326  23.930  26.034  1.00  0.00    -0.462 OA
BRANCH   5   6
ATOM      6  C   UNL A   1      35.739  22.634  25.912  1.00  0.00     0.332 C 
ATOM      7  O   UNL A   1      35.117  21.660  26.321  1.00  0.00    -0.250 OA
BRANCH   6   8
ATOM      8  C   UNL A   1      37.062  22.495  25.134  1.00  0.00     0.283 C 
BRANCH   8   9
ATOM      9  O   UNL A   1      38.242  23.101  25.639  1.00  0.00    -0.358 OA
BRANCH   9  10
ATOM     10  C   UNL A   1      39.240  22.169  26.014  1.00  0.00     0.288 C 
BRANCH  10  11
ATOM     11  C   UNL A   1      40.403  22.607  26.925  1.00  0.00     0.333 C 
ATOM     12  O   UNL A   1      40.299  22.507  28.143  1.00  0.00    -0.244 OA
ATOM     13  N   UNL A   1      41.558  23.045  26.331  1.00  0.00    -0.202 N 
ATOM     14  C   UNL A   1      42.468  22.140  26.188  1.00  0.00     0.319 C 
ATOM     15  H   UNL A   1      41.685  23.977  26.039  1.00  0.00     0.316 HD
ATOM     16  S   UNL A   1      42.142  20.389  26.520  1.00  0.00    -0.029 SA
ATOM     17  N   UNL A   1      43.764  22.275  25.675  1.00  0.00    -0.217 N 
ATOM     18  C   UNL A   1      43.322  19.988  25.249  1.00  0.00     0.120 C 
ATOM     19  C   UNL A   1      44.457  20.978  25.555  1.00  0.00     0.212 C 
ATOM     20  C   UNL A   1      43.915  18.614  25.196  1.00  0.00     0.156 C 
ATOM     21  C   UNL A   1      45.429  20.729  24.424  1.00  0.00     0.188 C 
ATOM     22  S   UNL A   1      45.416  18.929  24.273  1.00  0.00     0.155 S 
ATOM     23  O   UNL A   1      45.176  18.589  22.886  1.00  0.00    -0.229 OA
ATOM     24  O   UNL A   1      46.526  18.382  25.020  1.00  0.00    -0.229 OA
BRANCH  17  25
ATOM     25  C   UNL A   1      44.548  23.435  25.836  1.00  0.00     0.128 A 
ATOM     26  C   UNL A   1      45.501  23.525  26.864  1.00  0.00     0.053 A 
ATOM     27  C   UNL A   1      44.414  24.545  24.983  1.00  0.00     0.053 A 
ATOM     28  C   UNL A   1      46.276  24.678  27.047  1.00  0.00     0.025 A 
ATOM     29  C   UNL A   1      45.185  25.706  25.165  1.00  0.00     0.025 A 
ATOM     30  C   UNL A   1      46.112  25.766  26.199  1.00  0.00     0.041 A 
ATOM     31  Cl  UNL A   1      47.066  27.178  26.432  1.00  0.00    -0.084 Cl
ENDBRANCH  17  25
ENDBRANCH  10  11
ENDBRANCH   9  10
ENDBRANCH   8   9
ENDBRANCH   6   8
ENDBRANCH   5   6
ENDBRANCH   4   5
ENDBRANCH   3   4
ENDBRANCH   2   3
ENDBRANCH   1   2
BRANCH   1  32
ATOM     32  C   UNL A   1      33.291  28.906  25.096  1.00  0.00     0.188 C 
BRANCH  32  33
ATOM     33  O   UNL A   1      32.543  30.027  25.567  1.00  0.00    -0.376 OA
BRANCH  33  34
ATOM     34  C   UNL A   1      32.741  30.349  26.953  1.00  0.00     0.202 C 
BRANCH  34  35
ATOM     35  C   UNL A   1      33.387  31.715  27.264  1.00  0.00     0.261 C 
BRANCH  35  36
ATOM     36  O   UNL A   1      33.969  31.790  28.582  1.00  0.00    -0.460 OA
BRANCH  36  37
ATOM     37  C   UNL A   1      34.199  33.043  29.049  1.00  0.00     0.338 C 
ATOM     38  O   UNL A   1      33.547  34.036  28.789  1.00  0.00    -0.246 OA
BRANCH  37  39
ATOM     39  C   UNL A   1      35.244  32.956  30.094  1.00  0.00     0.060 A 
ATOM     40  C   UNL A   1      36.188  33.983  30.187  1.00  0.00     0.016 A 
ATOM     41  C   UNL A   1      35.305  31.881  30.976  1.00  0.00     0.016 A 
ATOM     42  C   UNL A   1      37.236  33.926  31.099  1.00  0.00     0.010 A 
ATOM     43  C   UNL A   1      36.353  31.822  31.903  1.00  0.00     0.010 A 
ATOM     44  C   UNL A   1      37.345  32.825  31.945  1.00  0.00    -0.014 A 
BRANCH  44  45
ATOM     45  C   UNL A   1      38.589  32.614  32.725  1.00  0.00     0.031 A 
ATOM     46  C   UNL A   1      39.710  31.866  32.058  1.00  0.00     0.074 A 
ATOM     47  C   UNL A   1      38.751  33.104  33.968  1.00  0.00     0.049 A 
ATOM     48  N   UNL A   1      40.772  31.320  32.581  1.00  0.00    -0.248 NA
ATOM     49  C   UNL A   1      39.604  31.707  30.597  1.00  0.00     0.031 C 
ATOM     50  C   UNL A   1      37.806  33.973  34.671  1.00  0.00     0.029 A 
ATOM     51  N   UNL A   1      39.775  32.929  34.869  1.00  0.00    -0.354 N 
ATOM     52  C   UNL A   1      41.427  30.690  31.527  1.00  0.00     0.074 A 
ATOM     53  C   UNL A   1      40.649  30.940  30.333  1.00  0.00     0.031 C 
ATOM     54  C   UNL A   1      38.288  34.240  35.897  1.00  0.00     0.029 A 
ATOM     55  C   UNL A   1      39.526  33.493  36.100  1.00  0.00     0.049 A 
ATOM     56  H   UNL A   1      40.606  32.446  34.654  1.00  0.00     0.167 HD
ATOM     57  C   UNL A   1      42.562  29.956  31.568  1.00  0.00     0.034 A 
ATOM     58  C   UNL A   1      40.188  33.359  37.270  1.00  0.00     0.034 A 
ATOM     59  C   UNL A   1      43.341  29.765  32.763  1.00  0.00     0.049 A 
ATOM     60  C   UNL A   1      41.408  32.463  37.311  1.00  0.00     0.074 A 
ATOM     61  C   UNL A   1      44.505  29.035  32.927  1.00  0.00     0.029 A 
ATOM     62  N   UNL A   1      43.039  30.318  34.000  1.00  0.00    -0.354 N 
ATOM     63  N   UNL A   1      41.974  31.791  36.334  1.00  0.00    -0.248 NA
ATOM     64  C   UNL A   1      42.070  32.296  38.612  1.00  0.00     0.031 C 
ATOM     65  C   UNL A   1      44.873  29.100  34.276  1.00  0.00     0.029 A 
ATOM     66  C   UNL A   1      43.979  29.929  34.937  1.00  0.00     0.049 A 
ATOM     67  H   UNL A   1      42.267  30.903  34.183  1.00  0.00     0.167 HD
ATOM     68  C   UNL A   1      43.077  31.153  36.899  1.00  0.00     0.074 A 
ATOM     69  C   UNL A   1      43.101  31.526  38.298  1.00  0.00     0.031 C 
ATOM     70  C   UNL A   1      43.990  30.334  36.320  1.00  0.00     0.034 A 
BRANCH  57  71
ATOM     71  C   UNL A   1      42.972  29.233  30.312  1.00  0.00     0.023 A 
ATOM     72  C   UNL A   1      42.259  28.134  29.805  1.00  0.00     0.031 A 
ATOM     73  C   UNL A   1      44.120  29.655  29.617  1.00  0.00     0.131 A 
ATOM     74  C   UNL A   1      42.729  27.467  28.663  1.00  0.00     0.055 A 
ATOM     75  C   UNL A   1      44.544  29.031  28.445  1.00  0.00     0.041 A 
ATOM     76  F   UNL A   1      44.855  30.682  30.075  1.00  0.00    -0.206 F 
ATOM     77  C   UNL A   1      43.852  27.923  27.965  1.00  0.00     0.022 A 
BRANCH  74  78
ATOM     78  S   UNL A   1      41.915  25.928  28.155  1.00  0.00     0.124 S 
ATOM     79  O   UNL A   1      40.648  26.013  28.874  1.00  0.00    -0.237 OA
ATOM     80  O   UNL A   1      41.837  26.074  26.706  1.00  0.00    -0.237 OA
ATOM     81  O   UNL A   1      42.826  24.886  28.628  1.00  0.00    -0.744 OA
ENDBRANCH  74  78
ENDBRANCH  57  71
BRANCH  58  82
ATOM     82  C   UNL A   1      39.672  33.987  38.526  1.00  0.00     0.023 A 
ATOM     83  C   UNL A   1      38.884  33.260  39.433  1.00  0.00     0.031 A 
ATOM     84  C   UNL A   1      39.872  35.356  38.785  1.00  0.00     0.131 A 
ATOM     85  C   UNL A   1      38.275  33.915  40.517  1.00  0.00     0.055 A 
ATOM     86  C   UNL A   1      39.322  35.988  39.902  1.00  0.00     0.041 A 
ATOM     87  F   UNL A   1      40.603  36.108  37.946  1.00  0.00    -0.206 F 
ATOM     88  C   UNL A   1      38.501  35.270  40.765  1.00  0.00     0.022 A 
BRANCH  85  89
ATOM     89  S   UNL A   1      37.069  33.002  41.520  1.00  0.00     0.124 S 
ATOM     90  O   UNL A   1      37.292  33.574  42.843  1.00  0.00    -0.237 OA
ATOM     91  O   UNL A   1      35.810  33.356  40.872  1.00  0.00    -0.237 OA
ATOM     92  O   UNL A   1      37.481  31.609  41.363  1.00  0.00    -0.744 OA
ENDBRANCH  85  89
ENDBRANCH  58  82
BRANCH  70  93
ATOM     93  C   UNL A   1      45.134  29.856  37.178  1.00  0.00     0.023 A 
ATOM     94  C   UNL A   1      45.068  28.656  37.905  1.00  0.00     0.031 A 
ATOM     95  C   UNL A   1      46.318  30.611  37.244  1.00  0.00     0.131 A 
ATOM     96  C   UNL A   1      46.155  28.265  38.700  1.00  0.00     0.055 A 
ATOM     97  C   UNL A   1      47.415  30.191  37.995  1.00  0.00     0.041 A 
ATOM     98  F   UNL A   1      46.432  31.764  36.565  1.00  0.00    -0.206 F 
ATOM     99  C   UNL A   1      47.334  29.015  38.737  1.00  0.00     0.022 A 
BRANCH  96 100
ATOM    100  S   UNL A   1      45.991  26.785  39.735  1.00  0.00     0.124 S 
ATOM    101  O   UNL A   1      44.646  26.940  40.279  1.00  0.00    -0.237 OA
ATOM    102  O   UNL A   1      46.166  25.705  38.769  1.00  0.00    -0.237 OA
ATOM    103  O   UNL A   1      47.074  26.924  40.708  1.00  0.00    -0.744 OA
ENDBRANCH  96 100
ENDBRANCH  70  93
ENDBRANCH  44  45
ENDBRANCH  37  39
ENDBRANCH  36  37
ENDBRANCH  35  36
ENDBRANCH  34  35
ENDBRANCH  33  34
ENDBRANCH  32  33
ENDBRANCH   1  32
TORSDOF 24
ENDMDL
