MODEL 1
REMARK VINA RESULT:      -9.1      0.000      0.000
REMARK SMILES CCOC(=O)c1c(NC(=O)[C@@H]2[C@@H]3CC[C@@H](C3)[C@@H]2C(=O)OCCOCCOCCOC(=O)c2ccc(-c3c4nc(c(-c5cc(S(=O)(=O)[O-])ccc5F)c5ccc([nH]5)c(-c5cc(S(=O)(=O)[O-])ccc5F)c5nc(c(-c6cc(S(=O)(=O)[O-])ccc6F)c6ccc3[nH]6)C=C5)C=C4)cc2)sc2c1CCCC2
REMARK SMILES IDX 24 1 23 2 22 3 21 4 20 5 18 6 19 7 17 8 11 9 12 10 13 11
REMARK SMILES IDX 16 12 15 13 14 14 9 15 8 16 10 18 7 19 6 20 97 21 95 22
REMARK SMILES IDX 96 23 98 24 101 25 99 26 100 27 4 28 5 29 3 30 2 31 1 32
REMARK SMILES IDX 25 33 26 34 27 35 28 36 29 37 30 38 31 39 32 40 33 41 94 42
REMARK SMILES IDX 34 43 93 44 35 45 36 46 37 47 87 48 38 49 92 50 86 51 88 52
REMARK SMILES IDX 39 53 91 54 85 55 84 56 40 58 72 59 52 60 71 61 53 62 56 63
REMARK SMILES IDX 70 64 89 65 54 66 55 67 69 69 90 70 57 71 41 72 42 73 50 74
REMARK SMILES IDX 43 75 49 76 51 77 48 78 44 79 45 80 46 81 47 82 73 83 74 84
REMARK SMILES IDX 82 85 75 86 81 87 83 88 80 89 76 90 77 91 78 92 79 93 58 94
REMARK SMILES IDX 59 95 67 96 60 97 66 98 68 99 65 100 61 101 62 102 63 103
REMARK SMILES IDX 64 104
REMARK H PARENT 8 17 88 57 56 68
REMARK Flexibility Score: inf
ROOT
ATOM      1  C   UNL A   1      36.720  29.686  28.948  1.00  0.00     0.188 C 
ENDROOT
BRANCH   1   2
ATOM      2  O   UNL A   1      36.013  29.327  27.761  1.00  0.00    -0.376 OA
BRANCH   2   3
ATOM      3  C   UNL A   1      34.820  30.025  27.428  1.00  0.00     0.202 C 
BRANCH   3   4
ATOM      4  C   UNL A   1      33.570  29.162  27.238  1.00  0.00     0.261 C 
BRANCH   4   5
ATOM      5  O   UNL A   1      33.771  27.977  26.438  1.00  0.00    -0.463 OA
BRANCH   5   6
ATOM      6  C   UNL A   1      33.361  28.066  25.151  1.00  0.00     0.310 C 
ATOM      7  O   UNL A   1      33.740  28.935  24.373  1.00  0.00    -0.252 OA
BRANCH   6   8
ATOM      8  C   UNL A   1      32.227  27.120  24.804  1.00  0.00     0.115 C 
ATOM      9  C   UNL A   1      32.145  26.188  23.580  1.00  0.00     0.096 C 
ATOM     10  C   UNL A   1      30.766  26.546  22.963  1.00  0.00     0.003 C 
ATOM     11  C   UNL A   1      30.725  27.956  22.370  1.00  0.00     0.005 C 
ATOM     12  C   UNL A   1      29.936  26.754  24.236  1.00  0.00     0.009 C 
ATOM     13  C   UNL A   1      30.860  27.854  24.760  1.00  0.00     0.004 C 
ATOM     14  C   UNL A   1      30.824  28.859  23.600  1.00  0.00     0.005 C 
BRANCH   9  15
ATOM     15  C   UNL A   1      33.302  26.087  22.626  1.00  0.00     0.229 C 
ATOM     16  N   UNL A   1      34.106  24.996  22.568  1.00  0.00    -0.317 N 
ATOM     17  H   UNL A   1      34.857  25.125  21.945  1.00  0.00     0.170 HD
ATOM     18  O   UNL A   1      33.574  27.002  21.844  1.00  0.00    -0.274 OA
BRANCH  16  19
ATOM     19  C   UNL A   1      34.137  23.754  23.158  1.00  0.00     0.110 A 
ATOM     20  C   UNL A   1      33.324  22.669  23.455  1.00  0.00     0.098 A 
ATOM     21  C   UNL A   1      34.080  21.627  24.127  1.00  0.00    -0.017 A 
ATOM     22  S   UNL A   1      35.761  23.487  23.676  1.00  0.00    -0.122 S 
ATOM     23  C   UNL A   1      35.412  21.945  24.262  1.00  0.00     0.011 A 
ATOM     24  C   UNL A   1      33.538  20.287  24.547  1.00  0.00     0.038 C 
ATOM     25  C   UNL A   1      36.458  21.055  24.854  1.00  0.00     0.047 C 
ATOM     26  C   UNL A   1      34.525  19.519  25.436  1.00  0.00     0.005 C 
ATOM     27  C   UNL A   1      35.958  19.603  24.895  1.00  0.00     0.006 C 
BRANCH  20  28
ATOM     28  C   UNL A   1      31.935  22.433  23.109  1.00  0.00     0.341 C 
ATOM     29  O   UNL A   1      31.592  21.595  22.272  1.00  0.00    -0.246 OA
BRANCH  28  30
ATOM     30  O   UNL A   1      31.084  23.128  23.912  1.00  0.00    -0.462 OA
BRANCH  30  31
ATOM     31  C   UNL A   1      30.944  22.662  25.266  1.00  0.00     0.230 C 
ATOM     32  C   UNL A   1      31.007  23.842  26.221  1.00  0.00     0.049 C 
ENDBRANCH  30  31
ENDBRANCH  28  30
ENDBRANCH  20  28
ENDBRANCH  16  19
ENDBRANCH   9  15
ENDBRANCH   6   8
ENDBRANCH   5   6
ENDBRANCH   4   5
ENDBRANCH   3   4
ENDBRANCH   2   3
ENDBRANCH   1   2
BRANCH   1  33
ATOM     33  C   UNL A   1      35.926  30.274  30.115  1.00  0.00     0.188 C 
BRANCH  33  34
ATOM     34  O   UNL A   1      36.511  29.894  31.363  1.00  0.00    -0.376 OA
BRANCH  34  35
ATOM     35  C   UNL A   1      37.554  30.768  31.792  1.00  0.00     0.202 C 
BRANCH  35  36
ATOM     36  C   UNL A   1      36.932  31.974  32.504  1.00  0.00     0.261 C 
BRANCH  36  37
ATOM     37  O   UNL A   1      37.913  32.991  32.781  1.00  0.00    -0.460 OA
BRANCH  37  38
ATOM     38  C   UNL A   1      37.865  34.047  31.936  1.00  0.00     0.338 C 
ATOM     39  O   UNL A   1      37.034  34.944  31.953  1.00  0.00    -0.246 OA
BRANCH  38  40
ATOM     40  C   UNL A   1      39.091  34.073  31.115  1.00  0.00     0.060 A 
ATOM     41  C   UNL A   1      40.293  33.739  31.747  1.00  0.00     0.016 A 
ATOM     42  C   UNL A   1      39.083  34.427  29.762  1.00  0.00     0.016 A 
ATOM     43  C   UNL A   1      41.491  33.781  31.036  1.00  0.00     0.010 A 
ATOM     44  C   UNL A   1      40.291  34.503  29.058  1.00  0.00     0.010 A 
ATOM     45  C   UNL A   1      41.504  34.205  29.701  1.00  0.00    -0.014 A 
BRANCH  45  46
ATOM     46  C   UNL A   1      42.803  34.563  29.083  1.00  0.00     0.031 A 
ATOM     47  C   UNL A   1      43.802  33.458  28.863  1.00  0.00     0.074 A 
ATOM     48  C   UNL A   1      43.087  35.816  28.689  1.00  0.00     0.049 A 
ATOM     49  N   UNL A   1      44.990  33.503  28.319  1.00  0.00    -0.248 NA
ATOM     50  C   UNL A   1      43.391  32.116  29.307  1.00  0.00     0.031 C 
ATOM     51  C   UNL A   1      42.187  36.963  28.790  1.00  0.00     0.029 A 
ATOM     52  N   UNL A   1      44.228  36.332  28.123  1.00  0.00    -0.354 N 
ATOM     53  C   UNL A   1      45.451  32.192  28.318  1.00  0.00     0.074 A 
ATOM     54  C   UNL A   1      44.429  31.382  28.944  1.00  0.00     0.031 C 
ATOM     55  C   UNL A   1      42.822  38.056  28.327  1.00  0.00     0.029 A 
ATOM     56  C   UNL A   1      44.180  37.691  27.920  1.00  0.00     0.049 A 
ATOM     57  H   UNL A   1      45.007  35.779  27.884  1.00  0.00     0.167 HD
ATOM     58  C   UNL A   1      46.622  31.701  27.845  1.00  0.00     0.034 A 
ATOM     59  C   UNL A   1      45.134  38.541  27.487  1.00  0.00     0.034 A 
ATOM     60  C   UNL A   1      47.683  32.521  27.319  1.00  0.00     0.049 A 
ATOM     61  C   UNL A   1      46.492  37.995  27.107  1.00  0.00     0.074 A 
ATOM     62  C   UNL A   1      48.937  32.137  26.882  1.00  0.00     0.029 A 
ATOM     63  N   UNL A   1      47.623  33.903  27.194  1.00  0.00    -0.354 N 
ATOM     64  N   UNL A   1      46.916  36.751  27.106  1.00  0.00    -0.248 NA
ATOM     65  C   UNL A   1      47.500  38.971  26.667  1.00  0.00     0.031 C 
ATOM     66  C   UNL A   1      49.660  33.292  26.556  1.00  0.00     0.029 A 
ATOM     67  C   UNL A   1      48.832  34.391  26.722  1.00  0.00     0.049 A 
ATOM     68  H   UNL A   1      46.838  34.456  27.411  1.00  0.00     0.167 HD
ATOM     69  C   UNL A   1      48.231  36.797  26.645  1.00  0.00     0.074 A 
ATOM     70  C   UNL A   1      48.525  38.188  26.365  1.00  0.00     0.031 C 
ATOM     71  C   UNL A   1      49.116  35.783  26.464  1.00  0.00     0.034 A 
BRANCH  58  72
ATOM     72  C   UNL A   1      46.822  30.214  27.976  1.00  0.00     0.023 A 
ATOM     73  C   UNL A   1      46.436  29.332  26.951  1.00  0.00     0.031 A 
ATOM     74  C   UNL A   1      47.308  29.666  29.175  1.00  0.00     0.131 A 
ATOM     75  C   UNL A   1      46.470  27.947  27.172  1.00  0.00     0.055 A 
ATOM     76  C   UNL A   1      47.405  28.287  29.363  1.00  0.00     0.041 A 
ATOM     77  F   UNL A   1      47.659  30.463  30.197  1.00  0.00    -0.206 F 
ATOM     78  C   UNL A   1      46.969  27.419  28.366  1.00  0.00     0.022 A 
BRANCH  75  79
ATOM     79  S   UNL A   1      45.699  26.853  25.946  1.00  0.00     0.124 S 
ATOM     80  O   UNL A   1      44.493  26.422  26.648  1.00  0.00    -0.237 OA
ATOM     81  O   UNL A   1      45.496  27.747  24.812  1.00  0.00    -0.237 OA
ATOM     82  O   UNL A   1      46.701  25.807  25.745  1.00  0.00    -0.744 OA
ENDBRANCH  75  79
ENDBRANCH  58  72
BRANCH  59  83
ATOM     83  C   UNL A   1      44.883  40.011  27.458  1.00  0.00     0.023 A 
ATOM     84  C   UNL A   1      44.537  40.675  26.271  1.00  0.00     0.031 A 
ATOM     85  C   UNL A   1      45.075  40.787  28.617  1.00  0.00     0.131 A 
ATOM     86  C   UNL A   1      44.439  42.076  26.256  1.00  0.00     0.055 A 
ATOM     87  C   UNL A   1      44.931  42.175  28.609  1.00  0.00     0.041 A 
ATOM     88  F   UNL A   1      45.416  40.203  29.776  1.00  0.00    -0.206 F 
ATOM     89  C   UNL A   1      44.624  42.829  27.420  1.00  0.00     0.022 A 
BRANCH  86  90
ATOM     90  S   UNL A   1      44.149  42.915  24.674  1.00  0.00     0.124 S 
ATOM     91  O   UNL A   1      45.038  42.181  23.781  1.00  0.00    -0.237 OA
ATOM     92  O   UNL A   1      42.720  42.701  24.474  1.00  0.00    -0.237 OA
ATOM     93  O   UNL A   1      44.537  44.298  24.945  1.00  0.00    -0.744 OA
ENDBRANCH  86  90
ENDBRANCH  59  83
BRANCH  71  94
ATOM     94  C   UNL A   1      50.470  36.140  25.902  1.00  0.00     0.023 A 
ATOM     95  C   UNL A   1      51.602  36.280  26.724  1.00  0.00     0.031 A 
ATOM     96  C   UNL A   1      50.627  36.344  24.519  1.00  0.00     0.131 A 
ATOM     97  C   UNL A   1      52.833  36.657  26.162  1.00  0.00     0.055 A 
ATOM     98  C   UNL A   1      51.863  36.671  23.960  1.00  0.00     0.041 A 
ATOM     99  F   UNL A   1      49.580  36.225  23.688  1.00  0.00    -0.206 F 
ATOM    100  C   UNL A   1      52.972  36.840  24.783  1.00  0.00     0.022 A 
BRANCH  97 101
ATOM    101  S   UNL A   1      54.236  36.985  27.265  1.00  0.00     0.124 S 
ATOM    102  O   UNL A   1      55.131  37.749  26.403  1.00  0.00    -0.237 OA
ATOM    103  O   UNL A   1      53.609  37.727  28.354  1.00  0.00    -0.237 OA
ATOM    104  O   UNL A   1      54.711  35.649  27.622  1.00  0.00    -0.744 OA
ENDBRANCH  97 101
ENDBRANCH  71  94
ENDBRANCH  45  46
ENDBRANCH  38  40
ENDBRANCH  37  38
ENDBRANCH  36  37
ENDBRANCH  35  36
ENDBRANCH  34  35
ENDBRANCH  33  34
ENDBRANCH   1  33
TORSDOF 25
ENDMDL
MODEL 2
REMARK VINA RESULT:      -9.0      2.784      4.486
REMARK SMILES CCOC(=O)c1c(NC(=O)[C@@H]2[C@@H]3CC[C@@H](C3)[C@@H]2C(=O)OCCOCCOCCOC(=O)c2ccc(-c3c4nc(c(-c5cc(S(=O)(=O)[O-])ccc5F)c5ccc([nH]5)c(-c5cc(S(=O)(=O)[O-])ccc5F)c5nc(c(-c6cc(S(=O)(=O)[O-])ccc6F)c6ccc3[nH]6)C=C5)C=C4)cc2)sc2c1CCCC2
REMARK SMILES IDX 24 1 23 2 22 3 21 4 20 5 18 6 19 7 17 8 11 9 12 10 13 11
REMARK SMILES IDX 16 12 15 13 14 14 9 15 8 16 10 18 7 19 6 20 97 21 95 22
REMARK SMILES IDX 96 23 98 24 101 25 99 26 100 27 4 28 5 29 3 30 2 31 1 32
REMARK SMILES IDX 25 33 26 34 27 35 28 36 29 37 30 38 31 39 32 40 33 41 94 42
REMARK SMILES IDX 34 43 93 44 35 45 36 46 37 47 87 48 38 49 92 50 86 51 88 52
REMARK SMILES IDX 39 53 91 54 85 55 84 56 40 58 72 59 52 60 71 61 53 62 56 63
REMARK SMILES IDX 70 64 89 65 54 66 55 67 69 69 90 70 57 71 41 72 42 73 50 74
REMARK SMILES IDX 43 75 49 76 51 77 48 78 44 79 45 80 46 81 47 82 73 83 74 84
REMARK SMILES IDX 82 85 75 86 81 87 83 88 80 89 76 90 77 91 78 92 79 93 58 94
REMARK SMILES IDX 59 95 67 96 60 97 66 98 68 99 65 100 61 101 62 102 63 103
REMARK SMILES IDX 64 104
REMARK H PARENT 8 17 88 57 56 68
REMARK Flexibility Score: inf
ROOT
ATOM      1  C   UNL A   1      33.530  29.062  26.481  1.00  0.00     0.188 C 
ENDROOT
BRANCH   1   2
ATOM      2  O   UNL A   1      33.556  28.817  25.075  1.00  0.00    -0.376 OA
BRANCH   2   3
ATOM      3  C   UNL A   1      33.173  27.537  24.590  1.00  0.00     0.202 C 
BRANCH   3   4
ATOM      4  C   UNL A   1      34.095  26.374  24.967  1.00  0.00     0.261 C 
BRANCH   4   5
ATOM      5  O   UNL A   1      33.653  25.080  24.504  1.00  0.00    -0.463 OA
BRANCH   5   6
ATOM      6  C   UNL A   1      34.557  24.079  24.620  1.00  0.00     0.310 C 
ATOM      7  O   UNL A   1      35.118  23.554  23.664  1.00  0.00    -0.252 OA
BRANCH   6   8
ATOM      8  C   UNL A   1      34.669  23.515  26.023  1.00  0.00     0.115 C 
ATOM      9  C   UNL A   1      35.466  22.270  26.457  1.00  0.00     0.096 C 
ATOM     10  C   UNL A   1      34.410  21.434  27.229  1.00  0.00     0.003 C 
ATOM     11  C   UNL A   1      33.306  20.883  26.325  1.00  0.00     0.005 C 
ATOM     12  C   UNL A   1      33.647  22.549  27.955  1.00  0.00     0.009 C 
ATOM     13  C   UNL A   1      33.273  23.256  26.651  1.00  0.00     0.004 C 
ATOM     14  C   UNL A   1      32.542  22.136  25.896  1.00  0.00     0.005 C 
BRANCH   9  15
ATOM     15  C   UNL A   1      36.312  21.528  25.460  1.00  0.00     0.229 C 
ATOM     16  N   UNL A   1      37.656  21.691  25.380  1.00  0.00    -0.317 N 
ATOM     17  H   UNL A   1      38.044  21.190  24.627  1.00  0.00     0.170 HD
ATOM     18  O   UNL A   1      35.815  20.728  24.662  1.00  0.00    -0.274 OA
BRANCH  16  19
ATOM     19  C   UNL A   1      38.616  22.379  26.086  1.00  0.00     0.110 A 
ATOM     20  C   UNL A   1      39.827  22.196  26.738  1.00  0.00     0.098 A 
ATOM     21  C   UNL A   1      40.312  23.450  27.287  1.00  0.00    -0.017 A 
ATOM     22  S   UNL A   1      38.112  24.028  26.140  1.00  0.00    -0.122 S 
ATOM     23  C   UNL A   1      39.486  24.510  26.989  1.00  0.00     0.011 A 
ATOM     24  C   UNL A   1      41.618  23.642  28.010  1.00  0.00     0.038 C 
ATOM     25  C   UNL A   1      39.742  25.937  27.358  1.00  0.00     0.047 C 
ATOM     26  C   UNL A   1      41.718  25.027  28.663  1.00  0.00     0.005 C 
ATOM     27  C   UNL A   1      41.221  26.133  27.722  1.00  0.00     0.006 C 
BRANCH  20  28
ATOM     28  C   UNL A   1      40.650  21.006  26.843  1.00  0.00     0.341 C 
ATOM     29  O   UNL A   1      40.529  20.193  27.764  1.00  0.00    -0.246 OA
BRANCH  28  30
ATOM     30  O   UNL A   1      41.442  20.834  25.750  1.00  0.00    -0.462 OA
BRANCH  30  31
ATOM     31  C   UNL A   1      42.857  20.715  25.986  1.00  0.00     0.230 C 
ATOM     32  C   UNL A   1      43.361  19.405  25.404  1.00  0.00     0.049 C 
ENDBRANCH  30  31
ENDBRANCH  28  30
ENDBRANCH  20  28
ENDBRANCH  16  19
ENDBRANCH   9  15
ENDBRANCH   6   8
ENDBRANCH   5   6
ENDBRANCH   4   5
ENDBRANCH   3   4
ENDBRANCH   2   3
ENDBRANCH   1   2
BRANCH   1  33
ATOM     33  C   UNL A   1      34.704  29.817  27.107  1.00  0.00     0.188 C 
BRANCH  33  34
ATOM     34  O   UNL A   1      34.232  30.829  28.000  1.00  0.00    -0.376 OA
BRANCH  34  35
ATOM     35  C   UNL A   1      35.080  31.974  28.063  1.00  0.00     0.202 C 
BRANCH  35  36
ATOM     36  C   UNL A   1      35.884  31.928  29.367  1.00  0.00     0.261 C 
BRANCH  36  37
ATOM     37  O   UNL A   1      36.487  33.201  29.664  1.00  0.00    -0.460 OA
BRANCH  37  38
ATOM     38  C   UNL A   1      37.310  33.181  30.738  1.00  0.00     0.338 C 
ATOM     39  O   UNL A   1      37.100  32.606  31.796  1.00  0.00    -0.246 OA
BRANCH  38  40
ATOM     40  C   UNL A   1      38.606  33.787  30.372  1.00  0.00     0.060 A 
ATOM     41  C   UNL A   1      38.755  34.236  29.057  1.00  0.00     0.016 A 
ATOM     42  C   UNL A   1      39.663  33.907  31.280  1.00  0.00     0.016 A 
ATOM     43  C   UNL A   1      39.967  34.783  28.638  1.00  0.00     0.010 A 
ATOM     44  C   UNL A   1      40.892  34.424  30.849  1.00  0.00     0.010 A 
ATOM     45  C   UNL A   1      41.055  34.840  29.518  1.00  0.00    -0.014 A 
BRANCH  45  46
ATOM     46  C   UNL A   1      42.405  35.103  28.962  1.00  0.00     0.031 A 
ATOM     47  C   UNL A   1      43.367  33.948  28.886  1.00  0.00     0.074 A 
ATOM     48  C   UNL A   1      42.765  36.312  28.499  1.00  0.00     0.049 A 
ATOM     49  N   UNL A   1      44.588  33.908  28.418  1.00  0.00    -0.248 NA
ATOM     50  C   UNL A   1      42.874  32.658  29.397  1.00  0.00     0.031 C 
ATOM     51  C   UNL A   1      41.910  37.496  28.460  1.00  0.00     0.029 A 
ATOM     52  N   UNL A   1      43.959  36.742  27.972  1.00  0.00    -0.354 N 
ATOM     53  C   UNL A   1      44.992  32.584  28.539  1.00  0.00     0.074 A 
ATOM     54  C   UNL A   1      43.900  31.862  29.154  1.00  0.00     0.031 C 
ATOM     55  C   UNL A   1      42.618  38.528  27.963  1.00  0.00     0.029 A 
ATOM     56  C   UNL A   1      43.981  38.083  27.671  1.00  0.00     0.049 A 
ATOM     57  H   UNL A   1      44.727  36.144  27.824  1.00  0.00     0.167 HD
ATOM     58  C   UNL A   1      46.168  32.016  28.179  1.00  0.00     0.034 A 
ATOM     59  C   UNL A   1      44.995  38.862  27.241  1.00  0.00     0.034 A 
ATOM     60  C   UNL A   1      47.293  32.754  27.666  1.00  0.00     0.049 A 
ATOM     61  C   UNL A   1      46.350  38.239  26.989  1.00  0.00     0.074 A 
ATOM     62  C   UNL A   1      48.555  32.292  27.339  1.00  0.00     0.029 A 
ATOM     63  N   UNL A   1      47.300  34.125  27.439  1.00  0.00    -0.354 N 
ATOM     64  N   UNL A   1      46.720  36.984  27.104  1.00  0.00    -0.248 NA
ATOM     65  C   UNL A   1      47.423  39.141  26.547  1.00  0.00     0.031 C 
ATOM     66  C   UNL A   1      49.344  33.392  26.979  1.00  0.00     0.029 A 
ATOM     67  C   UNL A   1      48.554  34.531  27.013  1.00  0.00     0.049 A 
ATOM     68  H   UNL A   1      46.526  34.721  27.565  1.00  0.00     0.167 HD
ATOM     69  C   UNL A   1      48.061  36.946  26.727  1.00  0.00     0.074 A 
ATOM     70  C   UNL A   1      48.430  38.300  26.368  1.00  0.00     0.031 C 
ATOM     71  C   UNL A   1      48.913  35.888  26.676  1.00  0.00     0.034 A 
BRANCH  58  72
ATOM     72  C   UNL A   1      46.297  30.536  28.428  1.00  0.00     0.023 A 
ATOM     73  C   UNL A   1      46.948  30.042  29.572  1.00  0.00     0.031 A 
ATOM     74  C   UNL A   1      45.858  29.614  27.462  1.00  0.00     0.131 A 
ATOM     75  C   UNL A   1      47.209  28.668  29.688  1.00  0.00     0.055 A 
ATOM     76  C   UNL A   1      46.059  28.242  27.617  1.00  0.00     0.041 A 
ATOM     77  F   UNL A   1      45.262  30.036  26.336  1.00  0.00    -0.206 F 
ATOM     78  C   UNL A   1      46.752  27.763  28.726  1.00  0.00     0.022 A 
BRANCH  75  79
ATOM     79  S   UNL A   1      48.294  28.100  31.026  1.00  0.00     0.124 S 
ATOM     80  O   UNL A   1      49.489  28.911  30.805  1.00  0.00    -0.237 OA
ATOM     81  O   UNL A   1      47.516  28.418  32.218  1.00  0.00    -0.237 OA
ATOM     82  O   UNL A   1      48.459  26.673  30.750  1.00  0.00    -0.744 OA
ENDBRANCH  75  79
ENDBRANCH  58  72
BRANCH  59  83
ATOM     83  C   UNL A   1      44.809  40.335  27.092  1.00  0.00     0.023 A 
ATOM     84  C   UNL A   1      44.468  40.911  25.858  1.00  0.00     0.031 A 
ATOM     85  C   UNL A   1      45.059  41.196  28.177  1.00  0.00     0.131 A 
ATOM     86  C   UNL A   1      44.431  42.310  25.727  1.00  0.00     0.055 A 
ATOM     87  C   UNL A   1      44.976  42.583  28.054  1.00  0.00     0.041 A 
ATOM     88  F   UNL A   1      45.397  40.696  29.375  1.00  0.00    -0.206 F 
ATOM     89  C   UNL A   1      44.673  43.148  26.819  1.00  0.00     0.022 A 
BRANCH  86  90
ATOM     90  S   UNL A   1      44.146  43.025  24.084  1.00  0.00     0.124 S 
ATOM     91  O   UNL A   1      42.697  42.918  23.960  1.00  0.00    -0.237 OA
ATOM     92  O   UNL A   1      44.677  44.375  24.244  1.00  0.00    -0.237 OA
ATOM     93  O   UNL A   1      44.916  42.157  23.195  1.00  0.00    -0.744 OA
ENDBRANCH  86  90
ENDBRANCH  59  83
BRANCH  71  94
ATOM     94  C   UNL A   1      50.313  36.152  26.178  1.00  0.00     0.023 A 
ATOM     95  C   UNL A   1      51.401  36.282  27.058  1.00  0.00     0.031 A 
ATOM     96  C   UNL A   1      50.559  36.276  24.799  1.00  0.00     0.131 A 
ATOM     97  C   UNL A   1      52.679  36.572  26.552  1.00  0.00     0.055 A 
ATOM     98  C   UNL A   1      51.839  36.514  24.298  1.00  0.00     0.041 A 
ATOM     99  F   UNL A   1      49.555  36.161  23.914  1.00  0.00    -0.206 F 
ATOM    100  C   UNL A   1      52.906  36.675  25.177  1.00  0.00     0.022 A 
BRANCH  97 101
ATOM    101  S   UNL A   1      54.031  36.891  27.720  1.00  0.00     0.124 S 
ATOM    102  O   UNL A   1      55.094  37.359  26.836  1.00  0.00    -0.237 OA
ATOM    103  O   UNL A   1      53.449  37.894  28.605  1.00  0.00    -0.237 OA
ATOM    104  O   UNL A   1      54.268  35.587  28.336  1.00  0.00    -0.744 OA
ENDBRANCH  97 101
ENDBRANCH  71  94
ENDBRANCH  45  46
ENDBRANCH  38  40
ENDBRANCH  37  38
ENDBRANCH  36  37
ENDBRANCH  35  36
ENDBRANCH  34  35
ENDBRANCH  33  34
ENDBRANCH   1  33
TORSDOF 25
ENDMDL
MODEL 3
REMARK VINA RESULT:      -8.8      5.515     14.056
REMARK SMILES CCOC(=O)c1c(NC(=O)[C@@H]2[C@@H]3CC[C@@H](C3)[C@@H]2C(=O)OCCOCCOCCOC(=O)c2ccc(-c3c4nc(c(-c5cc(S(=O)(=O)[O-])ccc5F)c5ccc([nH]5)c(-c5cc(S(=O)(=O)[O-])ccc5F)c5nc(c(-c6cc(S(=O)(=O)[O-])ccc6F)c6ccc3[nH]6)C=C5)C=C4)cc2)sc2c1CCCC2
REMARK SMILES IDX 24 1 23 2 22 3 21 4 20 5 18 6 19 7 17 8 11 9 12 10 13 11
REMARK SMILES IDX 16 12 15 13 14 14 9 15 8 16 10 18 7 19 6 20 97 21 95 22
REMARK SMILES IDX 96 23 98 24 101 25 99 26 100 27 4 28 5 29 3 30 2 31 1 32
REMARK SMILES IDX 25 33 26 34 27 35 28 36 29 37 30 38 31 39 32 40 33 41 94 42
REMARK SMILES IDX 34 43 93 44 35 45 36 46 37 47 87 48 38 49 92 50 86 51 88 52
REMARK SMILES IDX 39 53 91 54 85 55 84 56 40 58 72 59 52 60 71 61 53 62 56 63
REMARK SMILES IDX 70 64 89 65 54 66 55 67 69 69 90 70 57 71 41 72 42 73 50 74
REMARK SMILES IDX 43 75 49 76 51 77 48 78 44 79 45 80 46 81 47 82 73 83 74 84
REMARK SMILES IDX 82 85 75 86 81 87 83 88 80 89 76 90 77 91 78 92 79 93 58 94
REMARK SMILES IDX 59 95 67 96 60 97 66 98 68 99 65 100 61 101 62 102 63 103
REMARK SMILES IDX 64 104
REMARK H PARENT 8 17 88 57 56 68
REMARK Flexibility Score: inf
ROOT
ATOM      1  C   UNL A   1      44.419  43.840  31.394  1.00  0.00     0.188 C 
ENDROOT
BRANCH   1   2
ATOM      2  O   UNL A   1      44.275  44.059  29.990  1.00  0.00    -0.376 OA
BRANCH   2   3
ATOM      3  C   UNL A   1      45.286  43.588  29.110  1.00  0.00     0.202 C 
BRANCH   3   4
ATOM      4  C   UNL A   1      44.850  42.531  28.093  1.00  0.00     0.261 C 
BRANCH   4   5
ATOM      5  O   UNL A   1      45.342  41.199  28.358  1.00  0.00    -0.463 OA
BRANCH   5   6
ATOM      6  C   UNL A   1      44.640  40.489  29.273  1.00  0.00     0.310 C 
ATOM      7  O   UNL A   1      44.702  40.687  30.482  1.00  0.00    -0.252 OA
BRANCH   6   8
ATOM      8  C   UNL A   1      43.923  39.285  28.693  1.00  0.00     0.115 C 
ATOM      9  C   UNL A   1      44.114  38.685  27.287  1.00  0.00     0.096 C 
ATOM     10  C   UNL A   1      42.663  38.619  26.738  1.00  0.00     0.003 C 
ATOM     11  C   UNL A   1      42.057  40.000  26.484  1.00  0.00     0.005 C 
ATOM     12  C   UNL A   1      41.903  38.209  28.006  1.00  0.00     0.009 C 
ATOM     13  C   UNL A   1      42.381  39.433  28.788  1.00  0.00     0.004 C 
ATOM     14  C   UNL A   1      41.893  40.579  27.889  1.00  0.00     0.005 C 
BRANCH   9  15
ATOM     15  C   UNL A   1      45.157  39.245  26.362  1.00  0.00     0.229 C 
ATOM     16  N   UNL A   1      46.454  38.847  26.398  1.00  0.00    -0.317 N 
ATOM     17  H   UNL A   1      47.016  39.366  25.779  1.00  0.00     0.170 HD
ATOM     18  O   UNL A   1      44.878  40.101  25.516  1.00  0.00    -0.274 OA
BRANCH  16  19
ATOM     19  C   UNL A   1      47.182  37.900  27.081  1.00  0.00     0.110 A 
ATOM     20  C   UNL A   1      47.447  36.538  27.103  1.00  0.00     0.098 A 
ATOM     21  C   UNL A   1      48.385  36.213  28.163  1.00  0.00    -0.017 A 
ATOM     22  S   UNL A   1      48.064  38.736  28.306  1.00  0.00    -0.122 S 
ATOM     23  C   UNL A   1      48.814  37.327  28.848  1.00  0.00     0.011 A 
ATOM     24  C   UNL A   1      48.942  34.844  28.447  1.00  0.00     0.038 C 
ATOM     25  C   UNL A   1      49.824  37.328  29.951  1.00  0.00     0.047 C 
ATOM     26  C   UNL A   1      49.717  34.800  29.772  1.00  0.00     0.005 C 
ATOM     27  C   UNL A   1      50.631  36.021  29.932  1.00  0.00     0.006 C 
BRANCH  20  28
ATOM     28  C   UNL A   1      47.006  35.496  26.196  1.00  0.00     0.341 C 
ATOM     29  O   UNL A   1      47.577  35.258  25.128  1.00  0.00    -0.246 OA
BRANCH  28  30
ATOM     30  O   UNL A   1      46.006  34.743  26.731  1.00  0.00    -0.462 OA
BRANCH  30  31
ATOM     31  C   UNL A   1      44.866  35.453  27.248  1.00  0.00     0.230 C 
ATOM     32  C   UNL A   1      43.601  34.941  26.580  1.00  0.00     0.049 C 
ENDBRANCH  30  31
ENDBRANCH  28  30
ENDBRANCH  20  28
ENDBRANCH  16  19
ENDBRANCH   9  15
ENDBRANCH   6   8
ENDBRANCH   5   6
ENDBRANCH   4   5
ENDBRANCH   3   4
ENDBRANCH   2   3
ENDBRANCH   1   2
BRANCH   1  33
ATOM     33  C   UNL A   1      43.247  44.201  32.308  1.00  0.00     0.188 C 
BRANCH  33  34
ATOM     34  O   UNL A   1      43.329  43.478  33.539  1.00  0.00    -0.376 OA
BRANCH  34  35
ATOM     35  C   UNL A   1      43.174  42.069  33.382  1.00  0.00     0.202 C 
BRANCH  35  36
ATOM     36  C   UNL A   1      44.257  41.355  34.199  1.00  0.00     0.261 C 
BRANCH  36  37
ATOM     37  O   UNL A   1      44.605  40.083  33.621  1.00  0.00    -0.460 OA
BRANCH  37  38
ATOM     38  C   UNL A   1      44.324  39.023  34.414  1.00  0.00     0.338 C 
ATOM     39  O   UNL A   1      44.278  39.031  35.636  1.00  0.00    -0.246 OA
BRANCH  38  40
ATOM     40  C   UNL A   1      43.869  37.894  33.579  1.00  0.00     0.060 A 
ATOM     41  C   UNL A   1      43.536  36.705  34.233  1.00  0.00     0.016 A 
ATOM     42  C   UNL A   1      43.777  37.980  32.185  1.00  0.00     0.016 A 
ATOM     43  C   UNL A   1      43.135  35.591  33.498  1.00  0.00     0.010 A 
ATOM     44  C   UNL A   1      43.408  36.849  31.445  1.00  0.00     0.010 A 
ATOM     45  C   UNL A   1      43.111  35.642  32.098  1.00  0.00    -0.014 A 
BRANCH  45  46
ATOM     46  C   UNL A   1      43.015  34.369  31.344  1.00  0.00     0.031 A 
ATOM     47  C   UNL A   1      41.659  33.726  31.225  1.00  0.00     0.074 A 
ATOM     48  C   UNL A   1      44.081  33.811  30.745  1.00  0.00     0.049 A 
ATOM     49  N   UNL A   1      41.305  32.635  30.598  1.00  0.00    -0.248 NA
ATOM     50  C   UNL A   1      40.550  34.425  31.895  1.00  0.00     0.031 C 
ATOM     51  C   UNL A   1      45.435  34.361  30.734  1.00  0.00     0.029 A 
ATOM     52  N   UNL A   1      44.186  32.643  30.029  1.00  0.00    -0.354 N 
ATOM     53  C   UNL A   1      39.929  32.537  30.763  1.00  0.00     0.074 A 
ATOM     54  C   UNL A   1      39.519  33.662  31.575  1.00  0.00     0.031 C 
ATOM     55  C   UNL A   1      46.242  33.515  30.067  1.00  0.00     0.029 A 
ATOM     56  C   UNL A   1      45.469  32.354  29.626  1.00  0.00     0.049 A 
ATOM     57  H   UNL A   1      43.415  32.067  29.823  1.00  0.00     0.167 HD
ATOM     58  C   UNL A   1      39.079  31.595  30.290  1.00  0.00     0.034 A 
ATOM     59  C   UNL A   1      45.960  31.263  29.003  1.00  0.00     0.034 A 
ATOM     60  C   UNL A   1      39.500  30.420  29.572  1.00  0.00     0.049 A 
ATOM     61  C   UNL A   1      45.017  30.145  28.616  1.00  0.00     0.074 A 
ATOM     62  C   UNL A   1      38.733  29.366  29.111  1.00  0.00     0.029 A 
ATOM     63  N   UNL A   1      40.818  30.127  29.244  1.00  0.00    -0.354 N 
ATOM     64  N   UNL A   1      43.716  30.066  28.774  1.00  0.00    -0.248 NA
ATOM     65  C   UNL A   1      45.614  28.970  27.964  1.00  0.00     0.031 C 
ATOM     66  C   UNL A   1      39.593  28.405  28.565  1.00  0.00     0.029 A 
ATOM     67  C   UNL A   1      40.889  28.892  28.619  1.00  0.00     0.049 A 
ATOM     68  H   UNL A   1      41.588  30.711  29.428  1.00  0.00     0.167 HD
ATOM     69  C   UNL A   1      43.339  28.844  28.221  1.00  0.00     0.074 A 
ATOM     70  C   UNL A   1      44.547  28.227  27.713  1.00  0.00     0.031 C 
ATOM     71  C   UNL A   1      42.105  28.281  28.134  1.00  0.00     0.034 A 
BRANCH  58  72
ATOM     72  C   UNL A   1      37.623  31.780  30.630  1.00  0.00     0.023 A 
ATOM     73  C   UNL A   1      36.739  32.411  29.737  1.00  0.00     0.031 A 
ATOM     74  C   UNL A   1      37.139  31.415  31.898  1.00  0.00     0.131 A 
ATOM     75  C   UNL A   1      35.436  32.728  30.152  1.00  0.00     0.055 A 
ATOM     76  C   UNL A   1      35.821  31.669  32.279  1.00  0.00     0.041 A 
ATOM     77  F   UNL A   1      37.950  30.839  32.799  1.00  0.00    -0.206 F 
ATOM     78  C   UNL A   1      34.967  32.345  31.411  1.00  0.00     0.022 A 
BRANCH  75  79
ATOM     79  S   UNL A   1      34.421  33.791  29.089  1.00  0.00     0.124 S 
ATOM     80  O   UNL A   1      35.363  34.852  28.741  1.00  0.00    -0.237 OA
ATOM     81  O   UNL A   1      34.046  32.887  28.007  1.00  0.00    -0.237 OA
ATOM     82  O   UNL A   1      33.325  34.203  29.965  1.00  0.00    -0.744 OA
ENDBRANCH  75  79
ENDBRANCH  58  72
BRANCH  59  83
ATOM     83  C   UNL A   1      47.427  31.120  28.770  1.00  0.00     0.023 A 
ATOM     84  C   UNL A   1      48.299  30.717  29.793  1.00  0.00     0.031 A 
ATOM     85  C   UNL A   1      47.985  31.474  27.527  1.00  0.00     0.131 A 
ATOM     86  C   UNL A   1      49.686  30.722  29.572  1.00  0.00     0.055 A 
ATOM     87  C   UNL A   1      49.361  31.433  27.297  1.00  0.00     0.041 A 
ATOM     88  F   UNL A   1      47.196  31.875  26.518  1.00  0.00    -0.206 F 
ATOM     89  C   UNL A   1      50.221  31.068  28.327  1.00  0.00     0.022 A 
BRANCH  86  90
ATOM     90  S   UNL A   1      50.794  30.352  30.960  1.00  0.00     0.124 S 
ATOM     91  O   UNL A   1      51.035  28.925  30.777  1.00  0.00    -0.237 OA
ATOM     92  O   UNL A   1      51.925  31.233  30.690  1.00  0.00    -0.237 OA
ATOM     93  O   UNL A   1      49.999  30.706  32.135  1.00  0.00    -0.744 OA
ENDBRANCH  86  90
ENDBRANCH  59  83
BRANCH  71  94
ATOM     94  C   UNL A   1      42.000  26.950  27.431  1.00  0.00     0.023 A 
ATOM     95  C   UNL A   1      42.230  25.736  28.101  1.00  0.00     0.031 A 
ATOM     96  C   UNL A   1      41.666  26.899  26.066  1.00  0.00     0.131 A 
ATOM     97  C   UNL A   1      42.165  24.524  27.395  1.00  0.00     0.055 A 
ATOM     98  C   UNL A   1      41.554  25.689  25.380  1.00  0.00     0.041 A 
ATOM     99  F   UNL A   1      41.437  28.028  25.376  1.00  0.00    -0.206 F 
ATOM    100  C   UNL A   1      41.816  24.493  26.042  1.00  0.00     0.022 A 
BRANCH  97 101
ATOM    101  S   UNL A   1      42.622  22.988  28.248  1.00  0.00     0.124 S 
ATOM    102  O   UNL A   1      43.727  22.501  27.429  1.00  0.00    -0.237 OA
ATOM    103  O   UNL A   1      42.976  23.465  29.580  1.00  0.00    -0.237 OA
ATOM    104  O   UNL A   1      41.402  22.184  28.183  1.00  0.00    -0.744 OA
ENDBRANCH  97 101
ENDBRANCH  71  94
ENDBRANCH  45  46
ENDBRANCH  38  40
ENDBRANCH  37  38
ENDBRANCH  36  37
ENDBRANCH  35  36
ENDBRANCH  34  35
ENDBRANCH  33  34
ENDBRANCH   1  33
TORSDOF 25
ENDMDL
