MODEL 1
REMARK VINA RESULT:     -10.5      0.000      0.000
REMARK SMILES O=C(Nc1ccc(C(=O)OCCOCCOCCOC(=O)c2ccc(-c3c4nc(c(-c5cc(S(=O)(=O)[O-])ccc5F)c5ccc([nH]5)c(-c5cc(S(=O)(=O)[O-])ccc5F)c5nc(c(-c6cc(S(=O)(=O)[O-])ccc6F)c6ccc3[nH]6)C=C5)C=C4)cc2)cc1)c1cc(F)cc(Br)c1
REMARK SMILES IDX 15 1 14 2 13 3 12 4 11 5 10 6 8 7 9 8 7 9 4 10 5 11 86 12
REMARK SMILES IDX 6 13 85 14 3 15 1 16 2 17 87 19 88 20 94 21 89 22 92 23
REMARK SMILES IDX 90 24 91 25 93 26 16 27 17 28 18 29 19 30 20 31 21 32 22 33
REMARK SMILES IDX 23 34 84 35 24 36 83 37 25 38 26 39 27 40 77 41 28 42 82 43
REMARK SMILES IDX 76 44 78 45 29 46 81 47 75 48 74 49 30 51 62 52 42 53 61 54
REMARK SMILES IDX 43 55 46 56 60 57 79 58 44 59 45 60 59 62 80 63 47 64 31 65
REMARK SMILES IDX 32 66 40 67 33 68 39 69 41 70 38 71 34 72 35 73 36 74 37 75
REMARK SMILES IDX 63 76 64 77 72 78 65 79 71 80 73 81 70 82 66 83 67 84 68 85
REMARK SMILES IDX 69 86 48 87 49 88 57 89 50 90 56 91 58 92 55 93 51 94 52 95
REMARK SMILES IDX 53 96 54 97
REMARK H PARENT 3 18 78 50 46 61
REMARK Flexibility Score: inf
ROOT
ATOM      1  C   UNL A   1      32.803  29.822  26.508  1.00  0.00     0.188 C 
ENDROOT
BRANCH   1   2
ATOM      2  C   UNL A   1      33.023  29.480  25.020  1.00  0.00     0.188 C 
BRANCH   2   3
ATOM      3  O   UNL A   1      32.001  29.737  24.073  1.00  0.00    -0.376 OA
BRANCH   3   4
ATOM      4  C   UNL A   1      31.637  28.757  23.113  1.00  0.00     0.202 C 
BRANCH   4   5
ATOM      5  C   UNL A   1      30.334  27.949  23.212  1.00  0.00     0.261 C 
BRANCH   5   6
ATOM      6  O   UNL A   1      30.492  26.530  23.114  1.00  0.00    -0.460 OA
BRANCH   6   7
ATOM      7  C   UNL A   1      30.726  25.900  24.290  1.00  0.00     0.338 C 
ATOM      8  O   UNL A   1      29.894  25.474  25.073  1.00  0.00    -0.246 OA
BRANCH   7   9
ATOM      9  C   UNL A   1      32.173  25.634  24.443  1.00  0.00     0.060 A 
ATOM     10  C   UNL A   1      34.792  24.781  24.762  1.00  0.00     0.041 A 
ATOM     11  C   UNL A   1      34.170  24.603  23.529  1.00  0.00     0.027 A 
ATOM     12  C   UNL A   1      34.190  25.575  25.749  1.00  0.00     0.027 A 
ATOM     13  C   UNL A   1      32.841  25.001  23.385  1.00  0.00     0.018 A 
ATOM     14  C   UNL A   1      32.869  25.991  25.600  1.00  0.00     0.018 A 
BRANCH  10  15
ATOM     15  N   UNL A   1      35.920  23.988  25.040  1.00  0.00    -0.322 N 
ATOM     16  O   UNL A   1      36.946  22.078  25.753  1.00  0.00    -0.269 OA
ATOM     17  C   UNL A   1      35.914  22.655  25.422  1.00  0.00     0.255 C 
ATOM     18  H   UNL A   1      36.798  24.422  24.955  1.00  0.00     0.170 HD
BRANCH  17  19
ATOM     19  C   UNL A   1      34.647  21.878  25.375  1.00  0.00     0.044 A 
ATOM     20  C   UNL A   1      34.547  20.686  24.642  1.00  0.00     0.053 A 
ATOM     21  C   UNL A   1      33.520  22.406  26.010  1.00  0.00     0.029 A 
ATOM     22  C   UNL A   1      33.295  20.122  24.431  1.00  0.00     0.125 A 
ATOM     23  C   UNL A   1      32.279  21.798  25.814  1.00  0.00     0.021 A 
ATOM     24  F   UNL A   1      33.179  19.059  23.625  1.00  0.00    -0.207 F 
ATOM     25  C   UNL A   1      32.155  20.675  25.000  1.00  0.00     0.055 A 
ATOM     26  Br  UNL A   1      30.738  22.534  26.624  1.00  0.00    -0.051 Br
ENDBRANCH  17  19
ENDBRANCH  10  15
ENDBRANCH   7   9
ENDBRANCH   6   7
ENDBRANCH   5   6
ENDBRANCH   4   5
ENDBRANCH   3   4
ENDBRANCH   2   3
ENDBRANCH   1   2
BRANCH   1  27
ATOM     27  O   UNL A   1      31.605  30.478  26.842  1.00  0.00    -0.376 OA
BRANCH  27  28
ATOM     28  C   UNL A   1      31.260  31.696  26.205  1.00  0.00     0.202 C 
BRANCH  28  29
ATOM     29  C   UNL A   1      31.850  33.091  26.507  1.00  0.00     0.261 C 
BRANCH  29  30
ATOM     30  O   UNL A   1      32.150  33.442  27.859  1.00  0.00    -0.460 OA
BRANCH  30  31
ATOM     31  C   UNL A   1      33.215  34.260  28.038  1.00  0.00     0.338 C 
ATOM     32  O   UNL A   1      33.212  35.485  28.002  1.00  0.00    -0.246 OA
BRANCH  31  33
ATOM     33  C   UNL A   1      34.367  33.450  28.476  1.00  0.00     0.060 A 
ATOM     34  C   UNL A   1      34.142  32.154  28.958  1.00  0.00     0.016 A 
ATOM     35  C   UNL A   1      35.660  33.973  28.427  1.00  0.00     0.016 A 
ATOM     36  C   UNL A   1      35.214  31.378  29.404  1.00  0.00     0.010 A 
ATOM     37  C   UNL A   1      36.729  33.202  28.896  1.00  0.00     0.010 A 
ATOM     38  C   UNL A   1      36.511  31.908  29.405  1.00  0.00    -0.014 A 
BRANCH  38  39
ATOM     39  C   UNL A   1      37.616  31.176  30.075  1.00  0.00     0.031 A 
ATOM     40  C   UNL A   1      37.958  31.529  31.498  1.00  0.00     0.074 A 
ATOM     41  C   UNL A   1      38.301  30.209  29.435  1.00  0.00     0.049 A 
ATOM     42  N   UNL A   1      38.928  31.086  32.254  1.00  0.00    -0.248 NA
ATOM     43  C   UNL A   1      37.085  32.518  32.150  1.00  0.00     0.031 C 
ATOM     44  C   UNL A   1      38.031  29.743  28.076  1.00  0.00     0.029 A 
ATOM     45  N   UNL A   1      39.374  29.455  29.842  1.00  0.00    -0.354 N 
ATOM     46  C   UNL A   1      38.790  31.747  33.470  1.00  0.00     0.074 A 
ATOM     47  C   UNL A   1      37.660  32.643  33.337  1.00  0.00     0.031 C 
ATOM     48  C   UNL A   1      38.926  28.792  27.756  1.00  0.00     0.029 A 
ATOM     49  C   UNL A   1      39.861  28.615  28.868  1.00  0.00     0.049 A 
ATOM     50  H   UNL A   1      39.758  29.510  30.747  1.00  0.00     0.167 HD
ATOM     51  C   UNL A   1      39.537  31.617  34.594  1.00  0.00     0.034 A 
ATOM     52  C   UNL A   1      40.956  27.825  28.859  1.00  0.00     0.034 A 
ATOM     53  C   UNL A   1      40.670  30.731  34.708  1.00  0.00     0.049 A 
ATOM     54  C   UNL A   1      41.832  27.771  30.093  1.00  0.00     0.074 A 
ATOM     55  C   UNL A   1      41.483  30.511  35.806  1.00  0.00     0.029 A 
ATOM     56  N   UNL A   1      41.162  29.929  33.686  1.00  0.00    -0.354 N 
ATOM     57  N   UNL A   1      41.685  28.393  31.241  1.00  0.00    -0.248 NA
ATOM     58  C   UNL A   1      43.017  26.905  30.029  1.00  0.00     0.031 C 
ATOM     59  C   UNL A   1      42.512  29.644  35.425  1.00  0.00     0.029 A 
ATOM     60  C   UNL A   1      42.289  29.247  34.117  1.00  0.00     0.049 A 
ATOM     61  H   UNL A   1      40.768  29.857  32.787  1.00  0.00     0.167 HD
ATOM     62  C   UNL A   1      42.739  27.961  32.045  1.00  0.00     0.074 A 
ATOM     63  C   UNL A   1      43.502  27.017  31.257  1.00  0.00     0.031 C 
ATOM     64  C   UNL A   1      43.046  28.309  33.321  1.00  0.00     0.034 A 
BRANCH  51  65
ATOM     65  C   UNL A   1      39.186  32.493  35.771  1.00  0.00     0.023 A 
ATOM     66  C   UNL A   1      39.640  33.820  35.872  1.00  0.00     0.031 A 
ATOM     67  C   UNL A   1      38.384  31.991  36.813  1.00  0.00     0.131 A 
ATOM     68  C   UNL A   1      39.337  34.578  37.014  1.00  0.00     0.055 A 
ATOM     69  C   UNL A   1      38.023  32.775  37.909  1.00  0.00     0.041 A 
ATOM     70  F   UNL A   1      37.943  30.722  36.784  1.00  0.00    -0.206 F 
ATOM     71  C   UNL A   1      38.509  34.074  38.019  1.00  0.00     0.022 A 
BRANCH  68  72
ATOM     72  S   UNL A   1      40.145  36.187  37.226  1.00  0.00     0.124 S 
ATOM     73  O   UNL A   1      39.323  36.794  38.270  1.00  0.00    -0.237 OA
ATOM     74  O   UNL A   1      41.499  35.813  37.615  1.00  0.00    -0.237 OA
ATOM     75  O   UNL A   1      40.024  36.809  35.908  1.00  0.00    -0.744 OA
ENDBRANCH  68  72
ENDBRANCH  51  65
BRANCH  52  76
ATOM     76  C   UNL A   1      41.333  27.053  27.638  1.00  0.00     0.023 A 
ATOM     77  C   UNL A   1      41.132  25.666  27.563  1.00  0.00     0.031 A 
ATOM     78  C   UNL A   1      41.983  27.681  26.559  1.00  0.00     0.131 A 
ATOM     79  C   UNL A   1      41.628  24.943  26.465  1.00  0.00     0.055 A 
ATOM     80  C   UNL A   1      42.415  26.968  25.438  1.00  0.00     0.041 A 
ATOM     81  F   UNL A   1      42.211  29.004  26.580  1.00  0.00    -0.206 F 
ATOM     82  C   UNL A   1      42.254  25.588  25.395  1.00  0.00     0.022 A 
BRANCH  79  83
ATOM     83  S   UNL A   1      41.548  23.132  26.510  1.00  0.00     0.124 S 
ATOM     84  O   UNL A   1      41.970  22.851  27.878  1.00  0.00    -0.237 OA
ATOM     85  O   UNL A   1      40.142  22.884  26.209  1.00  0.00    -0.237 OA
ATOM     86  O   UNL A   1      42.488  22.723  25.470  1.00  0.00    -0.744 OA
ENDBRANCH  79  83
ENDBRANCH  52  76
BRANCH  64  87
ATOM     87  C   UNL A   1      44.226  27.616  33.965  1.00  0.00     0.023 A 
ATOM     88  C   UNL A   1      44.095  26.389  34.638  1.00  0.00     0.031 A 
ATOM     89  C   UNL A   1      45.504  28.202  33.908  1.00  0.00     0.131 A 
ATOM     90  C   UNL A   1      45.209  25.817  35.275  1.00  0.00     0.055 A 
ATOM     91  C   UNL A   1      46.621  27.596  34.484  1.00  0.00     0.041 A 
ATOM     92  F   UNL A   1      45.691  29.376  33.282  1.00  0.00    -0.206 F 
ATOM     93  C   UNL A   1      46.473  26.403  35.186  1.00  0.00     0.022 A 
BRANCH  90  94
ATOM     94  S   UNL A   1      44.963  24.347  36.309  1.00  0.00     0.124 S 
ATOM     95  O   UNL A   1      44.946  24.920  37.651  1.00  0.00    -0.237 OA
ATOM     96  O   UNL A   1      43.688  23.831  35.820  1.00  0.00    -0.237 OA
ATOM     97  O   UNL A   1      46.125  23.515  36.005  1.00  0.00    -0.744 OA
ENDBRANCH  90  94
ENDBRANCH  64  87
ENDBRANCH  38  39
ENDBRANCH  31  33
ENDBRANCH  30  31
ENDBRANCH  29  30
ENDBRANCH  28  29
ENDBRANCH  27  28
ENDBRANCH   1  27
TORSDOF 22
ENDMDL
MODEL 2
REMARK VINA RESULT:     -10.5      4.921      7.840
REMARK SMILES O=C(Nc1ccc(C(=O)OCCOCCOCCOC(=O)c2ccc(-c3c4nc(c(-c5cc(S(=O)(=O)[O-])ccc5F)c5ccc([nH]5)c(-c5cc(S(=O)(=O)[O-])ccc5F)c5nc(c(-c6cc(S(=O)(=O)[O-])ccc6F)c6ccc3[nH]6)C=C5)C=C4)cc2)cc1)c1cc(F)cc(Br)c1
REMARK SMILES IDX 15 1 14 2 13 3 12 4 11 5 10 6 8 7 9 8 7 9 4 10 5 11 86 12
REMARK SMILES IDX 6 13 85 14 3 15 1 16 2 17 87 19 88 20 94 21 89 22 92 23
REMARK SMILES IDX 90 24 91 25 93 26 16 27 17 28 18 29 19 30 20 31 21 32 22 33
REMARK SMILES IDX 23 34 84 35 24 36 83 37 25 38 26 39 27 40 77 41 28 42 82 43
REMARK SMILES IDX 76 44 78 45 29 46 81 47 75 48 74 49 30 51 62 52 42 53 61 54
REMARK SMILES IDX 43 55 46 56 60 57 79 58 44 59 45 60 59 62 80 63 47 64 31 65
REMARK SMILES IDX 32 66 40 67 33 68 39 69 41 70 38 71 34 72 35 73 36 74 37 75
REMARK SMILES IDX 63 76 64 77 72 78 65 79 71 80 73 81 70 82 66 83 67 84 68 85
REMARK SMILES IDX 69 86 48 87 49 88 57 89 50 90 56 91 58 92 55 93 51 94 52 95
REMARK SMILES IDX 53 96 54 97
REMARK H PARENT 3 18 78 50 46 61
REMARK Flexibility Score: inf
ROOT
ATOM      1  C   UNL A   1      33.906  23.564  22.574  1.00  0.00     0.188 C 
ENDROOT
BRANCH   1   2
ATOM      2  C   UNL A   1      33.637  25.045  22.911  1.00  0.00     0.188 C 
BRANCH   2   3
ATOM      3  O   UNL A   1      34.103  26.067  22.046  1.00  0.00    -0.376 OA
BRANCH   3   4
ATOM      4  C   UNL A   1      33.332  27.237  21.823  1.00  0.00     0.202 C 
BRANCH   4   5
ATOM      5  C   UNL A   1      33.713  28.601  22.418  1.00  0.00     0.261 C 
BRANCH   5   6
ATOM      6  O   UNL A   1      33.067  28.926  23.653  1.00  0.00    -0.460 OA
BRANCH   6   7
ATOM      7  C   UNL A   1      31.723  28.754  23.657  1.00  0.00     0.338 C 
ATOM      8  O   UNL A   1      30.898  29.407  23.040  1.00  0.00    -0.246 OA
BRANCH   7   9
ATOM      9  C   UNL A   1      31.371  27.528  24.405  1.00  0.00     0.060 A 
ATOM     10  C   UNL A   1      30.387  25.392  25.874  1.00  0.00     0.041 A 
ATOM     11  C   UNL A   1      29.949  25.569  24.564  1.00  0.00     0.027 A 
ATOM     12  C   UNL A   1      31.468  26.139  26.365  1.00  0.00     0.027 A 
ATOM     13  C   UNL A   1      30.419  26.665  23.842  1.00  0.00     0.018 A 
ATOM     14  C   UNL A   1      31.954  27.223  25.637  1.00  0.00     0.018 A 
BRANCH  10  15
ATOM     15  N   UNL A   1      29.592  24.601  26.723  1.00  0.00    -0.322 N 
ATOM     16  O   UNL A   1      29.024  22.643  27.749  1.00  0.00    -0.269 OA
ATOM     17  C   UNL A   1      29.837  23.287  27.092  1.00  0.00     0.255 C 
ATOM     18  H   UNL A   1      28.783  25.023  27.091  1.00  0.00     0.170 HD
BRANCH  17  19
ATOM     19  C   UNL A   1      31.136  22.651  26.744  1.00  0.00     0.044 A 
ATOM     20  C   UNL A   1      32.307  22.941  27.459  1.00  0.00     0.053 A 
ATOM     21  C   UNL A   1      31.187  21.814  25.625  1.00  0.00     0.029 A 
ATOM     22  C   UNL A   1      33.530  22.515  26.959  1.00  0.00     0.125 A 
ATOM     23  C   UNL A   1      32.426  21.366  25.166  1.00  0.00     0.021 A 
ATOM     24  F   UNL A   1      34.661  22.900  27.566  1.00  0.00    -0.207 F 
ATOM     25  C   UNL A   1      33.604  21.740  25.809  1.00  0.00     0.055 A 
ATOM     26  Br  UNL A   1      32.514  20.279  23.623  1.00  0.00    -0.051 Br
ENDBRANCH  17  19
ENDBRANCH  10  15
ENDBRANCH   7   9
ENDBRANCH   6   7
ENDBRANCH   5   6
ENDBRANCH   4   5
ENDBRANCH   3   4
ENDBRANCH   2   3
ENDBRANCH   1   2
BRANCH   1  27
ATOM     27  O   UNL A   1      35.241  23.127  22.639  1.00  0.00    -0.376 OA
BRANCH  27  28
ATOM     28  C   UNL A   1      35.980  23.277  23.838  1.00  0.00     0.202 C 
BRANCH  28  29
ATOM     29  C   UNL A   1      36.938  22.239  24.463  1.00  0.00     0.261 C 
BRANCH  29  30
ATOM     30  O   UNL A   1      37.338  22.393  25.826  1.00  0.00    -0.460 OA
BRANCH  30  31
ATOM     31  C   UNL A   1      38.579  21.949  26.136  1.00  0.00     0.338 C 
ATOM     32  O   UNL A   1      39.000  20.804  26.015  1.00  0.00    -0.246 OA
BRANCH  31  33
ATOM     33  C   UNL A   1      39.428  23.107  26.472  1.00  0.00     0.060 A 
ATOM     34  C   UNL A   1      40.278  23.026  27.583  1.00  0.00     0.016 A 
ATOM     35  C   UNL A   1      39.373  24.272  25.705  1.00  0.00     0.016 A 
ATOM     36  C   UNL A   1      41.070  24.119  27.937  1.00  0.00     0.010 A 
ATOM     37  C   UNL A   1      40.152  25.373  26.077  1.00  0.00     0.010 A 
ATOM     38  C   UNL A   1      40.990  25.311  27.205  1.00  0.00    -0.014 A 
BRANCH  38  39
ATOM     39  C   UNL A   1      41.661  26.539  27.702  1.00  0.00     0.031 A 
ATOM     40  C   UNL A   1      40.828  27.595  28.377  1.00  0.00     0.074 A 
ATOM     41  C   UNL A   1      42.989  26.712  27.564  1.00  0.00     0.049 A 
ATOM     42  N   UNL A   1      41.177  28.777  28.814  1.00  0.00    -0.248 NA
ATOM     43  C   UNL A   1      39.407  27.270  28.582  1.00  0.00     0.031 C 
ATOM     44  C   UNL A   1      43.910  25.741  26.975  1.00  0.00     0.029 A 
ATOM     45  N   UNL A   1      43.792  27.775  27.899  1.00  0.00    -0.354 N 
ATOM     46  C   UNL A   1      40.020  29.343  29.339  1.00  0.00     0.074 A 
ATOM     47  C   UNL A   1      38.954  28.385  29.137  1.00  0.00     0.031 C 
ATOM     48  C   UNL A   1      45.150  26.261  26.976  1.00  0.00     0.029 A 
ATOM     49  C   UNL A   1      45.106  27.618  27.521  1.00  0.00     0.049 A 
ATOM     50  H   UNL A   1      43.459  28.575  28.367  1.00  0.00     0.167 HD
ATOM     51  C   UNL A   1      39.863  30.550  29.937  1.00  0.00     0.034 A 
ATOM     52  C   UNL A   1      46.142  28.482  27.574  1.00  0.00     0.034 A 
ATOM     53  C   UNL A   1      40.932  31.501  30.118  1.00  0.00     0.049 A 
ATOM     54  C   UNL A   1      45.919  29.862  28.155  1.00  0.00     0.074 A 
ATOM     55  C   UNL A   1      40.883  32.744  30.726  1.00  0.00     0.029 A 
ATOM     56  N   UNL A   1      42.239  31.326  29.683  1.00  0.00    -0.354 N 
ATOM     57  N   UNL A   1      44.821  30.382  28.658  1.00  0.00    -0.248 NA
ATOM     58  C   UNL A   1      47.075  30.767  28.179  1.00  0.00     0.031 C 
ATOM     59  C   UNL A   1      42.134  33.353  30.583  1.00  0.00     0.029 A 
ATOM     60  C   UNL A   1      42.992  32.454  29.971  1.00  0.00     0.049 A 
ATOM     61  H   UNL A   1      42.580  30.520  29.233  1.00  0.00     0.167 HD
ATOM     62  C   UNL A   1      45.171  31.660  29.091  1.00  0.00     0.074 A 
ATOM     63  C   UNL A   1      46.579  31.825  28.805  1.00  0.00     0.031 C 
ATOM     64  C   UNL A   1      44.398  32.610  29.678  1.00  0.00     0.034 A 
BRANCH  51  65
ATOM     65  C   UNL A   1      38.474  30.931  30.386  1.00  0.00     0.023 A 
ATOM     66  C   UNL A   1      37.569  31.584  29.531  1.00  0.00     0.031 A 
ATOM     67  C   UNL A   1      38.049  30.638  31.695  1.00  0.00     0.131 A 
ATOM     68  C   UNL A   1      36.309  31.972  30.011  1.00  0.00     0.055 A 
ATOM     69  C   UNL A   1      36.766  30.958  32.142  1.00  0.00     0.041 A 
ATOM     70  F   UNL A   1      38.879  30.039  32.564  1.00  0.00    -0.206 F 
ATOM     71  C   UNL A   1      35.891  31.639  31.302  1.00  0.00     0.022 A 
BRANCH  68  72
ATOM     72  S   UNL A   1      35.270  33.030  28.967  1.00  0.00     0.124 S 
ATOM     73  O   UNL A   1      33.980  32.350  29.049  1.00  0.00    -0.237 OA
ATOM     74  O   UNL A   1      35.357  34.321  29.639  1.00  0.00    -0.237 OA
ATOM     75  O   UNL A   1      35.919  32.963  27.658  1.00  0.00    -0.744 OA
ENDBRANCH  68  72
ENDBRANCH  51  65
BRANCH  52  76
ATOM     76  C   UNL A   1      47.478  28.109  27.021  1.00  0.00     0.023 A 
ATOM     77  C   UNL A   1      47.691  28.015  25.637  1.00  0.00     0.031 A 
ATOM     78  C   UNL A   1      48.539  27.755  27.874  1.00  0.00     0.131 A 
ATOM     79  C   UNL A   1      48.912  27.521  25.147  1.00  0.00     0.055 A 
ATOM     80  C   UNL A   1      49.775  27.328  27.381  1.00  0.00     0.041 A 
ATOM     81  F   UNL A   1      48.390  27.817  29.207  1.00  0.00    -0.206 F 
ATOM     82  C   UNL A   1      49.960  27.192  26.010  1.00  0.00     0.022 A 
BRANCH  79  83
ATOM     83  S   UNL A   1      49.069  27.202  23.368  1.00  0.00     0.124 S 
ATOM     84  O   UNL A   1      48.547  25.844  23.264  1.00  0.00    -0.237 OA
ATOM     85  O   UNL A   1      48.234  28.255  22.798  1.00  0.00    -0.237 OA
ATOM     86  O   UNL A   1      50.502  27.342  23.122  1.00  0.00    -0.744 OA
ENDBRANCH  79  83
ENDBRANCH  52  76
BRANCH  64  87
ATOM     87  C   UNL A   1      45.077  33.892  30.104  1.00  0.00     0.023 A 
ATOM     88  C   UNL A   1      45.166  35.008  29.254  1.00  0.00     0.031 A 
ATOM     89  C   UNL A   1      45.651  33.993  31.386  1.00  0.00     0.131 A 
ATOM     90  C   UNL A   1      45.863  36.153  29.673  1.00  0.00     0.055 A 
ATOM     91  C   UNL A   1      46.283  35.159  31.821  1.00  0.00     0.041 A 
ATOM     92  F   UNL A   1      45.600  32.959  32.241  1.00  0.00    -0.206 F 
ATOM     93  C   UNL A   1      46.405  36.242  30.956  1.00  0.00     0.022 A 
BRANCH  90  94
ATOM     94  S   UNL A   1      46.141  37.490  28.478  1.00  0.00     0.124 S 
ATOM     95  O   UNL A   1      47.511  37.889  28.783  1.00  0.00    -0.237 OA
ATOM     96  O   UNL A   1      45.943  36.814  27.200  1.00  0.00    -0.237 OA
ATOM     97  O   UNL A   1      45.118  38.476  28.821  1.00  0.00    -0.744 OA
ENDBRANCH  90  94
ENDBRANCH  64  87
ENDBRANCH  38  39
ENDBRANCH  31  33
ENDBRANCH  30  31
ENDBRANCH  29  30
ENDBRANCH  28  29
ENDBRANCH  27  28
ENDBRANCH   1  27
TORSDOF 22
ENDMDL
MODEL 3
REMARK VINA RESULT:     -10.4      2.010      2.342
REMARK SMILES O=C(Nc1ccc(C(=O)OCCOCCOCCOC(=O)c2ccc(-c3c4nc(c(-c5cc(S(=O)(=O)[O-])ccc5F)c5ccc([nH]5)c(-c5cc(S(=O)(=O)[O-])ccc5F)c5nc(c(-c6cc(S(=O)(=O)[O-])ccc6F)c6ccc3[nH]6)C=C5)C=C4)cc2)cc1)c1cc(F)cc(Br)c1
REMARK SMILES IDX 15 1 14 2 13 3 12 4 11 5 10 6 8 7 9 8 7 9 4 10 5 11 86 12
REMARK SMILES IDX 6 13 85 14 3 15 1 16 2 17 87 19 88 20 94 21 89 22 92 23
REMARK SMILES IDX 90 24 91 25 93 26 16 27 17 28 18 29 19 30 20 31 21 32 22 33
REMARK SMILES IDX 23 34 84 35 24 36 83 37 25 38 26 39 27 40 77 41 28 42 82 43
REMARK SMILES IDX 76 44 78 45 29 46 81 47 75 48 74 49 30 51 62 52 42 53 61 54
REMARK SMILES IDX 43 55 46 56 60 57 79 58 44 59 45 60 59 62 80 63 47 64 31 65
REMARK SMILES IDX 32 66 40 67 33 68 39 69 41 70 38 71 34 72 35 73 36 74 37 75
REMARK SMILES IDX 63 76 64 77 72 78 65 79 71 80 73 81 70 82 66 83 67 84 68 85
REMARK SMILES IDX 69 86 48 87 49 88 57 89 50 90 56 91 58 92 55 93 51 94 52 95
REMARK SMILES IDX 53 96 54 97
REMARK H PARENT 3 18 78 50 46 61
REMARK Flexibility Score: inf
ROOT
ATOM      1  C   UNL A   1      32.958  29.858  26.672  1.00  0.00     0.188 C 
ENDROOT
BRANCH   1   2
ATOM      2  C   UNL A   1      33.122  29.625  25.155  1.00  0.00     0.188 C 
BRANCH   2   3
ATOM      3  O   UNL A   1      32.164  28.859  24.445  1.00  0.00    -0.376 OA
BRANCH   3   4
ATOM      4  C   UNL A   1      32.413  27.499  24.129  1.00  0.00     0.202 C 
BRANCH   4   5
ATOM      5  C   UNL A   1      32.223  26.932  22.714  1.00  0.00     0.261 C 
BRANCH   5   6
ATOM      6  O   UNL A   1      32.105  25.508  22.642  1.00  0.00    -0.460 OA
BRANCH   6   7
ATOM      7  C   UNL A   1      32.361  24.855  23.801  1.00  0.00     0.338 C 
ATOM      8  O   UNL A   1      31.555  24.544  24.662  1.00  0.00    -0.246 OA
BRANCH   7   9
ATOM      9  C   UNL A   1      33.769  24.404  23.828  1.00  0.00     0.060 A 
ATOM     10  C   UNL A   1      36.276  23.226  23.975  1.00  0.00     0.041 A 
ATOM     11  C   UNL A   1      35.474  22.972  22.865  1.00  0.00     0.027 A 
ATOM     12  C   UNL A   1      35.920  24.230  24.888  1.00  0.00     0.027 A 
ATOM     13  C   UNL A   1      34.201  23.537  22.813  1.00  0.00     0.018 A 
ATOM     14  C   UNL A   1      34.655  24.811  24.827  1.00  0.00     0.018 A 
BRANCH  10  15
ATOM     15  N   UNL A   1      37.319  22.322  24.244  1.00  0.00    -0.322 N 
ATOM     16  O   UNL A   1      38.197  20.443  25.197  1.00  0.00    -0.269 OA
ATOM     17  C   UNL A   1      37.208  21.112  24.911  1.00  0.00     0.255 C 
ATOM     18  H   UNL A   1      38.215  22.574  23.926  1.00  0.00     0.170 HD
BRANCH  17  19
ATOM     19  C   UNL A   1      35.861  20.569  25.239  1.00  0.00     0.044 A 
ATOM     20  C   UNL A   1      35.401  19.368  24.681  1.00  0.00     0.053 A 
ATOM     21  C   UNL A   1      35.020  21.330  26.056  1.00  0.00     0.029 A 
ATOM     22  C   UNL A   1      34.064  19.022  24.823  1.00  0.00     0.125 A 
ATOM     23  C   UNL A   1      33.690  20.939  26.216  1.00  0.00     0.021 A 
ATOM     24  F   UNL A   1      33.590  17.945  24.184  1.00  0.00    -0.207 F 
ATOM     25  C   UNL A   1      33.198  19.804  25.576  1.00  0.00     0.055 A 
ATOM     26  Br  UNL A   1      32.528  21.989  27.274  1.00  0.00    -0.051 Br
ENDBRANCH  17  19
ENDBRANCH  10  15
ENDBRANCH   7   9
ENDBRANCH   6   7
ENDBRANCH   5   6
ENDBRANCH   4   5
ENDBRANCH   3   4
ENDBRANCH   2   3
ENDBRANCH   1   2
BRANCH   1  27
ATOM     27  O   UNL A   1      31.755  30.447  27.100  1.00  0.00    -0.376 OA
BRANCH  27  28
ATOM     28  C   UNL A   1      31.363  31.711  26.594  1.00  0.00     0.202 C 
BRANCH  28  29
ATOM     29  C   UNL A   1      32.096  33.054  26.805  1.00  0.00     0.261 C 
BRANCH  29  30
ATOM     30  O   UNL A   1      32.655  33.347  28.087  1.00  0.00    -0.460 OA
BRANCH  30  31
ATOM     31  C   UNL A   1      33.784  34.096  28.086  1.00  0.00     0.338 C 
ATOM     32  O   UNL A   1      33.859  35.309  27.922  1.00  0.00    -0.246 OA
BRANCH  31  33
ATOM     33  C   UNL A   1      34.916  33.249  28.503  1.00  0.00     0.060 A 
ATOM     34  C   UNL A   1      34.654  31.990  29.059  1.00  0.00     0.016 A 
ATOM     35  C   UNL A   1      36.229  33.701  28.361  1.00  0.00     0.016 A 
ATOM     36  C   UNL A   1      35.708  31.181  29.486  1.00  0.00     0.010 A 
ATOM     37  C   UNL A   1      37.282  32.898  28.812  1.00  0.00     0.010 A 
ATOM     38  C   UNL A   1      37.028  31.642  29.395  1.00  0.00    -0.014 A 
BRANCH  38  39
ATOM     39  C   UNL A   1      38.130  30.886  30.042  1.00  0.00     0.031 A 
ATOM     40  C   UNL A   1      38.488  31.209  31.468  1.00  0.00     0.074 A 
ATOM     41  C   UNL A   1      38.797  29.922  29.379  1.00  0.00     0.049 A 
ATOM     42  N   UNL A   1      39.459  30.742  32.207  1.00  0.00    -0.248 NA
ATOM     43  C   UNL A   1      37.633  32.197  32.145  1.00  0.00     0.031 C 
ATOM     44  C   UNL A   1      38.510  29.483  28.014  1.00  0.00     0.029 A 
ATOM     45  N   UNL A   1      39.865  29.148  29.763  1.00  0.00    -0.354 N 
ATOM     46  C   UNL A   1      39.340  31.383  33.436  1.00  0.00     0.074 A 
ATOM     47  C   UNL A   1      38.220  32.293  33.329  1.00  0.00     0.031 C 
ATOM     48  C   UNL A   1      39.392  28.527  27.671  1.00  0.00     0.029 A 
ATOM     49  C   UNL A   1      40.334  28.320  28.770  1.00  0.00     0.049 A 
ATOM     50  H   UNL A   1      40.257  29.182  30.666  1.00  0.00     0.167 HD
ATOM     51  C   UNL A   1      40.095  31.223  34.551  1.00  0.00     0.034 A 
ATOM     52  C   UNL A   1      41.419  27.516  28.739  1.00  0.00     0.034 A 
ATOM     53  C   UNL A   1      41.218  30.322  34.639  1.00  0.00     0.049 A 
ATOM     54  C   UNL A   1      42.305  27.431  29.963  1.00  0.00     0.074 A 
ATOM     55  C   UNL A   1      42.038  30.074  35.727  1.00  0.00     0.029 A 
ATOM     56  N   UNL A   1      41.692  29.533  33.599  1.00  0.00    -0.354 N 
ATOM     57  N   UNL A   1      42.176  28.035  31.123  1.00  0.00    -0.248 NA
ATOM     58  C   UNL A   1      43.479  26.552  29.874  1.00  0.00     0.031 C 
ATOM     59  C   UNL A   1      43.053  29.201  35.321  1.00  0.00     0.029 A 
ATOM     60  C   UNL A   1      42.814  28.830  34.008  1.00  0.00     0.049 A 
ATOM     61  H   UNL A   1      41.289  29.481  32.703  1.00  0.00     0.167 HD
ATOM     62  C   UNL A   1      43.231  27.575  31.910  1.00  0.00     0.074 A 
ATOM     63  C   UNL A   1      43.975  26.636  31.099  1.00  0.00     0.031 C 
ATOM     64  C   UNL A   1      43.553  27.897  33.190  1.00  0.00     0.034 A 
BRANCH  51  65
ATOM     65  C   UNL A   1      39.765  32.083  35.746  1.00  0.00     0.023 A 
ATOM     66  C   UNL A   1      38.813  31.692  36.704  1.00  0.00     0.031 A 
ATOM     67  C   UNL A   1      40.413  33.319  35.928  1.00  0.00     0.131 A 
ATOM     68  C   UNL A   1      38.497  32.552  37.767  1.00  0.00     0.055 A 
ATOM     69  C   UNL A   1      40.150  34.134  37.030  1.00  0.00     0.041 A 
ATOM     70  F   UNL A   1      41.312  33.757  35.032  1.00  0.00    -0.206 F 
ATOM     71  C   UNL A   1      39.178  33.758  37.951  1.00  0.00     0.022 A 
BRANCH  68  72
ATOM     72  S   UNL A   1      37.093  32.131  38.835  1.00  0.00     0.124 S 
ATOM     73  O   UNL A   1      37.564  32.595  40.138  1.00  0.00    -0.237 OA
ATOM     74  O   UNL A   1      36.003  32.896  38.240  1.00  0.00    -0.237 OA
ATOM     75  O   UNL A   1      36.982  30.680  38.701  1.00  0.00    -0.744 OA
ENDBRANCH  68  72
ENDBRANCH  51  65
BRANCH  52  76
ATOM     76  C   UNL A   1      41.777  26.762  27.500  1.00  0.00     0.023 A 
ATOM     77  C   UNL A   1      41.549  25.381  27.399  1.00  0.00     0.031 A 
ATOM     78  C   UNL A   1      42.433  27.399  26.431  1.00  0.00     0.131 A 
ATOM     79  C   UNL A   1      42.026  24.671  26.285  1.00  0.00     0.055 A 
ATOM     80  C   UNL A   1      42.847  26.700  25.295  1.00  0.00     0.041 A 
ATOM     81  F   UNL A   1      42.687  28.717  26.477  1.00  0.00    -0.206 F 
ATOM     82  C   UNL A   1      42.660  25.324  25.225  1.00  0.00     0.022 A 
BRANCH  79  83
ATOM     83  S   UNL A   1      41.912  22.861  26.295  1.00  0.00     0.124 S 
ATOM     84  O   UNL A   1      40.467  22.656  26.331  1.00  0.00    -0.237 OA
ATOM     85  O   UNL A   1      42.578  22.509  25.045  1.00  0.00    -0.237 OA
ATOM     86  O   UNL A   1      42.627  22.480  27.510  1.00  0.00    -0.744 OA
ENDBRANCH  79  83
ENDBRANCH  52  76
BRANCH  64  87
ATOM     87  C   UNL A   1      44.730  27.180  33.811  1.00  0.00     0.023 A 
ATOM     88  C   UNL A   1      46.037  27.693  33.742  1.00  0.00     0.031 A 
ATOM     89  C   UNL A   1      44.538  25.956  34.479  1.00  0.00     0.131 A 
ATOM     90  C   UNL A   1      47.107  26.957  34.279  1.00  0.00     0.055 A 
ATOM     91  C   UNL A   1      45.595  25.264  35.070  1.00  0.00     0.041 A 
ATOM     92  F   UNL A   1      43.312  25.415  34.574  1.00  0.00    -0.206 F 
ATOM     93  C   UNL A   1      46.891  25.757  34.958  1.00  0.00     0.022 A 
BRANCH  90  94
ATOM     94  S   UNL A   1      48.800  27.542  33.989  1.00  0.00     0.124 S 
ATOM     95  O   UNL A   1      49.556  26.786  34.982  1.00  0.00    -0.237 OA
ATOM     96  O   UNL A   1      49.025  27.168  32.596  1.00  0.00    -0.237 OA
ATOM     97  O   UNL A   1      48.714  28.980  34.237  1.00  0.00    -0.744 OA
ENDBRANCH  90  94
ENDBRANCH  64  87
ENDBRANCH  38  39
ENDBRANCH  31  33
ENDBRANCH  30  31
ENDBRANCH  29  30
ENDBRANCH  28  29
ENDBRANCH  27  28
ENDBRANCH   1  27
TORSDOF 22
ENDMDL
