MODEL 1
REMARK VINA RESULT:     -14.4      0.000      0.000
REMARK SMILES Cc1ccc(NC(=O)C[C@@H](C(=O)OCCOCCOCCOC(=O)c2ccc(-c3c4nc(c(-c5cc(S(=O)(=O)[O-])ccc5F)c5ccc([nH]5)c(-c5cc(S(=O)(=O)[O-])ccc5F)c5nc(c(-c6cc(S(=O)(=O)[O-])ccc6F)c6ccc3[nH]6)C=C5)C=C4)cc2)[NH+]2CCOCC2)cc1
REMARK SMILES IDX 17 1 16 2 15 3 14 4 13 5 11 6 12 7 10 8 9 9 7 10 6 11 8 13
REMARK SMILES IDX 5 14 1 15 2 16 3 17 95 18 4 19 94 20 88 21 89 22 93 23 90 25
REMARK SMILES IDX 92 26 91 27 18 28 19 29 20 30 21 31 22 32 23 33 24 34 25 35
REMARK SMILES IDX 26 36 87 37 27 38 86 39 28 40 29 41 30 42 80 43 31 44 85 45
REMARK SMILES IDX 79 46 81 47 32 48 84 49 78 50 77 51 33 53 65 54 45 55 64 56
REMARK SMILES IDX 46 57 49 58 63 59 82 60 47 61 48 62 62 64 83 65 50 66 34 67
REMARK SMILES IDX 35 68 43 69 36 70 42 71 44 72 41 73 37 74 38 75 39 76 40 77
REMARK SMILES IDX 66 78 67 79 75 80 68 81 74 82 76 83 73 84 69 85 70 86 71 87
REMARK SMILES IDX 72 88 51 89 52 90 60 91 53 92 59 93 61 94 58 95 54 96 55 97
REMARK SMILES IDX 56 98 57 99
REMARK H PARENT 6 12 88 24 81 52 49 63
REMARK Flexibility Score: inf
ROOT
ATOM      1  C   UNL A   1      43.027  18.074  26.637  1.00  0.00     0.188 C 
ENDROOT
BRANCH   1   2
ATOM      2  O   UNL A   1      41.887  18.822  26.104  1.00  0.00    -0.376 OA
BRANCH   2   3
ATOM      3  C   UNL A   1      41.093  20.156  26.809  1.00  0.00     0.202 C 
BRANCH   3   4
ATOM      4  C   UNL A   1      39.669  21.631  25.927  1.00  0.00     0.261 C 
BRANCH   4   5
ATOM      5  O   UNL A   1      37.866  21.785  25.334  1.00  0.00    -0.459 OA
BRANCH   5   6
ATOM      6  C   UNL A   1      36.340  22.352  24.799  1.00  0.00     0.365 C 
ATOM      7  O   UNL A   1      36.205  23.304  24.030  1.00  0.00    -0.245 OA
BRANCH   6   8
ATOM      8  C   UNL A   1      34.629  21.751  25.383  1.00  0.00     0.304 C 
BRANCH   8   9
ATOM      9  C   UNL A   1      33.280  21.099  24.265  1.00  0.00     0.177 C 
BRANCH   9  10
ATOM     10  C   UNL A   1      32.412  21.852  22.753  1.00  0.00     0.231 C 
ATOM     11  N   UNL A   1      32.171  23.284  22.299  1.00  0.00    -0.326 N 
ATOM     12  H   UNL A   1      31.952  23.306  21.339  1.00  0.00     0.169 HD
ATOM     13  O   UNL A   1      32.034  21.003  21.915  1.00  0.00    -0.274 OA
BRANCH  11  14
ATOM     14  C   UNL A   1      32.166  24.718  22.887  1.00  0.00     0.041 A 
ATOM     15  C   UNL A   1      31.667  29.481  24.688  1.00  0.00     0.044 C 
ATOM     16  C   UNL A   1      32.073  28.027  24.560  1.00  0.00    -0.051 A 
ATOM     17  C   UNL A   1      30.630  27.085  24.399  1.00  0.00     0.005 A 
ATOM     18  C   UNL A   1      33.591  27.325  23.964  1.00  0.00     0.005 A 
ATOM     19  C   UNL A   1      30.671  25.518  23.460  1.00  0.00     0.026 A 
ATOM     20  C   UNL A   1      33.632  25.724  23.093  1.00  0.00     0.026 A 
ENDBRANCH  11  14
ENDBRANCH   9  10
ENDBRANCH   8   9
BRANCH   8  21
ATOM     21  N   UNL A   1      34.169  22.727  26.472  1.00  0.00    -0.319 N 
ATOM     22  C   UNL A   1      33.524  22.199  27.695  1.00  0.00     0.291 C 
ATOM     23  C   UNL A   1      33.634  24.062  26.210  1.00  0.00     0.291 C 
ATOM     24  H   UNL A   1      35.169  22.884  26.599  1.00  0.00     0.348 HD
ATOM     25  C   UNL A   1      31.997  22.283  27.638  1.00  0.00     0.221 C 
ATOM     26  C   UNL A   1      32.131  24.323  26.481  1.00  0.00     0.221 C 
ATOM     27  O   UNL A   1      31.598  23.657  27.626  1.00  0.00    -0.370 OA
ENDBRANCH   8  21
ENDBRANCH   6   8
ENDBRANCH   5   6
ENDBRANCH   4   5
ENDBRANCH   3   4
ENDBRANCH   2   3
ENDBRANCH   1   2
BRANCH   1  28
ATOM     28  C   UNL A   1      44.370  18.261  25.997  1.00  0.00     0.188 C 
BRANCH  28  29
ATOM     29  O   UNL A   1      44.207  18.365  24.596  1.00  0.00    -0.376 OA
BRANCH  29  30
ATOM     30  C   UNL A   1      44.968  19.428  24.071  1.00  0.00     0.202 C 
BRANCH  30  31
ATOM     31  C   UNL A   1      46.165  19.695  25.001  1.00  0.00     0.261 C 
BRANCH  31  32
ATOM     32  O   UNL A   1      46.031  20.997  25.649  1.00  0.00    -0.460 OA
BRANCH  32  33
ATOM     33  C   UNL A   1      45.548  22.054  24.902  1.00  0.00     0.338 C 
ATOM     34  O   UNL A   1      46.062  22.470  23.879  1.00  0.00    -0.246 OA
BRANCH  33  35
ATOM     35  C   UNL A   1      44.397  22.743  25.609  1.00  0.00     0.060 A 
ATOM     36  C   UNL A   1      43.506  23.642  24.976  1.00  0.00     0.016 A 
ATOM     37  C   UNL A   1      44.559  22.883  26.949  1.00  0.00     0.016 A 
ATOM     38  C   UNL A   1      43.029  24.841  25.642  1.00  0.00     0.010 A 
ATOM     39  C   UNL A   1      44.315  24.159  27.423  1.00  0.00     0.010 A 
ATOM     40  C   UNL A   1      43.500  25.198  26.916  1.00  0.00    -0.014 A 
BRANCH  40  41
ATOM     41  C   UNL A   1      43.349  26.701  27.808  1.00  0.00     0.031 A 
ATOM     42  C   UNL A   1      41.658  27.303  28.735  1.00  0.00     0.074 A 
ATOM     43  C   UNL A   1      44.744  27.356  27.870  1.00  0.00     0.049 A 
ATOM     44  N   UNL A   1      41.495  27.865  29.966  1.00  0.00    -0.248 NA
ATOM     45  C   UNL A   1      40.142  27.592  28.248  1.00  0.00     0.031 C 
ATOM     46  C   UNL A   1      45.337  28.491  28.834  1.00  0.00     0.029 A 
ATOM     47  N   UNL A   1      45.988  27.025  27.339  1.00  0.00    -0.354 N 
ATOM     48  C   UNL A   1      40.476  28.777  30.092  1.00  0.00     0.074 A 
ATOM     49  C   UNL A   1      39.508  28.222  29.234  1.00  0.00     0.031 C 
ATOM     50  C   UNL A   1      46.652  28.522  28.977  1.00  0.00     0.029 A 
ATOM     51  C   UNL A   1      47.058  27.848  27.815  1.00  0.00     0.049 A 
ATOM     52  H   UNL A   1      46.118  26.292  26.695  1.00  0.00     0.167 HD
ATOM     53  C   UNL A   1      40.556  30.103  30.472  1.00  0.00     0.034 A 
ATOM     54  C   UNL A   1      47.835  28.603  27.006  1.00  0.00     0.034 A 
ATOM     55  C   UNL A   1      41.913  30.745  30.524  1.00  0.00     0.049 A 
ATOM     56  C   UNL A   1      47.160  30.073  26.936  1.00  0.00     0.074 A 
ATOM     57  C   UNL A   1      42.955  30.815  31.433  1.00  0.00     0.029 A 
ATOM     58  N   UNL A   1      42.406  31.503  29.442  1.00  0.00    -0.354 N 
ATOM     59  N   UNL A   1      45.929  30.357  27.372  1.00  0.00    -0.248 NA
ATOM     60  C   UNL A   1      47.881  31.326  26.724  1.00  0.00     0.031 C 
ATOM     61  C   UNL A   1      44.121  31.390  30.783  1.00  0.00     0.029 A 
ATOM     62  C   UNL A   1      43.826  31.709  29.458  1.00  0.00     0.049 A 
ATOM     63  H   UNL A   1      41.825  31.862  28.733  1.00  0.00     0.167 HD
ATOM     64  C   UNL A   1      45.737  31.692  27.679  1.00  0.00     0.074 A 
ATOM     65  C   UNL A   1      47.002  32.254  27.173  1.00  0.00     0.031 C 
ATOM     66  C   UNL A   1      44.606  32.299  28.262  1.00  0.00     0.034 A 
BRANCH  53  67
ATOM     67  C   UNL A   1      39.298  30.745  31.107  1.00  0.00     0.023 A 
ATOM     68  C   UNL A   1      39.312  30.971  32.495  1.00  0.00     0.031 A 
ATOM     69  C   UNL A   1      38.044  31.000  30.493  1.00  0.00     0.131 A 
ATOM     70  C   UNL A   1      38.132  31.291  33.206  1.00  0.00     0.055 A 
ATOM     71  C   UNL A   1      36.858  31.243  31.204  1.00  0.00     0.041 A 
ATOM     72  F   UNL A   1      37.893  31.115  29.170  1.00  0.00    -0.206 F 
ATOM     73  C   UNL A   1      36.894  31.376  32.576  1.00  0.00     0.022 A 
BRANCH  70  74
ATOM     74  S   UNL A   1      38.232  31.577  34.992  1.00  0.00     0.124 S 
ATOM     75  O   UNL A   1      37.014  32.338  35.248  1.00  0.00    -0.237 OA
ATOM     76  O   UNL A   1      38.272  30.216  35.516  1.00  0.00    -0.237 OA
ATOM     77  O   UNL A   1      39.475  32.333  35.147  1.00  0.00    -0.744 OA
ENDBRANCH  70  74
ENDBRANCH  53  67
BRANCH  54  78
ATOM     78  C   UNL A   1      48.549  27.520  26.235  1.00  0.00     0.023 A 
ATOM     79  C   UNL A   1      48.197  27.443  24.818  1.00  0.00     0.031 A 
ATOM     80  C   UNL A   1      49.889  27.260  26.547  1.00  0.00     0.131 A 
ATOM     81  C   UNL A   1      49.189  27.343  23.810  1.00  0.00     0.055 A 
ATOM     82  C   UNL A   1      50.865  27.165  25.531  1.00  0.00     0.041 A 
ATOM     83  F   UNL A   1      50.319  27.396  27.808  1.00  0.00    -0.206 F 
ATOM     84  C   UNL A   1      50.531  27.260  24.173  1.00  0.00     0.022 A 
BRANCH  81  85
ATOM     85  S   UNL A   1      48.788  27.605  22.030  1.00  0.00     0.124 S 
ATOM     86  O   UNL A   1      48.920  26.263  21.478  1.00  0.00    -0.237 OA
ATOM     87  O   UNL A   1      47.432  28.144  22.072  1.00  0.00    -0.237 OA
ATOM     88  O   UNL A   1      49.810  28.558  21.598  1.00  0.00    -0.744 OA
ENDBRANCH  81  85
ENDBRANCH  54  78
BRANCH  66  89
ATOM     89  C   UNL A   1      44.107  33.623  27.634  1.00  0.00     0.023 A 
ATOM     90  C   UNL A   1      44.135  34.833  28.347  1.00  0.00     0.031 A 
ATOM     91  C   UNL A   1      43.694  33.765  26.288  1.00  0.00     0.131 A 
ATOM     92  C   UNL A   1      43.630  36.034  27.827  1.00  0.00     0.055 A 
ATOM     93  C   UNL A   1      43.310  34.994  25.722  1.00  0.00     0.041 A 
ATOM     94  F   UNL A   1      43.663  32.739  25.429  1.00  0.00    -0.206 F 
ATOM     95  C   UNL A   1      43.237  36.135  26.503  1.00  0.00     0.022 A 
BRANCH  92  96
ATOM     96  S   UNL A   1      43.402  37.400  28.990  1.00  0.00     0.124 S 
ATOM     97  O   UNL A   1      43.228  36.687  30.255  1.00  0.00    -0.237 OA
ATOM     98  O   UNL A   1      44.651  38.142  28.854  1.00  0.00    -0.237 OA
ATOM     99  O   UNL A   1      42.210  38.083  28.493  1.00  0.00    -0.744 OA
ENDBRANCH  92  96
ENDBRANCH  66  89
ENDBRANCH  40  41
ENDBRANCH  33  35
ENDBRANCH  32  33
ENDBRANCH  31  32
ENDBRANCH  30  31
ENDBRANCH  29  30
ENDBRANCH  28  29
ENDBRANCH   1  28
TORSDOF 24
ENDMDL
MODEL 2
REMARK VINA RESULT:     -12.1      4.488     11.151
REMARK SMILES Cc1ccc(NC(=O)C[C@@H](C(=O)OCCOCCOCCOC(=O)c2ccc(-c3c4nc(c(-c5cc(S(=O)(=O)[O-])ccc5F)c5ccc([nH]5)c(-c5cc(S(=O)(=O)[O-])ccc5F)c5nc(c(-c6cc(S(=O)(=O)[O-])ccc6F)c6ccc3[nH]6)C=C5)C=C4)cc2)[NH+]2CCOCC2)cc1
REMARK SMILES IDX 17 1 16 2 15 3 14 4 13 5 11 6 12 7 10 8 9 9 7 10 6 11 8 13
REMARK SMILES IDX 5 14 1 15 2 16 3 17 95 18 4 19 94 20 88 21 89 22 93 23 90 25
REMARK SMILES IDX 92 26 91 27 18 28 19 29 20 30 21 31 22 32 23 33 24 34 25 35
REMARK SMILES IDX 26 36 87 37 27 38 86 39 28 40 29 41 30 42 80 43 31 44 85 45
REMARK SMILES IDX 79 46 81 47 32 48 84 49 78 50 77 51 33 53 65 54 45 55 64 56
REMARK SMILES IDX 46 57 49 58 63 59 82 60 47 61 48 62 62 64 83 65 50 66 34 67
REMARK SMILES IDX 35 68 43 69 36 70 42 71 44 72 41 73 37 74 38 75 39 76 40 77
REMARK SMILES IDX 66 78 67 79 75 80 68 81 74 82 76 83 73 84 69 85 70 86 71 87
REMARK SMILES IDX 72 88 51 89 52 90 60 91 53 92 59 93 61 94 58 95 54 96 55 97
REMARK SMILES IDX 56 98 57 99
REMARK H PARENT 6 12 88 24 81 52 49 63
REMARK Flexibility Score: inf
ROOT
ATOM      1  C   UNL A   1      39.114  31.072  31.048  1.00  0.00     0.188 C 
ENDROOT
BRANCH   1   2
ATOM      2  O   UNL A   1      38.737  31.784  29.824  1.00  0.00    -0.376 OA
BRANCH   2   3
ATOM      3  C   UNL A   1      37.182  31.932  29.141  1.00  0.00     0.202 C 
BRANCH   3   4
ATOM      4  C   UNL A   1      35.869  30.406  28.175  1.00  0.00     0.261 C 
BRANCH   4   5
ATOM      5  O   UNL A   1      34.129  30.201  27.431  1.00  0.00    -0.459 OA
BRANCH   5   6
ATOM      6  C   UNL A   1      32.605  30.446  26.687  1.00  0.00     0.365 C 
ATOM      7  O   UNL A   1      32.031  31.535  26.668  1.00  0.00    -0.245 OA
BRANCH   6   8
ATOM      8  C   UNL A   1      31.481  29.114  25.917  1.00  0.00     0.304 C 
BRANCH   8   9
ATOM      9  C   UNL A   1      31.453  27.313  26.417  1.00  0.00     0.177 C 
BRANCH   9  10
ATOM     10  C   UNL A   1      30.685  25.782  25.596  1.00  0.00     0.231 C 
ATOM     11  N   UNL A   1      31.211  24.383  25.308  1.00  0.00    -0.326 N 
ATOM     12  H   UNL A   1      30.464  23.764  25.142  1.00  0.00     0.169 HD
ATOM     13  O   UNL A   1      29.475  25.918  25.307  1.00  0.00    -0.274 OA
BRANCH  11  14
ATOM     14  C   UNL A   1      32.564  23.636  25.199  1.00  0.00     0.041 A 
ATOM     15  C   UNL A   1      36.794  20.763  25.011  1.00  0.00     0.044 C 
ATOM     16  C   UNL A   1      35.728  21.778  24.653  1.00  0.00    -0.051 A 
ATOM     17  C   UNL A   1      34.206  20.953  24.602  1.00  0.00     0.005 A 
ATOM     18  C   UNL A   1      35.710  23.535  24.902  1.00  0.00     0.005 A 
ATOM     19  C   UNL A   1      32.671  21.861  25.001  1.00  0.00     0.026 A 
ATOM     20  C   UNL A   1      34.162  24.444  25.225  1.00  0.00     0.026 A 
ENDBRANCH  11  14
ENDBRANCH   9  10
ENDBRANCH   8   9
BRANCH   8  21
ATOM     21  N   UNL A   1      31.453  29.381  24.409  1.00  0.00    -0.319 N 
ATOM     22  C   UNL A   1      30.180  29.773  23.763  1.00  0.00     0.291 C 
ATOM     23  C   UNL A   1      32.261  28.657  23.429  1.00  0.00     0.291 C 
ATOM     24  H   UNL A   1      32.029  30.188  24.652  1.00  0.00     0.348 HD
ATOM     25  C   UNL A   1      29.474  28.595  23.089  1.00  0.00     0.221 C 
ATOM     26  C   UNL A   1      31.547  27.693  22.448  1.00  0.00     0.221 C 
ATOM     27  O   UNL A   1      30.268  28.132  21.991  1.00  0.00    -0.370 OA
ENDBRANCH   8  21
ENDBRANCH   6   8
ENDBRANCH   5   6
ENDBRANCH   4   5
ENDBRANCH   3   4
ENDBRANCH   2   3
ENDBRANCH   1   2
BRANCH   1  28
ATOM     28  C   UNL A   1      39.699  29.697  30.925  1.00  0.00     0.188 C 
BRANCH  28  29
ATOM     29  O   UNL A   1      38.652  28.755  30.810  1.00  0.00    -0.376 OA
BRANCH  29  30
ATOM     30  C   UNL A   1      38.484  28.340  29.473  1.00  0.00     0.202 C 
BRANCH  30  31
ATOM     31  C   UNL A   1      39.417  27.148  29.197  1.00  0.00     0.261 C 
BRANCH  31  32
ATOM     32  O   UNL A   1      39.485  26.871  27.765  1.00  0.00    -0.460 OA
BRANCH  32  33
ATOM     33  C   UNL A   1      39.474  25.553  27.350  1.00  0.00     0.338 C 
ATOM     34  O   UNL A   1      38.497  24.826  27.382  1.00  0.00    -0.246 OA
BRANCH  33  35
ATOM     35  C   UNL A   1      40.873  25.074  27.013  1.00  0.00     0.060 A 
ATOM     36  C   UNL A   1      41.661  24.272  27.872  1.00  0.00     0.016 A 
ATOM     37  C   UNL A   1      41.536  25.851  26.120  1.00  0.00     0.016 A 
ATOM     38  C   UNL A   1      43.090  24.486  28.020  1.00  0.00     0.010 A 
ATOM     39  C   UNL A   1      42.818  26.198  26.507  1.00  0.00     0.010 A 
ATOM     40  C   UNL A   1      43.732  25.555  27.373  1.00  0.00    -0.014 A 
BRANCH  40  41
ATOM     41  C   UNL A   1      45.335  26.230  27.605  1.00  0.00     0.031 A 
ATOM     42  C   UNL A   1      46.769  26.258  26.182  1.00  0.00     0.074 A 
ATOM     43  C   UNL A   1      45.367  26.906  28.991  1.00  0.00     0.049 A 
ATOM     44  N   UNL A   1      47.626  27.259  25.832  1.00  0.00    -0.248 NA
ATOM     45  C   UNL A   1      47.518  25.120  25.308  1.00  0.00     0.031 C 
ATOM     46  C   UNL A   1      46.362  27.998  29.612  1.00  0.00     0.029 A 
ATOM     47  N   UNL A   1      44.448  27.015  30.031  1.00  0.00    -0.354 N 
ATOM     48  C   UNL A   1      48.871  26.874  25.401  1.00  0.00     0.074 A 
ATOM     49  C   UNL A   1      48.565  25.685  24.712  1.00  0.00     0.031 C 
ATOM     50  C   UNL A   1      45.895  28.727  30.612  1.00  0.00     0.029 A 
ATOM     51  C   UNL A   1      44.858  27.903  31.076  1.00  0.00     0.049 A 
ATOM     52  H   UNL A   1      43.593  26.527  30.045  1.00  0.00     0.167 HD
ATOM     53  C   UNL A   1      50.102  27.206  25.934  1.00  0.00     0.034 A 
ATOM     54  C   UNL A   1      45.020  27.518  32.362  1.00  0.00     0.034 A 
ATOM     55  C   UNL A   1      50.137  27.855  27.288  1.00  0.00     0.049 A 
ATOM     56  C   UNL A   1      46.573  27.100  32.541  1.00  0.00     0.074 A 
ATOM     57  C   UNL A   1      49.996  29.138  27.788  1.00  0.00     0.029 A 
ATOM     58  N   UNL A   1      50.349  27.097  28.459  1.00  0.00    -0.354 N 
ATOM     59  N   UNL A   1      47.423  26.913  31.528  1.00  0.00    -0.248 NA
ATOM     60  C   UNL A   1      47.340  27.204  33.781  1.00  0.00     0.031 C 
ATOM     61  C   UNL A   1      49.880  29.079  29.236  1.00  0.00     0.029 A 
ATOM     62  C   UNL A   1      49.964  27.757  29.673  1.00  0.00     0.049 A 
ATOM     63  H   UNL A   1      50.730  26.190  28.444  1.00  0.00     0.167 HD
ATOM     64  C   UNL A   1      48.754  27.055  31.878  1.00  0.00     0.074 A 
ATOM     65  C   UNL A   1      48.621  27.169  33.342  1.00  0.00     0.031 C 
ATOM     66  C   UNL A   1      49.885  27.034  31.036  1.00  0.00     0.034 A 
BRANCH  53  67
ATOM     67  C   UNL A   1      51.327  27.172  24.988  1.00  0.00     0.023 A 
ATOM     68  C   UNL A   1      51.450  28.206  24.042  1.00  0.00     0.031 A 
ATOM     69  C   UNL A   1      52.283  26.133  24.835  1.00  0.00     0.131 A 
ATOM     70  C   UNL A   1      52.364  28.124  22.967  1.00  0.00     0.055 A 
ATOM     71  C   UNL A   1      53.138  26.013  23.728  1.00  0.00     0.041 A 
ATOM     72  F   UNL A   1      52.515  25.216  25.778  1.00  0.00    -0.206 F 
ATOM     73  C   UNL A   1      53.173  27.007  22.774  1.00  0.00     0.022 A 
BRANCH  70  74
ATOM     74  S   UNL A   1      52.470  29.500  21.795  1.00  0.00     0.124 S 
ATOM     75  O   UNL A   1      53.867  29.902  21.920  1.00  0.00    -0.237 OA
ATOM     76  O   UNL A   1      52.086  28.863  20.541  1.00  0.00    -0.237 OA
ATOM     77  O   UNL A   1      51.502  30.466  22.316  1.00  0.00    -0.744 OA
ENDBRANCH  70  74
ENDBRANCH  53  67
BRANCH  54  78
ATOM     78  C   UNL A   1      43.590  27.196  32.725  1.00  0.00     0.023 A 
ATOM     79  C   UNL A   1      43.421  25.992  33.538  1.00  0.00     0.031 A 
ATOM     80  C   UNL A   1      42.727  28.258  33.019  1.00  0.00     0.131 A 
ATOM     81  C   UNL A   1      42.601  25.986  34.694  1.00  0.00     0.055 A 
ATOM     82  C   UNL A   1      41.918  28.236  34.175  1.00  0.00     0.041 A 
ATOM     83  F   UNL A   1      42.871  29.429  32.385  1.00  0.00    -0.206 F 
ATOM     84  C   UNL A   1      41.892  27.133  35.040  1.00  0.00     0.022 A 
BRANCH  81  85
ATOM     85  S   UNL A   1      42.661  24.604  35.913  1.00  0.00     0.124 S 
ATOM     86  O   UNL A   1      42.366  23.442  35.085  1.00  0.00    -0.237 OA
ATOM     87  O   UNL A   1      44.022  24.682  36.435  1.00  0.00    -0.237 OA
ATOM     88  O   UNL A   1      41.618  24.965  36.872  1.00  0.00    -0.744 OA
ENDBRANCH  81  85
ENDBRANCH  54  78
BRANCH  66  89
ATOM     89  C   UNL A   1      51.105  26.206  31.506  1.00  0.00     0.023 A 
ATOM     90  C   UNL A   1      50.987  24.847  31.843  1.00  0.00     0.031 A 
ATOM     91  C   UNL A   1      52.437  26.686  31.532  1.00  0.00     0.131 A 
ATOM     92  C   UNL A   1      52.061  24.090  32.333  1.00  0.00     0.055 A 
ATOM     93  C   UNL A   1      53.538  25.891  31.898  1.00  0.00     0.041 A 
ATOM     94  F   UNL A   1      52.762  27.935  31.181  1.00  0.00    -0.206 F 
ATOM     95  C   UNL A   1      53.351  24.593  32.341  1.00  0.00     0.022 A 
BRANCH  92  96
ATOM     96  S   UNL A   1      51.666  22.483  33.062  1.00  0.00     0.124 S 
ATOM     97  O   UNL A   1      50.209  22.553  33.163  1.00  0.00    -0.237 OA
ATOM     98  O   UNL A   1      52.183  21.549  32.067  1.00  0.00    -0.237 OA
ATOM     99  O   UNL A   1      52.378  22.497  34.338  1.00  0.00    -0.744 OA
ENDBRANCH  92  96
ENDBRANCH  66  89
ENDBRANCH  40  41
ENDBRANCH  33  35
ENDBRANCH  32  33
ENDBRANCH  31  32
ENDBRANCH  30  31
ENDBRANCH  29  30
ENDBRANCH  28  29
ENDBRANCH   1  28
TORSDOF 24
ENDMDL
MODEL 3
REMARK VINA RESULT:     -12.1      3.471      4.745
REMARK SMILES Cc1ccc(NC(=O)C[C@@H](C(=O)OCCOCCOCCOC(=O)c2ccc(-c3c4nc(c(-c5cc(S(=O)(=O)[O-])ccc5F)c5ccc([nH]5)c(-c5cc(S(=O)(=O)[O-])ccc5F)c5nc(c(-c6cc(S(=O)(=O)[O-])ccc6F)c6ccc3[nH]6)C=C5)C=C4)cc2)[NH+]2CCOCC2)cc1
REMARK SMILES IDX 17 1 16 2 15 3 14 4 13 5 11 6 12 7 10 8 9 9 7 10 6 11 8 13
REMARK SMILES IDX 5 14 1 15 2 16 3 17 95 18 4 19 94 20 88 21 89 22 93 23 90 25
REMARK SMILES IDX 92 26 91 27 18 28 19 29 20 30 21 31 22 32 23 33 24 34 25 35
REMARK SMILES IDX 26 36 87 37 27 38 86 39 28 40 29 41 30 42 80 43 31 44 85 45
REMARK SMILES IDX 79 46 81 47 32 48 84 49 78 50 77 51 33 53 65 54 45 55 64 56
REMARK SMILES IDX 46 57 49 58 63 59 82 60 47 61 48 62 62 64 83 65 50 66 34 67
REMARK SMILES IDX 35 68 43 69 36 70 42 71 44 72 41 73 37 74 38 75 39 76 40 77
REMARK SMILES IDX 66 78 67 79 75 80 68 81 74 82 76 83 73 84 69 85 70 86 71 87
REMARK SMILES IDX 72 88 51 89 52 90 60 91 53 92 59 93 61 94 58 95 54 96 55 97
REMARK SMILES IDX 56 98 57 99
REMARK H PARENT 6 12 88 24 81 52 49 63
REMARK Flexibility Score: inf
ROOT
ATOM      1  C   UNL A   1      40.530  20.945  26.793  1.00  0.00     0.188 C 
ENDROOT
BRANCH   1   2
ATOM      2  O   UNL A   1      39.443  21.017  25.815  1.00  0.00    -0.376 OA
BRANCH   2   3
ATOM      3  C   UNL A   1      38.201  22.182  25.720  1.00  0.00     0.202 C 
BRANCH   3   4
ATOM      4  C   UNL A   1      36.713  22.591  24.107  1.00  0.00     0.261 C 
BRANCH   4   5
ATOM      5  O   UNL A   1      34.939  22.150  23.575  1.00  0.00    -0.459 OA
BRANCH   5   6
ATOM      6  C   UNL A   1      33.273  22.180  23.175  1.00  0.00     0.365 C 
ATOM      7  O   UNL A   1      32.831  22.723  22.163  1.00  0.00    -0.245 OA
BRANCH   6   8
ATOM      8  C   UNL A   1      31.830  21.546  24.246  1.00  0.00     0.304 C 
BRANCH   8   9
ATOM      9  C   UNL A   1      30.841  22.589  25.442  1.00  0.00     0.177 C 
BRANCH   9  10
ATOM     10  C   UNL A   1      31.355  23.945  26.667  1.00  0.00     0.231 C 
ATOM     11  N   UNL A   1      31.198  25.459  26.668  1.00  0.00    -0.326 N 
ATOM     12  H   UNL A   1      31.315  25.814  27.579  1.00  0.00     0.169 HD
ATOM     13  O   UNL A   1      31.849  23.505  27.729  1.00  0.00    -0.274 OA
BRANCH  11  14
ATOM     14  C   UNL A   1      30.910  26.611  25.672  1.00  0.00     0.041 A 
ATOM     15  C   UNL A   1      29.836  30.060  22.048  1.00  0.00     0.044 C 
ATOM     16  C   UNL A   1      29.936  29.371  23.394  1.00  0.00    -0.051 A 
ATOM     17  C   UNL A   1      29.198  27.812  23.247  1.00  0.00     0.005 A 
ATOM     18  C   UNL A   1      31.107  29.614  24.705  1.00  0.00     0.005 A 
ATOM     19  C   UNL A   1      29.784  26.432  24.293  1.00  0.00     0.026 A 
ATOM     20  C   UNL A   1      31.629  28.246  25.793  1.00  0.00     0.026 A 
ENDBRANCH  11  14
ENDBRANCH   9  10
ENDBRANCH   8   9
BRANCH   8  21
ATOM     21  N   UNL A   1      32.240  20.162  24.761  1.00  0.00    -0.319 N 
ATOM     22  C   UNL A   1      33.373  20.044  25.706  1.00  0.00     0.291 C 
ATOM     23  C   UNL A   1      32.174  18.935  23.969  1.00  0.00     0.291 C 
ATOM     24  H   UNL A   1      31.339  20.194  25.239  1.00  0.00     0.348 HD
ATOM     25  C   UNL A   1      34.680  19.652  25.013  1.00  0.00     0.221 C 
ATOM     26  C   UNL A   1      33.499  18.266  23.527  1.00  0.00     0.221 C 
ATOM     27  O   UNL A   1      34.556  18.327  24.485  1.00  0.00    -0.370 OA
ENDBRANCH   8  21
ENDBRANCH   6   8
ENDBRANCH   5   6
ENDBRANCH   4   5
ENDBRANCH   3   4
ENDBRANCH   2   3
ENDBRANCH   1   2
BRANCH   1  28
ATOM     28  C   UNL A   1      41.529  19.833  26.673  1.00  0.00     0.188 C 
BRANCH  28  29
ATOM     29  O   UNL A   1      42.159  19.908  25.410  1.00  0.00    -0.376 OA
BRANCH  29  30
ATOM     30  C   UNL A   1      43.363  20.637  25.483  1.00  0.00     0.202 C 
BRANCH  30  31
ATOM     31  C   UNL A   1      43.374  21.459  26.784  1.00  0.00     0.261 C 
BRANCH  31  32
ATOM     32  O   UNL A   1      43.807  22.829  26.521  1.00  0.00    -0.460 OA
BRANCH  32  33
ATOM     33  C   UNL A   1      42.856  23.755  26.138  1.00  0.00     0.338 C 
ATOM     34  O   UNL A   1      42.797  24.269  25.035  1.00  0.00    -0.246 OA
BRANCH  33  35
ATOM     35  C   UNL A   1      42.000  24.180  27.315  1.00  0.00     0.060 A 
ATOM     36  C   UNL A   1      40.639  24.552  27.207  1.00  0.00     0.016 A 
ATOM     37  C   UNL A   1      42.694  24.690  28.364  1.00  0.00     0.016 A 
ATOM     38  C   UNL A   1      40.085  25.653  27.975  1.00  0.00     0.010 A 
ATOM     39  C   UNL A   1      42.203  25.890  28.843  1.00  0.00     0.010 A 
ATOM     40  C   UNL A   1      40.903  26.446  28.797  1.00  0.00    -0.014 A 
BRANCH  40  41
ATOM     41  C   UNL A   1      40.587  27.988  29.573  1.00  0.00     0.031 A 
ATOM     42  C   UNL A   1      38.933  29.102  29.246  1.00  0.00     0.074 A 
ATOM     43  C   UNL A   1      41.693  28.226  30.620  1.00  0.00     0.049 A 
ATOM     44  N   UNL A   1      38.145  29.769  30.136  1.00  0.00    -0.248 NA
ATOM     45  C   UNL A   1      38.262  29.773  27.935  1.00  0.00     0.031 C 
ATOM     46  C   UNL A   1      41.760  29.210  31.884  1.00  0.00     0.029 A 
ATOM     47  N   UNL A   1      42.838  27.524  30.988  1.00  0.00    -0.354 N 
ATOM     48  C   UNL A   1      37.575  30.937  29.693  1.00  0.00     0.074 A 
ATOM     49  C   UNL A   1      37.322  30.620  28.345  1.00  0.00     0.031 C 
ATOM     50  C   UNL A   1      42.599  28.879  32.851  1.00  0.00     0.029 A 
ATOM     51  C   UNL A   1      43.485  28.041  32.156  1.00  0.00     0.049 A 
ATOM     52  H   UNL A   1      43.171  26.742  30.492  1.00  0.00     0.167 HD
ATOM     53  C   UNL A   1      37.716  32.209  30.213  1.00  0.00     0.034 A 
ATOM     54  C   UNL A   1      44.760  28.492  32.164  1.00  0.00     0.034 A 
ATOM     55  C   UNL A   1      38.799  32.446  31.226  1.00  0.00     0.049 A 
ATOM     56  C   UNL A   1      44.704  30.084  31.877  1.00  0.00     0.074 A 
ATOM     57  C   UNL A   1      38.948  32.279  32.592  1.00  0.00     0.029 A 
ATOM     58  N   UNL A   1      40.057  32.959  30.847  1.00  0.00    -0.354 N 
ATOM     59  N   UNL A   1      43.620  30.731  31.440  1.00  0.00    -0.248 NA
ATOM     60  C   UNL A   1      45.670  31.066  32.364  1.00  0.00     0.031 C 
ATOM     61  C   UNL A   1      40.346  32.458  32.948  1.00  0.00     0.029 A 
ATOM     62  C   UNL A   1      41.098  32.758  31.812  1.00  0.00     0.049 A 
ATOM     63  H   UNL A   1      40.209  33.419  29.989  1.00  0.00     0.167 HD
ATOM     64  C   UNL A   1      43.619  32.084  31.729  1.00  0.00     0.074 A 
ATOM     65  C   UNL A   1      44.989  32.232  32.255  1.00  0.00     0.031 C 
ATOM     66  C   UNL A   1      42.590  33.023  31.511  1.00  0.00     0.034 A 
BRANCH  53  67
ATOM     67  C   UNL A   1      36.572  33.221  29.956  1.00  0.00     0.023 A 
ATOM     68  C   UNL A   1      35.966  33.819  31.076  1.00  0.00     0.031 A 
ATOM     69  C   UNL A   1      35.929  33.518  28.725  1.00  0.00     0.131 A 
ATOM     70  C   UNL A   1      34.751  34.533  30.970  1.00  0.00     0.055 A 
ATOM     71  C   UNL A   1      34.686  34.161  28.626  1.00  0.00     0.041 A 
ATOM     72  F   UNL A   1      36.494  33.285  27.537  1.00  0.00    -0.206 F 
ATOM     73  C   UNL A   1      34.078  34.663  29.758  1.00  0.00     0.022 A 
BRANCH  70  74
ATOM     74  S   UNL A   1      34.038  35.282  32.456  1.00  0.00     0.124 S 
ATOM     75  O   UNL A   1      35.222  35.528  33.273  1.00  0.00    -0.237 OA
ATOM     76  O   UNL A   1      33.366  36.457  31.913  1.00  0.00    -0.237 OA
ATOM     77  O   UNL A   1      33.143  34.243  32.966  1.00  0.00    -0.744 OA
ENDBRANCH  70  74
ENDBRANCH  53  67
BRANCH  54  78
ATOM     78  C   UNL A   1      45.499  27.201  31.904  1.00  0.00     0.023 A 
ATOM     79  C   UNL A   1      46.077  27.086  30.566  1.00  0.00     0.031 A 
ATOM     80  C   UNL A   1      46.255  26.651  32.946  1.00  0.00     0.131 A 
ATOM     81  C   UNL A   1      47.414  26.657  30.368  1.00  0.00     0.055 A 
ATOM     82  C   UNL A   1      47.585  26.229  32.732  1.00  0.00     0.041 A 
ATOM     83  F   UNL A   1      45.845  26.790  34.213  1.00  0.00    -0.206 F 
ATOM     84  C   UNL A   1      48.184  26.281  31.466  1.00  0.00     0.022 A 
BRANCH  81  85
ATOM     85  S   UNL A   1      48.259  26.848  28.742  1.00  0.00     0.124 S 
ATOM     86  O   UNL A   1      48.401  28.295  28.630  1.00  0.00    -0.237 OA
ATOM     87  O   UNL A   1      49.500  26.102  28.923  1.00  0.00    -0.237 OA
ATOM     88  O   UNL A   1      47.314  26.242  27.805  1.00  0.00    -0.744 OA
ENDBRANCH  81  85
ENDBRANCH  54  78
BRANCH  66  89
ATOM     89  C   UNL A   1      42.991  34.388  30.903  1.00  0.00     0.023 A 
ATOM     90  C   UNL A   1      42.840  34.656  29.532  1.00  0.00     0.031 A 
ATOM     91  C   UNL A   1      43.426  35.504  31.656  1.00  0.00     0.131 A 
ATOM     92  C   UNL A   1      43.255  35.859  28.942  1.00  0.00     0.055 A 
ATOM     93  C   UNL A   1      43.719  36.756  31.086  1.00  0.00     0.041 A 
ATOM     94  F   UNL A   1      43.568  35.467  32.986  1.00  0.00    -0.206 F 
ATOM     95  C   UNL A   1      43.673  36.931  29.713  1.00  0.00     0.022 A 
BRANCH  92  96
ATOM     96  S   UNL A   1      43.334  35.903  27.136  1.00  0.00     0.124 S 
ATOM     97  O   UNL A   1      41.997  36.384  26.792  1.00  0.00    -0.237 OA
ATOM     98  O   UNL A   1      44.423  36.843  26.890  1.00  0.00    -0.237 OA
ATOM     99  O   UNL A   1      43.609  34.516  26.767  1.00  0.00    -0.744 OA
ENDBRANCH  92  96
ENDBRANCH  66  89
ENDBRANCH  40  41
ENDBRANCH  33  35
ENDBRANCH  32  33
ENDBRANCH  31  32
ENDBRANCH  30  31
ENDBRANCH  29  30
ENDBRANCH  28  29
ENDBRANCH   1  28
TORSDOF 24
ENDMDL
