MODEL 1
REMARK VINA RESULT:     -11.2      0.000      0.000
REMARK SMILES Cc1ccc(NC(=O)c2ccccc2NC(=O)[C@H]2CCCC[C@H]2C(=O)OCCOCCOCCOC(=O)c2ccc(-c3c4nc(c(-c5cc(S(=O)(=O)[O-])ccc5F)c5ccc([nH]5)c(-c5cc(S(=O)(=O)[O-])ccc5F)c5nc(c(-c6cc(S(=O)(=O)[O-])ccc6F)c6ccc3[nH]6)C=C5)C=C4)cc2)cc1
REMARK SMILES IDX 30 1 29 2 28 3 27 4 26 5 24 6 25 7 23 8 18 9 19 10 20 11
REMARK SMILES IDX 22 12 21 13 16 14 15 15 17 17 14 18 9 19 10 20 11 21 13 22
REMARK SMILES IDX 12 23 7 24 6 25 8 27 5 28 1 29 2 30 3 31 102 32 4 33 101 34
REMARK SMILES IDX 31 35 32 36 33 37 34 38 35 39 36 40 37 41 38 42 39 43 100 44
REMARK SMILES IDX 40 45 99 46 41 47 42 48 43 49 93 50 44 51 98 52 92 53 94 54
REMARK SMILES IDX 45 55 97 56 91 57 90 58 46 60 78 61 58 62 77 63 59 64 62 65
REMARK SMILES IDX 76 66 95 67 60 68 61 69 75 71 96 72 63 73 47 74 48 75 56 76
REMARK SMILES IDX 49 77 55 78 57 79 54 80 50 81 51 82 52 83 53 84 79 85 80 86
REMARK SMILES IDX 88 87 81 88 87 89 89 90 86 91 82 92 83 93 84 94 85 95 64 96
REMARK SMILES IDX 65 97 73 98 66 99 72 100 74 101 71 102 67 103 68 104 69 105
REMARK SMILES IDX 70 106
REMARK H PARENT 15 16 6 26 94 59 62 70
REMARK Flexibility Score: inf
ROOT
ATOM      1  C   UNL A   1      35.261  32.078  31.047  1.00  0.00     0.188 C 
ENDROOT
BRANCH   1   2
ATOM      2  O   UNL A   1      36.038  32.795  30.100  1.00  0.00    -0.376 OA
BRANCH   2   3
ATOM      3  C   UNL A   1      35.254  33.773  29.362  1.00  0.00     0.202 C 
BRANCH   3   4
ATOM      4  C   UNL A   1      34.507  33.120  28.116  1.00  0.00     0.261 C 
BRANCH   4   5
ATOM      5  O   UNL A   1      34.011  31.547  27.709  1.00  0.00    -0.463 OA
BRANCH   5   6
ATOM      6  C   UNL A   1      34.107  30.182  27.378  1.00  0.00     0.309 C 
ATOM      7  O   UNL A   1      34.972  29.567  28.026  1.00  0.00    -0.252 OA
BRANCH   6   8
ATOM      8  C   UNL A   1      33.340  29.151  26.237  1.00  0.00     0.111 C 
ATOM      9  C   UNL A   1      33.745  27.729  25.469  1.00  0.00     0.093 C 
ATOM     10  C   UNL A   1      33.209  27.795  23.993  1.00  0.00     0.014 C 
ATOM     11  C   UNL A   1      31.728  28.185  23.858  1.00  0.00     0.001 C 
ATOM     12  C   UNL A   1      31.835  29.475  26.038  1.00  0.00     0.016 C 
ATOM     13  C   UNL A   1      31.420  29.502  24.558  1.00  0.00     0.001 C 
BRANCH   9  14
ATOM     14  C   UNL A   1      33.207  26.324  25.967  1.00  0.00     0.228 C 
ATOM     15  N   UNL A   1      33.714  25.059  25.739  1.00  0.00    -0.325 N 
ATOM     16  H   UNL A   1      33.244  24.399  26.298  1.00  0.00     0.169 HD
ATOM     17  O   UNL A   1      32.179  26.306  26.660  1.00  0.00    -0.274 OA
BRANCH  15  18
ATOM     18  C   UNL A   1      34.708  24.414  24.945  1.00  0.00     0.054 A 
ATOM     19  C   UNL A   1      34.508  24.003  23.567  1.00  0.00     0.063 A 
ATOM     20  C   UNL A   1      35.514  23.205  22.960  1.00  0.00     0.016 A 
ATOM     21  C   UNL A   1      36.656  22.803  23.642  1.00  0.00     0.001 A 
ATOM     22  C   UNL A   1      35.926  24.078  25.556  1.00  0.00     0.027 A 
ATOM     23  C   UNL A   1      36.863  23.246  24.935  1.00  0.00     0.002 A 
BRANCH  19  24
ATOM     24  C   UNL A   1      33.268  24.004  22.663  1.00  0.00     0.257 C 
ATOM     25  N   UNL A   1      32.562  22.902  22.255  1.00  0.00    -0.322 N 
ATOM     26  H   UNL A   1      32.144  22.977  21.368  1.00  0.00     0.170 HD
ATOM     27  O   UNL A   1      32.897  25.068  22.148  1.00  0.00    -0.269 OA
BRANCH  25  28
ATOM     28  C   UNL A   1      32.351  21.702  22.905  1.00  0.00     0.041 A 
ATOM     29  C   UNL A   1      32.963  17.844  24.530  1.00  0.00     0.044 C 
ATOM     30  C   UNL A   1      32.544  19.183  24.011  1.00  0.00    -0.051 A 
ATOM     31  C   UNL A   1      32.720  20.313  24.815  1.00  0.00     0.005 A 
ATOM     32  C   UNL A   1      32.126  19.330  22.682  1.00  0.00     0.005 A 
ATOM     33  C   UNL A   1      32.603  21.578  24.266  1.00  0.00     0.026 A 
ATOM     34  C   UNL A   1      32.000  20.599  22.129  1.00  0.00     0.026 A 
ENDBRANCH  25  28
ENDBRANCH  19  24
ENDBRANCH  15  18
ENDBRANCH   9  14
ENDBRANCH   6   8
ENDBRANCH   5   6
ENDBRANCH   4   5
ENDBRANCH   3   4
ENDBRANCH   2   3
ENDBRANCH   1   2
BRANCH   1  35
ATOM     35  C   UNL A   1      36.226  31.489  32.070  1.00  0.00     0.188 C 
BRANCH  35  36
ATOM     36  O   UNL A   1      36.202  31.953  33.397  1.00  0.00    -0.376 OA
BRANCH  36  37
ATOM     37  C   UNL A   1      36.546  33.325  33.529  1.00  0.00     0.202 C 
BRANCH  37  38
ATOM     38  C   UNL A   1      37.159  33.968  34.855  1.00  0.00     0.261 C 
BRANCH  38  39
ATOM     39  O   UNL A   1      38.170  35.052  34.593  1.00  0.00    -0.460 OA
BRANCH  39  40
ATOM     40  C   UNL A   1      39.388  35.580  34.811  1.00  0.00     0.338 C 
ATOM     41  O   UNL A   1      39.740  36.474  35.606  1.00  0.00    -0.246 OA
BRANCH  40  42
ATOM     42  C   UNL A   1      40.472  34.863  33.991  1.00  0.00     0.060 A 
ATOM     43  C   UNL A   1      41.741  35.243  34.294  1.00  0.00     0.016 A 
ATOM     44  C   UNL A   1      40.422  33.879  32.970  1.00  0.00     0.016 A 
ATOM     45  C   UNL A   1      42.801  34.879  33.437  1.00  0.00     0.010 A 
ATOM     46  C   UNL A   1      41.502  33.601  32.056  1.00  0.00     0.010 A 
ATOM     47  C   UNL A   1      42.730  34.235  32.178  1.00  0.00    -0.014 A 
BRANCH  47  48
ATOM     48  C   UNL A   1      43.604  34.448  30.889  1.00  0.00     0.031 A 
ATOM     49  C   UNL A   1      44.545  33.402  30.404  1.00  0.00     0.074 A 
ATOM     50  C   UNL A   1      43.552  35.460  29.951  1.00  0.00     0.049 A 
ATOM     51  N   UNL A   1      45.529  33.629  29.583  1.00  0.00    -0.248 NA
ATOM     52  C   UNL A   1      44.547  32.051  30.925  1.00  0.00     0.031 C 
ATOM     53  C   UNL A   1      43.562  35.332  28.476  1.00  0.00     0.029 A 
ATOM     54  N   UNL A   1      43.464  36.828  30.066  1.00  0.00    -0.354 N 
ATOM     55  C   UNL A   1      46.057  32.411  29.236  1.00  0.00     0.074 A 
ATOM     56  C   UNL A   1      45.571  31.515  30.256  1.00  0.00     0.031 C 
ATOM     57  C   UNL A   1      43.421  36.544  27.887  1.00  0.00     0.029 A 
ATOM     58  C   UNL A   1      43.416  37.580  28.913  1.00  0.00     0.049 A 
ATOM     59  H   UNL A   1      43.437  37.259  30.951  1.00  0.00     0.167 HD
ATOM     60  C   UNL A   1      46.649  32.226  28.017  1.00  0.00     0.034 A 
ATOM     61  C   UNL A   1      43.706  38.917  28.865  1.00  0.00     0.034 A 
ATOM     62  C   UNL A   1      46.641  33.455  27.206  1.00  0.00     0.049 A 
ATOM     63  C   UNL A   1      45.064  38.928  28.207  1.00  0.00     0.074 A 
ATOM     64  C   UNL A   1      45.849  33.848  26.137  1.00  0.00     0.029 A 
ATOM     65  N   UNL A   1      47.336  34.599  27.606  1.00  0.00    -0.354 N 
ATOM     66  N   UNL A   1      45.673  37.810  27.921  1.00  0.00    -0.248 NA
ATOM     67  C   UNL A   1      45.839  40.094  27.809  1.00  0.00     0.031 C 
ATOM     68  C   UNL A   1      46.044  35.237  25.922  1.00  0.00     0.029 A 
ATOM     69  C   UNL A   1      46.991  35.694  26.824  1.00  0.00     0.049 A 
ATOM     70  H   UNL A   1      47.985  34.626  28.347  1.00  0.00     0.167 HD
ATOM     71  C   UNL A   1      46.855  38.048  27.320  1.00  0.00     0.074 A 
ATOM     72  C   UNL A   1      46.922  39.503  27.264  1.00  0.00     0.031 C 
ATOM     73  C   UNL A   1      47.649  36.998  26.960  1.00  0.00     0.034 A 
BRANCH  60  74
ATOM     74  C   UNL A   1      46.835  30.828  27.427  1.00  0.00     0.023 A 
ATOM     75  C   UNL A   1      48.123  30.258  27.336  1.00  0.00     0.031 A 
ATOM     76  C   UNL A   1      45.802  30.032  26.887  1.00  0.00     0.131 A 
ATOM     77  C   UNL A   1      48.354  29.058  26.630  1.00  0.00     0.055 A 
ATOM     78  C   UNL A   1      46.035  28.880  26.121  1.00  0.00     0.041 A 
ATOM     79  F   UNL A   1      44.511  30.296  27.131  1.00  0.00    -0.206 F 
ATOM     80  C   UNL A   1      47.322  28.392  25.977  1.00  0.00     0.022 A 
BRANCH  77  81
ATOM     81  S   UNL A   1      50.024  28.345  26.601  1.00  0.00     0.124 S 
ATOM     82  O   UNL A   1      49.807  27.031  27.196  1.00  0.00    -0.237 OA
ATOM     83  O   UNL A   1      50.349  28.369  25.179  1.00  0.00    -0.237 OA
ATOM     84  O   UNL A   1      50.803  29.273  27.422  1.00  0.00    -0.744 OA
ENDBRANCH  77  81
ENDBRANCH  60  74
BRANCH  61  85
ATOM     85  C   UNL A   1      43.245  39.792  30.035  1.00  0.00     0.023 A 
ATOM     86  C   UNL A   1      44.028  39.874  31.228  1.00  0.00     0.031 A 
ATOM     87  C   UNL A   1      42.250  40.767  29.908  1.00  0.00     0.131 A 
ATOM     88  C   UNL A   1      43.979  41.017  32.077  1.00  0.00     0.055 A 
ATOM     89  C   UNL A   1      42.205  41.905  30.745  1.00  0.00     0.041 A 
ATOM     90  F   UNL A   1      41.364  40.696  28.904  1.00  0.00    -0.206 F 
ATOM     91  C   UNL A   1      43.118  42.071  31.783  1.00  0.00     0.022 A 
BRANCH  88  92
ATOM     92  S   UNL A   1      45.184  41.309  33.447  1.00  0.00     0.124 S 
ATOM     93  O   UNL A   1      44.457  40.819  34.611  1.00  0.00    -0.237 OA
ATOM     94  O   UNL A   1      46.359  40.530  33.077  1.00  0.00    -0.237 OA
ATOM     95  O   UNL A   1      45.379  42.759  33.386  1.00  0.00    -0.744 OA
ENDBRANCH  88  92
ENDBRANCH  61  85
BRANCH  73  96
ATOM     96  C   UNL A   1      49.078  37.165  26.561  1.00  0.00     0.023 A 
ATOM     97  C   UNL A   1      49.994  37.837  27.375  1.00  0.00     0.031 A 
ATOM     98  C   UNL A   1      49.587  36.604  25.372  1.00  0.00     0.131 A 
ATOM     99  C   UNL A   1      51.301  38.072  26.944  1.00  0.00     0.055 A 
ATOM    100  C   UNL A   1      50.925  36.734  25.000  1.00  0.00     0.041 A 
ATOM    101  F   UNL A   1      48.812  35.908  24.527  1.00  0.00    -0.206 F 
ATOM    102  C   UNL A   1      51.786  37.500  25.773  1.00  0.00     0.022 A 
BRANCH  99 103
ATOM    103  S   UNL A   1      52.280  39.261  27.889  1.00  0.00     0.124 S 
ATOM    104  O   UNL A   1      53.329  39.610  26.934  1.00  0.00    -0.237 OA
ATOM    105  O   UNL A   1      51.311  40.313  28.175  1.00  0.00    -0.237 OA
ATOM    106  O   UNL A   1      52.726  38.490  29.048  1.00  0.00    -0.744 OA
ENDBRANCH  99 103
ENDBRANCH  73  96
ENDBRANCH  47  48
ENDBRANCH  40  42
ENDBRANCH  39  40
ENDBRANCH  38  39
ENDBRANCH  37  38
ENDBRANCH  36  37
ENDBRANCH  35  36
ENDBRANCH   1  35
TORSDOF 24
ENDMDL
MODEL 2
REMARK VINA RESULT:     -11.2      3.822      8.397
REMARK SMILES Cc1ccc(NC(=O)c2ccccc2NC(=O)[C@H]2CCCC[C@H]2C(=O)OCCOCCOCCOC(=O)c2ccc(-c3c4nc(c(-c5cc(S(=O)(=O)[O-])ccc5F)c5ccc([nH]5)c(-c5cc(S(=O)(=O)[O-])ccc5F)c5nc(c(-c6cc(S(=O)(=O)[O-])ccc6F)c6ccc3[nH]6)C=C5)C=C4)cc2)cc1
REMARK SMILES IDX 30 1 29 2 28 3 27 4 26 5 24 6 25 7 23 8 18 9 19 10 20 11
REMARK SMILES IDX 22 12 21 13 16 14 15 15 17 17 14 18 9 19 10 20 11 21 13 22
REMARK SMILES IDX 12 23 7 24 6 25 8 27 5 28 1 29 2 30 3 31 102 32 4 33 101 34
REMARK SMILES IDX 31 35 32 36 33 37 34 38 35 39 36 40 37 41 38 42 39 43 100 44
REMARK SMILES IDX 40 45 99 46 41 47 42 48 43 49 93 50 44 51 98 52 92 53 94 54
REMARK SMILES IDX 45 55 97 56 91 57 90 58 46 60 78 61 58 62 77 63 59 64 62 65
REMARK SMILES IDX 76 66 95 67 60 68 61 69 75 71 96 72 63 73 47 74 48 75 56 76
REMARK SMILES IDX 49 77 55 78 57 79 54 80 50 81 51 82 52 83 53 84 79 85 80 86
REMARK SMILES IDX 88 87 81 88 87 89 89 90 86 91 82 92 83 93 84 94 85 95 64 96
REMARK SMILES IDX 65 97 73 98 66 99 72 100 74 101 71 102 67 103 68 104 69 105
REMARK SMILES IDX 70 106
REMARK H PARENT 15 16 6 26 94 59 62 70
REMARK Flexibility Score: inf
ROOT
ATOM      1  C   UNL A   1      34.110  32.897  28.486  1.00  0.00     0.188 C 
ENDROOT
BRANCH   1   2
ATOM      2  O   UNL A   1      34.472  31.547  28.235  1.00  0.00    -0.376 OA
BRANCH   2   3
ATOM      3  C   UNL A   1      33.463  30.832  27.470  1.00  0.00     0.202 C 
BRANCH   3   4
ATOM      4  C   UNL A   1      34.108  29.955  26.306  1.00  0.00     0.261 C 
BRANCH   4   5
ATOM      5  O   UNL A   1      34.109  28.302  25.916  1.00  0.00    -0.463 OA
BRANCH   5   6
ATOM      6  C   UNL A   1      33.615  27.042  25.532  1.00  0.00     0.309 C 
ATOM      7  O   UNL A   1      33.579  26.212  26.457  1.00  0.00    -0.252 OA
BRANCH   6   8
ATOM      8  C   UNL A   1      33.085  26.342  24.053  1.00  0.00     0.111 C 
ATOM      9  C   UNL A   1      33.788  25.398  22.875  1.00  0.00     0.093 C 
ATOM     10  C   UNL A   1      33.242  25.866  21.477  1.00  0.00     0.014 C 
ATOM     11  C   UNL A   1      31.710  25.963  21.379  1.00  0.00     0.001 C 
ATOM     12  C   UNL A   1      31.544  26.397  23.871  1.00  0.00     0.016 C 
ATOM     13  C   UNL A   1      31.126  26.856  22.465  1.00  0.00     0.001 C 
BRANCH   9  14
ATOM     14  C   UNL A   1      33.574  23.828  22.819  1.00  0.00     0.228 C 
ATOM     15  N   UNL A   1      34.318  22.820  23.401  1.00  0.00    -0.325 N 
ATOM     16  H   UNL A   1      33.854  21.957  23.306  1.00  0.00     0.169 HD
ATOM     17  O   UNL A   1      32.616  23.394  22.163  1.00  0.00    -0.274 OA
BRANCH  15  18
ATOM     18  C   UNL A   1      35.550  22.643  24.098  1.00  0.00     0.054 A 
ATOM     19  C   UNL A   1      35.942  21.410  24.757  1.00  0.00     0.063 A 
ATOM     20  C   UNL A   1      37.107  21.434  25.570  1.00  0.00     0.016 A 
ATOM     21  C   UNL A   1      37.857  22.588  25.759  1.00  0.00     0.001 A 
ATOM     22  C   UNL A   1      36.401  23.752  24.228  1.00  0.00     0.027 A 
ATOM     23  C   UNL A   1      37.508  23.741  25.083  1.00  0.00     0.002 A 
BRANCH  19  24
ATOM     24  C   UNL A   1      35.193  20.095  25.008  1.00  0.00     0.257 C 
ATOM     25  N   UNL A   1      34.106  19.925  25.825  1.00  0.00    -0.322 N 
ATOM     26  H   UNL A   1      34.038  19.042  26.252  1.00  0.00     0.170 HD
ATOM     27  O   UNL A   1      35.641  19.044  24.527  1.00  0.00    -0.269 OA
BRANCH  25  28
ATOM     28  C   UNL A   1      33.093  20.810  26.137  1.00  0.00     0.041 A 
ATOM     29  C   UNL A   1      30.739  24.319  26.352  1.00  0.00     0.044 C 
ATOM     30  C   UNL A   1      31.438  22.997  26.418  1.00  0.00    -0.051 A 
ATOM     31  C   UNL A   1      31.149  22.023  25.457  1.00  0.00     0.005 A 
ATOM     32  C   UNL A   1      32.478  22.790  27.333  1.00  0.00     0.005 A 
ATOM     33  C   UNL A   1      31.968  20.914  25.330  1.00  0.00     0.026 A 
ATOM     34  C   UNL A   1      33.297  21.673  27.212  1.00  0.00     0.026 A 
ENDBRANCH  25  28
ENDBRANCH  19  24
ENDBRANCH  15  18
ENDBRANCH   9  14
ENDBRANCH   6   8
ENDBRANCH   5   6
ENDBRANCH   4   5
ENDBRANCH   3   4
ENDBRANCH   2   3
ENDBRANCH   1   2
BRANCH   1  35
ATOM     35  C   UNL A   1      35.386  33.648  28.846  1.00  0.00     0.188 C 
BRANCH  35  36
ATOM     36  O   UNL A   1      35.520  34.219  30.124  1.00  0.00    -0.376 OA
BRANCH  36  37
ATOM     37  C   UNL A   1      34.566  33.746  31.064  1.00  0.00     0.202 C 
BRANCH  37  38
ATOM     38  C   UNL A   1      34.731  32.398  31.901  1.00  0.00     0.261 C 
BRANCH  38  39
ATOM     39  O   UNL A   1      36.110  31.798  31.824  1.00  0.00    -0.460 OA
BRANCH  39  40
ATOM     40  C   UNL A   1      37.005  31.028  31.180  1.00  0.00     0.338 C 
ATOM     41  O   UNL A   1      36.863  29.905  30.658  1.00  0.00    -0.246 OA
BRANCH  40  42
ATOM     42  C   UNL A   1      38.358  31.741  31.023  1.00  0.00     0.060 A 
ATOM     43  C   UNL A   1      39.355  31.214  31.780  1.00  0.00     0.016 A 
ATOM     44  C   UNL A   1      38.784  32.849  30.246  1.00  0.00     0.016 A 
ATOM     45  C   UNL A   1      40.559  31.932  31.946  1.00  0.00     0.010 A 
ATOM     46  C   UNL A   1      39.980  33.612  30.506  1.00  0.00     0.010 A 
ATOM     47  C   UNL A   1      40.864  33.245  31.510  1.00  0.00    -0.014 A 
BRANCH  47  48
ATOM     48  C   UNL A   1      41.726  34.360  32.205  1.00  0.00     0.031 A 
ATOM     49  C   UNL A   1      41.379  34.888  33.553  1.00  0.00     0.074 A 
ATOM     50  C   UNL A   1      42.946  34.889  31.828  1.00  0.00     0.049 A 
ATOM     51  N   UNL A   1      41.814  36.018  34.028  1.00  0.00    -0.248 NA
ATOM     52  C   UNL A   1      40.393  34.260  34.407  1.00  0.00     0.031 C 
ATOM     53  C   UNL A   1      44.134  35.128  32.679  1.00  0.00     0.029 A 
ATOM     54  N   UNL A   1      43.432  35.325  30.618  1.00  0.00    -0.354 N 
ATOM     55  C   UNL A   1      41.427  36.081  35.343  1.00  0.00     0.074 A 
ATOM     56  C   UNL A   1      40.377  35.098  35.446  1.00  0.00     0.031 C 
ATOM     57  C   UNL A   1      45.170  35.588  31.938  1.00  0.00     0.029 A 
ATOM     58  C   UNL A   1      44.726  35.796  30.565  1.00  0.00     0.049 A 
ATOM     59  H   UNL A   1      42.871  35.302  29.810  1.00  0.00     0.167 HD
ATOM     60  C   UNL A   1      42.170  36.772  36.261  1.00  0.00     0.034 A 
ATOM     61  C   UNL A   1      45.204  36.591  29.559  1.00  0.00     0.034 A 
ATOM     62  C   UNL A   1      43.354  37.401  35.651  1.00  0.00     0.049 A 
ATOM     63  C   UNL A   1      45.282  37.943  30.226  1.00  0.00     0.074 A 
ATOM     64  C   UNL A   1      44.695  37.046  35.663  1.00  0.00     0.029 A 
ATOM     65  N   UNL A   1      43.233  38.400  34.682  1.00  0.00    -0.354 N 
ATOM     66  N   UNL A   1      44.855  38.106  31.448  1.00  0.00    -0.248 NA
ATOM     67  C   UNL A   1      45.814  39.174  29.661  1.00  0.00     0.031 C 
ATOM     68  C   UNL A   1      45.369  37.808  34.674  1.00  0.00     0.029 A 
ATOM     69  C   UNL A   1      44.458  38.669  34.083  1.00  0.00     0.049 A 
ATOM     70  H   UNL A   1      42.390  38.854  34.452  1.00  0.00     0.167 HD
ATOM     71  C   UNL A   1      45.039  39.377  31.855  1.00  0.00     0.074 A 
ATOM     72  C   UNL A   1      45.652  40.020  30.699  1.00  0.00     0.031 C 
ATOM     73  C   UNL A   1      44.637  39.747  33.106  1.00  0.00     0.034 A 
BRANCH  60  74
ATOM     74  C   UNL A   1      42.036  36.502  37.759  1.00  0.00     0.023 A 
ATOM     75  C   UNL A   1      41.058  37.176  38.520  1.00  0.00     0.031 A 
ATOM     76  C   UNL A   1      42.872  35.642  38.506  1.00  0.00     0.131 A 
ATOM     77  C   UNL A   1      41.030  37.094  39.929  1.00  0.00     0.055 A 
ATOM     78  C   UNL A   1      42.896  35.616  39.908  1.00  0.00     0.041 A 
ATOM     79  F   UNL A   1      43.661  34.738  37.910  1.00  0.00    -0.206 F 
ATOM     80  C   UNL A   1      41.977  36.357  40.631  1.00  0.00     0.022 A 
BRANCH  77  81
ATOM     81  S   UNL A   1      39.708  37.937  40.846  1.00  0.00     0.124 S 
ATOM     82  O   UNL A   1      38.646  38.019  39.849  1.00  0.00    -0.237 OA
ATOM     83  O   UNL A   1      39.478  37.030  41.966  1.00  0.00    -0.237 OA
ATOM     84  O   UNL A   1      40.313  39.218  41.212  1.00  0.00    -0.744 OA
ENDBRANCH  77  81
ENDBRANCH  60  74
BRANCH  61  85
ATOM     85  C   UNL A   1      44.735  36.299  28.130  1.00  0.00     0.023 A 
ATOM     86  C   UNL A   1      45.182  35.124  27.449  1.00  0.00     0.031 A 
ATOM     87  C   UNL A   1      43.649  36.954  27.538  1.00  0.00     0.131 A 
ATOM     88  C   UNL A   1      44.409  34.522  26.414  1.00  0.00     0.055 A 
ATOM     89  C   UNL A   1      42.879  36.354  26.517  1.00  0.00     0.041 A 
ATOM     90  F   UNL A   1      43.245  38.142  28.008  1.00  0.00    -0.206 F 
ATOM     91  C   UNL A   1      43.212  35.102  26.006  1.00  0.00     0.022 A 
BRANCH  88  92
ATOM     92  S   UNL A   1      44.780  32.849  25.722  1.00  0.00     0.124 S 
ATOM     93  O   UNL A   1      43.980  31.975  26.570  1.00  0.00    -0.237 OA
ATOM     94  O   UNL A   1      44.352  32.924  24.330  1.00  0.00    -0.237 OA
ATOM     95  O   UNL A   1      46.230  32.753  25.902  1.00  0.00    -0.744 OA
ENDBRANCH  88  92
ENDBRANCH  61  85
BRANCH  73  96
ATOM     96  C   UNL A   1      44.535  41.174  33.533  1.00  0.00     0.023 A 
ATOM     97  C   UNL A   1      45.638  41.869  34.037  1.00  0.00     0.031 A 
ATOM     98  C   UNL A   1      43.338  41.906  33.396  1.00  0.00     0.131 A 
ATOM     99  C   UNL A   1      45.503  43.171  34.525  1.00  0.00     0.055 A 
ATOM    100  C   UNL A   1      43.238  43.246  33.770  1.00  0.00     0.041 A 
ATOM    101  F   UNL A   1      42.223  41.356  32.893  1.00  0.00    -0.206 F 
ATOM    102  C   UNL A   1      44.317  43.879  34.370  1.00  0.00     0.022 A 
BRANCH  99 103
ATOM    103  S   UNL A   1      46.879  43.835  35.490  1.00  0.00     0.124 S 
ATOM    104  O   UNL A   1      46.180  44.616  36.508  1.00  0.00    -0.237 OA
ATOM    105  O   UNL A   1      47.544  42.628  35.967  1.00  0.00    -0.237 OA
ATOM    106  O   UNL A   1      47.632  44.620  34.514  1.00  0.00    -0.744 OA
ENDBRANCH  99 103
ENDBRANCH  73  96
ENDBRANCH  47  48
ENDBRANCH  40  42
ENDBRANCH  39  40
ENDBRANCH  38  39
ENDBRANCH  37  38
ENDBRANCH  36  37
ENDBRANCH  35  36
ENDBRANCH   1  35
TORSDOF 24
ENDMDL
MODEL 3
REMARK VINA RESULT:     -11.1      6.940     12.520
REMARK SMILES Cc1ccc(NC(=O)c2ccccc2NC(=O)[C@H]2CCCC[C@H]2C(=O)OCCOCCOCCOC(=O)c2ccc(-c3c4nc(c(-c5cc(S(=O)(=O)[O-])ccc5F)c5ccc([nH]5)c(-c5cc(S(=O)(=O)[O-])ccc5F)c5nc(c(-c6cc(S(=O)(=O)[O-])ccc6F)c6ccc3[nH]6)C=C5)C=C4)cc2)cc1
REMARK SMILES IDX 30 1 29 2 28 3 27 4 26 5 24 6 25 7 23 8 18 9 19 10 20 11
REMARK SMILES IDX 22 12 21 13 16 14 15 15 17 17 14 18 9 19 10 20 11 21 13 22
REMARK SMILES IDX 12 23 7 24 6 25 8 27 5 28 1 29 2 30 3 31 102 32 4 33 101 34
REMARK SMILES IDX 31 35 32 36 33 37 34 38 35 39 36 40 37 41 38 42 39 43 100 44
REMARK SMILES IDX 40 45 99 46 41 47 42 48 43 49 93 50 44 51 98 52 92 53 94 54
REMARK SMILES IDX 45 55 97 56 91 57 90 58 46 60 78 61 58 62 77 63 59 64 62 65
REMARK SMILES IDX 76 66 95 67 60 68 61 69 75 71 96 72 63 73 47 74 48 75 56 76
REMARK SMILES IDX 49 77 55 78 57 79 54 80 50 81 51 82 52 83 53 84 79 85 80 86
REMARK SMILES IDX 88 87 81 88 87 89 89 90 86 91 82 92 83 93 84 94 85 95 64 96
REMARK SMILES IDX 65 97 73 98 66 99 72 100 74 101 71 102 67 103 68 104 69 105
REMARK SMILES IDX 70 106
REMARK H PARENT 15 16 6 26 94 59 62 70
REMARK Flexibility Score: inf
ROOT
ATOM      1  C   UNL A   1      37.975  22.721  25.591  1.00  0.00     0.188 C 
ENDROOT
BRANCH   1   2
ATOM      2  O   UNL A   1      38.067  21.342  25.913  1.00  0.00    -0.376 OA
BRANCH   2   3
ATOM      3  C   UNL A   1      37.827  20.484  24.762  1.00  0.00     0.202 C 
BRANCH   3   4
ATOM      4  C   UNL A   1      36.393  19.793  24.824  1.00  0.00     0.261 C 
BRANCH   4   5
ATOM      5  O   UNL A   1      34.865  20.258  25.405  1.00  0.00    -0.463 OA
BRANCH   5   6
ATOM      6  C   UNL A   1      33.605  20.884  25.435  1.00  0.00     0.309 C 
ATOM      7  O   UNL A   1      32.741  20.245  26.059  1.00  0.00    -0.252 OA
BRANCH   6   8
ATOM      8  C   UNL A   1      32.945  22.322  24.763  1.00  0.00     0.111 C 
ATOM      9  C   UNL A   1      32.918  23.928  25.203  1.00  0.00     0.093 C 
ATOM     10  C   UNL A   1      31.509  24.518  24.832  1.00  0.00     0.014 C 
ATOM     11  C   UNL A   1      31.056  24.251  23.386  1.00  0.00     0.001 C 
ATOM     12  C   UNL A   1      32.460  22.143  23.299  1.00  0.00     0.016 C 
ATOM     13  C   UNL A   1      31.078  22.767  23.047  1.00  0.00     0.001 C 
BRANCH   9  14
ATOM     14  C   UNL A   1      33.912  24.988  24.570  1.00  0.00     0.228 C 
ATOM     15  N   UNL A   1      33.992  26.351  24.782  1.00  0.00    -0.325 N 
ATOM     16  H   UNL A   1      34.803  26.714  24.357  1.00  0.00     0.169 HD
ATOM     17  O   UNL A   1      34.753  24.583  23.754  1.00  0.00    -0.274 OA
BRANCH  15  18
ATOM     18  C   UNL A   1      33.265  27.395  25.427  1.00  0.00     0.054 A 
ATOM     19  C   UNL A   1      32.784  28.588  24.754  1.00  0.00     0.063 A 
ATOM     20  C   UNL A   1      32.242  29.629  25.555  1.00  0.00     0.016 A 
ATOM     21  C   UNL A   1      32.176  29.542  26.940  1.00  0.00     0.001 A 
ATOM     22  C   UNL A   1      33.074  27.307  26.816  1.00  0.00     0.027 A 
ATOM     23  C   UNL A   1      32.584  28.380  27.567  1.00  0.00     0.002 A 
BRANCH  19  24
ATOM     24  C   UNL A   1      32.992  29.120  23.330  1.00  0.00     0.257 C 
ATOM     25  N   UNL A   1      32.144  28.944  22.268  1.00  0.00    -0.322 N 
ATOM     26  H   UNL A   1      32.579  28.898  21.388  1.00  0.00     0.170 HD
ATOM     27  O   UNL A   1      34.061  29.677  23.044  1.00  0.00    -0.269 OA
BRANCH  25  28
ATOM     28  C   UNL A   1      30.767  28.822  22.252  1.00  0.00     0.041 A 
ATOM     29  C   UNL A   1      26.713  28.829  23.459  1.00  0.00     0.044 C 
ATOM     30  C   UNL A   1      28.078  28.741  22.852  1.00  0.00    -0.051 A 
ATOM     31  C   UNL A   1      28.618  29.866  22.221  1.00  0.00     0.005 A 
ATOM     32  C   UNL A   1      28.868  27.601  23.045  1.00  0.00     0.005 A 
ATOM     33  C   UNL A   1      29.964  29.899  21.900  1.00  0.00     0.026 A 
ATOM     34  C   UNL A   1      30.219  27.628  22.717  1.00  0.00     0.026 A 
ENDBRANCH  25  28
ENDBRANCH  19  24
ENDBRANCH  15  18
ENDBRANCH   9  14
ENDBRANCH   6   8
ENDBRANCH   5   6
ENDBRANCH   4   5
ENDBRANCH   3   4
ENDBRANCH   2   3
ENDBRANCH   1   2
BRANCH   1  35
ATOM     35  C   UNL A   1      39.058  23.444  26.385  1.00  0.00     0.188 C 
BRANCH  35  36
ATOM     36  O   UNL A   1      39.290  24.812  26.160  1.00  0.00    -0.376 OA
BRANCH  36  37
ATOM     37  C   UNL A   1      40.571  25.252  26.589  1.00  0.00     0.202 C 
BRANCH  37  38
ATOM     38  C   UNL A   1      41.797  25.524  25.604  1.00  0.00     0.261 C 
BRANCH  38  39
ATOM     39  O   UNL A   1      42.702  24.335  25.417  1.00  0.00    -0.460 OA
BRANCH  39  40
ATOM     40  C   UNL A   1      43.187  23.165  25.867  1.00  0.00     0.338 C 
ATOM     41  O   UNL A   1      43.245  22.055  25.302  1.00  0.00    -0.246 OA
BRANCH  40  42
ATOM     42  C   UNL A   1      43.833  23.314  27.254  1.00  0.00     0.060 A 
ATOM     43  C   UNL A   1      43.148  22.703  28.255  1.00  0.00     0.016 A 
ATOM     44  C   UNL A   1      45.008  23.966  27.710  1.00  0.00     0.016 A 
ATOM     45  C   UNL A   1      43.469  22.992  29.598  1.00  0.00     0.010 A 
ATOM     46  C   UNL A   1      45.256  24.323  29.085  1.00  0.00     0.010 A 
ATOM     47  C   UNL A   1      44.376  23.961  30.094  1.00  0.00    -0.014 A 
BRANCH  47  48
ATOM     48  C   UNL A   1      44.281  24.862  31.377  1.00  0.00     0.031 A 
ATOM     49  C   UNL A   1      43.747  26.251  31.317  1.00  0.00     0.074 A 
ATOM     50  C   UNL A   1      44.483  24.528  32.702  1.00  0.00     0.049 A 
ATOM     51  N   UNL A   1      43.958  27.155  32.229  1.00  0.00    -0.248 NA
ATOM     52  C   UNL A   1      43.066  26.776  30.152  1.00  0.00     0.031 C 
ATOM     53  C   UNL A   1      43.632  24.871  33.864  1.00  0.00     0.029 A 
ATOM     54  N   UNL A   1      45.464  23.802  33.336  1.00  0.00    -0.354 N 
ATOM     55  C   UNL A   1      43.175  28.237  31.916  1.00  0.00     0.074 A 
ATOM     56  C   UNL A   1      42.837  28.036  30.529  1.00  0.00     0.031 C 
ATOM     57  C   UNL A   1      44.113  24.302  34.996  1.00  0.00     0.029 A 
ATOM     58  C   UNL A   1      45.372  23.631  34.700  1.00  0.00     0.049 A 
ATOM     59  H   UNL A   1      46.214  23.416  32.828  1.00  0.00     0.167 HD
ATOM     60  C   UNL A   1      42.698  29.064  32.896  1.00  0.00     0.034 A 
ATOM     61  C   UNL A   1      46.430  23.278  35.493  1.00  0.00     0.034 A 
ATOM     62  C   UNL A   1      43.140  28.643  34.237  1.00  0.00     0.049 A 
ATOM     63  C   UNL A   1      46.755  24.575  36.194  1.00  0.00     0.074 A 
ATOM     64  C   UNL A   1      42.479  27.974  35.257  1.00  0.00     0.029 A 
ATOM     65  N   UNL A   1      44.490  28.647  34.596  1.00  0.00    -0.354 N 
ATOM     66  N   UNL A   1      46.113  25.671  35.892  1.00  0.00    -0.248 NA
ATOM     67  C   UNL A   1      47.745  24.788  37.238  1.00  0.00     0.031 C 
ATOM     68  C   UNL A   1      43.441  27.547  36.208  1.00  0.00     0.029 A 
ATOM     69  C   UNL A   1      44.690  27.992  35.804  1.00  0.00     0.049 A 
ATOM     70  H   UNL A   1      45.207  29.061  34.062  1.00  0.00     0.167 HD
ATOM     71  C   UNL A   1      46.541  26.700  36.648  1.00  0.00     0.074 A 
ATOM     72  C   UNL A   1      47.569  26.102  37.490  1.00  0.00     0.031 C 
ATOM     73  C   UNL A   1      45.997  27.940  36.466  1.00  0.00     0.034 A 
BRANCH  60  74
ATOM     74  C   UNL A   1      41.496  29.977  32.652  1.00  0.00     0.023 A 
ATOM     75  C   UNL A   1      40.188  29.448  32.651  1.00  0.00     0.031 A 
ATOM     76  C   UNL A   1      41.573  31.356  32.360  1.00  0.00     0.131 A 
ATOM     77  C   UNL A   1      39.078  30.220  32.245  1.00  0.00     0.055 A 
ATOM     78  C   UNL A   1      40.486  32.105  31.885  1.00  0.00     0.041 A 
ATOM     79  F   UNL A   1      42.690  32.060  32.583  1.00  0.00    -0.206 F 
ATOM     80  C   UNL A   1      39.228  31.533  31.812  1.00  0.00     0.022 A 
BRANCH  77  81
ATOM     81  S   UNL A   1      37.413  29.499  32.324  1.00  0.00     0.124 S 
ATOM     82  O   UNL A   1      37.625  28.326  33.164  1.00  0.00    -0.237 OA
ATOM     83  O   UNL A   1      36.631  30.584  32.909  1.00  0.00    -0.237 OA
ATOM     84  O   UNL A   1      37.103  29.208  30.923  1.00  0.00    -0.744 OA
ENDBRANCH  77  81
ENDBRANCH  60  74
BRANCH  61  85
ATOM     85  C   UNL A   1      47.432  22.258  34.942  1.00  0.00     0.023 A 
ATOM     86  C   UNL A   1      48.527  22.687  34.129  1.00  0.00     0.031 A 
ATOM     87  C   UNL A   1      47.527  20.949  35.426  1.00  0.00     0.131 A 
ATOM     88  C   UNL A   1      49.738  21.940  34.052  1.00  0.00     0.055 A 
ATOM     89  C   UNL A   1      48.730  20.210  35.357  1.00  0.00     0.041 A 
ATOM     90  F   UNL A   1      46.492  20.395  36.073  1.00  0.00    -0.206 F 
ATOM     91  C   UNL A   1      49.862  20.735  34.737  1.00  0.00     0.022 A 
BRANCH  88  92
ATOM     92  S   UNL A   1      51.280  22.597  33.275  1.00  0.00     0.124 S 
ATOM     93  O   UNL A   1      52.031  23.076  34.428  1.00  0.00    -0.237 OA
ATOM     94  O   UNL A   1      51.863  21.450  32.588  1.00  0.00    -0.237 OA
ATOM     95  O   UNL A   1      50.761  23.634  32.382  1.00  0.00    -0.744 OA
ENDBRANCH  88  92
ENDBRANCH  61  85
BRANCH  73  96
ATOM     96  C   UNL A   1      46.599  29.178  37.041  1.00  0.00     0.023 A 
ATOM     97  C   UNL A   1      47.563  29.916  36.348  1.00  0.00     0.031 A 
ATOM     98  C   UNL A   1      46.184  29.697  38.284  1.00  0.00     0.131 A 
ATOM     99  C   UNL A   1      48.189  31.015  36.940  1.00  0.00     0.055 A 
ATOM    100  C   UNL A   1      46.723  30.867  38.821  1.00  0.00     0.041 A 
ATOM    101  F   UNL A   1      45.242  29.095  39.025  1.00  0.00    -0.206 F 
ATOM    102  C   UNL A   1      47.757  31.517  38.163  1.00  0.00     0.022 A 
BRANCH  99 103
ATOM    103  S   UNL A   1      49.667  31.660  36.125  1.00  0.00     0.124 S 
ATOM    104  O   UNL A   1      49.761  30.795  34.951  1.00  0.00    -0.237 OA
ATOM    105  O   UNL A   1      49.302  33.047  35.859  1.00  0.00    -0.237 OA
ATOM    106  O   UNL A   1      50.717  31.470  37.123  1.00  0.00    -0.744 OA
ENDBRANCH  99 103
ENDBRANCH  73  96
ENDBRANCH  47  48
ENDBRANCH  40  42
ENDBRANCH  39  40
ENDBRANCH  38  39
ENDBRANCH  37  38
ENDBRANCH  36  37
ENDBRANCH  35  36
ENDBRANCH   1  35
TORSDOF 24
ENDMDL
