MODEL 1
REMARK VINA RESULT:     -10.1      0.000      0.000
REMARK SMILES CC1(C)S[C@H](c2ccc([N+](=O)[O-])cc2)[NH2+][C@@H]1C(=O)OCCOCCOCCOC(=O)c1ccc(-c2c3nc(c(-c4cc(S(=O)(=O)[O-])ccc4F)c4ccc([nH]4)c(-c4cc(S(=O)(=O)[O-])ccc4F)c4nc(c(-c5cc(S(=O)(=O)[O-])ccc5F)c5ccc2[nH]5)C=C4)C=C3)cc1
REMARK SMILES IDX 24 1 23 2 22 3 21 4 20 5 19 6 17 7 18 8 16 9 1 10 2 11 3 12
REMARK SMILES IDX 4 13 5 14 15 15 6 18 7 19 14 20 8 21 13 22 9 23 10 24 11 25
REMARK SMILES IDX 12 26 25 27 26 28 27 29 28 30 29 31 30 32 31 33 32 34 93 35
REMARK SMILES IDX 33 36 92 37 34 38 35 39 36 40 86 41 37 42 91 43 85 44 87 45
REMARK SMILES IDX 38 46 90 47 84 48 83 49 39 51 71 52 51 53 70 54 52 55 55 56
REMARK SMILES IDX 69 57 88 58 53 59 54 60 68 62 89 63 56 64 40 65 41 66 49 67
REMARK SMILES IDX 42 68 48 69 50 70 47 71 43 72 44 73 45 74 46 75 72 76 73 77
REMARK SMILES IDX 81 78 74 79 80 80 82 81 79 82 75 83 76 84 77 85 78 86 57 87
REMARK SMILES IDX 58 88 66 89 59 90 65 91 67 92 64 93 60 94 61 95 62 96 63 97
REMARK H PARENT 15 16 15 17 87 50 55 61
REMARK Flexibility Score: inf
ROOT
ATOM      1  C   UNL A   1      34.948  30.901  27.841  1.00  0.00     0.188 C 
ENDROOT
BRANCH   1   2
ATOM      2  C   UNL A   1      34.940  29.356  27.756  1.00  0.00     0.188 C 
BRANCH   2   3
ATOM      3  O   UNL A   1      34.180  28.843  26.676  1.00  0.00    -0.376 OA
BRANCH   3   4
ATOM      4  C   UNL A   1      32.934  28.242  26.994  1.00  0.00     0.202 C 
BRANCH   4   5
ATOM      5  C   UNL A   1      32.327  27.335  25.921  1.00  0.00     0.261 C 
BRANCH   5   6
ATOM      6  O   UNL A   1      32.685  25.950  26.052  1.00  0.00    -0.459 OA
BRANCH   6   7
ATOM      7  C   UNL A   1      33.408  25.382  25.044  1.00  0.00     0.366 C 
ATOM      8  O   UNL A   1      34.057  26.029  24.236  1.00  0.00    -0.245 OA
BRANCH   7   9
ATOM      9  C   UNL A   1      33.306  23.826  25.152  1.00  0.00     0.310 C 
ATOM     10  C   UNL A   1      34.290  21.522  24.722  1.00  0.00     0.030 C 
ATOM     11  C   UNL A   1      34.246  22.999  24.260  1.00  0.00     0.079 C 
ATOM     12  C   UNL A   1      35.688  23.507  24.221  1.00  0.00     0.030 C 
ATOM     13  S   UNL A   1      33.371  23.067  22.653  1.00  0.00    -0.081 SA
ATOM     14  C   UNL A   1      31.742  23.496  23.386  1.00  0.00     0.274 C 
ATOM     15  N   UNL A   1      31.913  23.370  24.848  1.00  0.00    -0.319 N 
ATOM     16  H   UNL A   1      31.789  22.399  25.135  1.00  0.00     0.348 HD
ATOM     17  H   UNL A   1      31.224  23.930  25.350  1.00  0.00     0.348 HD
BRANCH  14  18
ATOM     18  C   UNL A   1      31.178  24.879  23.045  1.00  0.00     0.021 A 
ATOM     19  C   UNL A   1      30.081  25.368  23.795  1.00  0.00     0.018 A 
ATOM     20  C   UNL A   1      31.717  25.713  22.053  1.00  0.00     0.018 A 
ATOM     21  C   UNL A   1      29.635  26.682  23.665  1.00  0.00     0.086 A 
ATOM     22  C   UNL A   1      31.265  27.030  21.901  1.00  0.00     0.086 A 
ATOM     23  C   UNL A   1      30.253  27.517  22.734  1.00  0.00     0.269 A 
BRANCH  23  24
ATOM     24  N   UNL A   1      29.865  28.926  22.666  1.00  0.00     0.062 N 
ATOM     25  O   UNL A   1      29.206  29.387  23.610  1.00  0.00    -0.258 OA
ATOM     26  O   UNL A   1      30.220  29.576  21.672  1.00  0.00    -0.258 OA
ENDBRANCH  23  24
ENDBRANCH  14  18
ENDBRANCH   7   9
ENDBRANCH   6   7
ENDBRANCH   5   6
ENDBRANCH   4   5
ENDBRANCH   3   4
ENDBRANCH   2   3
ENDBRANCH   1   2
BRANCH   1  27
ATOM     27  O   UNL A   1      34.079  31.663  27.015  1.00  0.00    -0.376 OA
BRANCH  27  28
ATOM     28  C   UNL A   1      32.782  31.989  27.495  1.00  0.00     0.202 C 
BRANCH  28  29
ATOM     29  C   UNL A   1      32.367  33.467  27.545  1.00  0.00     0.261 C 
BRANCH  29  30
ATOM     30  O   UNL A   1      32.455  34.078  28.844  1.00  0.00    -0.460 OA
BRANCH  30  31
ATOM     31  C   UNL A   1      33.403  35.044  28.973  1.00  0.00     0.338 C 
ATOM     32  O   UNL A   1      33.303  36.213  28.648  1.00  0.00    -0.246 OA
BRANCH  31  33
ATOM     33  C   UNL A   1      34.543  34.528  29.767  1.00  0.00     0.060 A 
ATOM     34  C   UNL A   1      35.797  34.439  29.146  1.00  0.00     0.016 A 
ATOM     35  C   UNL A   1      34.381  34.098  31.086  1.00  0.00     0.016 A 
ATOM     36  C   UNL A   1      36.887  33.894  29.828  1.00  0.00     0.010 A 
ATOM     37  C   UNL A   1      35.467  33.525  31.759  1.00  0.00     0.010 A 
ATOM     38  C   UNL A   1      36.716  33.394  31.125  1.00  0.00    -0.014 A 
BRANCH  38  39
ATOM     39  C   UNL A   1      37.772  32.546  31.737  1.00  0.00     0.031 A 
ATOM     40  C   UNL A   1      38.253  32.900  33.120  1.00  0.00     0.074 A 
ATOM     41  C   UNL A   1      38.297  31.491  31.090  1.00  0.00     0.049 A 
ATOM     42  N   UNL A   1      39.221  32.376  33.826  1.00  0.00    -0.248 NA
ATOM     43  C   UNL A   1      37.543  34.000  33.790  1.00  0.00     0.031 C 
ATOM     44  C   UNL A   1      37.882  31.012  29.774  1.00  0.00     0.029 A 
ATOM     45  N   UNL A   1      39.311  30.637  31.453  1.00  0.00    -0.354 N 
ATOM     46  C   UNL A   1      39.241  33.083  35.022  1.00  0.00     0.074 A 
ATOM     47  C   UNL A   1      38.208  34.094  34.931  1.00  0.00     0.031 C 
ATOM     48  C   UNL A   1      38.652  29.965  29.428  1.00  0.00     0.029 A 
ATOM     49  C   UNL A   1      39.640  29.723  30.480  1.00  0.00     0.049 A 
ATOM     50  H   UNL A   1      39.760  30.677  32.329  1.00  0.00     0.167 HD
ATOM     51  C   UNL A   1      40.045  32.908  36.100  1.00  0.00     0.034 A 
ATOM     52  C   UNL A   1      40.644  28.823  30.429  1.00  0.00     0.034 A 
ATOM     53  C   UNL A   1      41.089  31.918  36.171  1.00  0.00     0.049 A 
ATOM     54  C   UNL A   1      41.598  28.715  31.598  1.00  0.00     0.074 A 
ATOM     55  C   UNL A   1      41.958  31.652  37.215  1.00  0.00     0.029 A 
ATOM     56  N   UNL A   1      41.421  31.039  35.147  1.00  0.00    -0.354 N 
ATOM     57  N   UNL A   1      41.605  29.387  32.727  1.00  0.00    -0.248 NA
ATOM     58  C   UNL A   1      42.679  27.724  31.485  1.00  0.00     0.031 C 
ATOM     59  C   UNL A   1      42.858  30.666  36.797  1.00  0.00     0.029 A 
ATOM     60  C   UNL A   1      42.502  30.256  35.522  1.00  0.00     0.049 A 
ATOM     61  H   UNL A   1      40.956  30.980  34.282  1.00  0.00     0.167 HD
ATOM     62  C   UNL A   1      42.669  28.875  33.469  1.00  0.00     0.074 A 
ATOM     63  C   UNL A   1      43.273  27.834  32.665  1.00  0.00     0.031 C 
ATOM     64  C   UNL A   1      43.101  29.226  34.707  1.00  0.00     0.034 A 
BRANCH  51  65
ATOM     65  C   UNL A   1      39.855  33.855  37.259  1.00  0.00     0.023 A 
ATOM     66  C   UNL A   1      40.698  34.963  37.454  1.00  0.00     0.031 A 
ATOM     67  C   UNL A   1      38.843  33.621  38.207  1.00  0.00     0.131 A 
ATOM     68  C   UNL A   1      40.561  35.751  38.607  1.00  0.00     0.055 A 
ATOM     69  C   UNL A   1      38.662  34.456  39.310  1.00  0.00     0.041 A 
ATOM     70  F   UNL A   1      38.025  32.565  38.085  1.00  0.00    -0.206 F 
ATOM     71  C   UNL A   1      39.533  35.521  39.524  1.00  0.00     0.022 A 
BRANCH  68  72
ATOM     72  S   UNL A   1      41.834  36.992  38.964  1.00  0.00     0.124 S 
ATOM     73  O   UNL A   1      41.036  38.088  39.507  1.00  0.00    -0.237 OA
ATOM     74  O   UNL A   1      42.695  36.298  39.914  1.00  0.00    -0.237 OA
ATOM     75  O   UNL A   1      42.432  37.256  37.656  1.00  0.00    -0.744 OA
ENDBRANCH  68  72
ENDBRANCH  51  65
BRANCH  52  76
ATOM     76  C   UNL A   1      40.850  27.982  29.215  1.00  0.00     0.023 A 
ATOM     77  C   UNL A   1      41.846  28.293  28.275  1.00  0.00     0.031 A 
ATOM     78  C   UNL A   1      40.002  26.893  28.940  1.00  0.00     0.131 A 
ATOM     79  C   UNL A   1      41.940  27.555  27.084  1.00  0.00     0.055 A 
ATOM     80  C   UNL A   1      40.133  26.129  27.779  1.00  0.00     0.041 A 
ATOM     81  F   UNL A   1      39.030  26.555  29.802  1.00  0.00    -0.206 F 
ATOM     82  C   UNL A   1      41.099  26.468  26.835  1.00  0.00     0.022 A 
BRANCH  79  83
ATOM     83  S   UNL A   1      43.125  28.092  25.820  1.00  0.00     0.124 S 
ATOM     84  O   UNL A   1      44.255  27.207  26.079  1.00  0.00    -0.237 OA
ATOM     85  O   UNL A   1      42.384  27.846  24.588  1.00  0.00    -0.237 OA
ATOM     86  O   UNL A   1      43.348  29.501  26.140  1.00  0.00    -0.744 OA
ENDBRANCH  79  83
ENDBRANCH  52  76
BRANCH  64  87
ATOM     87  C   UNL A   1      44.252  28.438  35.290  1.00  0.00     0.023 A 
ATOM     88  C   UNL A   1      44.061  27.467  36.287  1.00  0.00     0.031 A 
ATOM     89  C   UNL A   1      45.562  28.667  34.831  1.00  0.00     0.131 A 
ATOM     90  C   UNL A   1      45.167  26.792  36.827  1.00  0.00     0.055 A 
ATOM     91  C   UNL A   1      46.652  27.953  35.333  1.00  0.00     0.041 A 
ATOM     92  F   UNL A   1      45.803  29.583  33.880  1.00  0.00    -0.206 F 
ATOM     93  C   UNL A   1      46.460  27.018  36.344  1.00  0.00     0.022 A 
BRANCH  90  94
ATOM     94  S   UNL A   1      44.909  25.669  38.228  1.00  0.00     0.124 S 
ATOM     95  O   UNL A   1      44.461  24.451  37.561  1.00  0.00    -0.237 OA
ATOM     96  O   UNL A   1      46.235  25.614  38.834  1.00  0.00    -0.237 OA
ATOM     97  O   UNL A   1      43.890  26.347  39.029  1.00  0.00    -0.744 OA
ENDBRANCH  90  94
ENDBRANCH  64  87
ENDBRANCH  38  39
ENDBRANCH  31  33
ENDBRANCH  30  31
ENDBRANCH  29  30
ENDBRANCH  28  29
ENDBRANCH  27  28
ENDBRANCH   1  27
TORSDOF 22
ENDMDL
MODEL 2
REMARK VINA RESULT:      -9.9      1.830      2.342
REMARK SMILES CC1(C)S[C@H](c2ccc([N+](=O)[O-])cc2)[NH2+][C@@H]1C(=O)OCCOCCOCCOC(=O)c1ccc(-c2c3nc(c(-c4cc(S(=O)(=O)[O-])ccc4F)c4ccc([nH]4)c(-c4cc(S(=O)(=O)[O-])ccc4F)c4nc(c(-c5cc(S(=O)(=O)[O-])ccc5F)c5ccc2[nH]5)C=C4)C=C3)cc1
REMARK SMILES IDX 24 1 23 2 22 3 21 4 20 5 19 6 17 7 18 8 16 9 1 10 2 11 3 12
REMARK SMILES IDX 4 13 5 14 15 15 6 18 7 19 14 20 8 21 13 22 9 23 10 24 11 25
REMARK SMILES IDX 12 26 25 27 26 28 27 29 28 30 29 31 30 32 31 33 32 34 93 35
REMARK SMILES IDX 33 36 92 37 34 38 35 39 36 40 86 41 37 42 91 43 85 44 87 45
REMARK SMILES IDX 38 46 90 47 84 48 83 49 39 51 71 52 51 53 70 54 52 55 55 56
REMARK SMILES IDX 69 57 88 58 53 59 54 60 68 62 89 63 56 64 40 65 41 66 49 67
REMARK SMILES IDX 42 68 48 69 50 70 47 71 43 72 44 73 45 74 46 75 72 76 73 77
REMARK SMILES IDX 81 78 74 79 80 80 82 81 79 82 75 83 76 84 77 85 78 86 57 87
REMARK SMILES IDX 58 88 66 89 59 90 65 91 67 92 64 93 60 94 61 95 62 96 63 97
REMARK H PARENT 15 16 15 17 87 50 55 61
REMARK Flexibility Score: inf
ROOT
ATOM      1  C   UNL A   1      35.278  31.769  28.079  1.00  0.00     0.188 C 
ENDROOT
BRANCH   1   2
ATOM      2  C   UNL A   1      35.041  30.241  28.032  1.00  0.00     0.188 C 
BRANCH   2   3
ATOM      3  O   UNL A   1      34.273  29.812  26.920  1.00  0.00    -0.376 OA
BRANCH   3   4
ATOM      4  C   UNL A   1      33.849  28.457  26.917  1.00  0.00     0.202 C 
BRANCH   4   5
ATOM      5  C   UNL A   1      32.806  28.078  25.862  1.00  0.00     0.261 C 
BRANCH   5   6
ATOM      6  O   UNL A   1      32.664  26.664  25.658  1.00  0.00    -0.459 OA
BRANCH   6   7
ATOM      7  C   UNL A   1      31.574  26.048  26.201  1.00  0.00     0.366 C 
ATOM      8  O   UNL A   1      30.665  26.653  26.749  1.00  0.00    -0.245 OA
BRANCH   7   9
ATOM      9  C   UNL A   1      31.673  24.509  25.945  1.00  0.00     0.310 C 
ATOM     10  C   UNL A   1      33.059  22.466  25.339  1.00  0.00     0.030 C 
ATOM     11  C   UNL A   1      32.922  24.002  25.206  1.00  0.00     0.079 C 
ATOM     12  C   UNL A   1      34.236  24.619  25.690  1.00  0.00     0.030 C 
ATOM     13  S   UNL A   1      32.495  24.388  23.468  1.00  0.00    -0.081 SA
ATOM     14  C   UNL A   1      30.688  24.493  23.777  1.00  0.00     0.274 C 
ATOM     15  N   UNL A   1      30.489  24.031  25.165  1.00  0.00    -0.319 N 
ATOM     16  H   UNL A   1      30.436  23.013  25.194  1.00  0.00     0.348 HD
ATOM     17  H   UNL A   1      29.619  24.395  25.555  1.00  0.00     0.348 HD
BRANCH  14  18
ATOM     18  C   UNL A   1      30.038  25.867  23.588  1.00  0.00     0.021 A 
ATOM     19  C   UNL A   1      30.758  26.868  22.891  1.00  0.00     0.018 A 
ATOM     20  C   UNL A   1      28.744  26.182  24.032  1.00  0.00     0.018 A 
ATOM     21  C   UNL A   1      30.163  28.074  22.524  1.00  0.00     0.086 A 
ATOM     22  C   UNL A   1      28.142  27.397  23.684  1.00  0.00     0.086 A 
ATOM     23  C   UNL A   1      28.843  28.319  22.900  1.00  0.00     0.269 A 
BRANCH  23  24
ATOM     24  N   UNL A   1      28.176  29.533  22.428  1.00  0.00     0.062 N 
ATOM     25  O   UNL A   1      27.276  30.007  23.139  1.00  0.00    -0.258 OA
ATOM     26  O   UNL A   1      28.552  30.019  21.352  1.00  0.00    -0.258 OA
ENDBRANCH  23  24
ENDBRANCH  14  18
ENDBRANCH   7   9
ENDBRANCH   6   7
ENDBRANCH   5   6
ENDBRANCH   4   5
ENDBRANCH   3   4
ENDBRANCH   2   3
ENDBRANCH   1   2
BRANCH   1  27
ATOM     27  O   UNL A   1      34.380  32.607  28.796  1.00  0.00    -0.376 OA
BRANCH  27  28
ATOM     28  C   UNL A   1      34.234  33.962  28.396  1.00  0.00     0.202 C 
BRANCH  28  29
ATOM     29  C   UNL A   1      33.118  34.800  29.035  1.00  0.00     0.261 C 
BRANCH  29  30
ATOM     30  O   UNL A   1      33.553  35.707  30.064  1.00  0.00    -0.460 OA
BRANCH  30  31
ATOM     31  C   UNL A   1      33.162  35.390  31.327  1.00  0.00     0.338 C 
ATOM     32  O   UNL A   1      32.037  35.475  31.785  1.00  0.00    -0.246 OA
BRANCH  31  33
ATOM     33  C   UNL A   1      34.271  34.719  32.043  1.00  0.00     0.060 A 
ATOM     34  C   UNL A   1      35.553  35.280  31.955  1.00  0.00     0.016 A 
ATOM     35  C   UNL A   1      34.071  33.535  32.756  1.00  0.00     0.016 A 
ATOM     36  C   UNL A   1      36.645  34.647  32.553  1.00  0.00     0.010 A 
ATOM     37  C   UNL A   1      35.171  32.887  33.332  1.00  0.00     0.010 A 
ATOM     38  C   UNL A   1      36.466  33.423  33.208  1.00  0.00    -0.014 A 
BRANCH  38  39
ATOM     39  C   UNL A   1      37.646  32.599  33.577  1.00  0.00     0.031 A 
ATOM     40  C   UNL A   1      38.354  32.910  34.869  1.00  0.00     0.074 A 
ATOM     41  C   UNL A   1      38.087  31.601  32.789  1.00  0.00     0.049 A 
ATOM     42  N   UNL A   1      39.452  32.400  35.362  1.00  0.00    -0.248 NA
ATOM     43  C   UNL A   1      37.734  33.942  35.714  1.00  0.00     0.031 C 
ATOM     44  C   UNL A   1      37.460  31.166  31.544  1.00  0.00     0.029 A 
ATOM     45  N   UNL A   1      39.182  30.781  32.920  1.00  0.00    -0.354 N 
ATOM     46  C   UNL A   1      39.659  33.050  36.573  1.00  0.00     0.074 A 
ATOM     47  C   UNL A   1      38.589  34.014  36.722  1.00  0.00     0.031 C 
ATOM     48  C   UNL A   1      38.196  30.174  31.010  1.00  0.00     0.029 A 
ATOM     49  C   UNL A   1      39.365  29.931  31.855  1.00  0.00     0.049 A 
ATOM     50  H   UNL A   1      39.779  30.802  33.703  1.00  0.00     0.167 HD
ATOM     51  C   UNL A   1      40.650  32.864  37.480  1.00  0.00     0.034 A 
ATOM     52  C   UNL A   1      40.378  29.083  31.578  1.00  0.00     0.034 A 
ATOM     53  C   UNL A   1      41.728  31.922  37.310  1.00  0.00     0.049 A 
ATOM     54  C   UNL A   1      41.530  28.966  32.551  1.00  0.00     0.074 A 
ATOM     55  C   UNL A   1      42.779  31.650  38.167  1.00  0.00     0.029 A 
ATOM     56  N   UNL A   1      41.904  31.109  36.197  1.00  0.00    -0.354 N 
ATOM     57  N   UNL A   1      41.714  29.584  33.696  1.00  0.00    -0.248 NA
ATOM     58  C   UNL A   1      42.610  28.034  32.194  1.00  0.00     0.031 C 
ATOM     59  C   UNL A   1      43.627  30.729  37.543  1.00  0.00     0.029 A 
ATOM     60  C   UNL A   1      43.064  30.363  36.331  1.00  0.00     0.049 A 
ATOM     61  H   UNL A   1      41.293  31.069  35.426  1.00  0.00     0.167 HD
ATOM     62  C   UNL A   1      42.913  29.088  34.209  1.00  0.00     0.074 A 
ATOM     63  C   UNL A   1      43.402  28.117  33.254  1.00  0.00     0.031 C 
ATOM     64  C   UNL A   1      43.547  29.401  35.367  1.00  0.00     0.034 A 
BRANCH  51  65
ATOM     65  C   UNL A   1      40.636  33.745  38.705  1.00  0.00     0.023 A 
ATOM     66  C   UNL A   1      39.788  33.480  39.795  1.00  0.00     0.031 A 
ATOM     67  C   UNL A   1      41.450  34.889  38.765  1.00  0.00     0.131 A 
ATOM     68  C   UNL A   1      39.720  34.387  40.863  1.00  0.00     0.055 A 
ATOM     69  C   UNL A   1      41.436  35.745  39.867  1.00  0.00     0.041 A 
ATOM     70  F   UNL A   1      42.261  35.204  37.743  1.00  0.00    -0.206 F 
ATOM     71  C   UNL A   1      40.556  35.505  40.919  1.00  0.00     0.022 A 
BRANCH  68  72
ATOM     72  S   UNL A   1      38.422  34.162  42.109  1.00  0.00     0.124 S 
ATOM     73  O   UNL A   1      39.184  33.640  43.240  1.00  0.00    -0.237 OA
ATOM     74  O   UNL A   1      37.894  35.513  42.264  1.00  0.00    -0.237 OA
ATOM     75  O   UNL A   1      37.511  33.204  41.486  1.00  0.00    -0.744 OA
ENDBRANCH  68  72
ENDBRANCH  51  65
BRANCH  52  76
ATOM     76  C   UNL A   1      40.395  28.311  30.302  1.00  0.00     0.023 A 
ATOM     77  C   UNL A   1      41.243  28.674  29.243  1.00  0.00     0.031 A 
ATOM     78  C   UNL A   1      39.507  27.239  30.096  1.00  0.00     0.131 A 
ATOM     79  C   UNL A   1      41.153  28.003  28.013  1.00  0.00     0.055 A 
ATOM     80  C   UNL A   1      39.458  26.541  28.888  1.00  0.00     0.041 A 
ATOM     81  F   UNL A   1      38.670  26.854  31.073  1.00  0.00    -0.206 F 
ATOM     82  C   UNL A   1      40.276  26.932  27.832  1.00  0.00     0.022 A 
BRANCH  79  83
ATOM     83  S   UNL A   1      42.143  28.609  26.619  1.00  0.00     0.124 S 
ATOM     84  O   UNL A   1      41.108  29.058  25.694  1.00  0.00    -0.237 OA
ATOM     85  O   UNL A   1      42.940  29.657  27.247  1.00  0.00    -0.237 OA
ATOM     86  O   UNL A   1      42.892  27.429  26.194  1.00  0.00    -0.744 OA
ENDBRANCH  79  83
ENDBRANCH  52  76
BRANCH  64  87
ATOM     87  C   UNL A   1      44.812  28.643  35.692  1.00  0.00     0.023 A 
ATOM     88  C   UNL A   1      44.793  27.424  36.391  1.00  0.00     0.031 A 
ATOM     89  C   UNL A   1      46.060  29.155  35.290  1.00  0.00     0.131 A 
ATOM     90  C   UNL A   1      45.999  26.779  36.707  1.00  0.00     0.055 A 
ATOM     91  C   UNL A   1      47.252  28.481  35.558  1.00  0.00     0.041 A 
ATOM     92  F   UNL A   1      46.139  30.316  34.621  1.00  0.00    -0.206 F 
ATOM     93  C   UNL A   1      47.228  27.292  36.280  1.00  0.00     0.022 A 
BRANCH  90  94
ATOM     94  S   UNL A   1      45.952  25.298  37.753  1.00  0.00     0.124 S 
ATOM     95  O   UNL A   1      45.276  25.793  38.948  1.00  0.00    -0.237 OA
ATOM     96  O   UNL A   1      45.192  24.360  36.933  1.00  0.00    -0.237 OA
ATOM     97  O   UNL A   1      47.363  24.960  37.934  1.00  0.00    -0.744 OA
ENDBRANCH  90  94
ENDBRANCH  64  87
ENDBRANCH  38  39
ENDBRANCH  31  33
ENDBRANCH  30  31
ENDBRANCH  29  30
ENDBRANCH  28  29
ENDBRANCH  27  28
ENDBRANCH   1  27
TORSDOF 22
ENDMDL
MODEL 3
REMARK VINA RESULT:      -9.8      2.005      3.309
REMARK SMILES CC1(C)S[C@H](c2ccc([N+](=O)[O-])cc2)[NH2+][C@@H]1C(=O)OCCOCCOCCOC(=O)c1ccc(-c2c3nc(c(-c4cc(S(=O)(=O)[O-])ccc4F)c4ccc([nH]4)c(-c4cc(S(=O)(=O)[O-])ccc4F)c4nc(c(-c5cc(S(=O)(=O)[O-])ccc5F)c5ccc2[nH]5)C=C4)C=C3)cc1
REMARK SMILES IDX 24 1 23 2 22 3 21 4 20 5 19 6 17 7 18 8 16 9 1 10 2 11 3 12
REMARK SMILES IDX 4 13 5 14 15 15 6 18 7 19 14 20 8 21 13 22 9 23 10 24 11 25
REMARK SMILES IDX 12 26 25 27 26 28 27 29 28 30 29 31 30 32 31 33 32 34 93 35
REMARK SMILES IDX 33 36 92 37 34 38 35 39 36 40 86 41 37 42 91 43 85 44 87 45
REMARK SMILES IDX 38 46 90 47 84 48 83 49 39 51 71 52 51 53 70 54 52 55 55 56
REMARK SMILES IDX 69 57 88 58 53 59 54 60 68 62 89 63 56 64 40 65 41 66 49 67
REMARK SMILES IDX 42 68 48 69 50 70 47 71 43 72 44 73 45 74 46 75 72 76 73 77
REMARK SMILES IDX 81 78 74 79 80 80 82 81 79 82 75 83 76 84 77 85 78 86 57 87
REMARK SMILES IDX 58 88 66 89 59 90 65 91 67 92 64 93 60 94 61 95 62 96 63 97
REMARK H PARENT 15 16 15 17 87 50 55 61
REMARK Flexibility Score: inf
ROOT
ATOM      1  C   UNL A   1      31.847  31.708  26.731  1.00  0.00     0.188 C 
ENDROOT
BRANCH   1   2
ATOM      2  C   UNL A   1      33.086  30.806  26.948  1.00  0.00     0.188 C 
BRANCH   2   3
ATOM      3  O   UNL A   1      32.780  29.524  27.467  1.00  0.00    -0.376 OA
BRANCH   3   4
ATOM      4  C   UNL A   1      33.829  28.567  27.474  1.00  0.00     0.202 C 
BRANCH   4   5
ATOM      5  C   UNL A   1      34.021  27.766  26.184  1.00  0.00     0.261 C 
BRANCH   5   6
ATOM      6  O   UNL A   1      33.331  26.507  26.165  1.00  0.00    -0.459 OA
BRANCH   6   7
ATOM      7  C   UNL A   1      32.303  26.357  25.281  1.00  0.00     0.366 C 
ATOM      8  O   UNL A   1      31.372  25.586  25.458  1.00  0.00    -0.245 OA
BRANCH   7   9
ATOM      9  C   UNL A   1      32.499  27.353  24.092  1.00  0.00     0.310 C 
ATOM     10  C   UNL A   1      31.512  28.800  22.250  1.00  0.00     0.030 C 
ATOM     11  C   UNL A   1      31.307  27.551  23.142  1.00  0.00     0.079 C 
ATOM     12  C   UNL A   1      29.959  27.712  23.846  1.00  0.00     0.030 C 
ATOM     13  S   UNL A   1      31.439  26.066  22.080  1.00  0.00    -0.081 SA
ATOM     14  C   UNL A   1      33.208  25.760  22.469  1.00  0.00     0.274 C 
ATOM     15  N   UNL A   1      33.659  26.933  23.244  1.00  0.00    -0.319 N 
ATOM     16  H   UNL A   1      33.926  27.689  22.614  1.00  0.00     0.348 HD
ATOM     17  H   UNL A   1      34.472  26.708  23.817  1.00  0.00     0.348 HD
BRANCH  14  18
ATOM     18  C   UNL A   1      33.529  24.474  23.239  1.00  0.00     0.021 A 
ATOM     19  C   UNL A   1      32.568  23.434  23.252  1.00  0.00     0.018 A 
ATOM     20  C   UNL A   1      34.746  24.249  23.901  1.00  0.00     0.018 A 
ATOM     21  C   UNL A   1      32.862  22.174  23.772  1.00  0.00     0.086 A 
ATOM     22  C   UNL A   1      35.046  22.994  24.443  1.00  0.00     0.086 A 
ATOM     23  C   UNL A   1      34.117  21.954  24.341  1.00  0.00     0.269 A 
BRANCH  23  24
ATOM     24  N   UNL A   1      34.473  20.609  24.792  1.00  0.00     0.062 N 
ATOM     25  O   UNL A   1      33.555  19.784  24.922  1.00  0.00    -0.258 OA
ATOM     26  O   UNL A   1      35.669  20.370  25.015  1.00  0.00    -0.258 OA
ENDBRANCH  23  24
ENDBRANCH  14  18
ENDBRANCH   7   9
ENDBRANCH   6   7
ENDBRANCH   5   6
ENDBRANCH   4   5
ENDBRANCH   3   4
ENDBRANCH   2   3
ENDBRANCH   1   2
BRANCH   1  27
ATOM     27  O   UNL A   1      31.796  33.000  27.322  1.00  0.00    -0.376 OA
BRANCH  27  28
ATOM     28  C   UNL A   1      32.980  33.547  27.886  1.00  0.00     0.202 C 
BRANCH  28  29
ATOM     29  C   UNL A   1      32.911  34.937  28.533  1.00  0.00     0.261 C 
BRANCH  29  30
ATOM     30  O   UNL A   1      32.412  34.955  29.883  1.00  0.00    -0.460 OA
BRANCH  30  31
ATOM     31  C   UNL A   1      33.292  35.384  30.826  1.00  0.00     0.338 C 
ATOM     32  O   UNL A   1      33.157  36.339  31.569  1.00  0.00    -0.246 OA
BRANCH  31  33
ATOM     33  C   UNL A   1      34.386  34.397  30.980  1.00  0.00     0.060 A 
ATOM     34  C   UNL A   1      34.148  33.263  31.772  1.00  0.00     0.016 A 
ATOM     35  C   UNL A   1      35.638  34.594  30.395  1.00  0.00     0.016 A 
ATOM     36  C   UNL A   1      35.168  32.339  32.006  1.00  0.00     0.010 A 
ATOM     37  C   UNL A   1      36.668  33.681  30.654  1.00  0.00     0.010 A 
ATOM     38  C   UNL A   1      36.447  32.566  31.484  1.00  0.00    -0.014 A 
BRANCH  38  39
ATOM     39  C   UNL A   1      37.601  31.766  31.972  1.00  0.00     0.031 A 
ATOM     40  C   UNL A   1      38.193  32.116  33.311  1.00  0.00     0.074 A 
ATOM     41  C   UNL A   1      38.117  30.755  31.250  1.00  0.00     0.049 A 
ATOM     42  N   UNL A   1      39.249  31.632  33.909  1.00  0.00    -0.248 NA
ATOM     43  C   UNL A   1      37.493  33.161  34.074  1.00  0.00     0.031 C 
ATOM     44  C   UNL A   1      37.603  30.282  29.967  1.00  0.00     0.029 A 
ATOM     45  N   UNL A   1      39.205  29.952  31.494  1.00  0.00    -0.354 N 
ATOM     46  C   UNL A   1      39.347  32.314  35.116  1.00  0.00     0.074 A 
ATOM     47  C   UNL A   1      38.257  33.267  35.149  1.00  0.00     0.031 C 
ATOM     48  C   UNL A   1      38.391  29.287  29.523  1.00  0.00     0.029 A 
ATOM     49  C   UNL A   1      39.487  29.078  30.469  1.00  0.00     0.049 A 
ATOM     50  H   UNL A   1      39.733  29.998  32.323  1.00  0.00     0.167 HD
ATOM     51  C   UNL A   1      40.259  32.161  36.108  1.00  0.00     0.034 A 
ATOM     52  C   UNL A   1      40.528  28.236  30.301  1.00  0.00     0.034 A 
ATOM     53  C   UNL A   1      41.356  31.229  36.054  1.00  0.00     0.049 A 
ATOM     54  C   UNL A   1      41.594  28.156  31.371  1.00  0.00     0.074 A 
ATOM     55  C   UNL A   1      42.333  30.990  37.004  1.00  0.00     0.029 A 
ATOM     56  N   UNL A   1      41.634  30.392  34.981  1.00  0.00    -0.354 N 
ATOM     57  N   UNL A   1      41.674  28.804  32.511  1.00  0.00    -0.248 NA
ATOM     58  C   UNL A   1      42.710  27.230  31.130  1.00  0.00     0.031 C 
ATOM     59  C   UNL A   1      43.240  30.064  36.477  1.00  0.00     0.029 A 
ATOM     60  C   UNL A   1      42.787  29.662  35.231  1.00  0.00     0.049 A 
ATOM     61  H   UNL A   1      41.092  30.326  34.162  1.00  0.00     0.167 HD
ATOM     62  C   UNL A   1      42.829  28.336  33.136  1.00  0.00     0.074 A 
ATOM     63  C   UNL A   1      43.408  27.348  32.251  1.00  0.00     0.031 C 
ATOM     64  C   UNL A   1      43.359  28.684  34.336  1.00  0.00     0.034 A 
BRANCH  51  65
ATOM     65  C   UNL A   1      40.131  33.071  37.305  1.00  0.00     0.023 A 
ATOM     66  C   UNL A   1      39.546  32.634  38.506  1.00  0.00     0.031 A 
ATOM     67  C   UNL A   1      40.561  34.407  37.229  1.00  0.00     0.131 A 
ATOM     68  C   UNL A   1      39.341  33.544  39.555  1.00  0.00     0.055 A 
ATOM     69  C   UNL A   1      40.426  35.286  38.304  1.00  0.00     0.041 A 
ATOM     70  F   UNL A   1      41.104  34.886  36.098  1.00  0.00    -0.206 F 
ATOM     71  C   UNL A   1      39.799  34.861  39.472  1.00  0.00     0.022 A 
BRANCH  68  72
ATOM     72  S   UNL A   1      38.337  33.019  40.972  1.00  0.00     0.124 S 
ATOM     73  O   UNL A   1      37.157  33.868  40.829  1.00  0.00    -0.237 OA
ATOM     74  O   UNL A   1      38.138  31.599  40.709  1.00  0.00    -0.237 OA
ATOM     75  O   UNL A   1      39.182  33.329  42.123  1.00  0.00    -0.744 OA
ENDBRANCH  68  72
ENDBRANCH  51  65
BRANCH  52  76
ATOM     76  C   UNL A   1      40.661  27.434  29.050  1.00  0.00     0.023 A 
ATOM     77  C   UNL A   1      41.579  27.792  28.051  1.00  0.00     0.031 A 
ATOM     78  C   UNL A   1      39.817  26.335  28.806  1.00  0.00     0.131 A 
ATOM     79  C   UNL A   1      41.600  27.090  26.835  1.00  0.00     0.055 A 
ATOM     80  C   UNL A   1      39.878  25.606  27.617  1.00  0.00     0.041 A 
ATOM     81  F   UNL A   1      38.918  25.952  29.726  1.00  0.00    -0.206 F 
ATOM     82  C   UNL A   1      40.765  25.992  26.616  1.00  0.00     0.022 A 
BRANCH  79  83
ATOM     83  S   UNL A   1      42.679  27.687  25.504  1.00  0.00     0.124 S 
ATOM     84  O   UNL A   1      42.761  26.515  24.641  1.00  0.00    -0.237 OA
ATOM     85  O   UNL A   1      41.918  28.818  24.983  1.00  0.00    -0.237 OA
ATOM     86  O   UNL A   1      43.915  28.039  26.200  1.00  0.00    -0.744 OA
ENDBRANCH  79  83
ENDBRANCH  52  76
BRANCH  64  87
ATOM     87  C   UNL A   1      44.600  27.950  34.787  1.00  0.00     0.023 A 
ATOM     88  C   UNL A   1      44.533  26.746  35.510  1.00  0.00     0.031 A 
ATOM     89  C   UNL A   1      45.872  28.467  34.481  1.00  0.00     0.131 A 
ATOM     90  C   UNL A   1      45.715  26.124  35.943  1.00  0.00     0.055 A 
ATOM     91  C   UNL A   1      47.044  27.815  34.866  1.00  0.00     0.041 A 
ATOM     92  F   UNL A   1      45.996  29.613  33.793  1.00  0.00    -0.206 F 
ATOM     93  C   UNL A   1      46.970  26.642  35.611  1.00  0.00     0.022 A 
BRANCH  90  94
ATOM     94  S   UNL A   1      45.593  24.667  37.017  1.00  0.00     0.124 S 
ATOM     95  O   UNL A   1      45.634  23.574  36.050  1.00  0.00    -0.237 OA
ATOM     96  O   UNL A   1      46.768  24.808  37.869  1.00  0.00    -0.237 OA
ATOM     97  O   UNL A   1      44.311  24.846  37.695  1.00  0.00    -0.744 OA
ENDBRANCH  90  94
ENDBRANCH  64  87
ENDBRANCH  38  39
ENDBRANCH  31  33
ENDBRANCH  30  31
ENDBRANCH  29  30
ENDBRANCH  28  29
ENDBRANCH  27  28
ENDBRANCH   1  27
TORSDOF 22
ENDMDL
