MODEL 1
REMARK VINA RESULT:      -9.4      0.000      0.000
REMARK SMILES O=C(C[NH+]1CC(c2nc(-c3cccs3)no2)C1)OCCOCCOCCOC(=O)c1ccc(-c2c3nc(c(-c4cc(S(=O)(=O)[O-])ccc4F)c4ccc([nH]4)c(-c4cc(S(=O)(=O)[O-])ccc4F)c4nc(c(-c5cc(S(=O)(=O)[O-])ccc5F)c5ccc2[nH]5)C=C4)C=C3)cc1
REMARK SMILES IDX 22 1 21 2 20 3 19 4 18 5 2 6 1 7 3 8 4 9 5 10 17 11 6 13
REMARK SMILES IDX 7 14 8 15 16 16 9 17 15 18 10 19 11 20 14 21 12 22 13 23
REMARK SMILES IDX 23 24 24 25 25 26 26 27 27 28 28 29 29 30 30 31 31 32 92 33
REMARK SMILES IDX 32 34 91 35 33 36 34 37 35 38 85 39 36 40 90 41 84 42 86 43
REMARK SMILES IDX 37 44 89 45 83 46 82 47 38 49 70 50 50 51 69 52 51 53 54 54
REMARK SMILES IDX 68 55 87 56 52 57 53 58 67 60 88 61 55 62 39 63 40 64 48 65
REMARK SMILES IDX 41 66 47 67 49 68 46 69 42 70 43 71 44 72 45 73 71 74 72 75
REMARK SMILES IDX 80 76 73 77 79 78 81 79 78 80 74 81 75 82 76 83 77 84 56 85
REMARK SMILES IDX 57 86 65 87 58 88 64 89 66 90 63 91 59 92 60 93 61 94 62 95
REMARK H PARENT 4 12 86 48 54 59
REMARK Flexibility Score: inf
ROOT
ATOM      1  C   UNL A   1      32.189  28.940  23.629  1.00  0.00     0.188 C 
ENDROOT
BRANCH   1   2
ATOM      2  O   UNL A   1      33.403  28.450  24.173  1.00  0.00    -0.376 OA
BRANCH   2   3
ATOM      3  C   UNL A   1      33.567  27.055  24.403  1.00  0.00     0.202 C 
BRANCH   3   4
ATOM      4  C   UNL A   1      33.285  26.461  25.781  1.00  0.00     0.261 C 
BRANCH   4   5
ATOM      5  O   UNL A   1      31.926  26.300  26.285  1.00  0.00    -0.459 OA
BRANCH   5   6
ATOM      6  C   UNL A   1      30.767  25.778  25.836  1.00  0.00     0.361 C 
ATOM      7  O   UNL A   1      30.167  26.364  24.934  1.00  0.00    -0.245 OA
BRANCH   6   8
ATOM      8  C   UNL A   1      30.222  24.495  26.430  1.00  0.00     0.386 C 
BRANCH   8   9
ATOM      9  N   UNL A   1      30.283  23.367  25.489  1.00  0.00    -0.324 N 
ATOM     10  C   UNL A   1      31.430  23.403  24.563  1.00  0.00     0.282 C 
ATOM     11  C   UNL A   1      30.896  22.188  26.149  1.00  0.00     0.282 C 
ATOM     12  H   UNL A   1      29.335  23.369  25.114  1.00  0.00     0.348 HD
ATOM     13  C   UNL A   1      31.614  21.885  24.805  1.00  0.00     0.188 C 
BRANCH  13  14
ATOM     14  C   UNL A   1      33.046  21.440  24.998  1.00  0.00     0.241 A 
ATOM     15  N   UNL A   1      33.975  22.228  25.485  1.00  0.00    -0.190 NA
ATOM     16  O   UNL A   1      33.530  20.212  24.639  1.00  0.00    -0.338 OA
ATOM     17  C   UNL A   1      35.117  21.479  25.336  1.00  0.00     0.212 A 
ATOM     18  N   UNL A   1      34.904  20.237  24.877  1.00  0.00    -0.056 NA
BRANCH  17  19
ATOM     19  C   UNL A   1      36.465  22.063  25.603  1.00  0.00     0.075 A 
ATOM     20  C   UNL A   1      36.645  23.366  26.022  1.00  0.00     0.024 A 
ATOM     21  S   UNL A   1      37.948  21.254  25.379  1.00  0.00    -0.140 S 
ATOM     22  C   UNL A   1      38.022  23.716  26.112  1.00  0.00     0.012 A 
ATOM     23  C   UNL A   1      38.842  22.662  25.772  1.00  0.00     0.065 A 
ENDBRANCH  17  19
ENDBRANCH  13  14
ENDBRANCH   8   9
ENDBRANCH   6   8
ENDBRANCH   5   6
ENDBRANCH   4   5
ENDBRANCH   3   4
ENDBRANCH   2   3
ENDBRANCH   1   2
BRANCH   1  24
ATOM     24  C   UNL A   1      31.265  29.676  24.608  1.00  0.00     0.188 C 
BRANCH  24  25
ATOM     25  O   UNL A   1      31.508  29.504  25.996  1.00  0.00    -0.376 OA
BRANCH  25  26
ATOM     26  C   UNL A   1      32.197  30.548  26.686  1.00  0.00     0.202 C 
BRANCH  26  27
ATOM     27  C   UNL A   1      33.620  30.299  27.214  1.00  0.00     0.261 C 
BRANCH  27  28
ATOM     28  O   UNL A   1      34.363  31.508  27.471  1.00  0.00    -0.460 OA
BRANCH  28  29
ATOM     29  C   UNL A   1      34.963  31.568  28.683  1.00  0.00     0.338 C 
ATOM     30  O   UNL A   1      34.573  32.190  29.662  1.00  0.00    -0.246 OA
BRANCH  29  31
ATOM     31  C   UNL A   1      36.116  30.652  28.750  1.00  0.00     0.060 A 
ATOM     32  C   UNL A   1      36.199  29.766  29.831  1.00  0.00     0.016 A 
ATOM     33  C   UNL A   1      37.183  30.784  27.859  1.00  0.00     0.016 A 
ATOM     34  C   UNL A   1      37.368  29.032  30.049  1.00  0.00     0.010 A 
ATOM     35  C   UNL A   1      38.361  30.062  28.090  1.00  0.00     0.010 A 
ATOM     36  C   UNL A   1      38.473  29.212  29.206  1.00  0.00    -0.014 A 
BRANCH  36  37
ATOM     37  C   UNL A   1      39.798  28.666  29.600  1.00  0.00     0.031 A 
ATOM     38  C   UNL A   1      40.582  29.377  30.673  1.00  0.00     0.074 A 
ATOM     39  C   UNL A   1      40.294  27.552  29.032  1.00  0.00     0.049 A 
ATOM     40  N   UNL A   1      41.779  29.123  31.137  1.00  0.00    -0.248 NA
ATOM     41  C   UNL A   1      39.922  30.531  31.303  1.00  0.00     0.031 C 
ATOM     42  C   UNL A   1      39.612  26.743  28.024  1.00  0.00     0.029 A 
ATOM     43  N   UNL A   1      41.496  26.915  29.220  1.00  0.00    -0.354 N 
ATOM     44  C   UNL A   1      42.018  30.085  32.114  1.00  0.00     0.074 A 
ATOM     45  C   UNL A   1      40.855  30.946  32.147  1.00  0.00     0.031 C 
ATOM     46  C   UNL A   1      40.415  25.726  27.667  1.00  0.00     0.029 A 
ATOM     47  C   UNL A   1      41.681  25.831  28.393  1.00  0.00     0.049 A 
ATOM     48  H   UNL A   1      42.162  27.205  29.883  1.00  0.00     0.167 HD
ATOM     49  C   UNL A   1      43.104  30.233  32.913  1.00  0.00     0.034 A 
ATOM     50  C   UNL A   1      42.757  25.036  28.222  1.00  0.00     0.034 A 
ATOM     51  C   UNL A   1      44.268  29.382  32.858  1.00  0.00     0.049 A 
ATOM     52  C   UNL A   1      43.997  25.282  29.050  1.00  0.00     0.074 A 
ATOM     53  C   UNL A   1      45.417  29.441  33.628  1.00  0.00     0.029 A 
ATOM     54  N   UNL A   1      44.439  28.326  31.972  1.00  0.00    -0.354 N 
ATOM     55  N   UNL A   1      44.210  26.191  29.973  1.00  0.00    -0.248 NA
ATOM     56  C   UNL A   1      45.140  24.389  28.815  1.00  0.00     0.031 C 
ATOM     57  C   UNL A   1      46.310  28.469  33.160  1.00  0.00     0.029 A 
ATOM     58  C   UNL A   1      45.689  27.751  32.151  1.00  0.00     0.049 A 
ATOM     59  H   UNL A   1      43.771  28.030  31.313  1.00  0.00     0.167 HD
ATOM     60  C   UNL A   1      45.499  25.957  30.448  1.00  0.00     0.074 A 
ATOM     61  C   UNL A   1      46.010  24.817  29.720  1.00  0.00     0.031 C 
ATOM     62  C   UNL A   1      46.195  26.621  31.409  1.00  0.00     0.034 A 
BRANCH  49  63
ATOM     63  C   UNL A   1      43.098  31.398  33.874  1.00  0.00     0.023 A 
ATOM     64  C   UNL A   1      42.514  31.303  35.149  1.00  0.00     0.031 A 
ATOM     65  C   UNL A   1      43.655  32.632  33.495  1.00  0.00     0.131 A 
ATOM     66  C   UNL A   1      42.436  32.439  35.969  1.00  0.00     0.055 A 
ATOM     67  C   UNL A   1      43.644  33.738  34.347  1.00  0.00     0.041 A 
ATOM     68  F   UNL A   1      44.207  32.788  32.281  1.00  0.00    -0.206 F 
ATOM     69  C   UNL A   1      43.018  33.649  35.587  1.00  0.00     0.022 A 
BRANCH  66  70
ATOM     70  S   UNL A   1      41.440  32.350  37.482  1.00  0.00     0.124 S 
ATOM     71  O   UNL A   1      41.310  33.762  37.834  1.00  0.00    -0.237 OA
ATOM     72  O   UNL A   1      40.223  31.691  37.020  1.00  0.00    -0.237 OA
ATOM     73  O   UNL A   1      42.268  31.563  38.393  1.00  0.00    -0.744 OA
ENDBRANCH  66  70
ENDBRANCH  49  63
BRANCH  50  74
ATOM     74  C   UNL A   1      42.746  23.960  27.189  1.00  0.00     0.023 A 
ATOM     75  C   UNL A   1      42.157  22.712  27.444  1.00  0.00     0.031 A 
ATOM     76  C   UNL A   1      43.388  24.146  25.951  1.00  0.00     0.131 A 
ATOM     77  C   UNL A   1      42.263  21.682  26.495  1.00  0.00     0.055 A 
ATOM     78  C   UNL A   1      43.446  23.136  24.990  1.00  0.00     0.041 A 
ATOM     79  F   UNL A   1      43.970  25.319  25.657  1.00  0.00    -0.206 F 
ATOM     80  C   UNL A   1      42.892  21.889  25.265  1.00  0.00     0.022 A 
BRANCH  77  81
ATOM     81  S   UNL A   1      41.642  20.033  26.927  1.00  0.00     0.124 S 
ATOM     82  O   UNL A   1      40.406  20.357  27.630  1.00  0.00    -0.237 OA
ATOM     83  O   UNL A   1      41.492  19.414  25.614  1.00  0.00    -0.237 OA
ATOM     84  O   UNL A   1      42.706  19.476  27.759  1.00  0.00    -0.744 OA
ENDBRANCH  77  81
ENDBRANCH  50  74
BRANCH  62  85
ATOM     85  C   UNL A   1      47.568  26.094  31.754  1.00  0.00     0.023 A 
ATOM     86  C   UNL A   1      47.781  25.230  32.842  1.00  0.00     0.031 A 
ATOM     87  C   UNL A   1      48.681  26.469  30.980  1.00  0.00     0.131 A 
ATOM     88  C   UNL A   1      49.083  24.812  33.160  1.00  0.00     0.055 A 
ATOM     89  C   UNL A   1      49.966  26.004  31.265  1.00  0.00     0.041 A 
ATOM     90  F   UNL A   1      48.538  27.292  29.930  1.00  0.00    -0.206 F 
ATOM     91  C   UNL A   1      50.175  25.180  32.368  1.00  0.00     0.022 A 
BRANCH  88  92
ATOM     92  S   UNL A   1      49.348  23.846  34.672  1.00  0.00     0.124 S 
ATOM     93  O   UNL A   1      48.385  22.761  34.511  1.00  0.00    -0.237 OA
ATOM     94  O   UNL A   1      50.754  23.472  34.561  1.00  0.00    -0.237 OA
ATOM     95  O   UNL A   1      49.043  24.792  35.743  1.00  0.00    -0.744 OA
ENDBRANCH  88  92
ENDBRANCH  62  85
ENDBRANCH  36  37
ENDBRANCH  29  31
ENDBRANCH  28  29
ENDBRANCH  27  28
ENDBRANCH  26  27
ENDBRANCH  25  26
ENDBRANCH  24  25
ENDBRANCH   1  24
TORSDOF 23
ENDMDL
MODEL 2
REMARK VINA RESULT:      -9.3      3.314      4.319
REMARK SMILES O=C(C[NH+]1CC(c2nc(-c3cccs3)no2)C1)OCCOCCOCCOC(=O)c1ccc(-c2c3nc(c(-c4cc(S(=O)(=O)[O-])ccc4F)c4ccc([nH]4)c(-c4cc(S(=O)(=O)[O-])ccc4F)c4nc(c(-c5cc(S(=O)(=O)[O-])ccc5F)c5ccc2[nH]5)C=C4)C=C3)cc1
REMARK SMILES IDX 22 1 21 2 20 3 19 4 18 5 2 6 1 7 3 8 4 9 5 10 17 11 6 13
REMARK SMILES IDX 7 14 8 15 16 16 9 17 15 18 10 19 11 20 14 21 12 22 13 23
REMARK SMILES IDX 23 24 24 25 25 26 26 27 27 28 28 29 29 30 30 31 31 32 92 33
REMARK SMILES IDX 32 34 91 35 33 36 34 37 35 38 85 39 36 40 90 41 84 42 86 43
REMARK SMILES IDX 37 44 89 45 83 46 82 47 38 49 70 50 50 51 69 52 51 53 54 54
REMARK SMILES IDX 68 55 87 56 52 57 53 58 67 60 88 61 55 62 39 63 40 64 48 65
REMARK SMILES IDX 41 66 47 67 49 68 46 69 42 70 43 71 44 72 45 73 71 74 72 75
REMARK SMILES IDX 80 76 73 77 79 78 81 79 78 80 74 81 75 82 76 83 77 84 56 85
REMARK SMILES IDX 57 86 65 87 58 88 64 89 66 90 63 91 59 92 60 93 61 94 62 95
REMARK H PARENT 4 12 86 48 54 59
REMARK Flexibility Score: inf
ROOT
ATOM      1  C   UNL A   1      30.314  27.882  23.251  1.00  0.00     0.188 C 
ENDROOT
BRANCH   1   2
ATOM      2  O   UNL A   1      29.899  27.053  24.323  1.00  0.00    -0.376 OA
BRANCH   2   3
ATOM      3  C   UNL A   1      30.179  25.658  24.291  1.00  0.00     0.202 C 
BRANCH   3   4
ATOM      4  C   UNL A   1      30.766  25.015  23.038  1.00  0.00     0.261 C 
BRANCH   4   5
ATOM      5  O   UNL A   1      32.202  24.814  22.878  1.00  0.00    -0.459 OA
BRANCH   5   6
ATOM      6  C   UNL A   1      33.312  25.579  22.915  1.00  0.00     0.361 C 
ATOM      7  O   UNL A   1      33.920  25.786  21.865  1.00  0.00    -0.245 OA
BRANCH   6   8
ATOM      8  C   UNL A   1      33.791  26.172  24.224  1.00  0.00     0.386 C 
BRANCH   8   9
ATOM      9  N   UNL A   1      34.456  25.183  25.083  1.00  0.00    -0.324 N 
ATOM     10  C   UNL A   1      33.542  24.388  25.924  1.00  0.00     0.282 C 
ATOM     11  C   UNL A   1      34.756  23.955  24.307  1.00  0.00     0.282 C 
ATOM     12  H   UNL A   1      35.175  25.755  25.526  1.00  0.00     0.348 HD
ATOM     13  C   UNL A   1      34.382  23.135  25.574  1.00  0.00     0.188 C 
BRANCH  13  14
ATOM     14  C   UNL A   1      33.576  21.899  25.249  1.00  0.00     0.241 A 
ATOM     15  N   UNL A   1      34.032  20.683  25.439  1.00  0.00    -0.190 NA
ATOM     16  O   UNL A   1      32.332  21.913  24.678  1.00  0.00    -0.338 OA
ATOM     17  C   UNL A   1      33.054  19.901  24.872  1.00  0.00     0.212 A 
ATOM     18  N   UNL A   1      31.984  20.584  24.441  1.00  0.00    -0.056 NA
BRANCH  17  19
ATOM     19  C   UNL A   1      33.244  18.429  24.703  1.00  0.00     0.075 A 
ATOM     20  C   UNL A   1      33.731  17.868  23.540  1.00  0.00     0.024 A 
ATOM     21  S   UNL A   1      32.844  17.247  25.864  1.00  0.00    -0.140 S 
ATOM     22  C   UNL A   1      33.727  16.445  23.588  1.00  0.00     0.012 A 
ATOM     23  C   UNL A   1      33.251  15.974  24.792  1.00  0.00     0.065 A 
ENDBRANCH  17  19
ENDBRANCH  13  14
ENDBRANCH   8   9
ENDBRANCH   6   8
ENDBRANCH   5   6
ENDBRANCH   4   5
ENDBRANCH   3   4
ENDBRANCH   2   3
ENDBRANCH   1   2
BRANCH   1  24
ATOM     24  C   UNL A   1      31.330  28.976  23.605  1.00  0.00     0.188 C 
BRANCH  24  25
ATOM     25  O   UNL A   1      31.158  29.659  24.838  1.00  0.00    -0.376 OA
BRANCH  25  26
ATOM     26  C   UNL A   1      32.062  29.353  25.901  1.00  0.00     0.202 C 
BRANCH  26  27
ATOM     27  C   UNL A   1      33.181  30.346  26.255  1.00  0.00     0.261 C 
BRANCH  27  28
ATOM     28  O   UNL A   1      32.954  31.058  27.489  1.00  0.00    -0.460 OA
BRANCH  28  29
ATOM     29  C   UNL A   1      33.891  31.986  27.799  1.00  0.00     0.338 C 
ATOM     30  O   UNL A   1      33.717  33.193  27.904  1.00  0.00    -0.246 OA
BRANCH  29  31
ATOM     31  C   UNL A   1      35.172  31.349  28.151  1.00  0.00     0.060 A 
ATOM     32  C   UNL A   1      35.143  30.089  28.763  1.00  0.00     0.016 A 
ATOM     33  C   UNL A   1      36.372  32.054  28.041  1.00  0.00     0.016 A 
ATOM     34  C   UNL A   1      36.310  29.544  29.302  1.00  0.00     0.010 A 
ATOM     35  C   UNL A   1      37.538  31.514  28.598  1.00  0.00     0.010 A 
ATOM     36  C   UNL A   1      37.506  30.275  29.265  1.00  0.00    -0.014 A 
BRANCH  36  37
ATOM     37  C   UNL A   1      38.665  29.837  30.085  1.00  0.00     0.031 A 
ATOM     38  C   UNL A   1      38.821  30.401  31.474  1.00  0.00     0.074 A 
ATOM     39  C   UNL A   1      39.555  28.941  29.620  1.00  0.00     0.049 A 
ATOM     40  N   UNL A   1      39.778  30.215  32.347  1.00  0.00    -0.248 NA
ATOM     41  C   UNL A   1      37.752  31.300  31.934  1.00  0.00     0.031 C 
ATOM     42  C   UNL A   1      39.485  28.282  28.318  1.00  0.00     0.029 A 
ATOM     43  N   UNL A   1      40.699  28.442  30.191  1.00  0.00    -0.354 N 
ATOM     44  C   UNL A   1      39.429  30.972  33.460  1.00  0.00     0.074 A 
ATOM     45  C   UNL A   1      38.190  31.647  33.135  1.00  0.00     0.031 C 
ATOM     46  C   UNL A   1      40.553  27.477  28.182  1.00  0.00     0.029 A 
ATOM     47  C   UNL A   1      41.400  27.591  29.369  1.00  0.00     0.049 A 
ATOM     48  H   UNL A   1      40.991  28.671  31.103  1.00  0.00     0.167 HD
ATOM     49  C   UNL A   1      40.077  31.089  34.646  1.00  0.00     0.034 A 
ATOM     50  C   UNL A   1      42.599  26.998  29.544  1.00  0.00     0.034 A 
ATOM     51  C   UNL A   1      41.322  30.429  34.953  1.00  0.00     0.049 A 
ATOM     52  C   UNL A   1      43.355  27.224  30.832  1.00  0.00     0.074 A 
ATOM     53  C   UNL A   1      42.056  30.474  36.126  1.00  0.00     0.029 A 
ATOM     54  N   UNL A   1      42.028  29.615  34.076  1.00  0.00    -0.354 N 
ATOM     55  N   UNL A   1      43.012  27.938  31.880  1.00  0.00    -0.248 NA
ATOM     56  C   UNL A   1      44.659  26.558  30.963  1.00  0.00     0.031 C 
ATOM     57  C   UNL A   1      43.238  29.748  35.933  1.00  0.00     0.029 A 
ATOM     58  C   UNL A   1      43.206  29.184  34.668  1.00  0.00     0.049 A 
ATOM     59  H   UNL A   1      41.734  29.379  33.167  1.00  0.00     0.167 HD
ATOM     60  C   UNL A   1      44.044  27.780  32.803  1.00  0.00     0.074 A 
ATOM     61  C   UNL A   1      45.015  26.896  32.194  1.00  0.00     0.031 C 
ATOM     62  C   UNL A   1      44.174  28.311  34.046  1.00  0.00     0.034 A 
BRANCH  49  63
ATOM     63  C   UNL A   1      39.470  32.014  35.674  1.00  0.00     0.023 A 
ATOM     64  C   UNL A   1      39.894  33.347  35.813  1.00  0.00     0.031 A 
ATOM     65  C   UNL A   1      38.476  31.544  36.550  1.00  0.00     0.131 A 
ATOM     66  C   UNL A   1      39.378  34.140  36.850  1.00  0.00     0.055 A 
ATOM     67  C   UNL A   1      37.911  32.362  37.530  1.00  0.00     0.041 A 
ATOM     68  F   UNL A   1      38.048  30.273  36.479  1.00  0.00    -0.206 F 
ATOM     69  C   UNL A   1      38.372  33.664  37.694  1.00  0.00     0.022 A 
BRANCH  66  70
ATOM     70  S   UNL A   1      40.141  35.754  37.169  1.00  0.00     0.124 S 
ATOM     71  O   UNL A   1      39.658  36.050  38.515  1.00  0.00    -0.237 OA
ATOM     72  O   UNL A   1      41.565  35.458  37.050  1.00  0.00    -0.237 OA
ATOM     73  O   UNL A   1      39.592  36.608  36.117  1.00  0.00    -0.744 OA
ENDBRANCH  66  70
ENDBRANCH  49  63
BRANCH  50  74
ATOM     74  C   UNL A   1      43.199  26.172  28.456  1.00  0.00     0.023 A 
ATOM     75  C   UNL A   1      44.251  26.661  27.666  1.00  0.00     0.031 A 
ATOM     76  C   UNL A   1      42.679  24.901  28.149  1.00  0.00     0.131 A 
ATOM     77  C   UNL A   1      44.717  25.906  26.578  1.00  0.00     0.055 A 
ATOM     78  C   UNL A   1      43.181  24.132  27.098  1.00  0.00     0.041 A 
ATOM     79  F   UNL A   1      41.672  24.387  28.871  1.00  0.00    -0.206 F 
ATOM     80  C   UNL A   1      44.198  24.640  26.296  1.00  0.00     0.022 A 
BRANCH  77  81
ATOM     81  S   UNL A   1      45.956  26.641  25.475  1.00  0.00     0.124 S 
ATOM     82  O   UNL A   1      45.235  27.794  24.946  1.00  0.00    -0.237 OA
ATOM     83  O   UNL A   1      47.046  26.935  26.399  1.00  0.00    -0.237 OA
ATOM     84  O   UNL A   1      46.227  25.578  24.511  1.00  0.00    -0.744 OA
ENDBRANCH  77  81
ENDBRANCH  50  74
BRANCH  62  85
ATOM     85  C   UNL A   1      45.391  27.908  34.846  1.00  0.00     0.023 A 
ATOM     86  C   UNL A   1      46.605  28.611  34.757  1.00  0.00     0.031 A 
ATOM     87  C   UNL A   1      45.332  26.798  35.707  1.00  0.00     0.131 A 
ATOM     88  C   UNL A   1      47.726  28.165  35.475  1.00  0.00     0.055 A 
ATOM     89  C   UNL A   1      46.433  26.392  36.463  1.00  0.00     0.041 A 
ATOM     90  F   UNL A   1      44.199  26.088  35.831  1.00  0.00    -0.206 F 
ATOM     91  C   UNL A   1      47.643  27.070  36.340  1.00  0.00     0.022 A 
BRANCH  88  92
ATOM     92  S   UNL A   1      49.323  28.983  35.202  1.00  0.00     0.124 S 
ATOM     93  O   UNL A   1      50.264  27.890  35.423  1.00  0.00    -0.237 OA
ATOM     94  O   UNL A   1      49.202  29.452  33.825  1.00  0.00    -0.237 OA
ATOM     95  O   UNL A   1      49.346  30.037  36.214  1.00  0.00    -0.744 OA
ENDBRANCH  88  92
ENDBRANCH  62  85
ENDBRANCH  36  37
ENDBRANCH  29  31
ENDBRANCH  28  29
ENDBRANCH  27  28
ENDBRANCH  26  27
ENDBRANCH  25  26
ENDBRANCH  24  25
ENDBRANCH   1  24
TORSDOF 23
ENDMDL
MODEL 3
REMARK VINA RESULT:      -9.2      3.087      4.887
REMARK SMILES O=C(C[NH+]1CC(c2nc(-c3cccs3)no2)C1)OCCOCCOCCOC(=O)c1ccc(-c2c3nc(c(-c4cc(S(=O)(=O)[O-])ccc4F)c4ccc([nH]4)c(-c4cc(S(=O)(=O)[O-])ccc4F)c4nc(c(-c5cc(S(=O)(=O)[O-])ccc5F)c5ccc2[nH]5)C=C4)C=C3)cc1
REMARK SMILES IDX 22 1 21 2 20 3 19 4 18 5 2 6 1 7 3 8 4 9 5 10 17 11 6 13
REMARK SMILES IDX 7 14 8 15 16 16 9 17 15 18 10 19 11 20 14 21 12 22 13 23
REMARK SMILES IDX 23 24 24 25 25 26 26 27 27 28 28 29 29 30 30 31 31 32 92 33
REMARK SMILES IDX 32 34 91 35 33 36 34 37 35 38 85 39 36 40 90 41 84 42 86 43
REMARK SMILES IDX 37 44 89 45 83 46 82 47 38 49 70 50 50 51 69 52 51 53 54 54
REMARK SMILES IDX 68 55 87 56 52 57 53 58 67 60 88 61 55 62 39 63 40 64 48 65
REMARK SMILES IDX 41 66 47 67 49 68 46 69 42 70 43 71 44 72 45 73 71 74 72 75
REMARK SMILES IDX 80 76 73 77 79 78 81 79 78 80 74 81 75 82 76 83 77 84 56 85
REMARK SMILES IDX 57 86 65 87 58 88 64 89 66 90 63 91 59 92 60 93 61 94 62 95
REMARK H PARENT 4 12 86 48 54 59
REMARK Flexibility Score: inf
ROOT
ATOM      1  C   UNL A   1      32.623  27.753  26.161  1.00  0.00     0.188 C 
ENDROOT
BRANCH   1   2
ATOM      2  O   UNL A   1      32.757  26.940  25.008  1.00  0.00    -0.376 OA
BRANCH   2   3
ATOM      3  C   UNL A   1      34.042  26.474  24.612  1.00  0.00     0.202 C 
BRANCH   3   4
ATOM      4  C   UNL A   1      34.659  25.246  25.278  1.00  0.00     0.261 C 
BRANCH   4   5
ATOM      5  O   UNL A   1      34.657  23.939  24.631  1.00  0.00    -0.459 OA
BRANCH   5   6
ATOM      6  C   UNL A   1      33.964  22.788  24.743  1.00  0.00     0.361 C 
ATOM      7  O   UNL A   1      34.398  21.782  24.180  1.00  0.00    -0.245 OA
BRANCH   6   8
ATOM      8  C   UNL A   1      32.683  22.739  25.549  1.00  0.00     0.386 C 
BRANCH   8   9
ATOM      9  N   UNL A   1      31.482  22.835  24.707  1.00  0.00    -0.324 N 
ATOM     10  C   UNL A   1      30.588  23.959  25.043  1.00  0.00     0.282 C 
ATOM     11  C   UNL A   1      31.808  23.519  23.432  1.00  0.00     0.282 C 
ATOM     12  H   UNL A   1      31.127  21.881  24.757  1.00  0.00     0.348 HD
ATOM     13  C   UNL A   1      30.425  24.222  23.525  1.00  0.00     0.188 C 
BRANCH  13  14
ATOM     14  C   UNL A   1      30.485  25.678  23.122  1.00  0.00     0.241 A 
ATOM     15  N   UNL A   1      29.708  26.595  23.651  1.00  0.00    -0.190 NA
ATOM     16  O   UNL A   1      31.297  26.177  22.141  1.00  0.00    -0.338 OA
ATOM     17  C   UNL A   1      29.991  27.705  22.894  1.00  0.00     0.212 A 
ATOM     18  N   UNL A   1      30.975  27.527  22.001  1.00  0.00    -0.056 NA
BRANCH  17  19
ATOM     19  C   UNL A   1      29.193  28.960  23.034  1.00  0.00     0.075 A 
ATOM     20  C   UNL A   1      29.767  30.180  23.329  1.00  0.00     0.024 A 
ATOM     21  S   UNL A   1      27.497  29.064  22.914  1.00  0.00    -0.140 S 
ATOM     22  C   UNL A   1      28.792  31.203  23.509  1.00  0.00     0.012 A 
ATOM     23  C   UNL A   1      27.511  30.727  23.328  1.00  0.00     0.065 A 
ENDBRANCH  17  19
ENDBRANCH  13  14
ENDBRANCH   8   9
ENDBRANCH   6   8
ENDBRANCH   5   6
ENDBRANCH   4   5
ENDBRANCH   3   4
ENDBRANCH   2   3
ENDBRANCH   1   2
BRANCH   1  24
ATOM     24  C   UNL A   1      31.613  28.903  26.055  1.00  0.00     0.188 C 
BRANCH  24  25
ATOM     25  O   UNL A   1      32.126  30.211  25.850  1.00  0.00    -0.376 OA
BRANCH  25  26
ATOM     26  C   UNL A   1      32.219  31.077  26.982  1.00  0.00     0.202 C 
BRANCH  26  27
ATOM     27  C   UNL A   1      31.700  32.520  26.878  1.00  0.00     0.261 C 
BRANCH  27  28
ATOM     28  O   UNL A   1      32.744  33.515  26.916  1.00  0.00    -0.460 OA
BRANCH  28  29
ATOM     29  C   UNL A   1      33.266  33.755  28.143  1.00  0.00     0.338 C 
ATOM     30  O   UNL A   1      32.761  34.426  29.033  1.00  0.00    -0.246 OA
BRANCH  29  31
ATOM     31  C   UNL A   1      34.496  32.974  28.358  1.00  0.00     0.060 A 
ATOM     32  C   UNL A   1      34.374  31.646  28.791  1.00  0.00     0.016 A 
ATOM     33  C   UNL A   1      35.749  33.588  28.304  1.00  0.00     0.016 A 
ATOM     34  C   UNL A   1      35.504  30.938  29.207  1.00  0.00     0.010 A 
ATOM     35  C   UNL A   1      36.877  32.881  28.739  1.00  0.00     0.010 A 
ATOM     36  C   UNL A   1      36.756  31.568  29.229  1.00  0.00    -0.014 A 
BRANCH  36  37
ATOM     37  C   UNL A   1      37.893  30.926  29.940  1.00  0.00     0.031 A 
ATOM     38  C   UNL A   1      38.179  31.335  31.362  1.00  0.00     0.074 A 
ATOM     39  C   UNL A   1      38.649  29.985  29.346  1.00  0.00     0.049 A 
ATOM     40  N   UNL A   1      39.147  30.959  32.158  1.00  0.00    -0.248 NA
ATOM     41  C   UNL A   1      37.244  32.299  31.961  1.00  0.00     0.031 C 
ATOM     42  C   UNL A   1      38.442  29.465  27.996  1.00  0.00     0.029 A 
ATOM     43  N   UNL A   1      39.752  29.309  29.804  1.00  0.00    -0.354 N 
ATOM     44  C   UNL A   1      38.940  31.641  33.353  1.00  0.00     0.074 A 
ATOM     45  C   UNL A   1      37.775  32.479  33.161  1.00  0.00     0.031 C 
ATOM     46  C   UNL A   1      39.401  28.562  27.728  1.00  0.00     0.029 A 
ATOM     47  C   UNL A   1      40.310  28.466  28.870  1.00  0.00     0.049 A 
ATOM     48  H   UNL A   1      40.111  29.416  30.714  1.00  0.00     0.167 HD
ATOM     49  C   UNL A   1      39.652  31.572  34.506  1.00  0.00     0.034 A 
ATOM     50  C   UNL A   1      41.439  27.729  28.922  1.00  0.00     0.034 A 
ATOM     51  C   UNL A   1      40.825  30.749  34.681  1.00  0.00     0.049 A 
ATOM     52  C   UNL A   1      42.275  27.745  30.180  1.00  0.00     0.074 A 
ATOM     53  C   UNL A   1      41.613  30.600  35.809  1.00  0.00     0.029 A 
ATOM     54  N   UNL A   1      41.389  29.949  33.696  1.00  0.00    -0.354 N 
ATOM     55  N   UNL A   1      42.067  28.389  31.305  1.00  0.00    -0.248 NA
ATOM     56  C   UNL A   1      43.496  26.927  30.176  1.00  0.00     0.031 C 
ATOM     57  C   UNL A   1      42.692  29.768  35.484  1.00  0.00     0.029 A 
ATOM     58  C   UNL A   1      42.534  29.334  34.178  1.00  0.00     0.049 A 
ATOM     59  H   UNL A   1      41.028  29.835  32.787  1.00  0.00     0.167 HD
ATOM     60  C   UNL A   1      43.116  28.029  32.150  1.00  0.00     0.074 A 
ATOM     61  C   UNL A   1      43.946  27.104  31.410  1.00  0.00     0.031 C 
ATOM     62  C   UNL A   1      43.364  28.422  33.426  1.00  0.00     0.034 A 
BRANCH  49  63
ATOM     63  C   UNL A   1      39.206  32.456  35.645  1.00  0.00     0.023 A 
ATOM     64  C   UNL A   1      39.643  33.787  35.765  1.00  0.00     0.031 A 
ATOM     65  C   UNL A   1      38.358  31.949  36.645  1.00  0.00     0.131 A 
ATOM     66  C   UNL A   1      39.288  34.540  36.894  1.00  0.00     0.055 A 
ATOM     67  C   UNL A   1      37.947  32.728  37.728  1.00  0.00     0.041 A 
ATOM     68  F   UNL A   1      37.927  30.677  36.596  1.00  0.00    -0.206 F 
ATOM     69  C   UNL A   1      38.424  34.029  37.865  1.00  0.00     0.022 A 
BRANCH  66  70
ATOM     70  S   UNL A   1      40.087  36.149  37.150  1.00  0.00     0.124 S 
ATOM     71  O   UNL A   1      41.401  35.751  37.649  1.00  0.00    -0.237 OA
ATOM     72  O   UNL A   1      40.060  36.730  35.812  1.00  0.00    -0.237 OA
ATOM     73  O   UNL A   1      39.228  36.806  38.133  1.00  0.00    -0.744 OA
ENDBRANCH  66  70
ENDBRANCH  49  63
BRANCH  50  74
ATOM     74  C   UNL A   1      41.887  26.948  27.732  1.00  0.00     0.023 A 
ATOM     75  C   UNL A   1      41.684  25.561  27.652  1.00  0.00     0.031 A 
ATOM     76  C   UNL A   1      42.588  27.573  26.685  1.00  0.00     0.131 A 
ATOM     77  C   UNL A   1      42.218  24.838  26.574  1.00  0.00     0.055 A 
ATOM     78  C   UNL A   1      43.072  26.857  25.590  1.00  0.00     0.041 A 
ATOM     79  F   UNL A   1      42.812  28.897  26.713  1.00  0.00    -0.206 F 
ATOM     80  C   UNL A   1      42.900  25.478  25.537  1.00  0.00     0.022 A 
BRANCH  77  81
ATOM     81  S   UNL A   1      42.087  23.028  26.590  1.00  0.00     0.124 S 
ATOM     82  O   UNL A   1      43.141  22.647  25.656  1.00  0.00    -0.237 OA
ATOM     83  O   UNL A   1      42.331  22.720  27.995  1.00  0.00    -0.237 OA
ATOM     84  O   UNL A   1      40.724  22.782  26.126  1.00  0.00    -0.744 OA
ENDBRANCH  77  81
ENDBRANCH  50  74
BRANCH  62  85
ATOM     85  C   UNL A   1      44.562  27.810  34.115  1.00  0.00     0.023 A 
ATOM     86  C   UNL A   1      44.467  26.614  34.848  1.00  0.00     0.031 A 
ATOM     87  C   UNL A   1      45.817  28.440  34.039  1.00  0.00     0.131 A 
ATOM     88  C   UNL A   1      45.594  26.114  35.519  1.00  0.00     0.055 A 
ATOM     89  C   UNL A   1      46.947  27.908  34.660  1.00  0.00     0.041 A 
ATOM     90  F   UNL A   1      45.966  29.586  33.355  1.00  0.00    -0.206 F 
ATOM     91  C   UNL A   1      46.838  26.744  35.416  1.00  0.00     0.022 A 
BRANCH  88  92
ATOM     92  S   UNL A   1      45.400  24.669  36.600  1.00  0.00     0.124 S 
ATOM     93  O   UNL A   1      44.348  25.112  37.511  1.00  0.00    -0.237 OA
ATOM     94  O   UNL A   1      45.025  23.621  35.656  1.00  0.00    -0.237 OA
ATOM     95  O   UNL A   1      46.720  24.513  37.206  1.00  0.00    -0.744 OA
ENDBRANCH  88  92
ENDBRANCH  62  85
ENDBRANCH  36  37
ENDBRANCH  29  31
ENDBRANCH  28  29
ENDBRANCH  27  28
ENDBRANCH  26  27
ENDBRANCH  25  26
ENDBRANCH  24  25
ENDBRANCH   1  24
TORSDOF 23
ENDMDL
