MODEL 1
REMARK VINA RESULT:      -9.4      0.000      0.000
REMARK SMILES CCCc1cc(OCC(=O)OCCOCCOCCOC(=O)c2ccc(-c3c4nc(c(-c5cc(S(=O)(=O)[O-])ccc5F)c5ccc([nH]5)c(-c5cc(S(=O)(=O)[O-])ccc5F)c5nc(c(-c6cc(S(=O)(=O)[O-])ccc6F)c6ccc3[nH]6)C=C5)C=C4)cc2)nc(Nc2ccc(C#N)cc2)n1
REMARK SMILES IDX 15 1 14 2 13 3 12 4 11 5 9 6 10 7 8 8 7 9 6 10 4 11 5 12
REMARK SMILES IDX 97 13 87 14 86 15 3 16 2 17 1 18 88 19 89 21 90 22 96 23
REMARK SMILES IDX 91 24 95 25 92 26 93 27 94 28 16 29 17 30 18 31 19 32 20 33
REMARK SMILES IDX 21 34 22 35 23 36 24 37 85 38 25 39 84 40 26 41 27 42 28 43
REMARK SMILES IDX 78 44 29 45 83 46 77 47 79 48 30 49 82 50 76 51 75 52 31 54
REMARK SMILES IDX 63 55 43 56 62 57 44 58 47 59 61 60 80 61 45 62 46 63 60 65
REMARK SMILES IDX 81 66 48 67 32 68 33 69 41 70 34 71 40 72 42 73 39 74 35 75
REMARK SMILES IDX 36 76 37 77 38 78 64 79 65 80 73 81 66 82 72 83 74 84 71 85
REMARK SMILES IDX 67 86 68 87 69 88 70 89 49 90 50 91 58 92 51 93 57 94 59 95
REMARK SMILES IDX 56 96 52 97 53 98 54 99 55 100
REMARK H PARENT 88 20 79 53 47 64
REMARK Flexibility Score: inf
ROOT
ATOM      1  C   UNL A   1      35.479  30.247  27.802  1.00  0.00     0.188 C 
ENDROOT
BRANCH   1   2
ATOM      2  O   UNL A   1      35.087  29.021  27.215  1.00  0.00    -0.376 OA
BRANCH   2   3
ATOM      3  C   UNL A   1      33.835  29.032  26.558  1.00  0.00     0.202 C 
BRANCH   3   4
ATOM      4  C   UNL A   1      33.364  27.681  25.975  1.00  0.00     0.261 C 
BRANCH   4   5
ATOM      5  O   UNL A   1      32.347  27.789  24.927  1.00  0.00    -0.461 OA
BRANCH   5   6
ATOM      6  C   UNL A   1      32.740  27.664  23.621  1.00  0.00     0.344 C 
ATOM      7  O   UNL A   1      33.815  28.094  23.212  1.00  0.00    -0.248 OA
BRANCH   6   8
ATOM      8  C   UNL A   1      31.800  26.751  22.706  1.00  0.00     0.353 C 
BRANCH   8   9
ATOM      9  O   UNL A   1      32.161  25.452  22.247  1.00  0.00    -0.466 OA
BRANCH   9  10
ATOM     10  C   UNL A   1      32.666  24.417  23.018  1.00  0.00     0.218 A 
ATOM     11  C   UNL A   1      32.630  22.329  24.166  1.00  0.00     0.050 A 
ATOM     12  C   UNL A   1      31.938  23.465  23.733  1.00  0.00     0.092 A 
ATOM     13  N   UNL A   1      33.931  22.223  23.965  1.00  0.00    -0.218 NA
ATOM     14  C   UNL A   1      34.592  23.172  23.317  1.00  0.00     0.230 A 
ATOM     15  N   UNL A   1      34.010  24.289  22.852  1.00  0.00    -0.177 NA
BRANCH  11  16
ATOM     16  C   UNL A   1      32.104  21.072  24.825  1.00  0.00     0.056 C 
BRANCH  16  17
ATOM     17  C   UNL A   1      33.206  20.109  25.366  1.00  0.00     0.003 C 
ATOM     18  C   UNL A   1      32.854  18.639  25.407  1.00  0.00     0.004 C 
ENDBRANCH  16  17
ENDBRANCH  11  16
BRANCH  14  19
ATOM     19  N   UNL A   1      35.959  22.889  23.151  1.00  0.00    -0.324 N 
ATOM     20  H   UNL A   1      36.354  22.881  22.249  1.00  0.00     0.170 HD
BRANCH  19  21
ATOM     21  C   UNL A   1      36.769  22.615  24.284  1.00  0.00     0.041 A 
ATOM     22  C   UNL A   1      37.371  21.361  24.471  1.00  0.00     0.027 A 
ATOM     23  C   UNL A   1      37.233  23.694  25.058  1.00  0.00     0.027 A 
ATOM     24  C   UNL A   1      38.400  21.193  25.416  1.00  0.00     0.021 A 
ATOM     25  C   UNL A   1      38.242  23.527  26.012  1.00  0.00     0.021 A 
ATOM     26  C   UNL A   1      38.835  22.275  26.189  1.00  0.00     0.052 A 
BRANCH  26  27
ATOM     27  C   UNL A   1      39.935  22.141  27.109  1.00  0.00     0.099 C 
ATOM     28  N   UNL A   1      40.802  21.974  27.854  1.00  0.00    -0.192 NA
ENDBRANCH  26  27
ENDBRANCH  19  21
ENDBRANCH  14  19
ENDBRANCH   9  10
ENDBRANCH   8   9
ENDBRANCH   6   8
ENDBRANCH   5   6
ENDBRANCH   4   5
ENDBRANCH   3   4
ENDBRANCH   2   3
ENDBRANCH   1   2
BRANCH   1  29
ATOM     29  C   UNL A   1      34.425  31.317  28.138  1.00  0.00     0.188 C 
BRANCH  29  30
ATOM     30  O   UNL A   1      34.786  32.568  27.617  1.00  0.00    -0.376 OA
BRANCH  30  31
ATOM     31  C   UNL A   1      34.060  33.708  27.999  1.00  0.00     0.202 C 
BRANCH  31  32
ATOM     32  C   UNL A   1      34.003  34.333  29.416  1.00  0.00     0.261 C 
BRANCH  32  33
ATOM     33  O   UNL A   1      32.775  34.789  30.046  1.00  0.00    -0.460 OA
BRANCH  33  34
ATOM     34  C   UNL A   1      33.045  35.573  31.119  1.00  0.00     0.338 C 
ATOM     35  O   UNL A   1      32.538  36.680  31.236  1.00  0.00    -0.246 OA
BRANCH  34  36
ATOM     36  C   UNL A   1      33.822  35.127  32.304  1.00  0.00     0.060 A 
ATOM     37  C   UNL A   1      35.165  35.548  32.328  1.00  0.00     0.016 A 
ATOM     38  C   UNL A   1      33.508  33.894  32.880  1.00  0.00     0.016 A 
ATOM     39  C   UNL A   1      36.181  34.677  32.709  1.00  0.00     0.010 A 
ATOM     40  C   UNL A   1      34.534  33.068  33.392  1.00  0.00     0.010 A 
ATOM     41  C   UNL A   1      35.885  33.434  33.281  1.00  0.00    -0.014 A 
BRANCH  41  42
ATOM     42  C   UNL A   1      36.991  32.662  33.910  1.00  0.00     0.031 A 
ATOM     43  C   UNL A   1      37.661  33.039  35.208  1.00  0.00     0.074 A 
ATOM     44  C   UNL A   1      37.402  31.568  33.233  1.00  0.00     0.049 A 
ATOM     45  N   UNL A   1      38.784  32.585  35.710  1.00  0.00    -0.248 NA
ATOM     46  C   UNL A   1      36.992  34.034  36.060  1.00  0.00     0.031 C 
ATOM     47  C   UNL A   1      36.771  31.049  32.010  1.00  0.00     0.029 A 
ATOM     48  N   UNL A   1      38.444  30.708  33.449  1.00  0.00    -0.354 N 
ATOM     49  C   UNL A   1      38.984  33.258  36.914  1.00  0.00     0.074 A 
ATOM     50  C   UNL A   1      37.848  34.146  37.075  1.00  0.00     0.031 C 
ATOM     51  C   UNL A   1      37.418  29.960  31.600  1.00  0.00     0.029 A 
ATOM     52  C   UNL A   1      38.606  29.814  32.416  1.00  0.00     0.049 A 
ATOM     53  H   UNL A   1      39.013  30.726  34.251  1.00  0.00     0.167 HD
ATOM     54  C   UNL A   1      40.032  33.149  37.775  1.00  0.00     0.034 A 
ATOM     55  C   UNL A   1      39.643  29.038  32.069  1.00  0.00     0.034 A 
ATOM     56  C   UNL A   1      41.153  32.253  37.559  1.00  0.00     0.049 A 
ATOM     57  C   UNL A   1      40.850  29.046  32.946  1.00  0.00     0.074 A 
ATOM     58  C   UNL A   1      42.272  32.057  38.354  1.00  0.00     0.029 A 
ATOM     59  N   UNL A   1      41.307  31.412  36.461  1.00  0.00    -0.354 N 
ATOM     60  N   UNL A   1      41.061  29.734  34.042  1.00  0.00    -0.248 NA
ATOM     61  C   UNL A   1      41.950  28.169  32.546  1.00  0.00     0.031 C 
ATOM     62  C   UNL A   1      43.139  31.180  37.693  1.00  0.00     0.029 A 
ATOM     63  C   UNL A   1      42.520  30.739  36.535  1.00  0.00     0.049 A 
ATOM     64  H   UNL A   1      40.650  31.310  35.735  1.00  0.00     0.167 HD
ATOM     65  C   UNL A   1      42.317  29.347  34.486  1.00  0.00     0.074 A 
ATOM     66  C   UNL A   1      42.798  28.352  33.545  1.00  0.00     0.031 C 
ATOM     67  C   UNL A   1      43.003  29.770  35.577  1.00  0.00     0.034 A 
BRANCH  54  68
ATOM     68  C   UNL A   1      40.080  34.066  38.985  1.00  0.00     0.023 A 
ATOM     69  C   UNL A   1      40.676  35.338  38.949  1.00  0.00     0.031 A 
ATOM     70  C   UNL A   1      39.479  33.666  40.197  1.00  0.00     0.131 A 
ATOM     71  C   UNL A   1      40.704  36.138  40.108  1.00  0.00     0.055 A 
ATOM     72  C   UNL A   1      39.442  34.496  41.322  1.00  0.00     0.041 A 
ATOM     73  F   UNL A   1      38.906  32.458  40.309  1.00  0.00    -0.206 F 
ATOM     74  C   UNL A   1      40.068  35.736  41.286  1.00  0.00     0.022 A 
BRANCH  71  75
ATOM     75  S   UNL A   1      41.693  37.660  40.095  1.00  0.00     0.124 S 
ATOM     76  O   UNL A   1      42.283  37.620  38.759  1.00  0.00    -0.237 OA
ATOM     77  O   UNL A   1      40.687  38.693  40.317  1.00  0.00    -0.237 OA
ATOM     78  O   UNL A   1      42.640  37.466  41.191  1.00  0.00    -0.744 OA
ENDBRANCH  71  75
ENDBRANCH  54  68
BRANCH  55  79
ATOM     79  C   UNL A   1      39.585  28.269  30.801  1.00  0.00     0.023 A 
ATOM     80  C   UNL A   1      40.313  28.695  29.687  1.00  0.00     0.031 A 
ATOM     81  C   UNL A   1      38.840  27.077  30.694  1.00  0.00     0.131 A 
ATOM     82  C   UNL A   1      40.253  27.958  28.498  1.00  0.00     0.055 A 
ATOM     83  C   UNL A   1      38.846  26.306  29.533  1.00  0.00     0.041 A 
ATOM     84  F   UNL A   1      38.138  26.615  31.743  1.00  0.00    -0.206 F 
ATOM     85  C   UNL A   1      39.547  26.755  28.419  1.00  0.00     0.022 A 
BRANCH  82  86
ATOM     86  S   UNL A   1      41.044  28.656  27.028  1.00  0.00     0.124 S 
ATOM     87  O   UNL A   1      39.917  29.304  26.368  1.00  0.00    -0.237 OA
ATOM     88  O   UNL A   1      42.042  29.545  27.616  1.00  0.00    -0.237 OA
ATOM     89  O   UNL A   1      41.580  27.482  26.344  1.00  0.00    -0.744 OA
ENDBRANCH  82  86
ENDBRANCH  55  79
BRANCH  67  90
ATOM     90  C   UNL A   1      44.334  29.106  35.822  1.00  0.00     0.023 A 
ATOM     91  C   UNL A   1      44.449  27.964  36.634  1.00  0.00     0.031 A 
ATOM     92  C   UNL A   1      45.509  29.659  35.285  1.00  0.00     0.131 A 
ATOM     93  C   UNL A   1      45.718  27.461  36.952  1.00  0.00     0.055 A 
ATOM     94  C   UNL A   1      46.763  29.103  35.538  1.00  0.00     0.041 A 
ATOM     95  F   UNL A   1      45.459  30.759  34.516  1.00  0.00    -0.206 F 
ATOM     96  C   UNL A   1      46.874  28.009  36.391  1.00  0.00     0.022 A 
BRANCH  93  97
ATOM     97  S   UNL A   1      45.843  26.171  38.220  1.00  0.00     0.124 S 
ATOM     98  O   UNL A   1      47.115  26.499  38.858  1.00  0.00    -0.237 OA
ATOM     99  O   UNL A   1      44.648  26.404  39.023  1.00  0.00    -0.237 OA
ATOM    100  O   UNL A   1      45.839  24.931  37.447  1.00  0.00    -0.744 OA
ENDBRANCH  93  97
ENDBRANCH  67  90
ENDBRANCH  41  42
ENDBRANCH  34  36
ENDBRANCH  33  34
ENDBRANCH  32  33
ENDBRANCH  31  32
ENDBRANCH  30  31
ENDBRANCH  29  30
ENDBRANCH   1  29
TORSDOF 27
ENDMDL
MODEL 2
REMARK VINA RESULT:      -9.0      1.921      2.207
REMARK SMILES CCCc1cc(OCC(=O)OCCOCCOCCOC(=O)c2ccc(-c3c4nc(c(-c5cc(S(=O)(=O)[O-])ccc5F)c5ccc([nH]5)c(-c5cc(S(=O)(=O)[O-])ccc5F)c5nc(c(-c6cc(S(=O)(=O)[O-])ccc6F)c6ccc3[nH]6)C=C5)C=C4)cc2)nc(Nc2ccc(C#N)cc2)n1
REMARK SMILES IDX 15 1 14 2 13 3 12 4 11 5 9 6 10 7 8 8 7 9 6 10 4 11 5 12
REMARK SMILES IDX 97 13 87 14 86 15 3 16 2 17 1 18 88 19 89 21 90 22 96 23
REMARK SMILES IDX 91 24 95 25 92 26 93 27 94 28 16 29 17 30 18 31 19 32 20 33
REMARK SMILES IDX 21 34 22 35 23 36 24 37 85 38 25 39 84 40 26 41 27 42 28 43
REMARK SMILES IDX 78 44 29 45 83 46 77 47 79 48 30 49 82 50 76 51 75 52 31 54
REMARK SMILES IDX 63 55 43 56 62 57 44 58 47 59 61 60 80 61 45 62 46 63 60 65
REMARK SMILES IDX 81 66 48 67 32 68 33 69 41 70 34 71 40 72 42 73 39 74 35 75
REMARK SMILES IDX 36 76 37 77 38 78 64 79 65 80 73 81 66 82 72 83 74 84 71 85
REMARK SMILES IDX 67 86 68 87 69 88 70 89 49 90 50 91 58 92 51 93 57 94 59 95
REMARK SMILES IDX 56 96 52 97 53 98 54 99 55 100
REMARK H PARENT 88 20 79 53 47 64
REMARK Flexibility Score: inf
ROOT
ATOM      1  C   UNL A   1      34.809  29.802  27.652  1.00  0.00     0.188 C 
ENDROOT
BRANCH   1   2
ATOM      2  O   UNL A   1      34.424  28.806  26.722  1.00  0.00    -0.376 OA
BRANCH   2   3
ATOM      3  C   UNL A   1      33.460  29.204  25.768  1.00  0.00     0.202 C 
BRANCH   3   4
ATOM      4  C   UNL A   1      32.328  28.191  25.485  1.00  0.00     0.261 C 
BRANCH   4   5
ATOM      5  O   UNL A   1      31.460  28.542  24.359  1.00  0.00    -0.461 OA
BRANCH   5   6
ATOM      6  C   UNL A   1      31.890  28.257  23.091  1.00  0.00     0.344 C 
ATOM      7  O   UNL A   1      32.880  28.790  22.594  1.00  0.00    -0.248 OA
BRANCH   6   8
ATOM      8  C   UNL A   1      31.141  27.045  22.368  1.00  0.00     0.353 C 
BRANCH   8   9
ATOM      9  O   UNL A   1      31.722  25.759  22.169  1.00  0.00    -0.466 OA
BRANCH   9  10
ATOM     10  C   UNL A   1      32.261  24.939  23.146  1.00  0.00     0.218 A 
ATOM     11  C   UNL A   1      32.241  23.320  24.895  1.00  0.00     0.050 A 
ATOM     12  C   UNL A   1      31.592  24.365  24.228  1.00  0.00     0.092 A 
ATOM     13  N   UNL A   1      33.465  22.965  24.549  1.00  0.00    -0.218 NA
ATOM     14  C   UNL A   1      34.080  23.566  23.540  1.00  0.00     0.230 A 
ATOM     15  N   UNL A   1      33.532  24.567  22.833  1.00  0.00    -0.177 NA
BRANCH  11  16
ATOM     16  C   UNL A   1      31.730  22.412  25.993  1.00  0.00     0.056 C 
BRANCH  16  17
ATOM     17  C   UNL A   1      32.260  22.750  27.420  1.00  0.00     0.003 C 
ATOM     18  C   UNL A   1      33.679  22.326  27.729  1.00  0.00     0.004 C 
ENDBRANCH  16  17
ENDBRANCH  11  16
BRANCH  14  19
ATOM     19  N   UNL A   1      35.358  23.045  23.273  1.00  0.00    -0.324 N 
ATOM     20  H   UNL A   1      35.618  22.827  22.349  1.00  0.00     0.170 HD
BRANCH  19  21
ATOM     21  C   UNL A   1      36.273  22.831  24.337  1.00  0.00     0.041 A 
ATOM     22  C   UNL A   1      37.086  21.688  24.390  1.00  0.00     0.027 A 
ATOM     23  C   UNL A   1      36.600  23.914  25.172  1.00  0.00     0.027 A 
ATOM     24  C   UNL A   1      38.187  21.629  25.264  1.00  0.00     0.021 A 
ATOM     25  C   UNL A   1      37.682  23.853  26.057  1.00  0.00     0.021 A 
ATOM     26  C   UNL A   1      38.485  22.711  26.100  1.00  0.00     0.052 A 
BRANCH  26  27
ATOM     27  C   UNL A   1      39.649  22.700  26.948  1.00  0.00     0.099 C 
ATOM     28  N   UNL A   1      40.618  22.691  27.578  1.00  0.00    -0.192 NA
ENDBRANCH  26  27
ENDBRANCH  19  21
ENDBRANCH  14  19
ENDBRANCH   9  10
ENDBRANCH   8   9
ENDBRANCH   6   8
ENDBRANCH   5   6
ENDBRANCH   4   5
ENDBRANCH   3   4
ENDBRANCH   2   3
ENDBRANCH   1   2
BRANCH   1  29
ATOM     29  C   UNL A   1      34.030  31.126  27.735  1.00  0.00     0.188 C 
BRANCH  29  30
ATOM     30  O   UNL A   1      34.878  32.228  27.553  1.00  0.00    -0.376 OA
BRANCH  30  31
ATOM     31  C   UNL A   1      34.499  33.480  28.064  1.00  0.00     0.202 C 
BRANCH  31  32
ATOM     32  C   UNL A   1      34.135  33.804  29.536  1.00  0.00     0.261 C 
BRANCH  32  33
ATOM     33  O   UNL A   1      32.967  34.576  29.925  1.00  0.00    -0.460 OA
BRANCH  33  34
ATOM     34  C   UNL A   1      33.251  35.387  30.973  1.00  0.00     0.338 C 
ATOM     35  O   UNL A   1      32.726  36.487  31.082  1.00  0.00    -0.246 OA
BRANCH  34  36
ATOM     36  C   UNL A   1      34.072  34.981  32.144  1.00  0.00     0.060 A 
ATOM     37  C   UNL A   1      35.428  35.351  32.076  1.00  0.00     0.016 A 
ATOM     38  C   UNL A   1      33.744  33.797  32.808  1.00  0.00     0.016 A 
ATOM     39  C   UNL A   1      36.430  34.465  32.458  1.00  0.00     0.010 A 
ATOM     40  C   UNL A   1      34.765  32.964  33.318  1.00  0.00     0.010 A 
ATOM     41  C   UNL A   1      36.120  33.270  33.119  1.00  0.00    -0.014 A 
BRANCH  41  42
ATOM     42  C   UNL A   1      37.229  32.494  33.739  1.00  0.00     0.031 A 
ATOM     43  C   UNL A   1      37.915  32.872  35.028  1.00  0.00     0.074 A 
ATOM     44  C   UNL A   1      37.626  31.396  33.061  1.00  0.00     0.049 A 
ATOM     45  N   UNL A   1      39.040  32.413  35.519  1.00  0.00    -0.248 NA
ATOM     46  C   UNL A   1      37.261  33.873  35.883  1.00  0.00     0.031 C 
ATOM     47  C   UNL A   1      36.979  30.875  31.847  1.00  0.00     0.029 A 
ATOM     48  N   UNL A   1      38.665  30.530  33.268  1.00  0.00    -0.354 N 
ATOM     49  C   UNL A   1      39.257  33.089  36.719  1.00  0.00     0.074 A 
ATOM     50  C   UNL A   1      38.128  33.984  36.888  1.00  0.00     0.031 C 
ATOM     51  C   UNL A   1      37.615  29.782  31.434  1.00  0.00     0.029 A 
ATOM     52  C   UNL A   1      38.811  29.631  32.237  1.00  0.00     0.049 A 
ATOM     53  H   UNL A   1      39.243  30.548  34.065  1.00  0.00     0.167 HD
ATOM     54  C   UNL A   1      40.314  32.977  37.569  1.00  0.00     0.034 A 
ATOM     55  C   UNL A   1      39.840  28.849  31.882  1.00  0.00     0.034 A 
ATOM     56  C   UNL A   1      41.427  32.074  37.343  1.00  0.00     0.049 A 
ATOM     57  C   UNL A   1      41.056  28.852  32.745  1.00  0.00     0.074 A 
ATOM     58  C   UNL A   1      42.554  31.874  38.127  1.00  0.00     0.029 A 
ATOM     59  N   UNL A   1      41.565  31.228  36.247  1.00  0.00    -0.354 N 
ATOM     60  N   UNL A   1      41.283  29.544  33.837  1.00  0.00    -0.248 NA
ATOM     61  C   UNL A   1      42.146  27.968  32.337  1.00  0.00     0.031 C 
ATOM     62  C   UNL A   1      43.409  30.990  37.459  1.00  0.00     0.029 A 
ATOM     63  C   UNL A   1      42.774  30.549  36.310  1.00  0.00     0.049 A 
ATOM     64  H   UNL A   1      40.900  31.127  35.528  1.00  0.00     0.167 HD
ATOM     65  C   UNL A   1      42.541  29.150  34.268  1.00  0.00     0.074 A 
ATOM     66  C   UNL A   1      43.006  28.150  33.326  1.00  0.00     0.031 C 
ATOM     67  C   UNL A   1      43.241  29.574  35.351  1.00  0.00     0.034 A 
BRANCH  54  68
ATOM     68  C   UNL A   1      40.381  33.898  38.775  1.00  0.00     0.023 A 
ATOM     69  C   UNL A   1      39.707  33.621  39.977  1.00  0.00     0.031 A 
ATOM     70  C   UNL A   1      41.171  35.065  38.729  1.00  0.00     0.131 A 
ATOM     71  C   UNL A   1      39.794  34.520  41.058  1.00  0.00     0.055 A 
ATOM     72  C   UNL A   1      41.316  35.913  39.831  1.00  0.00     0.041 A 
ATOM     73  F   UNL A   1      41.829  35.399  37.609  1.00  0.00    -0.206 F 
ATOM     74  C   UNL A   1      40.614  35.650  41.002  1.00  0.00     0.022 A 
BRANCH  71  75
ATOM     75  S   UNL A   1      38.719  34.261  42.498  1.00  0.00     0.124 S 
ATOM     76  O   UNL A   1      38.159  32.941  42.217  1.00  0.00    -0.237 OA
ATOM     77  O   UNL A   1      39.659  34.330  43.611  1.00  0.00    -0.237 OA
ATOM     78  O   UNL A   1      37.764  35.364  42.419  1.00  0.00    -0.744 OA
ENDBRANCH  71  75
ENDBRANCH  54  68
BRANCH  55  79
ATOM     79  C   UNL A   1      39.764  28.075  30.617  1.00  0.00     0.023 A 
ATOM     80  C   UNL A   1      40.489  28.489  29.496  1.00  0.00     0.031 A 
ATOM     81  C   UNL A   1      39.003  26.892  30.520  1.00  0.00     0.131 A 
ATOM     82  C   UNL A   1      40.412  27.748  28.311  1.00  0.00     0.055 A 
ATOM     83  C   UNL A   1      38.992  26.117  29.362  1.00  0.00     0.041 A 
ATOM     84  F   UNL A   1      38.303  26.443  31.575  1.00  0.00    -0.206 F 
ATOM     85  C   UNL A   1      39.690  26.554  28.241  1.00  0.00     0.022 A 
BRANCH  82  86
ATOM     86  S   UNL A   1      41.200  28.430  26.833  1.00  0.00     0.124 S 
ATOM     87  O   UNL A   1      42.408  29.025  27.392  1.00  0.00    -0.237 OA
ATOM     88  O   UNL A   1      41.392  27.237  26.014  1.00  0.00    -0.237 OA
ATOM     89  O   UNL A   1      40.210  29.379  26.329  1.00  0.00    -0.744 OA
ENDBRANCH  82  86
ENDBRANCH  55  79
BRANCH  67  90
ATOM     90  C   UNL A   1      44.571  28.902  35.583  1.00  0.00     0.023 A 
ATOM     91  C   UNL A   1      45.755  29.391  35.002  1.00  0.00     0.031 A 
ATOM     92  C   UNL A   1      44.644  27.724  36.345  1.00  0.00     0.131 A 
ATOM     93  C   UNL A   1      46.944  28.659  35.124  1.00  0.00     0.055 A 
ATOM     94  C   UNL A   1      45.848  27.045  36.533  1.00  0.00     0.041 A 
ATOM     95  F   UNL A   1      43.542  27.204  36.909  1.00  0.00    -0.206 F 
ATOM     96  C   UNL A   1      47.003  27.503  35.905  1.00  0.00     0.022 A 
BRANCH  93  97
ATOM     97  S   UNL A   1      48.376  29.165  34.134  1.00  0.00     0.124 S 
ATOM     98  O   UNL A   1      47.758  30.029  33.132  1.00  0.00    -0.237 OA
ATOM     99  O   UNL A   1      49.218  29.834  35.121  1.00  0.00    -0.237 OA
ATOM    100  O   UNL A   1      48.902  27.901  33.623  1.00  0.00    -0.744 OA
ENDBRANCH  93  97
ENDBRANCH  67  90
ENDBRANCH  41  42
ENDBRANCH  34  36
ENDBRANCH  33  34
ENDBRANCH  32  33
ENDBRANCH  31  32
ENDBRANCH  30  31
ENDBRANCH  29  30
ENDBRANCH   1  29
TORSDOF 27
ENDMDL
MODEL 3
REMARK VINA RESULT:      -8.5      2.840      3.366
REMARK SMILES CCCc1cc(OCC(=O)OCCOCCOCCOC(=O)c2ccc(-c3c4nc(c(-c5cc(S(=O)(=O)[O-])ccc5F)c5ccc([nH]5)c(-c5cc(S(=O)(=O)[O-])ccc5F)c5nc(c(-c6cc(S(=O)(=O)[O-])ccc6F)c6ccc3[nH]6)C=C5)C=C4)cc2)nc(Nc2ccc(C#N)cc2)n1
REMARK SMILES IDX 15 1 14 2 13 3 12 4 11 5 9 6 10 7 8 8 7 9 6 10 4 11 5 12
REMARK SMILES IDX 97 13 87 14 86 15 3 16 2 17 1 18 88 19 89 21 90 22 96 23
REMARK SMILES IDX 91 24 95 25 92 26 93 27 94 28 16 29 17 30 18 31 19 32 20 33
REMARK SMILES IDX 21 34 22 35 23 36 24 37 85 38 25 39 84 40 26 41 27 42 28 43
REMARK SMILES IDX 78 44 29 45 83 46 77 47 79 48 30 49 82 50 76 51 75 52 31 54
REMARK SMILES IDX 63 55 43 56 62 57 44 58 47 59 61 60 80 61 45 62 46 63 60 65
REMARK SMILES IDX 81 66 48 67 32 68 33 69 41 70 34 71 40 72 42 73 39 74 35 75
REMARK SMILES IDX 36 76 37 77 38 78 64 79 65 80 73 81 66 82 72 83 74 84 71 85
REMARK SMILES IDX 67 86 68 87 69 88 70 89 49 90 50 91 58 92 51 93 57 94 59 95
REMARK SMILES IDX 56 96 52 97 53 98 54 99 55 100
REMARK H PARENT 88 20 79 53 47 64
REMARK Flexibility Score: inf
ROOT
ATOM      1  C   UNL A   1      34.559  30.007  27.792  1.00  0.00     0.188 C 
ENDROOT
BRANCH   1   2
ATOM      2  O   UNL A   1      34.397  29.011  26.800  1.00  0.00    -0.376 OA
BRANCH   2   3
ATOM      3  C   UNL A   1      33.637  29.393  25.672  1.00  0.00     0.202 C 
BRANCH   3   4
ATOM      4  C   UNL A   1      32.144  28.994  25.694  1.00  0.00     0.261 C 
BRANCH   4   5
ATOM      5  O   UNL A   1      31.307  29.699  24.721  1.00  0.00    -0.461 OA
BRANCH   5   6
ATOM      6  C   UNL A   1      31.175  29.164  23.467  1.00  0.00     0.344 C 
ATOM      7  O   UNL A   1      32.108  29.118  22.668  1.00  0.00    -0.248 OA
BRANCH   6   8
ATOM      8  C   UNL A   1      29.787  28.428  23.177  1.00  0.00     0.353 C 
BRANCH   8   9
ATOM      9  O   UNL A   1      29.641  27.012  23.104  1.00  0.00    -0.466 OA
BRANCH   9  10
ATOM     10  C   UNL A   1      30.379  26.071  23.802  1.00  0.00     0.218 A 
ATOM     11  C   UNL A   1      30.811  24.453  25.498  1.00  0.00     0.050 A 
ATOM     12  C   UNL A   1      30.163  25.631  25.109  1.00  0.00     0.092 A 
ATOM     13  N   UNL A   1      31.649  23.848  24.675  1.00  0.00    -0.218 NA
ATOM     14  C   UNL A   1      31.857  24.325  23.456  1.00  0.00     0.230 A 
ATOM     15  N   UNL A   1      31.269  25.439  22.990  1.00  0.00    -0.177 NA
BRANCH  11  16
ATOM     16  C   UNL A   1      30.670  23.651  26.774  1.00  0.00     0.056 C 
BRANCH  16  17
ATOM     17  C   UNL A   1      31.636  22.431  26.888  1.00  0.00     0.003 C 
ATOM     18  C   UNL A   1      32.942  22.671  27.612  1.00  0.00     0.004 C 
ENDBRANCH  16  17
ENDBRANCH  11  16
BRANCH  14  19
ATOM     19  N   UNL A   1      32.742  23.545  22.693  1.00  0.00    -0.324 N 
ATOM     20  H   UNL A   1      33.159  23.922  21.884  1.00  0.00     0.170 HD
BRANCH  19  21
ATOM     21  C   UNL A   1      33.036  22.214  23.088  1.00  0.00     0.041 A 
ATOM     22  C   UNL A   1      34.017  21.931  24.051  1.00  0.00     0.027 A 
ATOM     23  C   UNL A   1      32.124  21.196  22.754  1.00  0.00     0.027 A 
ATOM     24  C   UNL A   1      34.090  20.661  24.651  1.00  0.00     0.021 A 
ATOM     25  C   UNL A   1      32.204  19.925  23.335  1.00  0.00     0.021 A 
ATOM     26  C   UNL A   1      33.185  19.656  24.292  1.00  0.00     0.052 A 
BRANCH  26  27
ATOM     27  C   UNL A   1      33.196  18.373  24.946  1.00  0.00     0.099 C 
ATOM     28  N   UNL A   1      33.233  17.320  25.422  1.00  0.00    -0.192 NA
ENDBRANCH  26  27
ENDBRANCH  19  21
ENDBRANCH  14  19
ENDBRANCH   9  10
ENDBRANCH   8   9
ENDBRANCH   6   8
ENDBRANCH   5   6
ENDBRANCH   4   5
ENDBRANCH   3   4
ENDBRANCH   2   3
ENDBRANCH   1   2
BRANCH   1  29
ATOM     29  C   UNL A   1      33.891  31.383  27.625  1.00  0.00     0.188 C 
BRANCH  29  30
ATOM     30  O   UNL A   1      34.842  32.386  27.390  1.00  0.00    -0.376 OA
BRANCH  30  31
ATOM     31  C   UNL A   1      34.717  33.621  28.047  1.00  0.00     0.202 C 
BRANCH  31  32
ATOM     32  C   UNL A   1      34.151  33.855  29.471  1.00  0.00     0.261 C 
BRANCH  32  33
ATOM     33  O   UNL A   1      32.949  34.625  29.743  1.00  0.00    -0.460 OA
BRANCH  33  34
ATOM     34  C   UNL A   1      33.130  35.443  30.809  1.00  0.00     0.338 C 
ATOM     35  O   UNL A   1      32.604  36.547  30.855  1.00  0.00    -0.246 OA
BRANCH  34  36
ATOM     36  C   UNL A   1      33.823  35.042  32.060  1.00  0.00     0.060 A 
ATOM     37  C   UNL A   1      35.070  35.660  32.274  1.00  0.00     0.016 A 
ATOM     38  C   UNL A   1      33.644  33.740  32.532  1.00  0.00     0.016 A 
ATOM     39  C   UNL A   1      36.159  34.930  32.739  1.00  0.00     0.010 A 
ATOM     40  C   UNL A   1      34.720  33.047  33.131  1.00  0.00     0.010 A 
ATOM     41  C   UNL A   1      35.999  33.621  33.210  1.00  0.00    -0.014 A 
BRANCH  41  42
ATOM     42  C   UNL A   1      37.132  32.985  33.937  1.00  0.00     0.031 A 
ATOM     43  C   UNL A   1      37.415  33.179  35.406  1.00  0.00     0.074 A 
ATOM     44  C   UNL A   1      37.944  32.206  33.191  1.00  0.00     0.049 A 
ATOM     45  N   UNL A   1      38.502  32.878  36.074  1.00  0.00    -0.248 NA
ATOM     46  C   UNL A   1      36.353  33.765  36.236  1.00  0.00     0.031 C 
ATOM     47  C   UNL A   1      37.722  31.869  31.777  1.00  0.00     0.029 A 
ATOM     48  N   UNL A   1      39.119  31.572  33.492  1.00  0.00    -0.354 N 
ATOM     49  C   UNL A   1      38.279  33.269  37.394  1.00  0.00     0.074 A 
ATOM     50  C   UNL A   1      36.936  33.817  37.432  1.00  0.00     0.031 C 
ATOM     51  C   UNL A   1      38.705  31.082  31.344  1.00  0.00     0.029 A 
ATOM     52  C   UNL A   1      39.710  31.011  32.384  1.00  0.00     0.049 A 
ATOM     53  H   UNL A   1      39.498  31.523  34.399  1.00  0.00     0.167 HD
ATOM     54  C   UNL A   1      39.134  33.192  38.450  1.00  0.00     0.034 A 
ATOM     55  C   UNL A   1      40.964  30.592  32.165  1.00  0.00     0.034 A 
ATOM     56  C   UNL A   1      40.475  32.646  38.353  1.00  0.00     0.049 A 
ATOM     57  C   UNL A   1      41.934  30.657  33.296  1.00  0.00     0.074 A 
ATOM     58  C   UNL A   1      41.433  32.517  39.348  1.00  0.00     0.029 A 
ATOM     59  N   UNL A   1      41.057  32.149  37.191  1.00  0.00    -0.354 N 
ATOM     60  N   UNL A   1      41.739  31.090  34.519  1.00  0.00    -0.248 NA
ATOM     61  C   UNL A   1      43.285  30.168  33.023  1.00  0.00     0.031 C 
ATOM     62  C   UNL A   1      42.615  32.040  38.769  1.00  0.00     0.029 A 
ATOM     63  C   UNL A   1      42.369  31.764  37.434  1.00  0.00     0.049 A 
ATOM     64  H   UNL A   1      40.603  32.081  36.320  1.00  0.00     0.167 HD
ATOM     65  C   UNL A   1      42.944  30.896  35.177  1.00  0.00     0.074 A 
ATOM     66  C   UNL A   1      43.846  30.289  34.216  1.00  0.00     0.031 C 
ATOM     67  C   UNL A   1      43.269  31.186  36.462  1.00  0.00     0.034 A 
BRANCH  54  68
ATOM     68  C   UNL A   1      38.702  33.777  39.783  1.00  0.00     0.023 A 
ATOM     69  C   UNL A   1      38.054  33.016  40.771  1.00  0.00     0.031 A 
ATOM     70  C   UNL A   1      38.980  35.127  40.084  1.00  0.00     0.131 A 
ATOM     71  C   UNL A   1      37.663  33.617  41.983  1.00  0.00     0.055 A 
ATOM     72  C   UNL A   1      38.658  35.699  41.319  1.00  0.00     0.041 A 
ATOM     73  F   UNL A   1      39.581  35.917  39.181  1.00  0.00    -0.206 F 
ATOM     74  C   UNL A   1      37.984  34.946  42.273  1.00  0.00     0.022 A 
BRANCH  71  75
ATOM     75  S   UNL A   1      36.615  32.676  43.127  1.00  0.00     0.124 S 
ATOM     76  O   UNL A   1      37.547  32.390  44.217  1.00  0.00    -0.237 OA
ATOM     77  O   UNL A   1      35.549  33.623  43.432  1.00  0.00    -0.237 OA
ATOM     78  O   UNL A   1      36.209  31.510  42.345  1.00  0.00    -0.744 OA
ENDBRANCH  71  75
ENDBRANCH  54  68
BRANCH  55  79
ATOM     79  C   UNL A   1      41.359  30.157  30.801  1.00  0.00     0.023 A 
ATOM     80  C   UNL A   1      41.044  28.871  30.355  1.00  0.00     0.031 A 
ATOM     81  C   UNL A   1      42.016  31.030  29.910  1.00  0.00     0.131 A 
ATOM     82  C   UNL A   1      41.418  28.476  29.066  1.00  0.00     0.055 A 
ATOM     83  C   UNL A   1      42.317  30.657  28.601  1.00  0.00     0.041 A 
ATOM     84  F   UNL A   1      42.324  32.283  30.285  1.00  0.00    -0.206 F 
ATOM     85  C   UNL A   1      42.029  29.363  28.177  1.00  0.00     0.022 A 
BRANCH  82  86
ATOM     86  S   UNL A   1      41.173  26.743  28.607  1.00  0.00     0.124 S 
ATOM     87  O   UNL A   1      41.237  26.812  27.152  1.00  0.00    -0.237 OA
ATOM     88  O   UNL A   1      42.301  26.093  29.269  1.00  0.00    -0.237 OA
ATOM     89  O   UNL A   1      39.859  26.429  29.162  1.00  0.00    -0.744 OA
ENDBRANCH  82  86
ENDBRANCH  55  79
BRANCH  67  90
ATOM     90  C   UNL A   1      44.658  30.794  36.898  1.00  0.00     0.023 A 
ATOM     91  C   UNL A   1      44.926  29.536  37.465  1.00  0.00     0.031 A 
ATOM     92  C   UNL A   1      45.715  31.716  36.801  1.00  0.00     0.131 A 
ATOM     93  C   UNL A   1      46.197  29.263  37.987  1.00  0.00     0.055 A 
ATOM     94  C   UNL A   1      47.000  31.408  37.248  1.00  0.00     0.041 A 
ATOM     95  F   UNL A   1      45.512  32.938  36.283  1.00  0.00    -0.206 F 
ATOM     96  C   UNL A   1      47.242  30.182  37.861  1.00  0.00     0.022 A 
BRANCH  93  97
ATOM     97  S   UNL A   1      46.426  27.749  38.957  1.00  0.00     0.124 S 
ATOM     98  O   UNL A   1      47.819  27.869  39.377  1.00  0.00    -0.237 OA
ATOM     99  O   UNL A   1      45.428  27.898  40.011  1.00  0.00    -0.237 OA
ATOM    100  O   UNL A   1      46.158  26.683  37.995  1.00  0.00    -0.744 OA
ENDBRANCH  93  97
ENDBRANCH  67  90
ENDBRANCH  41  42
ENDBRANCH  34  36
ENDBRANCH  33  34
ENDBRANCH  32  33
ENDBRANCH  31  32
ENDBRANCH  30  31
ENDBRANCH  29  30
ENDBRANCH   1  29
TORSDOF 27
ENDMDL
