MODEL 1
REMARK VINA RESULT:     -10.6      0.000      0.000
REMARK SMILES COc1cc2c(cc1OC)[C@H](C(=O)OCCOCCOCCOC(=O)c1ccc(-c3c4nc(c(-c5cc(S(=O)(=O)[O-])ccc5F)c5ccc([nH]5)c(-c5cc(S(=O)(=O)[O-])ccc5F)c5nc(c(-c6cc(S(=O)(=O)[O-])ccc6F)c6ccc3[nH]6)C=C5)C=C4)cc1)[C@H](c1cccc(Cl)c1)N(C)C2=O
REMARK SMILES IDX 19 1 18 2 17 3 16 4 15 5 14 6 12 7 13 8 11 9 3 10 4 11 8 12
REMARK SMILES IDX 5 13 7 14 6 15 99 16 97 17 100 18 89 19 98 20 2 21 1 22 9 23
REMARK SMILES IDX 10 24 90 25 91 26 96 27 92 28 94 29 93 30 95 31 20 32 21 33
REMARK SMILES IDX 22 34 23 35 24 36 25 37 26 38 27 39 88 40 28 41 87 42 29 43
REMARK SMILES IDX 30 44 31 45 81 46 32 47 86 48 80 49 82 50 33 51 85 52 79 53
REMARK SMILES IDX 78 54 34 56 66 57 46 58 65 59 47 60 50 61 64 62 83 63 48 64
REMARK SMILES IDX 49 65 63 67 84 68 51 69 35 70 36 71 44 72 37 73 43 74 45 75
REMARK SMILES IDX 42 76 38 77 39 78 40 79 41 80 67 81 68 82 76 83 69 84 75 85
REMARK SMILES IDX 77 86 74 87 70 88 71 89 72 90 73 91 52 92 53 93 61 94 54 95
REMARK SMILES IDX 60 96 62 97 59 98 55 99 56 100 57 101 58 102
REMARK H PARENT 82 55 50 66
REMARK Flexibility Score: inf
ROOT
ATOM      1  C   UNL A   1      41.095  21.325  27.661  1.00  0.00     0.188 C 
ENDROOT
BRANCH   1   2
ATOM      2  C   UNL A   1      40.228  21.705  26.436  1.00  0.00     0.188 C 
BRANCH   2   3
ATOM      3  O   UNL A   1      39.732  23.035  26.453  1.00  0.00    -0.376 OA
BRANCH   3   4
ATOM      4  C   UNL A   1      38.313  23.172  26.476  1.00  0.00     0.202 C 
BRANCH   4   5
ATOM      5  C   UNL A   1      37.584  22.695  25.216  1.00  0.00     0.261 C 
BRANCH   5   6
ATOM      6  O   UNL A   1      37.047  23.790  24.459  1.00  0.00    -0.463 OA
BRANCH   6   7
ATOM      7  C   UNL A   1      35.783  23.669  23.973  1.00  0.00     0.316 C 
ATOM      8  O   UNL A   1      35.539  23.490  22.791  1.00  0.00    -0.251 OA
BRANCH   7   9
ATOM      9  C   UNL A   1      34.780  23.910  25.109  1.00  0.00     0.157 C 
ATOM     10  C   UNL A   1      31.444  26.166  23.610  1.00  0.00     0.161 A 
ATOM     11  C   UNL A   1      31.298  25.353  24.751  1.00  0.00     0.064 A 
ATOM     12  C   UNL A   1      32.720  26.381  23.076  1.00  0.00     0.161 A 
ATOM     13  C   UNL A   1      32.401  24.687  25.296  1.00  0.00     0.048 A 
ATOM     14  C   UNL A   1      33.802  25.701  23.624  1.00  0.00     0.056 A 
ATOM     15  C   UNL A   1      33.634  24.773  24.657  1.00  0.00    -0.015 A 
ATOM     16  C   UNL A   1      32.269  23.900  26.562  1.00  0.00     0.254 C 
ATOM     17  N   UNL A   1      33.288  22.990  26.856  1.00  0.00    -0.333 N 
ATOM     18  O   UNL A   1      31.291  24.085  27.279  1.00  0.00    -0.269 OA
ATOM     19  C   UNL A   1      34.296  22.622  25.838  1.00  0.00     0.134 C 
ATOM     20  C   UNL A   1      33.190  22.188  28.068  1.00  0.00     0.147 C 
BRANCH  10  21
ATOM     21  O   UNL A   1      30.367  26.695  22.954  1.00  0.00    -0.493 OA
ATOM     22  C   UNL A   1      29.191  26.862  23.730  1.00  0.00     0.278 C 
ENDBRANCH  10  21
BRANCH  12  23
ATOM     23  O   UNL A   1      33.118  27.197  22.054  1.00  0.00    -0.493 OA
ATOM     24  C   UNL A   1      34.050  28.225  22.325  1.00  0.00     0.278 C 
ENDBRANCH  12  23
BRANCH  19  25
ATOM     25  C   UNL A   1      33.809  21.509  24.912  1.00  0.00    -0.023 A 
ATOM     26  C   UNL A   1      32.802  21.788  23.971  1.00  0.00     0.006 A 
ATOM     27  C   UNL A   1      34.243  20.178  25.031  1.00  0.00     0.026 A 
ATOM     28  C   UNL A   1      32.141  20.757  23.301  1.00  0.00     0.002 A 
ATOM     29  C   UNL A   1      33.592  19.153  24.348  1.00  0.00     0.041 A 
ATOM     30  C   UNL A   1      32.521  19.434  23.510  1.00  0.00     0.020 A 
ATOM     31  Cl  UNL A   1      34.087  17.523  24.597  1.00  0.00    -0.084 Cl
ENDBRANCH  19  25
ENDBRANCH   7   9
ENDBRANCH   6   7
ENDBRANCH   5   6
ENDBRANCH   4   5
ENDBRANCH   3   4
ENDBRANCH   2   3
ENDBRANCH   1   2
BRANCH   1  32
ATOM     32  O   UNL A   1      41.892  20.153  27.628  1.00  0.00    -0.376 OA
BRANCH  32  33
ATOM     33  C   UNL A   1      41.838  19.348  26.456  1.00  0.00     0.202 C 
BRANCH  33  34
ATOM     34  C   UNL A   1      43.080  19.233  25.550  1.00  0.00     0.261 C 
BRANCH  34  35
ATOM     35  O   UNL A   1      43.539  20.462  24.955  1.00  0.00    -0.460 OA
BRANCH  35  36
ATOM     36  C   UNL A   1      44.847  20.476  24.571  1.00  0.00     0.338 C 
ATOM     37  O   UNL A   1      45.391  19.701  23.814  1.00  0.00    -0.246 OA
BRANCH  36  38
ATOM     38  C   UNL A   1      45.489  21.730  25.038  1.00  0.00     0.060 A 
ATOM     39  C   UNL A   1      45.467  22.034  26.411  1.00  0.00     0.016 A 
ATOM     40  C   UNL A   1      46.059  22.622  24.132  1.00  0.00     0.016 A 
ATOM     41  C   UNL A   1      46.002  23.237  26.879  1.00  0.00     0.010 A 
ATOM     42  C   UNL A   1      46.558  23.844  24.598  1.00  0.00     0.010 A 
ATOM     43  C   UNL A   1      46.507  24.170  25.967  1.00  0.00    -0.014 A 
BRANCH  43  44
ATOM     44  C   UNL A   1      46.765  25.571  26.388  1.00  0.00     0.031 A 
ATOM     45  C   UNL A   1      45.576  26.429  26.732  1.00  0.00     0.074 A 
ATOM     46  C   UNL A   1      48.007  26.085  26.440  1.00  0.00     0.049 A 
ATOM     47  N   UNL A   1      45.511  27.716  26.947  1.00  0.00    -0.248 NA
ATOM     48  C   UNL A   1      44.284  25.732  26.837  1.00  0.00     0.031 C 
ATOM     49  C   UNL A   1      49.242  25.340  26.210  1.00  0.00     0.029 A 
ATOM     50  N   UNL A   1      48.428  27.370  26.682  1.00  0.00    -0.354 N 
ATOM     51  C   UNL A   1      44.170  27.988  27.197  1.00  0.00     0.074 A 
ATOM     52  C   UNL A   1      43.457  26.735  27.081  1.00  0.00     0.031 C 
ATOM     53  C   UNL A   1      50.283  26.189  26.294  1.00  0.00     0.029 A 
ATOM     54  C   UNL A   1      49.784  27.544  26.528  1.00  0.00     0.049 A 
ATOM     55  H   UNL A   1      47.818  28.098  26.943  1.00  0.00     0.167 HD
ATOM     56  C   UNL A   1      43.587  29.175  27.492  1.00  0.00     0.034 A 
ATOM     57  C   UNL A   1      50.526  28.672  26.527  1.00  0.00     0.034 A 
ATOM     58  C   UNL A   1      44.308  30.420  27.583  1.00  0.00     0.049 A 
ATOM     59  C   UNL A   1      49.839  30.006  26.738  1.00  0.00     0.074 A 
ATOM     60  C   UNL A   1      43.817  31.682  27.867  1.00  0.00     0.029 A 
ATOM     61  N   UNL A   1      45.674  30.562  27.379  1.00  0.00    -0.354 N 
ATOM     62  N   UNL A   1      48.566  30.259  26.948  1.00  0.00    -0.248 NA
ATOM     63  C   UNL A   1      50.688  31.207  26.709  1.00  0.00     0.031 C 
ATOM     64  C   UNL A   1      44.871  32.595  27.762  1.00  0.00     0.029 A 
ATOM     65  C   UNL A   1      46.037  31.894  27.500  1.00  0.00     0.049 A 
ATOM     66  H   UNL A   1      46.295  29.824  27.178  1.00  0.00     0.167 HD
ATOM     67  C   UNL A   1      48.476  31.639  27.121  1.00  0.00     0.074 A 
ATOM     68  C   UNL A   1      49.816  32.165  26.990  1.00  0.00     0.031 C 
ATOM     69  C   UNL A   1      47.382  32.403  27.377  1.00  0.00     0.034 A 
BRANCH  56  70
ATOM     70  C   UNL A   1      42.090  29.186  27.675  1.00  0.00     0.023 A 
ATOM     71  C   UNL A   1      41.500  29.208  28.950  1.00  0.00     0.031 A 
ATOM     72  C   UNL A   1      41.239  29.139  26.557  1.00  0.00     0.131 A 
ATOM     73  C   UNL A   1      40.106  29.114  29.077  1.00  0.00     0.055 A 
ATOM     74  C   UNL A   1      39.849  29.130  26.688  1.00  0.00     0.041 A 
ATOM     75  F   UNL A   1      41.745  29.088  25.314  1.00  0.00    -0.206 F 
ATOM     76  C   UNL A   1      39.275  29.102  27.955  1.00  0.00     0.022 A 
BRANCH  73  77
ATOM     77  S   UNL A   1      39.403  28.862  30.731  1.00  0.00     0.124 S 
ATOM     78  O   UNL A   1      38.330  27.911  30.451  1.00  0.00    -0.237 OA
ATOM     79  O   UNL A   1      40.540  28.341  31.481  1.00  0.00    -0.237 OA
ATOM     80  O   UNL A   1      38.957  30.199  31.120  1.00  0.00    -0.744 OA
ENDBRANCH  73  77
ENDBRANCH  56  70
BRANCH  57  81
ATOM     81  C   UNL A   1      51.994  28.621  26.261  1.00  0.00     0.023 A 
ATOM     82  C   UNL A   1      52.491  28.554  24.949  1.00  0.00     0.031 A 
ATOM     83  C   UNL A   1      52.921  28.555  27.317  1.00  0.00     0.131 A 
ATOM     84  C   UNL A   1      53.865  28.369  24.728  1.00  0.00     0.055 A 
ATOM     85  C   UNL A   1      54.294  28.433  27.092  1.00  0.00     0.041 A 
ATOM     86  F   UNL A   1      52.504  28.605  28.593  1.00  0.00    -0.206 F 
ATOM     87  C   UNL A   1      54.772  28.324  25.789  1.00  0.00     0.022 A 
BRANCH  84  88
ATOM     88  S   UNL A   1      54.440  28.077  23.032  1.00  0.00     0.124 S 
ATOM     89  O   UNL A   1      55.255  29.262  22.790  1.00  0.00    -0.237 OA
ATOM     90  O   UNL A   1      55.161  26.816  23.172  1.00  0.00    -0.237 OA
ATOM     91  O   UNL A   1      53.200  28.003  22.262  1.00  0.00    -0.744 OA
ENDBRANCH  84  88
ENDBRANCH  57  81
BRANCH  69  92
ATOM     92  C   UNL A   1      47.598  33.880  27.612  1.00  0.00     0.023 A 
ATOM     93  C   UNL A   1      48.065  34.384  28.838  1.00  0.00     0.031 A 
ATOM     94  C   UNL A   1      47.353  34.794  26.571  1.00  0.00     0.131 A 
ATOM     95  C   UNL A   1      48.238  35.767  29.002  1.00  0.00     0.055 A 
ATOM     96  C   UNL A   1      47.580  36.162  26.721  1.00  0.00     0.041 A 
ATOM     97  F   UNL A   1      46.904  34.367  25.378  1.00  0.00    -0.206 F 
ATOM     98  C   UNL A   1      48.018  36.657  27.947  1.00  0.00     0.022 A 
BRANCH  95  99
ATOM     99  S   UNL A   1      48.697  36.404  30.638  1.00  0.00     0.124 S 
ATOM    100  O   UNL A   1      49.790  35.513  31.015  1.00  0.00    -0.237 OA
ATOM    101  O   UNL A   1      49.072  37.783  30.343  1.00  0.00    -0.237 OA
ATOM    102  O   UNL A   1      47.473  36.251  31.422  1.00  0.00    -0.744 OA
ENDBRANCH  95  99
ENDBRANCH  69  92
ENDBRANCH  43  44
ENDBRANCH  36  38
ENDBRANCH  35  36
ENDBRANCH  34  35
ENDBRANCH  33  34
ENDBRANCH  32  33
ENDBRANCH   1  32
TORSDOF 23
ENDMDL
MODEL 2
REMARK VINA RESULT:     -10.5      1.349      7.427
REMARK SMILES COc1cc2c(cc1OC)[C@H](C(=O)OCCOCCOCCOC(=O)c1ccc(-c3c4nc(c(-c5cc(S(=O)(=O)[O-])ccc5F)c5ccc([nH]5)c(-c5cc(S(=O)(=O)[O-])ccc5F)c5nc(c(-c6cc(S(=O)(=O)[O-])ccc6F)c6ccc3[nH]6)C=C5)C=C4)cc1)[C@H](c1cccc(Cl)c1)N(C)C2=O
REMARK SMILES IDX 19 1 18 2 17 3 16 4 15 5 14 6 12 7 13 8 11 9 3 10 4 11 8 12
REMARK SMILES IDX 5 13 7 14 6 15 99 16 97 17 100 18 89 19 98 20 2 21 1 22 9 23
REMARK SMILES IDX 10 24 90 25 91 26 96 27 92 28 94 29 93 30 95 31 20 32 21 33
REMARK SMILES IDX 22 34 23 35 24 36 25 37 26 38 27 39 88 40 28 41 87 42 29 43
REMARK SMILES IDX 30 44 31 45 81 46 32 47 86 48 80 49 82 50 33 51 85 52 79 53
REMARK SMILES IDX 78 54 34 56 66 57 46 58 65 59 47 60 50 61 64 62 83 63 48 64
REMARK SMILES IDX 49 65 63 67 84 68 51 69 35 70 36 71 44 72 37 73 43 74 45 75
REMARK SMILES IDX 42 76 38 77 39 78 40 79 41 80 67 81 68 82 76 83 69 84 75 85
REMARK SMILES IDX 77 86 74 87 70 88 71 89 72 90 73 91 52 92 53 93 61 94 54 95
REMARK SMILES IDX 60 96 62 97 59 98 55 99 56 100 57 101 58 102
REMARK H PARENT 82 55 50 66
REMARK Flexibility Score: inf
ROOT
ATOM      1  C   UNL A   1      41.241  21.778  27.263  1.00  0.00     0.188 C 
ENDROOT
BRANCH   1   2
ATOM      2  C   UNL A   1      40.152  21.346  26.252  1.00  0.00     0.188 C 
BRANCH   2   3
ATOM      3  O   UNL A   1      38.987  22.160  26.255  1.00  0.00    -0.376 OA
BRANCH   3   4
ATOM      4  C   UNL A   1      37.804  21.557  25.737  1.00  0.00     0.202 C 
BRANCH   4   5
ATOM      5  C   UNL A   1      37.347  22.070  24.369  1.00  0.00     0.261 C 
BRANCH   5   6
ATOM      6  O   UNL A   1      36.850  23.415  24.437  1.00  0.00    -0.463 OA
BRANCH   6   7
ATOM      7  C   UNL A   1      35.624  23.669  23.909  1.00  0.00     0.316 C 
ATOM      8  O   UNL A   1      35.420  23.748  22.708  1.00  0.00    -0.251 OA
BRANCH   7   9
ATOM      9  C   UNL A   1      34.630  23.943  25.045  1.00  0.00     0.157 C 
ATOM     10  C   UNL A   1      31.333  26.247  23.534  1.00  0.00     0.161 A 
ATOM     11  C   UNL A   1      31.176  25.450  24.684  1.00  0.00     0.064 A 
ATOM     12  C   UNL A   1      32.612  26.431  22.993  1.00  0.00     0.161 A 
ATOM     13  C   UNL A   1      32.268  24.768  25.233  1.00  0.00     0.048 A 
ATOM     14  C   UNL A   1      33.682  25.735  23.545  1.00  0.00     0.056 A 
ATOM     15  C   UNL A   1      33.500  24.823  24.588  1.00  0.00    -0.015 A 
ATOM     16  C   UNL A   1      32.125  23.998  26.508  1.00  0.00     0.254 C 
ATOM     17  N   UNL A   1      33.127  23.071  26.808  1.00  0.00    -0.333 N 
ATOM     18  O   UNL A   1      31.154  24.210  27.226  1.00  0.00    -0.269 OA
ATOM     19  C   UNL A   1      34.124  22.672  25.790  1.00  0.00     0.134 C 
ATOM     20  C   UNL A   1      33.018  22.285  28.030  1.00  0.00     0.147 C 
BRANCH  10  21
ATOM     21  O   UNL A   1      30.265  26.790  22.876  1.00  0.00    -0.493 OA
ATOM     22  C   UNL A   1      29.519  27.756  23.600  1.00  0.00     0.278 C 
ENDBRANCH  10  21
BRANCH  12  23
ATOM     23  O   UNL A   1      33.021  27.227  21.961  1.00  0.00    -0.493 OA
ATOM     24  C   UNL A   1      33.939  28.269  22.225  1.00  0.00     0.278 C 
ENDBRANCH  12  23
BRANCH  19  25
ATOM     25  C   UNL A   1      33.611  21.559  24.879  1.00  0.00    -0.023 A 
ATOM     26  C   UNL A   1      32.903  21.896  23.712  1.00  0.00     0.006 A 
ATOM     27  C   UNL A   1      33.717  20.198  25.211  1.00  0.00     0.026 A 
ATOM     28  C   UNL A   1      32.189  20.929  23.002  1.00  0.00     0.002 A 
ATOM     29  C   UNL A   1      33.017  19.232  24.489  1.00  0.00     0.041 A 
ATOM     30  C   UNL A   1      32.226  19.598  23.407  1.00  0.00     0.020 A 
ATOM     31  Cl  UNL A   1      33.090  17.587  24.986  1.00  0.00    -0.084 Cl
ENDBRANCH  19  25
ENDBRANCH   7   9
ENDBRANCH   6   7
ENDBRANCH   5   6
ENDBRANCH   4   5
ENDBRANCH   3   4
ENDBRANCH   2   3
ENDBRANCH   1   2
BRANCH   1  32
ATOM     32  O   UNL A   1      42.301  20.891  27.583  1.00  0.00    -0.376 OA
BRANCH  32  33
ATOM     33  C   UNL A   1      42.130  19.514  27.270  1.00  0.00     0.202 C 
BRANCH  33  34
ATOM     34  C   UNL A   1      42.802  18.926  26.014  1.00  0.00     0.261 C 
BRANCH  34  35
ATOM     35  O   UNL A   1      44.183  19.286  25.814  1.00  0.00    -0.460 OA
BRANCH  35  36
ATOM     36  C   UNL A   1      44.467  19.882  24.622  1.00  0.00     0.338 C 
ATOM     37  O   UNL A   1      44.201  19.461  23.516  1.00  0.00    -0.246 OA
BRANCH  36  38
ATOM     38  C   UNL A   1      44.964  21.260  24.860  1.00  0.00     0.060 A 
ATOM     39  C   UNL A   1      45.357  21.625  26.159  1.00  0.00     0.016 A 
ATOM     40  C   UNL A   1      44.992  22.198  23.830  1.00  0.00     0.016 A 
ATOM     41  C   UNL A   1      45.767  22.933  26.435  1.00  0.00     0.010 A 
ATOM     42  C   UNL A   1      45.364  23.517  24.116  1.00  0.00     0.010 A 
ATOM     43  C   UNL A   1      45.725  23.897  25.423  1.00  0.00    -0.014 A 
BRANCH  43  44
ATOM     44  C   UNL A   1      45.823  25.342  25.755  1.00  0.00     0.031 A 
ATOM     45  C   UNL A   1      47.181  25.988  25.682  1.00  0.00     0.074 A 
ATOM     46  C   UNL A   1      44.753  26.062  26.138  1.00  0.00     0.049 A 
ATOM     47  N   UNL A   1      47.568  27.166  26.091  1.00  0.00    -0.248 NA
ATOM     48  C   UNL A   1      48.249  25.180  25.069  1.00  0.00     0.031 C 
ATOM     49  C   UNL A   1      43.376  25.579  26.172  1.00  0.00     0.029 A 
ATOM     50  N   UNL A   1      44.668  27.355  26.595  1.00  0.00    -0.354 N 
ATOM     51  C   UNL A   1      48.927  27.238  25.801  1.00  0.00     0.074 A 
ATOM     52  C   UNL A   1      49.298  25.974  25.205  1.00  0.00     0.031 C 
ATOM     53  C   UNL A   1      42.584  26.554  26.655  1.00  0.00     0.029 A 
ATOM     54  C   UNL A   1      43.407  27.709  27.015  1.00  0.00     0.049 A 
ATOM     55  H   UNL A   1      45.437  27.970  26.620  1.00  0.00     0.167 HD
ATOM     56  C   UNL A   1      49.786  28.264  26.016  1.00  0.00     0.034 A 
ATOM     57  C   UNL A   1      42.979  28.817  27.658  1.00  0.00     0.034 A 
ATOM     58  C   UNL A   1      49.405  29.511  26.632  1.00  0.00     0.049 A 
ATOM     59  C   UNL A   1      43.978  29.903  28.000  1.00  0.00     0.074 A 
ATOM     60  C   UNL A   1      50.195  30.614  26.906  1.00  0.00     0.029 A 
ATOM     61  N   UNL A   1      48.127  29.817  27.081  1.00  0.00    -0.354 N 
ATOM     62  N   UNL A   1      45.267  29.953  27.746  1.00  0.00    -0.248 NA
ATOM     63  C   UNL A   1      43.466  31.080  28.717  1.00  0.00     0.031 C 
ATOM     64  C   UNL A   1      49.413  31.553  27.585  1.00  0.00     0.029 A 
ATOM     65  C   UNL A   1      48.114  31.077  27.657  1.00  0.00     0.049 A 
ATOM     66  H   UNL A   1      47.344  29.225  27.001  1.00  0.00     0.167 HD
ATOM     67  C   UNL A   1      45.703  31.185  28.232  1.00  0.00     0.074 A 
ATOM     68  C   UNL A   1      44.546  31.845  28.794  1.00  0.00     0.031 C 
ATOM     69  C   UNL A   1      46.948  31.727  28.205  1.00  0.00     0.034 A 
BRANCH  56  70
ATOM     70  C   UNL A   1      51.230  28.050  25.638  1.00  0.00     0.023 A 
ATOM     71  C   UNL A   1      51.665  28.128  24.304  1.00  0.00     0.031 A 
ATOM     72  C   UNL A   1      52.180  27.729  26.623  1.00  0.00     0.131 A 
ATOM     73  C   UNL A   1      52.996  27.821  23.984  1.00  0.00     0.055 A 
ATOM     74  C   UNL A   1      53.522  27.506  26.308  1.00  0.00     0.041 A 
ATOM     75  F   UNL A   1      51.818  27.613  27.912  1.00  0.00    -0.206 F 
ATOM     76  C   UNL A   1      53.934  27.537  24.980  1.00  0.00     0.022 A 
BRANCH  73  77
ATOM     77  S   UNL A   1      53.450  27.657  22.235  1.00  0.00     0.124 S 
ATOM     78  O   UNL A   1      52.680  28.740  21.629  1.00  0.00    -0.237 OA
ATOM     79  O   UNL A   1      54.897  27.839  22.266  1.00  0.00    -0.237 OA
ATOM     80  O   UNL A   1      52.997  26.310  21.890  1.00  0.00    -0.744 OA
ENDBRANCH  73  77
ENDBRANCH  56  70
BRANCH  57  81
ATOM     81  C   UNL A   1      41.554  28.950  28.085  1.00  0.00     0.023 A 
ATOM     82  C   UNL A   1      41.194  28.872  29.440  1.00  0.00     0.031 A 
ATOM     83  C   UNL A   1      40.522  29.075  27.138  1.00  0.00     0.131 A 
ATOM     84  C   UNL A   1      39.838  28.863  29.805  1.00  0.00     0.055 A 
ATOM     85  C   UNL A   1      39.176  29.127  27.511  1.00  0.00     0.041 A 
ATOM     86  F   UNL A   1      40.805  29.145  25.827  1.00  0.00    -0.206 F 
ATOM     87  C   UNL A   1      38.828  29.006  28.853  1.00  0.00     0.022 A 
BRANCH  84  88
ATOM     88  S   UNL A   1      39.409  28.550  31.541  1.00  0.00     0.124 S 
ATOM     89  O   UNL A   1      38.951  29.865  31.972  1.00  0.00    -0.237 OA
ATOM     90  O   UNL A   1      38.384  27.520  31.416  1.00  0.00    -0.237 OA
ATOM     91  O   UNL A   1      40.672  28.104  32.127  1.00  0.00    -0.744 OA
ENDBRANCH  84  88
ENDBRANCH  57  81
BRANCH  69  92
ATOM     92  C   UNL A   1      47.111  33.135  28.728  1.00  0.00     0.023 A 
ATOM     93  C   UNL A   1      46.866  34.265  27.930  1.00  0.00     0.031 A 
ATOM     94  C   UNL A   1      47.495  33.340  30.067  1.00  0.00     0.131 A 
ATOM     95  C   UNL A   1      47.043  35.550  28.467  1.00  0.00     0.055 A 
ATOM     96  C   UNL A   1      47.614  34.619  30.612  1.00  0.00     0.041 A 
ATOM     97  F   UNL A   1      47.742  32.296  30.875  1.00  0.00    -0.206 F 
ATOM     98  C   UNL A   1      47.397  35.734  29.807  1.00  0.00     0.022 A 
BRANCH  95  99
ATOM     99  S   UNL A   1      46.868  36.988  27.375  1.00  0.00     0.124 S 
ATOM    100  O   UNL A   1      45.457  36.920  27.008  1.00  0.00    -0.237 OA
ATOM    101  O   UNL A   1      47.247  38.093  28.249  1.00  0.00    -0.237 OA
ATOM    102  O   UNL A   1      47.806  36.710  26.288  1.00  0.00    -0.744 OA
ENDBRANCH  95  99
ENDBRANCH  69  92
ENDBRANCH  43  44
ENDBRANCH  36  38
ENDBRANCH  35  36
ENDBRANCH  34  35
ENDBRANCH  33  34
ENDBRANCH  32  33
ENDBRANCH   1  32
TORSDOF 23
ENDMDL
MODEL 3
REMARK VINA RESULT:     -10.3      3.208      4.493
REMARK SMILES COc1cc2c(cc1OC)[C@H](C(=O)OCCOCCOCCOC(=O)c1ccc(-c3c4nc(c(-c5cc(S(=O)(=O)[O-])ccc5F)c5ccc([nH]5)c(-c5cc(S(=O)(=O)[O-])ccc5F)c5nc(c(-c6cc(S(=O)(=O)[O-])ccc6F)c6ccc3[nH]6)C=C5)C=C4)cc1)[C@H](c1cccc(Cl)c1)N(C)C2=O
REMARK SMILES IDX 19 1 18 2 17 3 16 4 15 5 14 6 12 7 13 8 11 9 3 10 4 11 8 12
REMARK SMILES IDX 5 13 7 14 6 15 99 16 97 17 100 18 89 19 98 20 2 21 1 22 9 23
REMARK SMILES IDX 10 24 90 25 91 26 96 27 92 28 94 29 93 30 95 31 20 32 21 33
REMARK SMILES IDX 22 34 23 35 24 36 25 37 26 38 27 39 88 40 28 41 87 42 29 43
REMARK SMILES IDX 30 44 31 45 81 46 32 47 86 48 80 49 82 50 33 51 85 52 79 53
REMARK SMILES IDX 78 54 34 56 66 57 46 58 65 59 47 60 50 61 64 62 83 63 48 64
REMARK SMILES IDX 49 65 63 67 84 68 51 69 35 70 36 71 44 72 37 73 43 74 45 75
REMARK SMILES IDX 42 76 38 77 39 78 40 79 41 80 67 81 68 82 76 83 69 84 75 85
REMARK SMILES IDX 77 86 74 87 70 88 71 89 72 90 73 91 52 92 53 93 61 94 54 95
REMARK SMILES IDX 60 96 62 97 59 98 55 99 56 100 57 101 58 102
REMARK H PARENT 82 55 50 66
REMARK Flexibility Score: inf
ROOT
ATOM      1  C   UNL A   1      41.173  20.524  27.231  1.00  0.00     0.188 C 
ENDROOT
BRANCH   1   2
ATOM      2  C   UNL A   1      39.974  20.501  26.252  1.00  0.00     0.188 C 
BRANCH   2   3
ATOM      3  O   UNL A   1      39.328  21.754  26.081  1.00  0.00    -0.376 OA
BRANCH   3   4
ATOM      4  C   UNL A   1      37.931  21.702  25.799  1.00  0.00     0.202 C 
BRANCH   4   5
ATOM      5  C   UNL A   1      37.521  22.187  24.406  1.00  0.00     0.261 C 
BRANCH   5   6
ATOM      6  O   UNL A   1      36.935  23.497  24.443  1.00  0.00    -0.463 OA
BRANCH   6   7
ATOM      7  C   UNL A   1      35.690  23.654  23.920  1.00  0.00     0.316 C 
ATOM      8  O   UNL A   1      35.470  23.663  22.720  1.00  0.00    -0.251 OA
BRANCH   7   9
ATOM      9  C   UNL A   1      34.694  23.922  25.055  1.00  0.00     0.157 C 
ATOM     10  C   UNL A   1      31.399  26.230  23.546  1.00  0.00     0.161 A 
ATOM     11  C   UNL A   1      31.240  25.429  24.693  1.00  0.00     0.064 A 
ATOM     12  C   UNL A   1      32.679  26.417  23.008  1.00  0.00     0.161 A 
ATOM     13  C   UNL A   1      32.331  24.745  25.241  1.00  0.00     0.048 A 
ATOM     14  C   UNL A   1      33.748  25.720  23.560  1.00  0.00     0.056 A 
ATOM     15  C   UNL A   1      33.565  24.804  24.599  1.00  0.00    -0.015 A 
ATOM     16  C   UNL A   1      32.186  23.971  26.513  1.00  0.00     0.254 C 
ATOM     17  N   UNL A   1      33.188  23.044  26.812  1.00  0.00    -0.333 N 
ATOM     18  O   UNL A   1      31.214  24.179  27.230  1.00  0.00    -0.269 OA
ATOM     19  C   UNL A   1      34.187  22.649  25.795  1.00  0.00     0.134 C 
ATOM     20  C   UNL A   1      33.077  22.253  28.030  1.00  0.00     0.147 C 
BRANCH  10  21
ATOM     21  O   UNL A   1      30.332  26.776  22.888  1.00  0.00    -0.493 OA
ATOM     22  C   UNL A   1      29.815  27.978  23.437  1.00  0.00     0.278 C 
ENDBRANCH  10  21
BRANCH  12  23
ATOM     23  O   UNL A   1      33.089  27.218  21.980  1.00  0.00    -0.493 OA
ATOM     24  C   UNL A   1      33.876  28.355  22.273  1.00  0.00     0.278 C 
ENDBRANCH  12  23
BRANCH  19  25
ATOM     25  C   UNL A   1      33.677  21.539  24.878  1.00  0.00    -0.023 A 
ATOM     26  C   UNL A   1      32.841  21.869  23.797  1.00  0.00     0.006 A 
ATOM     27  C   UNL A   1      33.913  20.177  25.131  1.00  0.00     0.026 A 
ATOM     28  C   UNL A   1      32.139  20.881  23.105  1.00  0.00     0.002 A 
ATOM     29  C   UNL A   1      33.223  19.192  24.427  1.00  0.00     0.041 A 
ATOM     30  C   UNL A   1      32.312  19.540  23.439  1.00  0.00     0.020 A 
ATOM     31  Cl  UNL A   1      33.464  17.537  24.834  1.00  0.00    -0.084 Cl
ENDBRANCH  19  25
ENDBRANCH   7   9
ENDBRANCH   6   7
ENDBRANCH   5   6
ENDBRANCH   4   5
ENDBRANCH   3   4
ENDBRANCH   2   3
ENDBRANCH   1   2
BRANCH   1  32
ATOM     32  O   UNL A   1      42.291  19.682  27.000  1.00  0.00    -0.376 OA
BRANCH  32  33
ATOM     33  C   UNL A   1      42.937  19.771  25.737  1.00  0.00     0.202 C 
BRANCH  33  34
ATOM     34  C   UNL A   1      43.878  20.955  25.440  1.00  0.00     0.261 C 
BRANCH  34  35
ATOM     35  O   UNL A   1      43.233  22.214  25.165  1.00  0.00    -0.460 OA
BRANCH  35  36
ATOM     36  C   UNL A   1      44.060  23.224  24.772  1.00  0.00     0.338 C 
ATOM     37  O   UNL A   1      44.769  23.243  23.788  1.00  0.00    -0.246 OA
BRANCH  36  38
ATOM     38  C   UNL A   1      43.811  24.425  25.607  1.00  0.00     0.060 A 
ATOM     39  C   UNL A   1      43.478  25.636  24.974  1.00  0.00     0.016 A 
ATOM     40  C   UNL A   1      43.955  24.375  26.992  1.00  0.00     0.016 A 
ATOM     41  C   UNL A   1      43.302  26.802  25.724  1.00  0.00     0.010 A 
ATOM     42  C   UNL A   1      43.818  25.552  27.736  1.00  0.00     0.010 A 
ATOM     43  C   UNL A   1      43.520  26.775  27.106  1.00  0.00    -0.014 A 
BRANCH  43  44
ATOM     44  C   UNL A   1      43.674  28.041  27.868  1.00  0.00     0.031 A 
ATOM     45  C   UNL A   1      42.432  28.668  28.443  1.00  0.00     0.074 A 
ATOM     46  C   UNL A   1      44.868  28.638  28.029  1.00  0.00     0.049 A 
ATOM     47  N   UNL A   1      42.265  29.846  28.983  1.00  0.00    -0.248 NA
ATOM     48  C   UNL A   1      41.209  27.850  28.388  1.00  0.00     0.031 C 
ATOM     49  C   UNL A   1      46.152  28.094  27.594  1.00  0.00     0.029 A 
ATOM     50  N   UNL A   1      45.188  29.852  28.586  1.00  0.00    -0.354 N 
ATOM     51  C   UNL A   1      40.918  29.920  29.318  1.00  0.00     0.074 A 
ATOM     52  C   UNL A   1      40.310  28.676  28.897  1.00  0.00     0.031 C 
ATOM     53  C   UNL A   1      47.119  28.986  27.874  1.00  0.00     0.029 A 
ATOM     54  C   UNL A   1      46.517  30.185  28.458  1.00  0.00     0.049 A 
ATOM     55  H   UNL A   1      44.529  30.429  29.037  1.00  0.00     0.167 HD
ATOM     56  C   UNL A   1      40.248  30.933  29.919  1.00  0.00     0.034 A 
ATOM     57  C   UNL A   1      47.159  31.340  28.735  1.00  0.00     0.034 A 
ATOM     58  C   UNL A   1      40.863  32.175  30.315  1.00  0.00     0.049 A 
ATOM     59  C   UNL A   1      46.370  32.507  29.294  1.00  0.00     0.074 A 
ATOM     60  C   UNL A   1      40.279  33.272  30.922  1.00  0.00     0.029 A 
ATOM     61  N   UNL A   1      42.203  32.491  30.130  1.00  0.00    -0.354 N 
ATOM     62  N   UNL A   1      45.090  32.578  29.584  1.00  0.00    -0.248 NA
ATOM     63  C   UNL A   1      47.111  33.748  29.560  1.00  0.00     0.031 C 
ATOM     64  C   UNL A   1      41.245  34.276  31.037  1.00  0.00     0.029 A 
ATOM     65  C   UNL A   1      42.455  33.776  30.583  1.00  0.00     0.049 A 
ATOM     66  H   UNL A   1      42.876  31.890  29.735  1.00  0.00     0.167 HD
ATOM     67  C   UNL A   1      44.889  33.854  30.108  1.00  0.00     0.074 A 
ATOM     68  C   UNL A   1      46.173  34.518  30.093  1.00  0.00     0.031 C 
ATOM     69  C   UNL A   1      43.746  34.422  30.571  1.00  0.00     0.034 A 
BRANCH  56  70
ATOM     70  C   UNL A   1      38.764  30.757  30.125  1.00  0.00     0.023 A 
ATOM     71  C   UNL A   1      37.825  31.265  29.210  1.00  0.00     0.031 A 
ATOM     72  C   UNL A   1      38.280  30.101  31.270  1.00  0.00     0.131 A 
ATOM     73  C   UNL A   1      36.454  31.169  29.491  1.00  0.00     0.055 A 
ATOM     74  C   UNL A   1      36.913  29.935  31.501  1.00  0.00     0.041 A 
ATOM     75  F   UNL A   1      39.128  29.619  32.192  1.00  0.00    -0.206 F 
ATOM     76  C   UNL A   1      35.990  30.484  30.617  1.00  0.00     0.022 A 
BRANCH  73  77
ATOM     77  S   UNL A   1      35.290  32.078  28.437  1.00  0.00     0.124 S 
ATOM     78  O   UNL A   1      36.195  32.911  27.650  1.00  0.00    -0.237 OA
ATOM     79  O   UNL A   1      34.616  31.005  27.714  1.00  0.00    -0.237 OA
ATOM     80  O   UNL A   1      34.458  32.805  29.395  1.00  0.00    -0.744 OA
ENDBRANCH  73  77
ENDBRANCH  56  70
BRANCH  57  81
ATOM     81  C   UNL A   1      48.614  31.495  28.438  1.00  0.00     0.023 A 
ATOM     82  C   UNL A   1      49.589  31.087  29.364  1.00  0.00     0.031 A 
ATOM     83  C   UNL A   1      49.052  32.127  27.261  1.00  0.00     0.131 A 
ATOM     84  C   UNL A   1      50.944  31.367  29.123  1.00  0.00     0.055 A 
ATOM     85  C   UNL A   1      50.406  32.348  26.997  1.00  0.00     0.041 A 
ATOM     86  F   UNL A   1      48.164  32.546  26.344  1.00  0.00    -0.206 F 
ATOM     87  C   UNL A   1      51.361  31.980  27.940  1.00  0.00     0.022 A 
BRANCH  84  88
ATOM     88  S   UNL A   1      52.149  31.015  30.434  1.00  0.00     0.124 S 
ATOM     89  O   UNL A   1      52.060  29.563  30.533  1.00  0.00    -0.237 OA
ATOM     90  O   UNL A   1      53.381  31.547  29.861  1.00  0.00    -0.237 OA
ATOM     91  O   UNL A   1      51.626  31.754  31.582  1.00  0.00    -0.744 OA
ENDBRANCH  84  88
ENDBRANCH  57  81
BRANCH  69  92
ATOM     92  C   UNL A   1      43.844  35.804  31.175  1.00  0.00     0.023 A 
ATOM     93  C   UNL A   1      43.818  36.969  30.390  1.00  0.00     0.031 A 
ATOM     94  C   UNL A   1      43.938  35.949  32.571  1.00  0.00     0.131 A 
ATOM     95  C   UNL A   1      43.922  38.227  31.004  1.00  0.00     0.055 A 
ATOM     96  C   UNL A   1      43.985  37.203  33.181  1.00  0.00     0.041 A 
ATOM     97  F   UNL A   1      43.968  34.869  33.370  1.00  0.00    -0.206 F 
ATOM     98  C   UNL A   1      43.986  38.351  32.395  1.00  0.00     0.022 A 
BRANCH  95  99
ATOM     99  S   UNL A   1      44.037  39.705  29.960  1.00  0.00     0.124 S 
ATOM    100  O   UNL A   1      44.118  39.127  28.622  1.00  0.00    -0.237 OA
ATOM    101  O   UNL A   1      42.799  40.409  30.276  1.00  0.00    -0.237 OA
ATOM    102  O   UNL A   1      45.258  40.361  30.426  1.00  0.00    -0.744 OA
ENDBRANCH  95  99
ENDBRANCH  69  92
ENDBRANCH  43  44
ENDBRANCH  36  38
ENDBRANCH  35  36
ENDBRANCH  34  35
ENDBRANCH  33  34
ENDBRANCH  32  33
ENDBRANCH   1  32
TORSDOF 23
ENDMDL
