MODEL 1
REMARK VINA RESULT:     -12.5      0.000      0.000
REMARK SMILES Cc1c(NC(=O)c2ccc(Br)cc2N)cccc1C(=O)OCCOCCOCCOC(=O)c1ccc(-c2c3nc(c(-c4cc(S(=O)(=O)[O-])ccc4F)c4ccc([nH]4)c(-c4cc(S(=O)(=O)[O-])ccc4F)c4nc(c(-c5cc(S(=O)(=O)[O-])ccc5F)c5ccc2[nH]5)C=C4)C=C3)cc1
REMARK SMILES IDX 25 1 24 2 23 3 22 4 21 5 19 6 20 7 18 8 1 9 2 10 3 11 15 12
REMARK SMILES IDX 17 13 16 14 4 15 5 16 6 18 7 19 8 20 13 21 9 22 12 23 10 24
REMARK SMILES IDX 11 25 14 26 26 29 27 30 28 31 29 32 30 33 31 34 32 35 33 36
REMARK SMILES IDX 34 37 95 38 35 39 94 40 36 41 37 42 38 43 88 44 39 45 93 46
REMARK SMILES IDX 87 47 89 48 40 49 92 50 86 51 85 52 41 54 73 55 53 56 72 57
REMARK SMILES IDX 54 58 57 59 71 60 90 61 55 62 56 63 70 65 91 66 58 67 42 68
REMARK SMILES IDX 43 69 51 70 44 71 50 72 52 73 49 74 45 75 46 76 47 77 48 78
REMARK SMILES IDX 74 79 75 80 83 81 76 82 82 83 84 84 81 85 77 86 78 87 79 88
REMARK SMILES IDX 80 89 59 90 60 91 68 92 61 93 67 94 69 95 66 96 62 97 63 98
REMARK SMILES IDX 64 99 65 100
REMARK H PARENT 4 17 14 27 14 28 89 53 57 64
REMARK Flexibility Score: inf
ROOT
ATOM      1  C   UNL A   1      34.134  33.051  28.694  1.00  0.00     0.188 C 
ENDROOT
BRANCH   1   2
ATOM      2  O   UNL A   1      34.884  32.311  27.693  1.00  0.00    -0.376 OA
BRANCH   2   3
ATOM      3  C   UNL A   1      35.835  31.250  27.957  1.00  0.00     0.202 C 
BRANCH   3   4
ATOM      4  C   UNL A   1      35.575  29.658  27.475  1.00  0.00     0.261 C 
BRANCH   4   5
ATOM      5  O   UNL A   1      34.163  28.795  27.414  1.00  0.00    -0.460 OA
BRANCH   5   6
ATOM      6  C   UNL A   1      32.890  29.064  26.857  1.00  0.00     0.338 C 
ATOM      7  O   UNL A   1      32.145  30.002  27.128  1.00  0.00    -0.246 OA
BRANCH   6   8
ATOM      8  C   UNL A   1      32.037  28.283  25.949  1.00  0.00     0.065 A 
ATOM      9  C   UNL A   1      33.547  28.833  24.028  1.00  0.00     0.047 C 
ATOM     10  C   UNL A   1      32.509  27.974  24.681  1.00  0.00    -0.013 A 
ATOM     11  C   UNL A   1      32.024  26.792  24.078  1.00  0.00     0.045 A 
ATOM     12  C   UNL A   1      31.232  25.856  24.769  1.00  0.00     0.026 A 
ATOM     13  C   UNL A   1      31.140  27.359  26.600  1.00  0.00     0.016 A 
ATOM     14  C   UNL A   1      30.780  26.139  26.040  1.00  0.00     0.003 A 
BRANCH  11  15
ATOM     15  N   UNL A   1      32.269  26.611  22.715  1.00  0.00    -0.322 N 
ATOM     16  C   UNL A   1      33.030  25.622  22.131  1.00  0.00     0.257 C 
ATOM     17  H   UNL A   1      31.852  27.261  22.105  1.00  0.00     0.170 HD
ATOM     18  O   UNL A   1      33.188  25.630  20.909  1.00  0.00    -0.269 OA
BRANCH  16  19
ATOM     19  C   UNL A   1      33.654  24.526  22.932  1.00  0.00     0.063 A 
ATOM     20  C   UNL A   1      34.584  24.965  23.890  1.00  0.00     0.017 A 
ATOM     21  C   UNL A   1      33.365  23.146  22.809  1.00  0.00     0.045 A 
ATOM     22  C   UNL A   1      35.225  24.055  24.728  1.00  0.00     0.016 A 
ATOM     23  C   UNL A   1      34.019  22.248  23.668  1.00  0.00     0.042 A 
ATOM     24  C   UNL A   1      34.935  22.700  24.615  1.00  0.00     0.020 A 
ATOM     25  Br  UNL A   1      35.821  21.456  25.729  1.00  0.00    -0.051 Br
BRANCH  21  26
ATOM     26  N   UNL A   1      32.587  22.588  21.789  1.00  0.00    -0.398 N 
ATOM     27  H   UNL A   1      32.225  23.163  21.075  1.00  0.00     0.156 HD
ATOM     28  H   UNL A   1      32.401  21.621  21.785  1.00  0.00     0.156 HD
ENDBRANCH  21  26
ENDBRANCH  16  19
ENDBRANCH  11  15
ENDBRANCH   6   8
ENDBRANCH   5   6
ENDBRANCH   4   5
ENDBRANCH   3   4
ENDBRANCH   2   3
ENDBRANCH   1   2
BRANCH   1  29
ATOM     29  C   UNL A   1      33.578  34.471  28.491  1.00  0.00     0.188 C 
BRANCH  29  30
ATOM     30  O   UNL A   1      32.643  34.826  29.501  1.00  0.00    -0.376 OA
BRANCH  30  31
ATOM     31  C   UNL A   1      32.878  36.066  30.151  1.00  0.00     0.202 C 
BRANCH  31  32
ATOM     32  C   UNL A   1      32.426  36.126  31.630  1.00  0.00     0.261 C 
BRANCH  32  33
ATOM     33  O   UNL A   1      33.024  35.097  32.465  1.00  0.00    -0.460 OA
BRANCH  33  34
ATOM     34  C   UNL A   1      34.227  35.386  33.079  1.00  0.00     0.338 C 
ATOM     35  O   UNL A   1      34.379  36.361  33.804  1.00  0.00    -0.246 OA
BRANCH  34  36
ATOM     36  C   UNL A   1      35.201  34.253  32.957  1.00  0.00     0.060 A 
ATOM     37  C   UNL A   1      35.913  33.569  33.953  1.00  0.00     0.016 A 
ATOM     38  C   UNL A   1      35.509  33.891  31.696  1.00  0.00     0.016 A 
ATOM     39  C   UNL A   1      37.018  32.649  33.640  1.00  0.00     0.010 A 
ATOM     40  C   UNL A   1      36.699  33.200  31.499  1.00  0.00     0.010 A 
ATOM     41  C   UNL A   1      37.506  32.457  32.347  1.00  0.00    -0.014 A 
BRANCH  41  42
ATOM     42  C   UNL A   1      38.824  31.696  31.792  1.00  0.00     0.031 A 
ATOM     43  C   UNL A   1      39.105  30.214  31.055  1.00  0.00     0.074 A 
ATOM     44  C   UNL A   1      39.960  32.381  32.051  1.00  0.00     0.049 A 
ATOM     45  N   UNL A   1      40.237  29.538  31.163  1.00  0.00    -0.248 NA
ATOM     46  C   UNL A   1      38.205  29.324  30.232  1.00  0.00     0.031 C 
ATOM     47  C   UNL A   1      41.329  32.071  31.666  1.00  0.00     0.029 A 
ATOM     48  N   UNL A   1      40.095  33.375  33.020  1.00  0.00    -0.354 N 
ATOM     49  C   UNL A   1      40.155  28.385  30.372  1.00  0.00     0.074 A 
ATOM     50  C   UNL A   1      38.802  28.156  30.119  1.00  0.00     0.031 C 
ATOM     51  C   UNL A   1      42.145  32.556  32.617  1.00  0.00     0.029 A 
ATOM     52  C   UNL A   1      41.308  33.115  33.664  1.00  0.00     0.049 A 
ATOM     53  H   UNL A   1      39.467  34.107  33.212  1.00  0.00     0.167 HD
ATOM     54  C   UNL A   1      41.205  27.718  29.827  1.00  0.00     0.034 A 
ATOM     55  C   UNL A   1      41.311  32.790  34.987  1.00  0.00     0.034 A 
ATOM     56  C   UNL A   1      42.363  27.989  30.636  1.00  0.00     0.049 A 
ATOM     57  C   UNL A   1      41.944  31.438  35.246  1.00  0.00     0.074 A 
ATOM     58  C   UNL A   1      43.421  28.865  30.537  1.00  0.00     0.029 A 
ATOM     59  N   UNL A   1      42.271  27.617  31.972  1.00  0.00    -0.354 N 
ATOM     60  N   UNL A   1      42.245  30.557  34.325  1.00  0.00    -0.248 NA
ATOM     61  C   UNL A   1      42.304  30.985  36.582  1.00  0.00     0.031 C 
ATOM     62  C   UNL A   1      43.836  29.161  31.873  1.00  0.00     0.029 A 
ATOM     63  C   UNL A   1      43.086  28.399  32.760  1.00  0.00     0.049 A 
ATOM     64  H   UNL A   1      41.699  26.890  32.310  1.00  0.00     0.167 HD
ATOM     65  C   UNL A   1      42.744  29.420  34.913  1.00  0.00     0.074 A 
ATOM     66  C   UNL A   1      42.822  29.774  36.321  1.00  0.00     0.031 C 
ATOM     67  C   UNL A   1      43.014  28.268  34.215  1.00  0.00     0.034 A 
BRANCH  54  68
ATOM     68  C   UNL A   1      41.120  26.866  28.544  1.00  0.00     0.023 A 
ATOM     69  C   UNL A   1      41.336  25.474  28.608  1.00  0.00     0.031 A 
ATOM     70  C   UNL A   1      40.972  27.362  27.211  1.00  0.00     0.131 A 
ATOM     71  C   UNL A   1      41.355  24.674  27.433  1.00  0.00     0.055 A 
ATOM     72  C   UNL A   1      40.882  26.556  26.067  1.00  0.00     0.041 A 
ATOM     73  F   UNL A   1      41.006  28.665  26.904  1.00  0.00    -0.206 F 
ATOM     74  C   UNL A   1      41.082  25.200  26.171  1.00  0.00     0.022 A 
BRANCH  71  75
ATOM     75  S   UNL A   1      41.881  22.937  27.528  1.00  0.00     0.124 S 
ATOM     76  O   UNL A   1      42.772  22.953  28.684  1.00  0.00    -0.237 OA
ATOM     77  O   UNL A   1      40.613  22.237  27.693  1.00  0.00    -0.237 OA
ATOM     78  O   UNL A   1      42.549  22.708  26.246  1.00  0.00    -0.744 OA
ENDBRANCH  71  75
ENDBRANCH  54  68
BRANCH  55  79
ATOM     79  C   UNL A   1      40.249  33.491  35.796  1.00  0.00     0.023 A 
ATOM     80  C   UNL A   1      39.208  32.685  36.331  1.00  0.00     0.031 A 
ATOM     81  C   UNL A   1      40.351  34.795  36.301  1.00  0.00     0.131 A 
ATOM     82  C   UNL A   1      38.449  33.101  37.434  1.00  0.00     0.055 A 
ATOM     83  C   UNL A   1      39.516  35.250  37.344  1.00  0.00     0.041 A 
ATOM     84  F   UNL A   1      41.339  35.610  35.906  1.00  0.00    -0.206 F 
ATOM     85  C   UNL A   1      38.586  34.391  37.938  1.00  0.00     0.022 A 
BRANCH  82  86
ATOM     86  S   UNL A   1      37.504  31.865  38.385  1.00  0.00     0.124 S 
ATOM     87  O   UNL A   1      37.562  30.698  37.512  1.00  0.00    -0.237 OA
ATOM     88  O   UNL A   1      38.247  31.756  39.640  1.00  0.00    -0.237 OA
ATOM     89  O   UNL A   1      36.189  32.488  38.527  1.00  0.00    -0.744 OA
ENDBRANCH  82  86
ENDBRANCH  55  79
BRANCH  67  90
ATOM     90  C   UNL A   1      43.234  26.902  34.861  1.00  0.00     0.023 A 
ATOM     91  C   UNL A   1      44.493  26.450  35.281  1.00  0.00     0.031 A 
ATOM     92  C   UNL A   1      42.162  26.018  35.144  1.00  0.00     0.131 A 
ATOM     93  C   UNL A   1      44.680  25.161  35.808  1.00  0.00     0.055 A 
ATOM     94  C   UNL A   1      42.332  24.787  35.791  1.00  0.00     0.041 A 
ATOM     95  F   UNL A   1      40.895  26.306  34.811  1.00  0.00    -0.206 F 
ATOM     96  C   UNL A   1      43.604  24.334  36.099  1.00  0.00     0.022 A 
BRANCH  93  97
ATOM     97  S   UNL A   1      46.380  24.549  35.944  1.00  0.00     0.124 S 
ATOM     98  O   UNL A   1      46.487  23.695  34.763  1.00  0.00    -0.237 OA
ATOM     99  O   UNL A   1      47.161  25.780  35.907  1.00  0.00    -0.237 OA
ATOM    100  O   UNL A   1      46.388  23.839  37.221  1.00  0.00    -0.744 OA
ENDBRANCH  93  97
ENDBRANCH  67  90
ENDBRANCH  41  42
ENDBRANCH  34  36
ENDBRANCH  33  34
ENDBRANCH  32  33
ENDBRANCH  31  32
ENDBRANCH  30  31
ENDBRANCH  29  30
ENDBRANCH   1  29
TORSDOF 23
ENDMDL
MODEL 2
REMARK VINA RESULT:     -11.6      1.723      2.097
REMARK SMILES Cc1c(NC(=O)c2ccc(Br)cc2N)cccc1C(=O)OCCOCCOCCOC(=O)c1ccc(-c2c3nc(c(-c4cc(S(=O)(=O)[O-])ccc4F)c4ccc([nH]4)c(-c4cc(S(=O)(=O)[O-])ccc4F)c4nc(c(-c5cc(S(=O)(=O)[O-])ccc5F)c5ccc2[nH]5)C=C4)C=C3)cc1
REMARK SMILES IDX 25 1 24 2 23 3 22 4 21 5 19 6 20 7 18 8 1 9 2 10 3 11 15 12
REMARK SMILES IDX 17 13 16 14 4 15 5 16 6 18 7 19 8 20 13 21 9 22 12 23 10 24
REMARK SMILES IDX 11 25 14 26 26 29 27 30 28 31 29 32 30 33 31 34 32 35 33 36
REMARK SMILES IDX 34 37 95 38 35 39 94 40 36 41 37 42 38 43 88 44 39 45 93 46
REMARK SMILES IDX 87 47 89 48 40 49 92 50 86 51 85 52 41 54 73 55 53 56 72 57
REMARK SMILES IDX 54 58 57 59 71 60 90 61 55 62 56 63 70 65 91 66 58 67 42 68
REMARK SMILES IDX 43 69 51 70 44 71 50 72 52 73 49 74 45 75 46 76 47 77 48 78
REMARK SMILES IDX 74 79 75 80 83 81 76 82 82 83 84 84 81 85 77 86 78 87 79 88
REMARK SMILES IDX 80 89 59 90 60 91 68 92 61 93 67 94 69 95 66 96 62 97 63 98
REMARK SMILES IDX 64 99 65 100
REMARK H PARENT 4 17 14 27 14 28 89 53 57 64
REMARK Flexibility Score: inf
ROOT
ATOM      1  C   UNL A   1      34.753  33.540  29.553  1.00  0.00     0.188 C 
ENDROOT
BRANCH   1   2
ATOM      2  O   UNL A   1      34.482  32.137  29.289  1.00  0.00    -0.376 OA
BRANCH   2   3
ATOM      3  C   UNL A   1      34.283  31.541  27.984  1.00  0.00     0.202 C 
BRANCH   3   4
ATOM      4  C   UNL A   1      34.872  30.017  27.582  1.00  0.00     0.261 C 
BRANCH   4   5
ATOM      5  O   UNL A   1      34.102  28.753  26.839  1.00  0.00    -0.460 OA
BRANCH   5   6
ATOM      6  C   UNL A   1      32.776  28.260  26.898  1.00  0.00     0.338 C 
ATOM      7  O   UNL A   1      32.100  28.069  27.906  1.00  0.00    -0.246 OA
BRANCH   6   8
ATOM      8  C   UNL A   1      31.891  27.713  25.859  1.00  0.00     0.065 A 
ATOM      9  C   UNL A   1      33.653  28.108  24.124  1.00  0.00     0.047 C 
ATOM     10  C   UNL A   1      32.422  27.411  24.613  1.00  0.00    -0.013 A 
ATOM     11  C   UNL A   1      31.796  26.382  23.874  1.00  0.00     0.045 A 
ATOM     12  C   UNL A   1      30.789  25.562  24.414  1.00  0.00     0.026 A 
ATOM     13  C   UNL A   1      30.786  26.928  26.353  1.00  0.00     0.016 A 
ATOM     14  C   UNL A   1      30.273  25.835  25.663  1.00  0.00     0.003 A 
BRANCH  11  15
ATOM     15  N   UNL A   1      32.136  26.253  22.526  1.00  0.00    -0.322 N 
ATOM     16  C   UNL A   1      32.954  25.298  21.961  1.00  0.00     0.257 C 
ATOM     17  H   UNL A   1      31.750  26.918  21.911  1.00  0.00     0.170 HD
ATOM     18  O   UNL A   1      33.194  25.351  20.754  1.00  0.00    -0.269 OA
BRANCH  16  19
ATOM     19  C   UNL A   1      33.542  24.185  22.766  1.00  0.00     0.063 A 
ATOM     20  C   UNL A   1      34.784  24.485  23.352  1.00  0.00     0.017 A 
ATOM     21  C   UNL A   1      32.946  22.918  22.982  1.00  0.00     0.045 A 
ATOM     22  C   UNL A   1      35.437  23.550  24.151  1.00  0.00     0.016 A 
ATOM     23  C   UNL A   1      33.621  21.994  23.797  1.00  0.00     0.042 A 
ATOM     24  C   UNL A   1      34.849  22.310  24.374  1.00  0.00     0.020 A 
ATOM     25  Br  UNL A   1      35.743  21.026  25.434  1.00  0.00    -0.051 Br
BRANCH  21  26
ATOM     26  N   UNL A   1      31.803  22.458  22.321  1.00  0.00    -0.398 N 
ATOM     27  H   UNL A   1      30.987  23.008  22.308  1.00  0.00     0.156 HD
ATOM     28  H   UNL A   1      31.816  21.583  21.869  1.00  0.00     0.156 HD
ENDBRANCH  21  26
ENDBRANCH  16  19
ENDBRANCH  11  15
ENDBRANCH   6   8
ENDBRANCH   5   6
ENDBRANCH   4   5
ENDBRANCH   3   4
ENDBRANCH   2   3
ENDBRANCH   1   2
BRANCH   1  29
ATOM     29  C   UNL A   1      33.672  34.626  29.683  1.00  0.00     0.188 C 
BRANCH  29  30
ATOM     30  O   UNL A   1      33.328  34.876  31.040  1.00  0.00    -0.376 OA
BRANCH  30  31
ATOM     31  C   UNL A   1      33.428  36.228  31.462  1.00  0.00     0.202 C 
BRANCH  31  32
ATOM     32  C   UNL A   1      34.216  36.447  32.777  1.00  0.00     0.261 C 
BRANCH  32  33
ATOM     33  O   UNL A   1      35.484  35.738  32.821  1.00  0.00    -0.460 OA
BRANCH  33  34
ATOM     34  C   UNL A   1      35.560  34.607  33.610  1.00  0.00     0.338 C 
ATOM     35  O   UNL A   1      34.867  34.449  34.606  1.00  0.00    -0.246 OA
BRANCH  34  36
ATOM     36  C   UNL A   1      36.379  33.531  32.962  1.00  0.00     0.060 A 
ATOM     37  C   UNL A   1      36.380  32.146  33.185  1.00  0.00     0.016 A 
ATOM     38  C   UNL A   1      37.319  33.963  32.098  1.00  0.00     0.016 A 
ATOM     39  C   UNL A   1      37.425  31.262  32.642  1.00  0.00     0.010 A 
ATOM     40  C   UNL A   1      38.381  33.108  31.824  1.00  0.00     0.010 A 
ATOM     41  C   UNL A   1      38.540  31.737  31.950  1.00  0.00    -0.014 A 
BRANCH  41  42
ATOM     42  C   UNL A   1      39.904  31.006  31.470  1.00  0.00     0.031 A 
ATOM     43  C   UNL A   1      40.249  29.600  30.620  1.00  0.00     0.074 A 
ATOM     44  C   UNL A   1      41.010  31.635  31.922  1.00  0.00     0.049 A 
ATOM     45  N   UNL A   1      41.353  28.890  30.783  1.00  0.00    -0.248 NA
ATOM     46  C   UNL A   1      39.437  28.818  29.615  1.00  0.00     0.031 C 
ATOM     47  C   UNL A   1      42.411  31.334  31.661  1.00  0.00     0.029 A 
ATOM     48  N   UNL A   1      41.047  32.522  32.998  1.00  0.00    -0.354 N 
ATOM     49  C   UNL A   1      41.348  27.825  29.873  1.00  0.00     0.074 A 
ATOM     50  C   UNL A   1      40.029  27.654  29.449  1.00  0.00     0.031 C 
ATOM     51  C   UNL A   1      43.120  31.702  32.742  1.00  0.00     0.029 A 
ATOM     52  C   UNL A   1      42.177  32.171  33.742  1.00  0.00     0.049 A 
ATOM     53  H   UNL A   1      40.410  33.246  33.193  1.00  0.00     0.167 HD
ATOM     54  C   UNL A   1      42.444  27.193  29.382  1.00  0.00     0.034 A 
ATOM     55  C   UNL A   1      42.028  31.714  35.016  1.00  0.00     0.034 A 
ATOM     56  C   UNL A   1      43.507  27.354  30.337  1.00  0.00     0.049 A 
ATOM     57  C   UNL A   1      42.612  30.328  35.203  1.00  0.00     0.074 A 
ATOM     58  C   UNL A   1      44.579  28.211  30.447  1.00  0.00     0.029 A 
ATOM     59  N   UNL A   1      43.261  26.851  31.610  1.00  0.00    -0.354 N 
ATOM     60  N   UNL A   1      43.005  29.538  34.236  1.00  0.00    -0.248 NA
ATOM     61  C   UNL A   1      42.814  29.734  36.517  1.00  0.00     0.031 C 
ATOM     62  C   UNL A   1      44.845  28.361  31.844  1.00  0.00     0.029 A 
ATOM     63  C   UNL A   1      43.991  27.531  32.560  1.00  0.00     0.049 A 
ATOM     64  H   UNL A   1      42.646  26.107  31.805  1.00  0.00     0.167 HD
ATOM     65  C   UNL A   1      43.421  28.337  34.755  1.00  0.00     0.074 A 
ATOM     66  C   UNL A   1      43.344  28.545  36.192  1.00  0.00     0.031 C 
ATOM     67  C   UNL A   1      43.754  27.255  33.977  1.00  0.00     0.034 A 
BRANCH  54  68
ATOM     68  C   UNL A   1      42.494  26.477  28.016  1.00  0.00     0.023 A 
ATOM     69  C   UNL A   1      42.335  25.077  27.949  1.00  0.00     0.031 A 
ATOM     70  C   UNL A   1      42.832  27.075  26.762  1.00  0.00     0.131 A 
ATOM     71  C   UNL A   1      42.467  24.376  26.720  1.00  0.00     0.055 A 
ATOM     72  C   UNL A   1      42.853  26.396  25.536  1.00  0.00     0.041 A 
ATOM     73  F   UNL A   1      43.268  28.337  26.645  1.00  0.00    -0.206 F 
ATOM     74  C   UNL A   1      42.676  25.033  25.508  1.00  0.00     0.022 A 
BRANCH  71  75
ATOM     75  S   UNL A   1      42.502  22.559  26.712  1.00  0.00     0.124 S 
ATOM     76  O   UNL A   1      41.210  22.234  26.117  1.00  0.00    -0.237 OA
ATOM     77  O   UNL A   1      43.682  22.274  25.905  1.00  0.00    -0.237 OA
ATOM     78  O   UNL A   1      42.625  22.211  28.128  1.00  0.00    -0.744 OA
ENDBRANCH  71  75
ENDBRANCH  54  68
BRANCH  55  79
ATOM     79  C   UNL A   1      40.889  32.354  35.771  1.00  0.00     0.023 A 
ATOM     80  C   UNL A   1      41.116  33.654  36.298  1.00  0.00     0.031 A 
ATOM     81  C   UNL A   1      39.560  31.911  35.750  1.00  0.00     0.131 A 
ATOM     82  C   UNL A   1      40.055  34.519  36.602  1.00  0.00     0.055 A 
ATOM     83  C   UNL A   1      38.497  32.748  36.154  1.00  0.00     0.041 A 
ATOM     84  F   UNL A   1      39.238  30.726  35.214  1.00  0.00    -0.206 F 
ATOM     85  C   UNL A   1      38.739  34.067  36.548  1.00  0.00     0.022 A 
BRANCH  82  86
ATOM     86  S   UNL A   1      40.381  36.304  36.779  1.00  0.00     0.124 S 
ATOM     87  O   UNL A   1      39.794  36.845  35.559  1.00  0.00    -0.237 OA
ATOM     88  O   UNL A   1      39.698  36.657  38.024  1.00  0.00    -0.237 OA
ATOM     89  O   UNL A   1      41.839  36.369  36.865  1.00  0.00    -0.744 OA
ENDBRANCH  82  86
ENDBRANCH  55  79
BRANCH  67  90
ATOM     90  C   UNL A   1      43.884  25.826  34.498  1.00  0.00     0.023 A 
ATOM     91  C   UNL A   1      45.120  25.184  34.665  1.00  0.00     0.031 A 
ATOM     92  C   UNL A   1      42.762  25.069  34.918  1.00  0.00     0.131 A 
ATOM     93  C   UNL A   1      45.209  23.845  35.080  1.00  0.00     0.055 A 
ATOM     94  C   UNL A   1      42.862  23.780  35.458  1.00  0.00     0.041 A 
ATOM     95  F   UNL A   1      41.510  25.543  34.830  1.00  0.00    -0.206 F 
ATOM     96  C   UNL A   1      44.091  23.144  35.512  1.00  0.00     0.022 A 
BRANCH  93  97
ATOM     97  S   UNL A   1      46.804  23.009  34.882  1.00  0.00     0.124 S 
ATOM     98  O   UNL A   1      47.255  22.891  36.266  1.00  0.00    -0.237 OA
ATOM     99  O   UNL A   1      46.425  21.760  34.232  1.00  0.00    -0.237 OA
ATOM    100  O   UNL A   1      47.578  23.936  34.058  1.00  0.00    -0.744 OA
ENDBRANCH  93  97
ENDBRANCH  67  90
ENDBRANCH  41  42
ENDBRANCH  34  36
ENDBRANCH  33  34
ENDBRANCH  32  33
ENDBRANCH  31  32
ENDBRANCH  30  31
ENDBRANCH  29  30
ENDBRANCH   1  29
TORSDOF 23
ENDMDL
MODEL 3
REMARK VINA RESULT:     -11.5      4.222     10.648
REMARK SMILES Cc1c(NC(=O)c2ccc(Br)cc2N)cccc1C(=O)OCCOCCOCCOC(=O)c1ccc(-c2c3nc(c(-c4cc(S(=O)(=O)[O-])ccc4F)c4ccc([nH]4)c(-c4cc(S(=O)(=O)[O-])ccc4F)c4nc(c(-c5cc(S(=O)(=O)[O-])ccc5F)c5ccc2[nH]5)C=C4)C=C3)cc1
REMARK SMILES IDX 25 1 24 2 23 3 22 4 21 5 19 6 20 7 18 8 1 9 2 10 3 11 15 12
REMARK SMILES IDX 17 13 16 14 4 15 5 16 6 18 7 19 8 20 13 21 9 22 12 23 10 24
REMARK SMILES IDX 11 25 14 26 26 29 27 30 28 31 29 32 30 33 31 34 32 35 33 36
REMARK SMILES IDX 34 37 95 38 35 39 94 40 36 41 37 42 38 43 88 44 39 45 93 46
REMARK SMILES IDX 87 47 89 48 40 49 92 50 86 51 85 52 41 54 73 55 53 56 72 57
REMARK SMILES IDX 54 58 57 59 71 60 90 61 55 62 56 63 70 65 91 66 58 67 42 68
REMARK SMILES IDX 43 69 51 70 44 71 50 72 52 73 49 74 45 75 46 76 47 77 48 78
REMARK SMILES IDX 74 79 75 80 83 81 76 82 82 83 84 84 81 85 77 86 78 87 79 88
REMARK SMILES IDX 80 89 59 90 60 91 68 92 61 93 67 94 69 95 66 96 62 97 63 98
REMARK SMILES IDX 64 99 65 100
REMARK H PARENT 4 17 14 27 14 28 89 53 57 64
REMARK Flexibility Score: inf
ROOT
ATOM      1  C   UNL A   1      37.797  20.503  25.001  1.00  0.00     0.188 C 
ENDROOT
BRANCH   1   2
ATOM      2  O   UNL A   1      36.364  20.600  24.777  1.00  0.00    -0.376 OA
BRANCH   2   3
ATOM      3  C   UNL A   1      35.409  19.518  24.899  1.00  0.00     0.202 C 
BRANCH   3   4
ATOM      4  C   UNL A   1      33.778  19.778  25.218  1.00  0.00     0.261 C 
BRANCH   4   5
ATOM      5  O   UNL A   1      32.845  21.111  24.909  1.00  0.00    -0.460 OA
BRANCH   5   6
ATOM      6  C   UNL A   1      33.139  22.399  24.397  1.00  0.00     0.338 C 
ATOM      7  O   UNL A   1      33.967  23.196  24.828  1.00  0.00    -0.246 OA
BRANCH   6   8
ATOM      8  C   UNL A   1      32.491  23.205  23.353  1.00  0.00     0.065 A 
ATOM      9  C   UNL A   1      30.638  23.795  24.931  1.00  0.00     0.047 C 
ATOM     10  C   UNL A   1      31.457  24.060  23.707  1.00  0.00    -0.013 A 
ATOM     11  C   UNL A   1      31.266  25.211  22.909  1.00  0.00     0.045 A 
ATOM     12  C   UNL A   1      32.169  25.596  21.900  1.00  0.00     0.026 A 
ATOM     13  C   UNL A   1      33.343  23.564  22.245  1.00  0.00     0.016 A 
ATOM     14  C   UNL A   1      33.216  24.767  21.559  1.00  0.00     0.003 A 
BRANCH  11  15
ATOM     15  N   UNL A   1      30.080  25.928  23.078  1.00  0.00    -0.322 N 
ATOM     16  C   UNL A   1      29.893  27.059  23.842  1.00  0.00     0.257 C 
ATOM     17  H   UNL A   1      29.290  25.587  22.599  1.00  0.00     0.170 HD
ATOM     18  O   UNL A   1      28.765  27.547  23.925  1.00  0.00    -0.269 OA
BRANCH  16  19
ATOM     19  C   UNL A   1      31.022  27.726  24.557  1.00  0.00     0.063 A 
ATOM     20  C   UNL A   1      31.203  27.300  25.884  1.00  0.00     0.017 A 
ATOM     21  C   UNL A   1      31.893  28.696  24.003  1.00  0.00     0.045 A 
ATOM     22  C   UNL A   1      32.235  27.817  26.663  1.00  0.00     0.016 A 
ATOM     23  C   UNL A   1      32.929  29.199  24.806  1.00  0.00     0.042 A 
ATOM     24  C   UNL A   1      33.097  28.762  26.118  1.00  0.00     0.020 A 
ATOM     25  Br  UNL A   1      34.482  29.489  27.178  1.00  0.00    -0.051 Br
BRANCH  21  26
ATOM     26  N   UNL A   1      31.706  29.309  22.759  1.00  0.00    -0.398 N 
ATOM     27  H   UNL A   1      32.249  30.092  22.510  1.00  0.00     0.156 HD
ATOM     28  H   UNL A   1      31.033  28.956  22.133  1.00  0.00     0.156 HD
ENDBRANCH  21  26
ENDBRANCH  16  19
ENDBRANCH  11  15
ENDBRANCH   6   8
ENDBRANCH   5   6
ENDBRANCH   4   5
ENDBRANCH   3   4
ENDBRANCH   2   3
ENDBRANCH   1   2
BRANCH   1  29
ATOM     29  C   UNL A   1      38.646  21.587  25.689  1.00  0.00     0.188 C 
BRANCH  29  30
ATOM     30  O   UNL A   1      39.460  21.048  26.722  1.00  0.00    -0.376 OA
BRANCH  30  31
ATOM     31  C   UNL A   1      40.788  20.709  26.347  1.00  0.00     0.202 C 
BRANCH  31  32
ATOM     32  C   UNL A   1      41.677  21.906  25.933  1.00  0.00     0.261 C 
BRANCH  32  33
ATOM     33  O   UNL A   1      41.187  23.189  26.409  1.00  0.00    -0.460 OA
BRANCH  33  34
ATOM     34  C   UNL A   1      41.956  24.307  26.152  1.00  0.00     0.338 C 
ATOM     35  O   UNL A   1      42.933  24.279  25.415  1.00  0.00    -0.246 OA
BRANCH  34  36
ATOM     36  C   UNL A   1      41.308  25.558  26.663  1.00  0.00     0.060 A 
ATOM     37  C   UNL A   1      41.100  26.788  26.022  1.00  0.00     0.016 A 
ATOM     38  C   UNL A   1      40.948  25.533  27.961  1.00  0.00     0.016 A 
ATOM     39  C   UNL A   1      40.674  27.994  26.750  1.00  0.00     0.010 A 
ATOM     40  C   UNL A   1      40.779  26.753  28.605  1.00  0.00     0.010 A 
ATOM     41  C   UNL A   1      40.537  28.036  28.138  1.00  0.00    -0.014 A 
BRANCH  41  42
ATOM     42  C   UNL A   1      40.312  29.270  29.163  1.00  0.00     0.031 A 
ATOM     43  C   UNL A   1      39.195  30.519  29.276  1.00  0.00     0.074 A 
ATOM     44  C   UNL A   1      41.290  29.351  30.092  1.00  0.00     0.049 A 
ATOM     45  N   UNL A   1      39.458  31.700  29.811  1.00  0.00    -0.248 NA
ATOM     46  C   UNL A   1      37.775  30.634  28.773  1.00  0.00     0.031 C 
ATOM     47  C   UNL A   1      41.417  30.268  31.216  1.00  0.00     0.029 A 
ATOM     48  N   UNL A   1      42.552  28.769  29.982  1.00  0.00    -0.354 N 
ATOM     49  C   UNL A   1      38.290  32.473  29.802  1.00  0.00     0.074 A 
ATOM     50  C   UNL A   1      37.425  31.899  28.869  1.00  0.00     0.031 C 
ATOM     51  C   UNL A   1      42.727  30.466  31.440  1.00  0.00     0.029 A 
ATOM     52  C   UNL A   1      43.458  29.742  30.416  1.00  0.00     0.049 A 
ATOM     53  H   UNL A   1      42.762  27.862  29.666  1.00  0.00     0.167 HD
ATOM     54  C   UNL A   1      38.001  33.488  30.656  1.00  0.00     0.034 A 
ATOM     55  C   UNL A   1      44.373  30.245  29.541  1.00  0.00     0.034 A 
ATOM     56  C   UNL A   1      39.247  34.020  31.140  1.00  0.00     0.049 A 
ATOM     57  C   UNL A   1      44.255  31.747  29.384  1.00  0.00     0.074 A 
ATOM     58  C   UNL A   1      39.990  33.839  32.284  1.00  0.00     0.029 A 
ATOM     59  N   UNL A   1      40.113  34.514  30.171  1.00  0.00    -0.354 N 
ATOM     60  N   UNL A   1      43.261  32.476  29.828  1.00  0.00    -0.248 NA
ATOM     61  C   UNL A   1      45.274  32.549  28.720  1.00  0.00     0.031 C 
ATOM     62  C   UNL A   1      41.358  34.048  31.924  1.00  0.00     0.029 A 
ATOM     63  C   UNL A   1      41.422  34.437  30.592  1.00  0.00     0.049 A 
ATOM     64  H   UNL A   1      39.828  34.872  29.299  1.00  0.00     0.167 HD
ATOM     65  C   UNL A   1      43.443  33.787  29.458  1.00  0.00     0.074 A 
ATOM     66  C   UNL A   1      44.754  33.781  28.828  1.00  0.00     0.031 C 
ATOM     67  C   UNL A   1      42.497  34.762  29.654  1.00  0.00     0.034 A 
BRANCH  54  68
ATOM     68  C   UNL A   1      36.571  33.924  31.033  1.00  0.00     0.023 A 
ATOM     69  C   UNL A   1      35.654  34.281  30.023  1.00  0.00     0.031 A 
ATOM     70  C   UNL A   1      36.079  34.149  32.358  1.00  0.00     0.131 A 
ATOM     71  C   UNL A   1      34.359  34.775  30.340  1.00  0.00     0.055 A 
ATOM     72  C   UNL A   1      34.766  34.531  32.665  1.00  0.00     0.041 A 
ATOM     73  F   UNL A   1      36.860  34.116  33.446  1.00  0.00    -0.206 F 
ATOM     74  C   UNL A   1      33.895  34.854  31.652  1.00  0.00     0.022 A 
BRANCH  71  75
ATOM     75  S   UNL A   1      33.303  35.455  29.028  1.00  0.00     0.124 S 
ATOM     76  O   UNL A   1      34.253  36.248  28.255  1.00  0.00    -0.237 OA
ATOM     77  O   UNL A   1      32.786  34.251  28.389  1.00  0.00    -0.237 OA
ATOM     78  O   UNL A   1      32.307  36.240  29.759  1.00  0.00    -0.744 OA
ENDBRANCH  71  75
ENDBRANCH  54  68
BRANCH  55  79
ATOM     79  C   UNL A   1      44.883  29.241  28.537  1.00  0.00     0.023 A 
ATOM     80  C   UNL A   1      45.797  28.262  29.012  1.00  0.00     0.031 A 
ATOM     81  C   UNL A   1      44.325  29.014  27.271  1.00  0.00     0.131 A 
ATOM     82  C   UNL A   1      45.984  27.045  28.340  1.00  0.00     0.055 A 
ATOM     83  C   UNL A   1      44.595  27.833  26.547  1.00  0.00     0.041 A 
ATOM     84  F   UNL A   1      43.406  29.848  26.766  1.00  0.00    -0.206 F 
ATOM     85  C   UNL A   1      45.398  26.829  27.096  1.00  0.00     0.022 A 
BRANCH  82  86
ATOM     86  S   UNL A   1      46.748  25.646  29.224  1.00  0.00     0.124 S 
ATOM     87  O   UNL A   1      47.795  26.306  29.995  1.00  0.00    -0.237 OA
ATOM     88  O   UNL A   1      45.643  25.086  30.003  1.00  0.00    -0.237 OA
ATOM     89  O   UNL A   1      47.208  24.778  28.141  1.00  0.00    -0.744 OA
ENDBRANCH  82  86
ENDBRANCH  55  79
BRANCH  67  90
ATOM     90  C   UNL A   1      42.508  36.124  28.965  1.00  0.00     0.023 A 
ATOM     91  C   UNL A   1      43.153  37.247  29.504  1.00  0.00     0.031 A 
ATOM     92  C   UNL A   1      41.923  36.332  27.691  1.00  0.00     0.131 A 
ATOM     93  C   UNL A   1      43.089  38.506  28.884  1.00  0.00     0.055 A 
ATOM     94  C   UNL A   1      41.974  37.557  27.010  1.00  0.00     0.041 A 
ATOM     95  F   UNL A   1      41.274  35.357  27.038  1.00  0.00    -0.206 F 
ATOM     96  C   UNL A   1      42.533  38.666  27.622  1.00  0.00     0.022 A 
BRANCH  93  97
ATOM     97  S   UNL A   1      43.611  39.946  29.853  1.00  0.00     0.124 S 
ATOM     98  O   UNL A   1      44.186  39.316  31.040  1.00  0.00    -0.237 OA
ATOM     99  O   UNL A   1      44.562  40.597  28.960  1.00  0.00    -0.237 OA
ATOM    100  O   UNL A   1      42.366  40.674  30.085  1.00  0.00    -0.744 OA
ENDBRANCH  93  97
ENDBRANCH  67  90
ENDBRANCH  41  42
ENDBRANCH  34  36
ENDBRANCH  33  34
ENDBRANCH  32  33
ENDBRANCH  31  32
ENDBRANCH  30  31
ENDBRANCH  29  30
ENDBRANCH   1  29
TORSDOF 23
ENDMDL
