MODEL 1
REMARK VINA RESULT:     -10.2      0.000      0.000
REMARK SMILES COc1ccccc1-c1nnc(S[C@@H](C)C(=O)OCCOCCOCCOC(=O)c2ccc(-c3c4nc(c(-c5cc(S(=O)(=O)[O-])ccc5F)c5ccc([nH]5)c(-c5cc(S(=O)(=O)[O-])ccc5F)c5nc(c(-c6cc(S(=O)(=O)[O-])ccc6F)c6ccc3[nH]6)C=C5)C=C4)cc2)n1-c1ccccc1
REMARK SMILES IDX 22 1 21 2 20 3 19 4 18 5 16 6 17 7 14 8 15 9 13 10 12 11
REMARK SMILES IDX 9 12 10 13 93 14 11 15 8 16 3 17 4 18 5 19 7 20 6 21 2 22
REMARK SMILES IDX 1 23 94 24 95 25 99 26 96 27 98 28 97 29 23 30 24 31 25 32
REMARK SMILES IDX 26 33 27 34 28 35 29 36 30 37 31 38 92 39 32 40 91 41 33 42
REMARK SMILES IDX 34 43 35 44 85 45 36 46 90 47 84 48 86 49 37 50 89 51 83 52
REMARK SMILES IDX 82 53 38 55 70 56 50 57 69 58 51 59 54 60 68 61 87 62 52 63
REMARK SMILES IDX 53 64 67 66 88 67 55 68 39 69 40 70 48 71 41 72 47 73 49 74
REMARK SMILES IDX 46 75 42 76 43 77 44 78 45 79 71 80 72 81 80 82 73 83 79 84
REMARK SMILES IDX 81 85 78 86 74 87 75 88 76 89 77 90 56 91 57 92 65 93 58 94
REMARK SMILES IDX 64 95 66 96 63 97 59 98 60 99 61 100 62 101
REMARK H PARENT 86 54 54 65
REMARK Flexibility Score: inf
ROOT
ATOM      1  C   UNL A   1      39.624  21.173  26.208  1.00  0.00     0.188 C 
ENDROOT
BRANCH   1   2
ATOM      2  O   UNL A   1      38.542  21.362  25.306  1.00  0.00    -0.376 OA
BRANCH   2   3
ATOM      3  C   UNL A   1      37.756  22.537  25.459  1.00  0.00     0.202 C 
BRANCH   3   4
ATOM      4  C   UNL A   1      36.647  22.837  24.431  1.00  0.00     0.261 C 
BRANCH   4   5
ATOM      5  O   UNL A   1      35.287  22.816  24.940  1.00  0.00    -0.462 OA
BRANCH   5   6
ATOM      6  C   UNL A   1      34.390  21.965  24.384  1.00  0.00     0.319 C 
ATOM      7  O   UNL A   1      34.370  20.762  24.640  1.00  0.00    -0.251 OA
BRANCH   6   8
ATOM      8  C   UNL A   1      33.286  22.623  23.553  1.00  0.00     0.161 C 
ATOM      9  C   UNL A   1      32.100  21.703  23.234  1.00  0.00     0.032 C 
BRANCH   8  10
ATOM     10  S   UNL A   1      33.562  23.631  22.095  1.00  0.00    -0.071 SA
BRANCH  10  11
ATOM     11  C   UNL A   1      33.231  25.312  22.226  1.00  0.00     0.196 A 
ATOM     12  C   UNL A   1      32.731  27.366  22.802  1.00  0.00     0.173 A 
ATOM     13  N   UNL A   1      33.452  27.423  21.704  1.00  0.00    -0.129 NA
ATOM     14  N   UNL A   1      32.497  26.035  23.145  1.00  0.00    -0.270 N 
ATOM     15  N   UNL A   1      33.789  26.144  21.367  1.00  0.00    -0.122 NA
BRANCH  12  16
ATOM     16  C   UNL A   1      32.313  28.509  23.599  1.00  0.00     0.062 A 
ATOM     17  C   UNL A   1      32.942  28.863  24.808  1.00  0.00     0.129 A 
ATOM     18  C   UNL A   1      32.287  29.734  25.681  1.00  0.00     0.047 A 
ATOM     19  C   UNL A   1      31.064  30.310  25.331  1.00  0.00     0.004 A 
ATOM     20  C   UNL A   1      31.123  29.152  23.221  1.00  0.00     0.016 A 
ATOM     21  C   UNL A   1      30.495  30.042  24.089  1.00  0.00     0.001 A 
BRANCH  17  22
ATOM     22  O   UNL A   1      34.076  28.286  25.325  1.00  0.00    -0.496 OA
ATOM     23  C   UNL A   1      34.379  28.576  26.689  1.00  0.00     0.278 C 
ENDBRANCH  17  22
ENDBRANCH  12  16
BRANCH  14  24
ATOM     24  C   UNL A   1      31.694  25.609  24.229  1.00  0.00     0.050 A 
ATOM     25  C   UNL A   1      30.306  25.662  24.151  1.00  0.00     0.027 A 
ATOM     26  C   UNL A   1      32.316  25.164  25.402  1.00  0.00     0.027 A 
ATOM     27  C   UNL A   1      29.547  25.441  25.300  1.00  0.00     0.002 A 
ATOM     28  C   UNL A   1      31.553  24.946  26.548  1.00  0.00     0.002 A 
ATOM     29  C   UNL A   1      30.174  25.127  26.505  1.00  0.00     0.000 A 
ENDBRANCH  14  24
ENDBRANCH  10  11
ENDBRANCH   8  10
ENDBRANCH   6   8
ENDBRANCH   5   6
ENDBRANCH   4   5
ENDBRANCH   3   4
ENDBRANCH   2   3
ENDBRANCH   1   2
BRANCH   1  30
ATOM     30  C   UNL A   1      39.974  22.311  27.193  1.00  0.00     0.188 C 
BRANCH  30  31
ATOM     31  O   UNL A   1      41.047  22.014  28.067  1.00  0.00    -0.376 OA
BRANCH  31  32
ATOM     32  C   UNL A   1      42.219  21.354  27.621  1.00  0.00     0.202 C 
BRANCH  32  33
ATOM     33  C   UNL A   1      43.170  22.067  26.659  1.00  0.00     0.261 C 
BRANCH  33  34
ATOM     34  O   UNL A   1      43.450  23.405  27.009  1.00  0.00    -0.460 OA
BRANCH  34  35
ATOM     35  C   UNL A   1      42.806  24.329  26.275  1.00  0.00     0.338 C 
ATOM     36  O   UNL A   1      42.744  24.397  25.054  1.00  0.00    -0.246 OA
BRANCH  35  37
ATOM     37  C   UNL A   1      42.101  25.206  27.206  1.00  0.00     0.060 A 
ATOM     38  C   UNL A   1      41.059  25.992  26.712  1.00  0.00     0.016 A 
ATOM     39  C   UNL A   1      42.666  25.401  28.472  1.00  0.00     0.016 A 
ATOM     40  C   UNL A   1      40.788  27.170  27.366  1.00  0.00     0.010 A 
ATOM     41  C   UNL A   1      42.425  26.588  29.098  1.00  0.00     0.010 A 
ATOM     42  C   UNL A   1      41.581  27.498  28.467  1.00  0.00    -0.014 A 
BRANCH  42  43
ATOM     43  C   UNL A   1      41.520  28.833  29.006  1.00  0.00     0.031 A 
ATOM     44  C   UNL A   1      42.593  29.684  28.468  1.00  0.00     0.074 A 
ATOM     45  C   UNL A   1      40.490  29.216  29.785  1.00  0.00     0.049 A 
ATOM     46  N   UNL A   1      43.662  30.060  29.084  1.00  0.00    -0.248 NA
ATOM     47  C   UNL A   1      42.630  29.918  27.013  1.00  0.00     0.031 C 
ATOM     48  C   UNL A   1      39.290  28.450  30.138  1.00  0.00     0.029 A 
ATOM     49  N   UNL A   1      40.242  30.426  30.349  1.00  0.00    -0.354 N 
ATOM     50  C   UNL A   1      44.330  30.855  28.166  1.00  0.00     0.074 A 
ATOM     51  C   UNL A   1      43.839  30.462  26.877  1.00  0.00     0.031 C 
ATOM     52  C   UNL A   1      38.354  29.290  30.640  1.00  0.00     0.029 A 
ATOM     53  C   UNL A   1      38.920  30.626  30.742  1.00  0.00     0.049 A 
ATOM     54  H   UNL A   1      40.941  31.108  30.470  1.00  0.00     0.167 HD
ATOM     55  C   UNL A   1      44.920  32.012  28.570  1.00  0.00     0.034 A 
ATOM     56  C   UNL A   1      38.333  31.822  31.038  1.00  0.00     0.034 A 
ATOM     57  C   UNL A   1      45.112  32.010  30.009  1.00  0.00     0.049 A 
ATOM     58  C   UNL A   1      39.440  32.761  31.370  1.00  0.00     0.074 A 
ATOM     59  C   UNL A   1      45.732  31.147  30.895  1.00  0.00     0.029 A 
ATOM     60  N   UNL A   1      44.267  32.783  30.777  1.00  0.00    -0.354 N 
ATOM     61  N   UNL A   1      40.206  32.616  32.418  1.00  0.00    -0.248 NA
ATOM     62  C   UNL A   1      40.033  33.528  30.282  1.00  0.00     0.031 C 
ATOM     63  C   UNL A   1      44.879  31.111  32.037  1.00  0.00     0.029 A 
ATOM     64  C   UNL A   1      43.844  32.030  31.845  1.00  0.00     0.049 A 
ATOM     65  H   UNL A   1      44.011  33.716  30.592  1.00  0.00     0.167 HD
ATOM     66  C   UNL A   1      41.494  32.850  31.959  1.00  0.00     0.074 A 
ATOM     67  C   UNL A   1      41.317  33.498  30.659  1.00  0.00     0.031 C 
ATOM     68  C   UNL A   1      42.571  32.218  32.521  1.00  0.00     0.034 A 
BRANCH  55  69
ATOM     69  C   UNL A   1      44.916  33.287  27.752  1.00  0.00     0.023 A 
ATOM     70  C   UNL A   1      44.090  34.322  28.221  1.00  0.00     0.031 A 
ATOM     71  C   UNL A   1      45.416  33.455  26.438  1.00  0.00     0.131 A 
ATOM     72  C   UNL A   1      43.694  35.369  27.374  1.00  0.00     0.055 A 
ATOM     73  C   UNL A   1      45.074  34.536  25.622  1.00  0.00     0.041 A 
ATOM     74  F   UNL A   1      46.194  32.560  25.821  1.00  0.00    -0.206 F 
ATOM     75  C   UNL A   1      44.177  35.482  26.074  1.00  0.00     0.022 A 
BRANCH  72  76
ATOM     76  S   UNL A   1      42.387  36.474  27.952  1.00  0.00     0.124 S 
ATOM     77  O   UNL A   1      42.598  37.640  27.101  1.00  0.00    -0.237 OA
ATOM     78  O   UNL A   1      41.189  35.684  27.679  1.00  0.00    -0.237 OA
ATOM     79  O   UNL A   1      42.704  36.660  29.365  1.00  0.00    -0.744 OA
ENDBRANCH  72  76
ENDBRANCH  55  69
BRANCH  56  80
ATOM     80  C   UNL A   1      36.951  32.275  30.680  1.00  0.00     0.023 A 
ATOM     81  C   UNL A   1      36.118  32.996  31.571  1.00  0.00     0.031 A 
ATOM     82  C   UNL A   1      36.516  32.215  29.335  1.00  0.00     0.131 A 
ATOM     83  C   UNL A   1      34.930  33.614  31.104  1.00  0.00     0.055 A 
ATOM     84  C   UNL A   1      35.344  32.827  28.882  1.00  0.00     0.041 A 
ATOM     85  F   UNL A   1      37.261  31.635  28.383  1.00  0.00    -0.206 F 
ATOM     86  C   UNL A   1      34.551  33.541  29.762  1.00  0.00     0.022 A 
BRANCH  83  87
ATOM     87  S   UNL A   1      33.888  34.622  32.217  1.00  0.00     0.124 S 
ATOM     88  O   UNL A   1      34.818  35.653  32.662  1.00  0.00    -0.237 OA
ATOM     89  O   UNL A   1      32.809  35.055  31.338  1.00  0.00    -0.237 OA
ATOM     90  O   UNL A   1      33.482  33.675  33.256  1.00  0.00    -0.744 OA
ENDBRANCH  83  87
ENDBRANCH  56  80
BRANCH  68  91
ATOM     91  C   UNL A   1      42.377  31.508  33.852  1.00  0.00     0.023 A 
ATOM     92  C   UNL A   1      42.104  30.129  34.017  1.00  0.00     0.031 A 
ATOM     93  C   UNL A   1      42.576  32.271  35.017  1.00  0.00     0.131 A 
ATOM     94  C   UNL A   1      42.015  29.575  35.312  1.00  0.00     0.055 A 
ATOM     95  C   UNL A   1      42.513  31.714  36.294  1.00  0.00     0.041 A 
ATOM     96  F   UNL A   1      42.862  33.581  34.933  1.00  0.00    -0.206 F 
ATOM     97  C   UNL A   1      42.222  30.366  36.447  1.00  0.00     0.022 A 
BRANCH  94  98
ATOM     98  S   UNL A   1      41.580  27.821  35.556  1.00  0.00     0.124 S 
ATOM     99  O   UNL A   1      40.842  27.820  36.812  1.00  0.00    -0.237 OA
ATOM    100  O   UNL A   1      40.804  27.521  34.356  1.00  0.00    -0.237 OA
ATOM    101  O   UNL A   1      42.885  27.156  35.617  1.00  0.00    -0.744 OA
ENDBRANCH  94  98
ENDBRANCH  68  91
ENDBRANCH  42  43
ENDBRANCH  35  37
ENDBRANCH  34  35
ENDBRANCH  33  34
ENDBRANCH  32  33
ENDBRANCH  31  32
ENDBRANCH  30  31
ENDBRANCH   1  30
TORSDOF 25
ENDMDL
MODEL 2
REMARK VINA RESULT:      -9.6      2.546      6.708
REMARK SMILES COc1ccccc1-c1nnc(S[C@@H](C)C(=O)OCCOCCOCCOC(=O)c2ccc(-c3c4nc(c(-c5cc(S(=O)(=O)[O-])ccc5F)c5ccc([nH]5)c(-c5cc(S(=O)(=O)[O-])ccc5F)c5nc(c(-c6cc(S(=O)(=O)[O-])ccc6F)c6ccc3[nH]6)C=C5)C=C4)cc2)n1-c1ccccc1
REMARK SMILES IDX 22 1 21 2 20 3 19 4 18 5 16 6 17 7 14 8 15 9 13 10 12 11
REMARK SMILES IDX 9 12 10 13 93 14 11 15 8 16 3 17 4 18 5 19 7 20 6 21 2 22
REMARK SMILES IDX 1 23 94 24 95 25 99 26 96 27 98 28 97 29 23 30 24 31 25 32
REMARK SMILES IDX 26 33 27 34 28 35 29 36 30 37 31 38 92 39 32 40 91 41 33 42
REMARK SMILES IDX 34 43 35 44 85 45 36 46 90 47 84 48 86 49 37 50 89 51 83 52
REMARK SMILES IDX 82 53 38 55 70 56 50 57 69 58 51 59 54 60 68 61 87 62 52 63
REMARK SMILES IDX 53 64 67 66 88 67 55 68 39 69 40 70 48 71 41 72 47 73 49 74
REMARK SMILES IDX 46 75 42 76 43 77 44 78 45 79 71 80 72 81 80 82 73 83 79 84
REMARK SMILES IDX 81 85 78 86 74 87 75 88 76 89 77 90 56 91 57 92 65 93 58 94
REMARK SMILES IDX 64 95 66 96 63 97 59 98 60 99 61 100 62 101
REMARK H PARENT 86 54 54 65
REMARK Flexibility Score: inf
ROOT
ATOM      1  C   UNL A   1      42.310  22.753  29.071  1.00  0.00     0.188 C 
ENDROOT
BRANCH   1   2
ATOM      2  O   UNL A   1      42.211  21.854  27.975  1.00  0.00    -0.376 OA
BRANCH   2   3
ATOM      3  C   UNL A   1      40.907  21.508  27.523  1.00  0.00     0.202 C 
BRANCH   3   4
ATOM      4  C   UNL A   1      39.963  22.624  27.035  1.00  0.00     0.261 C 
BRANCH   4   5
ATOM      5  O   UNL A   1      38.710  22.182  26.448  1.00  0.00    -0.462 OA
BRANCH   5   6
ATOM      6  C   UNL A   1      37.835  23.110  25.990  1.00  0.00     0.319 C 
ATOM      7  O   UNL A   1      38.104  24.310  25.945  1.00  0.00    -0.251 OA
BRANCH   6   8
ATOM      8  C   UNL A   1      36.553  22.556  25.364  1.00  0.00     0.161 C 
ATOM      9  C   UNL A   1      36.199  21.129  25.803  1.00  0.00     0.032 C 
BRANCH   8  10
ATOM     10  S   UNL A   1      36.122  22.682  23.627  1.00  0.00    -0.071 SA
BRANCH  10  11
ATOM     11  C   UNL A   1      34.868  23.777  23.205  1.00  0.00     0.196 A 
ATOM     12  C   UNL A   1      33.159  25.143  23.076  1.00  0.00     0.173 A 
ATOM     13  N   UNL A   1      33.957  25.405  22.064  1.00  0.00    -0.129 NA
ATOM     14  N   UNL A   1      33.656  24.061  23.802  1.00  0.00    -0.270 N 
ATOM     15  N   UNL A   1      35.035  24.575  22.166  1.00  0.00    -0.122 NA
BRANCH  12  16
ATOM     16  C   UNL A   1      31.983  25.915  23.447  1.00  0.00     0.062 A 
ATOM     17  C   UNL A   1      32.065  27.151  24.115  1.00  0.00     0.129 A 
ATOM     18  C   UNL A   1      30.925  27.659  24.741  1.00  0.00     0.047 A 
ATOM     19  C   UNL A   1      29.701  26.995  24.641  1.00  0.00     0.004 A 
ATOM     20  C   UNL A   1      30.733  25.294  23.286  1.00  0.00     0.016 A 
ATOM     21  C   UNL A   1      29.598  25.828  23.890  1.00  0.00     0.001 A 
BRANCH  17  22
ATOM     22  O   UNL A   1      33.220  27.844  24.388  1.00  0.00    -0.496 OA
ATOM     23  C   UNL A   1      33.594  27.953  25.760  1.00  0.00     0.278 C 
ENDBRANCH  17  22
ENDBRANCH  12  16
BRANCH  14  24
ATOM     24  C   UNL A   1      33.008  23.466  24.910  1.00  0.00     0.050 A 
ATOM     25  C   UNL A   1      32.009  22.516  24.726  1.00  0.00     0.027 A 
ATOM     26  C   UNL A   1      33.363  23.873  26.203  1.00  0.00     0.027 A 
ATOM     27  C   UNL A   1      31.244  22.106  25.818  1.00  0.00     0.002 A 
ATOM     28  C   UNL A   1      32.595  23.461  27.291  1.00  0.00     0.002 A 
ATOM     29  C   UNL A   1      31.510  22.612  27.090  1.00  0.00     0.000 A 
ENDBRANCH  14  24
ENDBRANCH  10  11
ENDBRANCH   8  10
ENDBRANCH   6   8
ENDBRANCH   5   6
ENDBRANCH   4   5
ENDBRANCH   3   4
ENDBRANCH   2   3
ENDBRANCH   1   2
BRANCH   1  30
ATOM     30  C   UNL A   1      43.694  23.344  29.421  1.00  0.00     0.188 C 
BRANCH  30  31
ATOM     31  O   UNL A   1      43.850  24.707  29.070  1.00  0.00    -0.376 OA
BRANCH  31  32
ATOM     32  C   UNL A   1      44.410  25.103  27.831  1.00  0.00     0.202 C 
BRANCH  32  33
ATOM     33  C   UNL A   1      43.589  24.961  26.549  1.00  0.00     0.261 C 
BRANCH  33  34
ATOM     34  O   UNL A   1      42.211  25.217  26.713  1.00  0.00    -0.460 OA
BRANCH  34  35
ATOM     35  C   UNL A   1      41.710  26.165  25.902  1.00  0.00     0.338 C 
ATOM     36  O   UNL A   1      41.854  26.257  24.689  1.00  0.00    -0.246 OA
BRANCH  35  37
ATOM     37  C   UNL A   1      40.872  27.036  26.722  1.00  0.00     0.060 A 
ATOM     38  C   UNL A   1      40.805  28.391  26.390  1.00  0.00     0.016 A 
ATOM     39  C   UNL A   1      40.390  26.526  27.933  1.00  0.00     0.016 A 
ATOM     40  C   UNL A   1      40.531  29.278  27.402  1.00  0.00     0.010 A 
ATOM     41  C   UNL A   1      40.158  27.408  28.945  1.00  0.00     0.010 A 
ATOM     42  C   UNL A   1      40.352  28.762  28.686  1.00  0.00    -0.014 A 
BRANCH  42  43
ATOM     43  C   UNL A   1      40.341  29.663  29.811  1.00  0.00     0.031 A 
ATOM     44  C   UNL A   1      39.084  30.424  29.884  1.00  0.00     0.074 A 
ATOM     45  C   UNL A   1      41.334  29.642  30.722  1.00  0.00     0.049 A 
ATOM     46  N   UNL A   1      38.914  31.665  29.574  1.00  0.00    -0.248 NA
ATOM     47  C   UNL A   1      37.826  29.674  30.052  1.00  0.00     0.031 C 
ATOM     48  C   UNL A   1      42.477  28.725  30.792  1.00  0.00     0.029 A 
ATOM     49  N   UNL A   1      41.479  30.378  31.853  1.00  0.00    -0.354 N 
ATOM     50  C   UNL A   1      37.575  31.907  29.834  1.00  0.00     0.074 A 
ATOM     51  C   UNL A   1      36.930  30.627  29.795  1.00  0.00     0.031 C 
ATOM     52  C   UNL A   1      43.042  28.807  32.019  1.00  0.00     0.029 A 
ATOM     53  C   UNL A   1      42.375  29.850  32.782  1.00  0.00     0.049 A 
ATOM     54  H   UNL A   1      40.990  31.219  32.005  1.00  0.00     0.167 HD
ATOM     55  C   UNL A   1      37.198  33.067  30.437  1.00  0.00     0.034 A 
ATOM     56  C   UNL A   1      42.479  30.197  34.097  1.00  0.00     0.034 A 
ATOM     57  C   UNL A   1      38.248  34.062  30.328  1.00  0.00     0.049 A 
ATOM     58  C   UNL A   1      41.867  31.549  34.224  1.00  0.00     0.074 A 
ATOM     59  C   UNL A   1      38.951  34.605  29.266  1.00  0.00     0.029 A 
ATOM     60  N   UNL A   1      39.005  34.334  31.448  1.00  0.00    -0.354 N 
ATOM     61  N   UNL A   1      42.373  32.614  33.664  1.00  0.00    -0.248 NA
ATOM     62  C   UNL A   1      40.438  31.626  34.504  1.00  0.00     0.031 C 
ATOM     63  C   UNL A   1      40.293  34.727  29.733  1.00  0.00     0.029 A 
ATOM     64  C   UNL A   1      40.328  34.361  31.080  1.00  0.00     0.049 A 
ATOM     65  H   UNL A   1      38.656  34.484  32.357  1.00  0.00     0.167 HD
ATOM     66  C   UNL A   1      41.290  33.281  33.109  1.00  0.00     0.074 A 
ATOM     67  C   UNL A   1      40.115  32.675  33.738  1.00  0.00     0.031 C 
ATOM     68  C   UNL A   1      41.428  34.030  31.972  1.00  0.00     0.034 A 
BRANCH  55  69
ATOM     69  C   UNL A   1      36.101  33.153  31.479  1.00  0.00     0.023 A 
ATOM     70  C   UNL A   1      35.072  34.073  31.221  1.00  0.00     0.031 A 
ATOM     71  C   UNL A   1      36.137  32.633  32.796  1.00  0.00     0.131 A 
ATOM     72  C   UNL A   1      34.237  34.530  32.253  1.00  0.00     0.055 A 
ATOM     73  C   UNL A   1      35.259  33.040  33.802  1.00  0.00     0.041 A 
ATOM     74  F   UNL A   1      37.062  31.769  33.226  1.00  0.00    -0.206 F 
ATOM     75  C   UNL A   1      34.326  34.023  33.545  1.00  0.00     0.022 A 
BRANCH  72  76
ATOM     76  S   UNL A   1      33.159  35.938  31.906  1.00  0.00     0.124 S 
ATOM     77  O   UNL A   1      31.840  35.332  32.043  1.00  0.00    -0.237 OA
ATOM     78  O   UNL A   1      33.551  36.877  32.953  1.00  0.00    -0.237 OA
ATOM     79  O   UNL A   1      33.537  36.324  30.549  1.00  0.00    -0.744 OA
ENDBRANCH  72  76
ENDBRANCH  55  69
BRANCH  56  80
ATOM     80  C   UNL A   1      42.717  29.290  35.265  1.00  0.00     0.023 A 
ATOM     81  C   UNL A   1      42.008  28.080  35.461  1.00  0.00     0.031 A 
ATOM     82  C   UNL A   1      43.848  29.487  36.092  1.00  0.00     0.131 A 
ATOM     83  C   UNL A   1      42.440  27.141  36.434  1.00  0.00     0.055 A 
ATOM     84  C   UNL A   1      44.268  28.559  37.048  1.00  0.00     0.041 A 
ATOM     85  F   UNL A   1      44.648  30.553  35.942  1.00  0.00    -0.206 F 
ATOM     86  C   UNL A   1      43.574  27.374  37.215  1.00  0.00     0.022 A 
BRANCH  83  87
ATOM     87  S   UNL A   1      41.591  25.536  36.642  1.00  0.00     0.124 S 
ATOM     88  O   UNL A   1      40.654  25.534  35.525  1.00  0.00    -0.237 OA
ATOM     89  O   UNL A   1      42.692  24.583  36.569  1.00  0.00    -0.237 OA
ATOM     90  O   UNL A   1      40.969  25.647  37.962  1.00  0.00    -0.744 OA
ENDBRANCH  83  87
ENDBRANCH  56  80
BRANCH  68  91
ATOM     91  C   UNL A   1      42.831  34.385  31.507  1.00  0.00     0.023 A 
ATOM     92  C   UNL A   1      43.632  33.607  30.635  1.00  0.00     0.031 A 
ATOM     93  C   UNL A   1      43.339  35.634  31.906  1.00  0.00     0.131 A 
ATOM     94  C   UNL A   1      44.895  34.081  30.222  1.00  0.00     0.055 A 
ATOM     95  C   UNL A   1      44.576  36.111  31.474  1.00  0.00     0.041 A 
ATOM     96  F   UNL A   1      42.623  36.435  32.713  1.00  0.00    -0.206 F 
ATOM     97  C   UNL A   1      45.364  35.331  30.638  1.00  0.00     0.022 A 
BRANCH  94  98
ATOM     98  S   UNL A   1      45.982  33.063  29.170  1.00  0.00     0.124 S 
ATOM     99  O   UNL A   1      46.603  32.138  30.109  1.00  0.00    -0.237 OA
ATOM    100  O   UNL A   1      45.039  32.476  28.221  1.00  0.00    -0.237 OA
ATOM    101  O   UNL A   1      46.900  34.045  28.584  1.00  0.00    -0.744 OA
ENDBRANCH  94  98
ENDBRANCH  68  91
ENDBRANCH  42  43
ENDBRANCH  35  37
ENDBRANCH  34  35
ENDBRANCH  33  34
ENDBRANCH  32  33
ENDBRANCH  31  32
ENDBRANCH  30  31
ENDBRANCH   1  30
TORSDOF 25
ENDMDL
MODEL 3
REMARK VINA RESULT:      -9.5      1.942      2.338
REMARK SMILES COc1ccccc1-c1nnc(S[C@@H](C)C(=O)OCCOCCOCCOC(=O)c2ccc(-c3c4nc(c(-c5cc(S(=O)(=O)[O-])ccc5F)c5ccc([nH]5)c(-c5cc(S(=O)(=O)[O-])ccc5F)c5nc(c(-c6cc(S(=O)(=O)[O-])ccc6F)c6ccc3[nH]6)C=C5)C=C4)cc2)n1-c1ccccc1
REMARK SMILES IDX 22 1 21 2 20 3 19 4 18 5 16 6 17 7 14 8 15 9 13 10 12 11
REMARK SMILES IDX 9 12 10 13 93 14 11 15 8 16 3 17 4 18 5 19 7 20 6 21 2 22
REMARK SMILES IDX 1 23 94 24 95 25 99 26 96 27 98 28 97 29 23 30 24 31 25 32
REMARK SMILES IDX 26 33 27 34 28 35 29 36 30 37 31 38 92 39 32 40 91 41 33 42
REMARK SMILES IDX 34 43 35 44 85 45 36 46 90 47 84 48 86 49 37 50 89 51 83 52
REMARK SMILES IDX 82 53 38 55 70 56 50 57 69 58 51 59 54 60 68 61 87 62 52 63
REMARK SMILES IDX 53 64 67 66 88 67 55 68 39 69 40 70 48 71 41 72 47 73 49 74
REMARK SMILES IDX 46 75 42 76 43 77 44 78 45 79 71 80 72 81 80 82 73 83 79 84
REMARK SMILES IDX 81 85 78 86 74 87 75 88 76 89 77 90 56 91 57 92 65 93 58 94
REMARK SMILES IDX 64 95 66 96 63 97 59 98 60 99 61 100 62 101
REMARK H PARENT 86 54 54 65
REMARK Flexibility Score: inf
ROOT
ATOM      1  C   UNL A   1      38.774  20.908  25.499  1.00  0.00     0.188 C 
ENDROOT
BRANCH   1   2
ATOM      2  O   UNL A   1      37.706  21.013  24.568  1.00  0.00    -0.376 OA
BRANCH   2   3
ATOM      3  C   UNL A   1      36.898  22.183  24.623  1.00  0.00     0.202 C 
BRANCH   3   4
ATOM      4  C   UNL A   1      35.544  22.194  23.888  1.00  0.00     0.261 C 
BRANCH   4   5
ATOM      5  O   UNL A   1      34.377  21.908  24.703  1.00  0.00    -0.462 OA
BRANCH   5   6
ATOM      6  C   UNL A   1      33.335  21.241  24.149  1.00  0.00     0.319 C 
ATOM      7  O   UNL A   1      32.874  20.209  24.633  1.00  0.00    -0.251 OA
BRANCH   6   8
ATOM      8  C   UNL A   1      32.647  21.949  22.979  1.00  0.00     0.161 C 
ATOM      9  C   UNL A   1      31.891  21.013  22.027  1.00  0.00     0.032 C 
BRANCH   8  10
ATOM     10  S   UNL A   1      33.402  23.218  21.961  1.00  0.00    -0.071 SA
BRANCH  10  11
ATOM     11  C   UNL A   1      33.137  24.854  22.415  1.00  0.00     0.196 A 
ATOM     12  C   UNL A   1      32.835  26.792  23.391  1.00  0.00     0.173 A 
ATOM     13  N   UNL A   1      33.226  27.023  22.157  1.00  0.00    -0.129 NA
ATOM     14  N   UNL A   1      32.692  25.420  23.593  1.00  0.00    -0.270 N 
ATOM     15  N   UNL A   1      33.444  25.814  21.562  1.00  0.00    -0.122 NA
BRANCH  12  16
ATOM     16  C   UNL A   1      32.664  27.800  24.426  1.00  0.00     0.062 A 
ATOM     17  C   UNL A   1      31.454  28.493  24.619  1.00  0.00     0.129 A 
ATOM     18  C   UNL A   1      31.460  29.666  25.376  1.00  0.00     0.047 A 
ATOM     19  C   UNL A   1      32.628  30.106  26.000  1.00  0.00     0.004 A 
ATOM     20  C   UNL A   1      33.816  28.206  25.121  1.00  0.00     0.016 A 
ATOM     21  C   UNL A   1      33.800  29.361  25.897  1.00  0.00     0.001 A 
BRANCH  17  22
ATOM     22  O   UNL A   1      30.269  28.240  23.972  1.00  0.00    -0.496 OA
ATOM     23  C   UNL A   1      30.331  28.085  22.555  1.00  0.00     0.278 C 
ENDBRANCH  17  22
ENDBRANCH  12  16
BRANCH  14  24
ATOM     24  C   UNL A   1      32.214  24.824  24.784  1.00  0.00     0.050 A 
ATOM     25  C   UNL A   1      33.074  24.570  25.848  1.00  0.00     0.027 A 
ATOM     26  C   UNL A   1      30.865  24.457  24.866  1.00  0.00     0.027 A 
ATOM     27  C   UNL A   1      32.628  23.794  26.917  1.00  0.00     0.002 A 
ATOM     28  C   UNL A   1      30.425  23.680  25.936  1.00  0.00     0.002 A 
ATOM     29  C   UNL A   1      31.319  23.314  26.938  1.00  0.00     0.000 A 
ENDBRANCH  14  24
ENDBRANCH  10  11
ENDBRANCH   8  10
ENDBRANCH   6   8
ENDBRANCH   5   6
ENDBRANCH   4   5
ENDBRANCH   3   4
ENDBRANCH   2   3
ENDBRANCH   1   2
BRANCH   1  30
ATOM     30  C   UNL A   1      39.092  22.122  26.401  1.00  0.00     0.188 C 
BRANCH  30  31
ATOM     31  O   UNL A   1      40.349  22.051  27.050  1.00  0.00    -0.376 OA
BRANCH  31  32
ATOM     32  C   UNL A   1      41.415  21.271  26.539  1.00  0.00     0.202 C 
BRANCH  32  33
ATOM     33  C   UNL A   1      42.738  21.944  26.174  1.00  0.00     0.261 C 
BRANCH  33  34
ATOM     34  O   UNL A   1      42.992  23.141  26.876  1.00  0.00    -0.460 OA
BRANCH  34  35
ATOM     35  C   UNL A   1      42.689  24.266  26.206  1.00  0.00     0.338 C 
ATOM     36  O   UNL A   1      42.863  24.491  25.015  1.00  0.00    -0.246 OA
BRANCH  35  37
ATOM     37  C   UNL A   1      42.022  25.162  27.146  1.00  0.00     0.060 A 
ATOM     38  C   UNL A   1      41.106  26.087  26.639  1.00  0.00     0.016 A 
ATOM     39  C   UNL A   1      42.515  25.222  28.454  1.00  0.00     0.016 A 
ATOM     40  C   UNL A   1      40.919  27.249  27.348  1.00  0.00     0.010 A 
ATOM     41  C   UNL A   1      42.362  26.391  29.138  1.00  0.00     0.010 A 
ATOM     42  C   UNL A   1      41.666  27.423  28.515  1.00  0.00    -0.014 A 
BRANCH  42  43
ATOM     43  C   UNL A   1      41.712  28.724  29.132  1.00  0.00     0.031 A 
ATOM     44  C   UNL A   1      42.763  29.568  28.541  1.00  0.00     0.074 A 
ATOM     45  C   UNL A   1      40.779  29.096  30.030  1.00  0.00     0.049 A 
ATOM     46  N   UNL A   1      43.900  29.868  29.069  1.00  0.00    -0.248 NA
ATOM     47  C   UNL A   1      42.668  29.889  27.105  1.00  0.00     0.031 C 
ATOM     48  C   UNL A   1      39.588  28.353  30.456  1.00  0.00     0.029 A 
ATOM     49  N   UNL A   1      40.636  30.277  30.684  1.00  0.00    -0.354 N 
ATOM     50  C   UNL A   1      44.509  30.693  28.136  1.00  0.00     0.074 A 
ATOM     51  C   UNL A   1      43.880  30.397  26.882  1.00  0.00     0.031 C 
ATOM     52  C   UNL A   1      38.740  29.193  31.094  1.00  0.00     0.029 A 
ATOM     53  C   UNL A   1      39.368  30.499  31.217  1.00  0.00     0.049 A 
ATOM     54  H   UNL A   1      41.372  30.926  30.774  1.00  0.00     0.167 HD
ATOM     55  C   UNL A   1      45.183  31.801  28.546  1.00  0.00     0.034 A 
ATOM     56  C   UNL A   1      38.862  31.695  31.637  1.00  0.00     0.034 A 
ATOM     57  C   UNL A   1      45.512  31.705  29.956  1.00  0.00     0.049 A 
ATOM     58  C   UNL A   1      40.034  32.573  31.911  1.00  0.00     0.074 A 
ATOM     59  C   UNL A   1      46.178  30.768  30.725  1.00  0.00     0.029 A 
ATOM     60  N   UNL A   1      44.777  32.460  30.846  1.00  0.00    -0.354 N 
ATOM     61  N   UNL A   1      40.890  32.337  32.868  1.00  0.00    -0.248 NA
ATOM     62  C   UNL A   1      40.550  33.382  30.815  1.00  0.00     0.031 C 
ATOM     63  C   UNL A   1      45.438  30.693  31.942  1.00  0.00     0.029 A 
ATOM     64  C   UNL A   1      44.429  31.658  31.907  1.00  0.00     0.049 A 
ATOM     65  H   UNL A   1      44.543  33.410  30.741  1.00  0.00     0.167 HD
ATOM     66  C   UNL A   1      42.137  32.553  32.299  1.00  0.00     0.074 A 
ATOM     67  C   UNL A   1      41.862  33.284  31.061  1.00  0.00     0.031 C 
ATOM     68  C   UNL A   1      43.235  31.850  32.714  1.00  0.00     0.034 A 
BRANCH  55  69
ATOM     69  C   UNL A   1      45.152  33.123  27.806  1.00  0.00     0.023 A 
ATOM     70  C   UNL A   1      46.376  33.572  27.285  1.00  0.00     0.031 A 
ATOM     71  C   UNL A   1      44.109  34.083  27.824  1.00  0.00     0.131 A 
ATOM     72  C   UNL A   1      46.564  34.921  26.943  1.00  0.00     0.055 A 
ATOM     73  C   UNL A   1      44.282  35.407  27.416  1.00  0.00     0.041 A 
ATOM     74  F   UNL A   1      42.887  33.839  28.309  1.00  0.00    -0.206 F 
ATOM     75  C   UNL A   1      45.526  35.844  27.008  1.00  0.00     0.022 A 
BRANCH  72  76
ATOM     76  S   UNL A   1      48.247  35.475  26.588  1.00  0.00     0.124 S 
ATOM     77  O   UNL A   1      48.009  36.466  25.544  1.00  0.00    -0.237 OA
ATOM     78  O   UNL A   1      48.668  35.993  27.887  1.00  0.00    -0.237 OA
ATOM     79  O   UNL A   1      48.919  34.253  26.156  1.00  0.00    -0.744 OA
ENDBRANCH  72  76
ENDBRANCH  55  69
BRANCH  56  80
ATOM     80  C   UNL A   1      37.471  32.217  31.443  1.00  0.00     0.023 A 
ATOM     81  C   UNL A   1      36.995  32.705  30.202  1.00  0.00     0.031 A 
ATOM     82  C   UNL A   1      36.493  32.007  32.443  1.00  0.00     0.131 A 
ATOM     83  C   UNL A   1      35.611  32.951  30.008  1.00  0.00     0.055 A 
ATOM     84  C   UNL A   1      35.131  32.250  32.246  1.00  0.00     0.041 A 
ATOM     85  F   UNL A   1      36.809  31.467  33.630  1.00  0.00    -0.206 F 
ATOM     86  C   UNL A   1      34.682  32.711  31.022  1.00  0.00     0.022 A 
BRANCH  83  87
ATOM     87  S   UNL A   1      34.965  33.497  28.388  1.00  0.00     0.124 S 
ATOM     88  O   UNL A   1      36.077  33.195  27.494  1.00  0.00    -0.237 OA
ATOM     89  O   UNL A   1      33.766  32.683  28.232  1.00  0.00    -0.237 OA
ATOM     90  O   UNL A   1      34.710  34.924  28.585  1.00  0.00    -0.744 OA
ENDBRANCH  83  87
ENDBRANCH  56  80
BRANCH  68  91
ATOM     91  C   UNL A   1      43.142  31.067  34.015  1.00  0.00     0.023 A 
ATOM     92  C   UNL A   1      42.586  29.773  34.159  1.00  0.00     0.031 A 
ATOM     93  C   UNL A   1      43.741  31.643  35.150  1.00  0.00     0.131 A 
ATOM     94  C   UNL A   1      42.622  29.123  35.412  1.00  0.00     0.055 A 
ATOM     95  C   UNL A   1      43.798  30.986  36.378  1.00  0.00     0.041 A 
ATOM     96  F   UNL A   1      44.310  32.858  35.079  1.00  0.00    -0.206 F 
ATOM     97  C   UNL A   1      43.230  29.727  36.517  1.00  0.00     0.022 A 
BRANCH  94  98
ATOM     98  S   UNL A   1      41.837  27.494  35.647  1.00  0.00     0.124 S 
ATOM     99  O   UNL A   1      41.044  27.665  36.858  1.00  0.00    -0.237 OA
ATOM    100  O   UNL A   1      41.085  27.326  34.406  1.00  0.00    -0.237 OA
ATOM    101  O   UNL A   1      42.980  26.588  35.791  1.00  0.00    -0.744 OA
ENDBRANCH  94  98
ENDBRANCH  68  91
ENDBRANCH  42  43
ENDBRANCH  35  37
ENDBRANCH  34  35
ENDBRANCH  33  34
ENDBRANCH  32  33
ENDBRANCH  31  32
ENDBRANCH  30  31
ENDBRANCH   1  30
TORSDOF 25
ENDMDL
