MODEL 1
REMARK VINA RESULT:      -7.8      0.000      0.000
REMARK SMILES CC[C@](C)(NC(=O)CCOc1ccc(Cl)c(Cl)c1)C(=O)OCCOCCOCCOC(=O)c1ccc(-c2c3nc(c(-c4cc(S(=O)(=O)[O-])ccc4F)c4ccc([nH]4)c(-c4cc(S(=O)(=O)[O-])ccc4F)c4nc(c(-c5cc(S(=O)(=O)[O-])ccc5F)c5ccc2[nH]5)C=C4)C=C3)cc1
REMARK SMILES IDX 25 1 24 2 23 3 22 4 21 5 19 6 20 7 3 8 4 9 2 10 1 11 5 12
REMARK SMILES IDX 6 13 7 15 8 16 9 17 10 18 11 19 12 20 18 21 13 22 16 23
REMARK SMILES IDX 14 24 17 25 15 26 26 27 27 28 28 29 29 30 30 31 31 32 32 33
REMARK SMILES IDX 33 34 34 35 95 36 35 37 94 38 36 39 37 40 38 41 88 42 39 43
REMARK SMILES IDX 93 44 87 45 89 46 40 47 92 48 86 49 85 50 41 52 73 53 53 54
REMARK SMILES IDX 72 55 54 56 57 57 71 58 90 59 55 60 56 61 70 63 91 64 58 65
REMARK SMILES IDX 42 66 43 67 51 68 44 69 50 70 52 71 49 72 45 73 46 74 47 75
REMARK SMILES IDX 48 76 74 77 75 78 83 79 76 80 82 81 84 82 81 83 77 84 78 85
REMARK SMILES IDX 79 86 80 87 59 88 60 89 68 90 61 91 67 92 69 93 66 94 62 95
REMARK SMILES IDX 63 96 64 97 65 98
REMARK H PARENT 5 14 89 51 57 62
REMARK Flexibility Score: inf
ROOT
ATOM      1  C   UNL A   1      38.456  29.201  29.242  1.00  0.00     0.188 C 
ENDROOT
BRANCH   1   2
ATOM      2  O   UNL A   1      37.708  30.289  28.693  1.00  0.00    -0.376 OA
BRANCH   2   3
ATOM      3  C   UNL A   1      36.348  30.280  29.154  1.00  0.00     0.202 C 
BRANCH   3   4
ATOM      4  C   UNL A   1      35.395  30.785  28.061  1.00  0.00     0.261 C 
BRANCH   4   5
ATOM      5  O   UNL A   1      34.546  29.735  27.535  1.00  0.00    -0.462 OA
BRANCH   5   6
ATOM      6  C   UNL A   1      33.283  30.091  27.177  1.00  0.00     0.331 C 
ATOM      7  O   UNL A   1      32.851  31.229  27.331  1.00  0.00    -0.249 OA
BRANCH   6   8
ATOM      8  C   UNL A   1      32.541  28.990  26.348  1.00  0.00     0.135 C 
ATOM      9  C   UNL A   1      32.023  27.988  27.398  1.00  0.00     0.047 C 
BRANCH   8  10
ATOM     10  C   UNL A   1      33.619  28.264  25.465  1.00  0.00     0.037 C 
ATOM     11  C   UNL A   1      33.791  26.771  25.774  1.00  0.00     0.007 C 
ENDBRANCH   8  10
BRANCH   8  12
ATOM     12  N   UNL A   1      31.494  29.390  25.338  1.00  0.00    -0.340 N 
ATOM     13  C   UNL A   1      30.857  28.978  24.229  1.00  0.00     0.224 C 
ATOM     14  H   UNL A   1      31.152  30.281  25.582  1.00  0.00     0.164 HD
ATOM     15  O   UNL A   1      30.077  29.801  23.729  1.00  0.00    -0.275 OA
BRANCH  13  16
ATOM     16  C   UNL A   1      30.918  27.602  23.651  1.00  0.00     0.141 C 
BRANCH  16  17
ATOM     17  C   UNL A   1      29.733  26.749  24.014  1.00  0.00     0.239 C 
BRANCH  17  18
ATOM     18  O   UNL A   1      29.869  25.364  23.672  1.00  0.00    -0.493 OA
BRANCH  18  19
ATOM     19  C   UNL A   1      30.739  24.704  24.491  1.00  0.00     0.120 A 
ATOM     20  C   UNL A   1      30.608  24.900  25.860  1.00  0.00     0.048 A 
ATOM     21  C   UNL A   1      31.764  23.906  23.985  1.00  0.00     0.068 A 
ATOM     22  C   UNL A   1      31.436  24.215  26.744  1.00  0.00     0.026 A 
ATOM     23  C   UNL A   1      32.611  23.229  24.872  1.00  0.00     0.063 A 
ATOM     24  C   UNL A   1      32.433  23.367  26.256  1.00  0.00     0.059 A 
ATOM     25  Cl  UNL A   1      33.816  22.190  24.200  1.00  0.00    -0.083 Cl
ATOM     26  Cl  UNL A   1      33.383  22.507  27.412  1.00  0.00    -0.083 Cl
ENDBRANCH  18  19
ENDBRANCH  17  18
ENDBRANCH  16  17
ENDBRANCH  13  16
ENDBRANCH   8  12
ENDBRANCH   6   8
ENDBRANCH   5   6
ENDBRANCH   4   5
ENDBRANCH   3   4
ENDBRANCH   2   3
ENDBRANCH   1   2
BRANCH   1  27
ATOM     27  C   UNL A   1      38.884  28.176  28.192  1.00  0.00     0.188 C 
BRANCH  27  28
ATOM     28  O   UNL A   1      39.859  27.254  28.658  1.00  0.00    -0.376 OA
BRANCH  28  29
ATOM     29  C   UNL A   1      39.469  25.883  28.681  1.00  0.00     0.202 C 
BRANCH  29  30
ATOM     30  C   UNL A   1      40.614  24.904  28.361  1.00  0.00     0.261 C 
BRANCH  30  31
ATOM     31  O   UNL A   1      40.707  24.605  26.963  1.00  0.00    -0.460 OA
BRANCH  31  32
ATOM     32  C   UNL A   1      41.283  25.591  26.224  1.00  0.00     0.338 C 
ATOM     33  O   UNL A   1      40.703  26.345  25.457  1.00  0.00    -0.246 OA
BRANCH  32  34
ATOM     34  C   UNL A   1      42.691  25.744  26.674  1.00  0.00     0.060 A 
ATOM     35  C   UNL A   1      43.539  24.634  26.579  1.00  0.00     0.016 A 
ATOM     36  C   UNL A   1      43.198  26.974  27.111  1.00  0.00     0.016 A 
ATOM     37  C   UNL A   1      44.875  24.735  26.976  1.00  0.00     0.010 A 
ATOM     38  C   UNL A   1      44.535  27.077  27.507  1.00  0.00     0.010 A 
ATOM     39  C   UNL A   1      45.368  25.945  27.485  1.00  0.00    -0.014 A 
BRANCH  39  40
ATOM     40  C   UNL A   1      46.632  25.942  28.266  1.00  0.00     0.031 A 
ATOM     41  C   UNL A   1      46.514  25.734  29.755  1.00  0.00     0.074 A 
ATOM     42  C   UNL A   1      47.842  26.067  27.692  1.00  0.00     0.049 A 
ATOM     43  N   UNL A   1      47.442  25.717  30.674  1.00  0.00    -0.248 NA
ATOM     44  C   UNL A   1      45.152  25.517  30.270  1.00  0.00     0.031 C 
ATOM     45  C   UNL A   1      48.090  26.217  26.261  1.00  0.00     0.029 A 
ATOM     46  N   UNL A   1      49.097  26.083  28.253  1.00  0.00    -0.354 N 
ATOM     47  C   UNL A   1      46.779  25.469  31.872  1.00  0.00     0.074 A 
ATOM     48  C   UNL A   1      45.367  25.402  31.570  1.00  0.00     0.031 C 
ATOM     49  C   UNL A   1      49.417  26.316  26.056  1.00  0.00     0.029 A 
ATOM     50  C   UNL A   1      50.111  26.274  27.342  1.00  0.00     0.049 A 
ATOM     51  H   UNL A   1      49.255  25.970  29.217  1.00  0.00     0.167 HD
ATOM     52  C   UNL A   1      47.297  25.295  33.111  1.00  0.00     0.034 A 
ATOM     53  C   UNL A   1      51.441  26.422  27.533  1.00  0.00     0.034 A 
ATOM     54  C   UNL A   1      48.703  25.401  33.409  1.00  0.00     0.049 A 
ATOM     55  C   UNL A   1      51.987  26.336  28.944  1.00  0.00     0.074 A 
ATOM     56  C   UNL A   1      49.336  25.293  34.634  1.00  0.00     0.029 A 
ATOM     57  N   UNL A   1      49.695  25.650  32.469  1.00  0.00    -0.354 N 
ATOM     58  N   UNL A   1      51.347  26.120  30.073  1.00  0.00    -0.248 NA
ATOM     59  C   UNL A   1      53.439  26.502  29.104  1.00  0.00     0.031 C 
ATOM     60  C   UNL A   1      50.700  25.546  34.445  1.00  0.00     0.029 A 
ATOM     61  C   UNL A   1      50.932  25.725  33.090  1.00  0.00     0.049 A 
ATOM     62  H   UNL A   1      49.542  25.758  31.503  1.00  0.00     0.167 HD
ATOM     63  C   UNL A   1      52.324  26.097  31.068  1.00  0.00     0.074 A 
ATOM     64  C   UNL A   1      53.595  26.290  30.402  1.00  0.00     0.031 C 
ATOM     65  C   UNL A   1      52.189  25.935  32.411  1.00  0.00     0.034 A 
BRANCH  52  66
ATOM     66  C   UNL A   1      46.321  25.030  34.230  1.00  0.00     0.023 A 
ATOM     67  C   UNL A   1      45.734  26.080  34.960  1.00  0.00     0.031 A 
ATOM     68  C   UNL A   1      46.014  23.712  34.610  1.00  0.00     0.131 A 
ATOM     69  C   UNL A   1      44.931  25.794  36.075  1.00  0.00     0.055 A 
ATOM     70  C   UNL A   1      45.147  23.434  35.667  1.00  0.00     0.041 A 
ATOM     71  F   UNL A   1      46.569  22.670  33.970  1.00  0.00    -0.206 F 
ATOM     72  C   UNL A   1      44.611  24.478  36.417  1.00  0.00     0.022 A 
BRANCH  69  73
ATOM     73  S   UNL A   1      44.430  27.160  37.159  1.00  0.00     0.124 S 
ATOM     74  O   UNL A   1      45.614  27.319  37.998  1.00  0.00    -0.237 OA
ATOM     75  O   UNL A   1      44.166  28.236  36.211  1.00  0.00    -0.237 OA
ATOM     76  O   UNL A   1      43.252  26.634  37.848  1.00  0.00    -0.744 OA
ENDBRANCH  69  73
ENDBRANCH  52  66
BRANCH  53  77
ATOM     77  C   UNL A   1      52.355  26.733  26.389  1.00  0.00     0.023 A 
ATOM     78  C   UNL A   1      52.565  28.049  25.944  1.00  0.00     0.031 A 
ATOM     79  C   UNL A   1      52.958  25.692  25.656  1.00  0.00     0.131 A 
ATOM     80  C   UNL A   1      53.303  28.285  24.769  1.00  0.00     0.055 A 
ATOM     81  C   UNL A   1      53.742  25.937  24.528  1.00  0.00     0.041 A 
ATOM     82  F   UNL A   1      52.785  24.413  26.025  1.00  0.00    -0.206 F 
ATOM     83  C   UNL A   1      53.904  27.240  24.069  1.00  0.00     0.022 A 
BRANCH  80  84
ATOM     84  S   UNL A   1      53.367  29.973  24.098  1.00  0.00     0.124 S 
ATOM     85  O   UNL A   1      54.436  29.860  23.113  1.00  0.00    -0.237 OA
ATOM     86  O   UNL A   1      52.018  30.139  23.568  1.00  0.00    -0.237 OA
ATOM     87  O   UNL A   1      53.680  30.792  25.269  1.00  0.00    -0.744 OA
ENDBRANCH  80  84
ENDBRANCH  53  77
BRANCH  65  88
ATOM     88  C   UNL A   1      53.458  25.922  33.233  1.00  0.00     0.023 A 
ATOM     89  C   UNL A   1      54.138  24.727  33.527  1.00  0.00     0.031 A 
ATOM     90  C   UNL A   1      53.979  27.120  33.756  1.00  0.00     0.131 A 
ATOM     91  C   UNL A   1      55.246  24.744  34.388  1.00  0.00     0.055 A 
ATOM     92  C   UNL A   1      55.127  27.140  34.549  1.00  0.00     0.041 A 
ATOM     93  F   UNL A   1      53.375  28.294  33.510  1.00  0.00    -0.206 F 
ATOM     94  C   UNL A   1      55.756  25.946  34.886  1.00  0.00     0.022 A 
BRANCH  91  95
ATOM     95  S   UNL A   1      55.927  23.162  34.957  1.00  0.00     0.124 S 
ATOM     96  O   UNL A   1      55.853  23.304  36.407  1.00  0.00    -0.237 OA
ATOM     97  O   UNL A   1      55.009  22.196  34.363  1.00  0.00    -0.237 OA
ATOM     98  O   UNL A   1      57.280  23.153  34.402  1.00  0.00    -0.744 OA
ENDBRANCH  91  95
ENDBRANCH  65  88
ENDBRANCH  39  40
ENDBRANCH  32  34
ENDBRANCH  31  32
ENDBRANCH  30  31
ENDBRANCH  29  30
ENDBRANCH  28  29
ENDBRANCH  27  28
ENDBRANCH   1  27
TORSDOF 26
ENDMDL
MODEL 2
REMARK VINA RESULT:      -7.7      6.294     13.984
REMARK SMILES CC[C@](C)(NC(=O)CCOc1ccc(Cl)c(Cl)c1)C(=O)OCCOCCOCCOC(=O)c1ccc(-c2c3nc(c(-c4cc(S(=O)(=O)[O-])ccc4F)c4ccc([nH]4)c(-c4cc(S(=O)(=O)[O-])ccc4F)c4nc(c(-c5cc(S(=O)(=O)[O-])ccc5F)c5ccc2[nH]5)C=C4)C=C3)cc1
REMARK SMILES IDX 25 1 24 2 23 3 22 4 21 5 19 6 20 7 3 8 4 9 2 10 1 11 5 12
REMARK SMILES IDX 6 13 7 15 8 16 9 17 10 18 11 19 12 20 18 21 13 22 16 23
REMARK SMILES IDX 14 24 17 25 15 26 26 27 27 28 28 29 29 30 30 31 31 32 32 33
REMARK SMILES IDX 33 34 34 35 95 36 35 37 94 38 36 39 37 40 38 41 88 42 39 43
REMARK SMILES IDX 93 44 87 45 89 46 40 47 92 48 86 49 85 50 41 52 73 53 53 54
REMARK SMILES IDX 72 55 54 56 57 57 71 58 90 59 55 60 56 61 70 63 91 64 58 65
REMARK SMILES IDX 42 66 43 67 51 68 44 69 50 70 52 71 49 72 45 73 46 74 47 75
REMARK SMILES IDX 48 76 74 77 75 78 83 79 76 80 82 81 84 82 81 83 77 84 78 85
REMARK SMILES IDX 79 86 80 87 59 88 60 89 68 90 61 91 67 92 69 93 66 94 62 95
REMARK SMILES IDX 63 96 64 97 65 98
REMARK H PARENT 5 14 89 51 57 62
REMARK Flexibility Score: inf
ROOT
ATOM      1  C   UNL A   1      49.739  31.445  31.474  1.00  0.00     0.188 C 
ENDROOT
BRANCH   1   2
ATOM      2  O   UNL A   1      48.949  30.891  30.419  1.00  0.00    -0.376 OA
BRANCH   2   3
ATOM      3  C   UNL A   1      48.564  31.893  29.466  1.00  0.00     0.202 C 
BRANCH   3   4
ATOM      4  C   UNL A   1      47.791  33.032  30.149  1.00  0.00     0.261 C 
BRANCH   4   5
ATOM      5  O   UNL A   1      47.056  33.850  29.206  1.00  0.00    -0.462 OA
BRANCH   5   6
ATOM      6  C   UNL A   1      47.677  34.135  28.030  1.00  0.00     0.331 C 
ATOM      7  O   UNL A   1      48.887  34.325  27.953  1.00  0.00    -0.249 OA
BRANCH   6   8
ATOM      8  C   UNL A   1      46.749  33.960  26.782  1.00  0.00     0.135 C 
ATOM      9  C   UNL A   1      47.227  35.032  25.783  1.00  0.00     0.047 C 
BRANCH   8  10
ATOM     10  C   UNL A   1      45.287  34.323  27.231  1.00  0.00     0.037 C 
ATOM     11  C   UNL A   1      44.311  34.571  26.073  1.00  0.00     0.007 C 
ENDBRANCH   8  10
BRANCH   8  12
ATOM     12  N   UNL A   1      46.580  32.597  26.159  1.00  0.00    -0.340 N 
ATOM     13  C   UNL A   1      46.078  31.369  26.377  1.00  0.00     0.224 C 
ATOM     14  H   UNL A   1      46.985  32.613  25.261  1.00  0.00     0.164 HD
ATOM     15  O   UNL A   1      46.299  30.540  25.483  1.00  0.00    -0.275 OA
BRANCH  13  16
ATOM     16  C   UNL A   1      45.195  30.980  27.517  1.00  0.00     0.141 C 
BRANCH  16  17
ATOM     17  C   UNL A   1      45.745  29.849  28.340  1.00  0.00     0.239 C 
BRANCH  17  18
ATOM     18  O   UNL A   1      45.472  28.543  27.817  1.00  0.00    -0.493 OA
BRANCH  18  19
ATOM     19  C   UNL A   1      46.535  27.696  27.936  1.00  0.00     0.120 A 
ATOM     20  C   UNL A   1      46.452  26.467  27.293  1.00  0.00     0.048 A 
ATOM     21  C   UNL A   1      47.644  28.011  28.720  1.00  0.00     0.068 A 
ATOM     22  C   UNL A   1      47.526  25.582  27.340  1.00  0.00     0.026 A 
ATOM     23  C   UNL A   1      48.719  27.115  28.783  1.00  0.00     0.063 A 
ATOM     24  C   UNL A   1      48.669  25.907  28.074  1.00  0.00     0.059 A 
ATOM     25  Cl  UNL A   1      50.105  27.584  29.702  1.00  0.00    -0.083 Cl
ATOM     26  Cl  UNL A   1      49.982  24.787  28.038  1.00  0.00    -0.083 Cl
ENDBRANCH  18  19
ENDBRANCH  17  18
ENDBRANCH  16  17
ENDBRANCH  13  16
ENDBRANCH   8  12
ENDBRANCH   6   8
ENDBRANCH   5   6
ENDBRANCH   4   5
ENDBRANCH   3   4
ENDBRANCH   2   3
ENDBRANCH   1   2
BRANCH   1  27
ATOM     27  C   UNL A   1      50.063  30.436  32.575  1.00  0.00     0.188 C 
BRANCH  27  28
ATOM     28  O   UNL A   1      49.168  29.334  32.622  1.00  0.00    -0.376 OA
BRANCH  28  29
ATOM     29  C   UNL A   1      49.611  28.192  33.352  1.00  0.00     0.202 C 
BRANCH  29  30
ATOM     30  C   UNL A   1      48.619  27.015  33.329  1.00  0.00     0.261 C 
BRANCH  30  31
ATOM     31  O   UNL A   1      48.639  26.257  34.544  1.00  0.00    -0.460 OA
BRANCH  31  32
ATOM     32  C   UNL A   1      47.999  26.859  35.582  1.00  0.00     0.338 C 
ATOM     33  O   UNL A   1      48.481  27.104  36.677  1.00  0.00    -0.246 OA
BRANCH  32  34
ATOM     34  C   UNL A   1      46.693  27.368  35.088  1.00  0.00     0.060 A 
ATOM     35  C   UNL A   1      45.665  26.444  34.865  1.00  0.00     0.016 A 
ATOM     36  C   UNL A   1      46.451  28.737  34.916  1.00  0.00     0.016 A 
ATOM     37  C   UNL A   1      44.415  26.879  34.415  1.00  0.00     0.010 A 
ATOM     38  C   UNL A   1      45.200  29.173  34.467  1.00  0.00     0.010 A 
ATOM     39  C   UNL A   1      44.191  28.241  34.169  1.00  0.00    -0.014 A 
BRANCH  39  40
ATOM     40  C   UNL A   1      43.037  28.646  33.326  1.00  0.00     0.031 A 
ATOM     41  C   UNL A   1      41.955  29.457  33.994  1.00  0.00     0.074 A 
ATOM     42  C   UNL A   1      42.959  28.359  32.014  1.00  0.00     0.049 A 
ATOM     43  N   UNL A   1      40.831  29.914  33.508  1.00  0.00    -0.248 NA
ATOM     44  C   UNL A   1      42.181  29.794  35.409  1.00  0.00     0.031 C 
ATOM     45  C   UNL A   1      43.965  27.633  31.244  1.00  0.00     0.029 A 
ATOM     46  N   UNL A   1      41.980  28.653  31.095  1.00  0.00    -0.354 N 
ATOM     47  C   UNL A   1      40.226  30.607  34.552  1.00  0.00     0.074 A 
ATOM     48  C   UNL A   1      41.078  30.459  35.710  1.00  0.00     0.031 C 
ATOM     49  C   UNL A   1      43.548  27.532  29.967  1.00  0.00     0.029 A 
ATOM     50  C   UNL A   1      42.230  28.153  29.837  1.00  0.00     0.049 A 
ATOM     51  H   UNL A   1      41.174  29.173  31.316  1.00  0.00     0.167 HD
ATOM     52  C   UNL A   1      39.074  31.318  34.546  1.00  0.00     0.034 A 
ATOM     53  C   UNL A   1      41.469  28.176  28.720  1.00  0.00     0.034 A 
ATOM     54  C   UNL A   1      38.211  31.427  33.397  1.00  0.00     0.049 A 
ATOM     55  C   UNL A   1      40.129  28.881  28.767  1.00  0.00     0.074 A 
ATOM     56  C   UNL A   1      36.996  32.079  33.289  1.00  0.00     0.029 A 
ATOM     57  N   UNL A   1      38.471  30.861  32.155  1.00  0.00    -0.354 N 
ATOM     58  N   UNL A   1      39.558  29.517  29.767  1.00  0.00    -0.248 NA
ATOM     59  C   UNL A   1      39.336  28.881  27.530  1.00  0.00     0.031 C 
ATOM     60  C   UNL A   1      36.488  31.849  32.005  1.00  0.00     0.029 A 
ATOM     61  C   UNL A   1      37.426  31.127  31.283  1.00  0.00     0.049 A 
ATOM     62  H   UNL A   1      39.278  30.347  31.927  1.00  0.00     0.167 HD
ATOM     63  C   UNL A   1      38.354  30.014  29.266  1.00  0.00     0.074 A 
ATOM     64  C   UNL A   1      38.299  29.630  27.871  1.00  0.00     0.031 C 
ATOM     65  C   UNL A   1      37.380  30.721  29.898  1.00  0.00     0.034 A 
BRANCH  52  66
ATOM     66  C   UNL A   1      38.668  31.975  35.842  1.00  0.00     0.023 A 
ATOM     67  C   UNL A   1      38.063  31.244  36.881  1.00  0.00     0.031 A 
ATOM     68  C   UNL A   1      38.836  33.359  36.021  1.00  0.00     0.131 A 
ATOM     69  C   UNL A   1      37.584  31.911  38.019  1.00  0.00     0.055 A 
ATOM     70  C   UNL A   1      38.433  34.003  37.191  1.00  0.00     0.041 A 
ATOM     71  F   UNL A   1      39.377  34.113  35.051  1.00  0.00    -0.206 F 
ATOM     72  C   UNL A   1      37.790  33.282  38.194  1.00  0.00     0.022 A 
BRANCH  69  73
ATOM     73  S   UNL A   1      36.560  30.991  39.200  1.00  0.00     0.124 S 
ATOM     74  O   UNL A   1      35.413  31.881  39.351  1.00  0.00    -0.237 OA
ATOM     75  O   UNL A   1      36.313  29.738  38.495  1.00  0.00    -0.237 OA
ATOM     76  O   UNL A   1      37.415  30.882  40.381  1.00  0.00    -0.744 OA
ENDBRANCH  69  73
ENDBRANCH  52  66
BRANCH  53  77
ATOM     77  C   UNL A   1      41.902  27.463  27.477  1.00  0.00     0.023 A 
ATOM     78  C   UNL A   1      41.917  26.060  27.393  1.00  0.00     0.031 A 
ATOM     79  C   UNL A   1      42.407  28.187  26.380  1.00  0.00     0.131 A 
ATOM     80  C   UNL A   1      42.480  25.428  26.269  1.00  0.00     0.055 A 
ATOM     81  C   UNL A   1      42.906  27.555  25.239  1.00  0.00     0.041 A 
ATOM     82  F   UNL A   1      42.430  29.529  26.404  1.00  0.00    -0.206 F 
ATOM     83  C   UNL A   1      42.959  26.166  25.187  1.00  0.00     0.022 A 
BRANCH  80  84
ATOM     84  S   UNL A   1      42.688  23.623  26.290  1.00  0.00     0.124 S 
ATOM     85  O   UNL A   1      42.830  23.324  24.870  1.00  0.00    -0.237 OA
ATOM     86  O   UNL A   1      43.888  23.466  27.103  1.00  0.00    -0.237 OA
ATOM     87  O   UNL A   1      41.452  23.146  26.909  1.00  0.00    -0.744 OA
ENDBRANCH  80  84
ENDBRANCH  53  77
BRANCH  65  88
ATOM     88  C   UNL A   1      36.194  31.152  29.064  1.00  0.00     0.023 A 
ATOM     89  C   UNL A   1      35.260  30.225  28.571  1.00  0.00     0.031 A 
ATOM     90  C   UNL A   1      36.013  32.507  28.731  1.00  0.00     0.131 A 
ATOM     91  C   UNL A   1      34.241  30.649  27.705  1.00  0.00     0.055 A 
ATOM     92  C   UNL A   1      34.952  32.934  27.932  1.00  0.00     0.041 A 
ATOM     93  F   UNL A   1      36.872  33.441  29.173  1.00  0.00    -0.206 F 
ATOM     94  C   UNL A   1      34.069  32.001  27.398  1.00  0.00     0.022 A 
BRANCH  91  95
ATOM     95  S   UNL A   1      33.225  29.394  26.878  1.00  0.00     0.124 S 
ATOM     96  O   UNL A   1      33.944  28.164  27.197  1.00  0.00    -0.237 OA
ATOM     97  O   UNL A   1      31.930  29.562  27.529  1.00  0.00    -0.237 OA
ATOM     98  O   UNL A   1      33.267  29.791  25.472  1.00  0.00    -0.744 OA
ENDBRANCH  91  95
ENDBRANCH  65  88
ENDBRANCH  39  40
ENDBRANCH  32  34
ENDBRANCH  31  32
ENDBRANCH  30  31
ENDBRANCH  29  30
ENDBRANCH  28  29
ENDBRANCH  27  28
ENDBRANCH   1  27
TORSDOF 26
ENDMDL
MODEL 3
REMARK VINA RESULT:      -7.6      7.924     13.032
REMARK SMILES CC[C@](C)(NC(=O)CCOc1ccc(Cl)c(Cl)c1)C(=O)OCCOCCOCCOC(=O)c1ccc(-c2c3nc(c(-c4cc(S(=O)(=O)[O-])ccc4F)c4ccc([nH]4)c(-c4cc(S(=O)(=O)[O-])ccc4F)c4nc(c(-c5cc(S(=O)(=O)[O-])ccc5F)c5ccc2[nH]5)C=C4)C=C3)cc1
REMARK SMILES IDX 25 1 24 2 23 3 22 4 21 5 19 6 20 7 3 8 4 9 2 10 1 11 5 12
REMARK SMILES IDX 6 13 7 15 8 16 9 17 10 18 11 19 12 20 18 21 13 22 16 23
REMARK SMILES IDX 14 24 17 25 15 26 26 27 27 28 28 29 29 30 30 31 31 32 32 33
REMARK SMILES IDX 33 34 34 35 95 36 35 37 94 38 36 39 37 40 38 41 88 42 39 43
REMARK SMILES IDX 93 44 87 45 89 46 40 47 92 48 86 49 85 50 41 52 73 53 53 54
REMARK SMILES IDX 72 55 54 56 57 57 71 58 90 59 55 60 56 61 70 63 91 64 58 65
REMARK SMILES IDX 42 66 43 67 51 68 44 69 50 70 52 71 49 72 45 73 46 74 47 75
REMARK SMILES IDX 48 76 74 77 75 78 83 79 76 80 82 81 84 82 81 83 77 84 78 85
REMARK SMILES IDX 79 86 80 87 59 88 60 89 68 90 61 91 67 92 69 93 66 94 62 95
REMARK SMILES IDX 63 96 64 97 65 98
REMARK H PARENT 5 14 89 51 57 62
REMARK Flexibility Score: inf
ROOT
ATOM      1  C   UNL A   1      35.009  32.504  29.476  1.00  0.00     0.188 C 
ENDROOT
BRANCH   1   2
ATOM      2  O   UNL A   1      33.989  33.273  30.118  1.00  0.00    -0.376 OA
BRANCH   2   3
ATOM      3  C   UNL A   1      34.507  34.001  31.242  1.00  0.00     0.202 C 
BRANCH   3   4
ATOM      4  C   UNL A   1      34.311  33.212  32.545  1.00  0.00     0.261 C 
BRANCH   4   5
ATOM      5  O   UNL A   1      35.536  32.596  33.012  1.00  0.00    -0.462 OA
BRANCH   5   6
ATOM      6  C   UNL A   1      36.102  33.129  34.128  1.00  0.00     0.331 C 
ATOM      7  O   UNL A   1      35.463  33.797  34.935  1.00  0.00    -0.249 OA
BRANCH   6   8
ATOM      8  C   UNL A   1      37.555  32.610  34.394  1.00  0.00     0.135 C 
ATOM      9  C   UNL A   1      38.375  33.878  34.703  1.00  0.00     0.047 C 
BRANCH   8  10
ATOM     10  C   UNL A   1      38.086  31.997  33.047  1.00  0.00     0.037 C 
ATOM     11  C   UNL A   1      39.337  32.686  32.488  1.00  0.00     0.007 C 
ENDBRANCH   8  10
BRANCH   8  12
ATOM     12  N   UNL A   1      37.784  31.495  35.383  1.00  0.00    -0.340 N 
ATOM     13  C   UNL A   1      37.981  31.238  36.688  1.00  0.00     0.224 C 
ATOM     14  H   UNL A   1      37.791  30.640  34.893  1.00  0.00     0.164 HD
ATOM     15  O   UNL A   1      38.203  30.052  36.967  1.00  0.00    -0.275 OA
BRANCH  13  16
ATOM     16  C   UNL A   1      37.826  32.222  37.801  1.00  0.00     0.141 C 
BRANCH  16  17
ATOM     17  C   UNL A   1      37.066  31.678  38.978  1.00  0.00     0.239 C 
BRANCH  17  18
ATOM     18  O   UNL A   1      37.888  31.176  40.039  1.00  0.00    -0.493 OA
BRANCH  18  19
ATOM     19  C   UNL A   1      37.250  31.180  41.245  1.00  0.00     0.120 A 
ATOM     20  C   UNL A   1      37.864  30.512  42.298  1.00  0.00     0.048 A 
ATOM     21  C   UNL A   1      36.001  31.774  41.416  1.00  0.00     0.068 A 
ATOM     22  C   UNL A   1      37.283  30.524  43.563  1.00  0.00     0.026 A 
ATOM     23  C   UNL A   1      35.405  31.772  42.684  1.00  0.00     0.063 A 
ATOM     24  C   UNL A   1      36.058  31.164  43.765  1.00  0.00     0.059 A 
ATOM     25  Cl  UNL A   1      33.895  32.590  42.866  1.00  0.00    -0.083 Cl
ATOM     26  Cl  UNL A   1      35.428  31.187  45.373  1.00  0.00    -0.083 Cl
ENDBRANCH  18  19
ENDBRANCH  17  18
ENDBRANCH  16  17
ENDBRANCH  13  16
ENDBRANCH   8  12
ENDBRANCH   6   8
ENDBRANCH   5   6
ENDBRANCH   4   5
ENDBRANCH   3   4
ENDBRANCH   2   3
ENDBRANCH   1   2
BRANCH   1  27
ATOM     27  C   UNL A   1      36.333  33.256  29.341  1.00  0.00     0.188 C 
BRANCH  27  28
ATOM     28  O   UNL A   1      37.478  32.436  29.527  1.00  0.00    -0.376 OA
BRANCH  28  29
ATOM     29  C   UNL A   1      37.516  31.226  28.775  1.00  0.00     0.202 C 
BRANCH  29  30
ATOM     30  C   UNL A   1      38.240  30.071  29.490  1.00  0.00     0.261 C 
BRANCH  30  31
ATOM     31  O   UNL A   1      39.631  30.338  29.698  1.00  0.00    -0.460 OA
BRANCH  31  32
ATOM     32  C   UNL A   1      40.350  29.254  30.095  1.00  0.00     0.338 C 
ATOM     33  O   UNL A   1      40.711  28.332  29.381  1.00  0.00    -0.246 OA
BRANCH  32  34
ATOM     34  C   UNL A   1      40.811  29.491  31.488  1.00  0.00     0.060 A 
ATOM     35  C   UNL A   1      41.947  30.286  31.682  1.00  0.00     0.016 A 
ATOM     36  C   UNL A   1      40.100  29.007  32.594  1.00  0.00     0.016 A 
ATOM     37  C   UNL A   1      42.408  30.548  32.975  1.00  0.00     0.010 A 
ATOM     38  C   UNL A   1      40.560  29.270  33.889  1.00  0.00     0.010 A 
ATOM     39  C   UNL A   1      41.743  30.004  34.083  1.00  0.00    -0.014 A 
BRANCH  39  40
ATOM     40  C   UNL A   1      42.445  29.941  35.391  1.00  0.00     0.031 A 
ATOM     41  C   UNL A   1      43.334  28.747  35.632  1.00  0.00     0.074 A 
ATOM     42  C   UNL A   1      42.349  30.914  36.315  1.00  0.00     0.049 A 
ATOM     43  N   UNL A   1      44.034  28.425  36.687  1.00  0.00    -0.248 NA
ATOM     44  C   UNL A   1      43.439  27.786  34.522  1.00  0.00     0.031 C 
ATOM     45  C   UNL A   1      41.569  32.141  36.176  1.00  0.00     0.029 A 
ATOM     46  N   UNL A   1      42.922  31.020  37.559  1.00  0.00    -0.354 N 
ATOM     47  C   UNL A   1      44.678  27.235  36.360  1.00  0.00     0.074 A 
ATOM     48  C   UNL A   1      44.237  26.865  35.034  1.00  0.00     0.031 C 
ATOM     49  C   UNL A   1      41.708  32.875  37.297  1.00  0.00     0.029 A 
ATOM     50  C   UNL A   1      42.555  32.155  38.247  1.00  0.00     0.049 A 
ATOM     51  H   UNL A   1      43.538  30.346  37.927  1.00  0.00     0.167 HD
ATOM     52  C   UNL A   1      45.569  26.522  37.089  1.00  0.00     0.034 A 
ATOM     53  C   UNL A   1      42.853  32.550  39.504  1.00  0.00     0.034 A 
ATOM     54  C   UNL A   1      45.973  26.879  38.425  1.00  0.00     0.049 A 
ATOM     55  C   UNL A   1      43.764  31.678  40.344  1.00  0.00     0.074 A 
ATOM     56  C   UNL A   1      46.830  26.206  39.277  1.00  0.00     0.029 A 
ATOM     57  N   UNL A   1      45.537  28.007  39.109  1.00  0.00    -0.354 N 
ATOM     58  N   UNL A   1      44.352  30.544  40.031  1.00  0.00    -0.248 NA
ATOM     59  C   UNL A   1      44.060  32.147  41.706  1.00  0.00     0.031 C 
ATOM     60  C   UNL A   1      46.858  26.888  40.498  1.00  0.00     0.029 A 
ATOM     61  C   UNL A   1      46.088  28.035  40.381  1.00  0.00     0.049 A 
ATOM     62  H   UNL A   1      44.927  28.687  38.744  1.00  0.00     0.167 HD
ATOM     63  C   UNL A   1      45.107  30.183  41.147  1.00  0.00     0.074 A 
ATOM     64  C   UNL A   1      44.923  31.235  42.126  1.00  0.00     0.031 C 
ATOM     65  C   UNL A   1      45.881  29.084  41.351  1.00  0.00     0.034 A 
BRANCH  52  66
ATOM     66  C   UNL A   1      46.111  25.260  36.464  1.00  0.00     0.023 A 
ATOM     67  C   UNL A   1      47.348  25.242  35.793  1.00  0.00     0.031 A 
ATOM     68  C   UNL A   1      45.358  24.073  36.489  1.00  0.00     0.131 A 
ATOM     69  C   UNL A   1      47.759  24.085  35.116  1.00  0.00     0.055 A 
ATOM     70  C   UNL A   1      45.813  22.902  35.884  1.00  0.00     0.041 A 
ATOM     71  F   UNL A   1      44.156  24.039  37.086  1.00  0.00    -0.206 F 
ATOM     72  C   UNL A   1      47.014  22.905  35.180  1.00  0.00     0.022 A 
BRANCH  69  73
ATOM     73  S   UNL A   1      49.209  24.183  34.029  1.00  0.00     0.124 S 
ATOM     74  O   UNL A   1      48.702  25.009  32.936  1.00  0.00    -0.237 OA
ATOM     75  O   UNL A   1      50.210  24.802  34.891  1.00  0.00    -0.237 OA
ATOM     76  O   UNL A   1      49.467  22.788  33.677  1.00  0.00    -0.744 OA
ENDBRANCH  69  73
ENDBRANCH  52  66
BRANCH  53  77
ATOM     77  C   UNL A   1      42.245  33.788  40.089  1.00  0.00     0.023 A 
ATOM     78  C   UNL A   1      41.020  33.759  40.778  1.00  0.00     0.031 A 
ATOM     79  C   UNL A   1      42.843  35.044  39.874  1.00  0.00     0.131 A 
ATOM     80  C   UNL A   1      40.406  34.961  41.171  1.00  0.00     0.055 A 
ATOM     81  C   UNL A   1      42.259  36.230  40.323  1.00  0.00     0.041 A 
ATOM     82  F   UNL A   1      44.007  35.139  39.212  1.00  0.00    -0.206 F 
ATOM     83  C   UNL A   1      41.025  36.193  40.961  1.00  0.00     0.022 A 
BRANCH  80  84
ATOM     84  S   UNL A   1      38.724  34.903  41.856  1.00  0.00     0.124 S 
ATOM     85  O   UNL A   1      38.592  36.236  42.434  1.00  0.00    -0.237 OA
ATOM     86  O   UNL A   1      37.922  34.636  40.667  1.00  0.00    -0.237 OA
ATOM     87  O   UNL A   1      38.788  33.807  42.821  1.00  0.00    -0.744 OA
ENDBRANCH  80  84
ENDBRANCH  53  77
BRANCH  65  88
ATOM     88  C   UNL A   1      46.612  28.995  42.672  1.00  0.00     0.023 A 
ATOM     89  C   UNL A   1      47.885  29.562  42.853  1.00  0.00     0.031 A 
ATOM     90  C   UNL A   1      46.041  28.304  43.756  1.00  0.00     0.131 A 
ATOM     91  C   UNL A   1      48.580  29.358  44.055  1.00  0.00     0.055 A 
ATOM     92  C   UNL A   1      46.704  28.170  44.976  1.00  0.00     0.041 A 
ATOM     93  F   UNL A   1      44.826  27.741  43.645  1.00  0.00    -0.206 F 
ATOM     94  C   UNL A   1      47.989  28.682  45.125  1.00  0.00     0.022 A 
BRANCH  91  95
ATOM     95  S   UNL A   1      50.317  29.871  44.151  1.00  0.00     0.124 S 
ATOM     96  O   UNL A   1      50.842  28.973  45.175  1.00  0.00    -0.237 OA
ATOM     97  O   UNL A   1      50.789  29.633  42.792  1.00  0.00    -0.237 OA
ATOM     98  O   UNL A   1      50.237  31.278  44.542  1.00  0.00    -0.744 OA
ENDBRANCH  91  95
ENDBRANCH  65  88
ENDBRANCH  39  40
ENDBRANCH  32  34
ENDBRANCH  31  32
ENDBRANCH  30  31
ENDBRANCH  29  30
ENDBRANCH  28  29
ENDBRANCH  27  28
ENDBRANCH   1  27
TORSDOF 26
ENDMDL
