MODEL 1
REMARK VINA RESULT:     -11.1      0.000      0.000
REMARK SMILES Cc1ccc(O[C@H](C)C(=O)Nc2ccsc2C(=O)OCCOCCOCCOC(=O)c2ccc(-c3c4nc(c(-c5cc(S(=O)(=O)[O-])ccc5F)c5ccc([nH]5)c(-c5cc(S(=O)(=O)[O-])ccc5F)c5nc(c(-c6cc(S(=O)(=O)[O-])ccc6F)c6ccc3[nH]6)C=C5)C=C4)cc2)cc1
REMARK SMILES IDX 23 1 22 2 21 3 20 4 19 5 17 6 18 7 16 8 12 9 13 10 14 11
REMARK SMILES IDX 15 12 11 13 9 14 10 15 7 17 8 18 6 19 5 20 1 21 2 22 3 23
REMARK SMILES IDX 95 24 4 25 94 26 24 27 25 28 26 29 27 30 28 31 29 32 30 33
REMARK SMILES IDX 31 34 32 35 93 36 33 37 92 38 34 39 35 40 36 41 86 42 37 43
REMARK SMILES IDX 91 44 85 45 87 46 38 47 90 48 84 49 83 50 39 52 71 53 51 54
REMARK SMILES IDX 70 55 52 56 55 57 69 58 88 59 53 60 54 61 68 63 89 64 56 65
REMARK SMILES IDX 40 66 41 67 49 68 42 69 48 70 50 71 47 72 43 73 44 74 45 75
REMARK SMILES IDX 46 76 72 77 73 78 81 79 74 80 80 81 82 82 79 83 75 84 76 85
REMARK SMILES IDX 77 86 78 87 57 88 58 89 66 90 59 91 65 92 67 93 64 94 60 95
REMARK SMILES IDX 61 96 62 97 63 98
REMARK H PARENT 11 16 87 51 55 62
REMARK Flexibility Score: inf
ROOT
ATOM      1  C   UNL A   1      32.272  31.044  26.926  1.00  0.00     0.188 C 
ENDROOT
BRANCH   1   2
ATOM      2  O   UNL A   1      32.518  29.635  26.847  1.00  0.00    -0.376 OA
BRANCH   2   3
ATOM      3  C   UNL A   1      33.724  29.273  26.194  1.00  0.00     0.202 C 
BRANCH   3   4
ATOM      4  C   UNL A   1      34.158  27.818  26.444  1.00  0.00     0.261 C 
BRANCH   4   5
ATOM      5  O   UNL A   1      34.045  26.749  25.425  1.00  0.00    -0.459 OA
BRANCH   5   6
ATOM      6  C   UNL A   1      34.197  25.385  25.400  1.00  0.00     0.350 C 
ATOM      7  O   UNL A   1      35.331  24.914  25.425  1.00  0.00    -0.245 OA
BRANCH   6   8
ATOM      8  C   UNL A   1      32.770  24.427  25.512  1.00  0.00     0.136 A 
ATOM      9  C   UNL A   1      31.756  24.288  24.586  1.00  0.00     0.066 A 
ATOM     10  C   UNL A   1      30.673  23.434  25.007  1.00  0.00     0.039 A 
ATOM     11  C   UNL A   1      30.513  23.295  26.352  1.00  0.00     0.068 A 
ATOM     12  S   UNL A   1      31.967  23.603  27.057  1.00  0.00    -0.135 S 
BRANCH   9  13
ATOM     13  N   UNL A   1      31.895  24.931  23.387  1.00  0.00    -0.321 N 
ATOM     14  C   UNL A   1      31.226  26.053  22.997  1.00  0.00     0.265 C 
ATOM     15  O   UNL A   1      31.531  26.528  21.897  1.00  0.00    -0.270 OA
ATOM     16  H   UNL A   1      32.537  24.548  22.747  1.00  0.00     0.170 HD
BRANCH  14  17
ATOM     17  C   UNL A   1      30.137  26.722  23.883  1.00  0.00     0.259 C 
ATOM     18  C   UNL A   1      30.806  27.766  24.775  1.00  0.00     0.064 C 
BRANCH  17  19
ATOM     19  O   UNL A   1      29.041  27.134  23.053  1.00  0.00    -0.481 OA
BRANCH  19  20
ATOM     20  C   UNL A   1      28.729  28.444  22.810  1.00  0.00     0.120 A 
ATOM     21  C   UNL A   1      28.652  32.773  22.598  1.00  0.00     0.044 C 
ATOM     22  C   UNL A   1      28.650  31.275  22.599  1.00  0.00    -0.051 A 
ATOM     23  C   UNL A   1      27.736  30.583  23.396  1.00  0.00     0.007 A 
ATOM     24  C   UNL A   1      29.565  30.536  21.850  1.00  0.00     0.007 A 
ATOM     25  C   UNL A   1      27.768  29.184  23.487  1.00  0.00     0.047 A 
ATOM     26  C   UNL A   1      29.594  29.138  21.955  1.00  0.00     0.047 A 
ENDBRANCH  19  20
ENDBRANCH  17  19
ENDBRANCH  14  17
ENDBRANCH   9  13
ENDBRANCH   6   8
ENDBRANCH   5   6
ENDBRANCH   4   5
ENDBRANCH   3   4
ENDBRANCH   2   3
ENDBRANCH   1   2
BRANCH   1  27
ATOM     27  C   UNL A   1      33.474  31.727  27.546  1.00  0.00     0.188 C 
BRANCH  27  28
ATOM     28  O   UNL A   1      33.202  33.095  27.815  1.00  0.00    -0.376 OA
BRANCH  28  29
ATOM     29  C   UNL A   1      34.323  33.912  28.099  1.00  0.00     0.202 C 
BRANCH  29  30
ATOM     30  C   UNL A   1      34.844  33.881  29.552  1.00  0.00     0.261 C 
BRANCH  30  31
ATOM     31  O   UNL A   1      35.918  32.935  29.694  1.00  0.00    -0.460 OA
BRANCH  31  32
ATOM     32  C   UNL A   1      35.826  32.007  30.724  1.00  0.00     0.338 C 
ATOM     33  O   UNL A   1      35.389  32.209  31.806  1.00  0.00    -0.246 OA
BRANCH  32  34
ATOM     34  C   UNL A   1      36.392  30.724  30.174  1.00  0.00     0.060 A 
ATOM     35  C   UNL A   1      36.712  29.550  30.842  1.00  0.00     0.016 A 
ATOM     36  C   UNL A   1      36.829  30.767  28.906  1.00  0.00     0.016 A 
ATOM     37  C   UNL A   1      37.828  28.709  30.399  1.00  0.00     0.010 A 
ATOM     38  C   UNL A   1      37.852  29.906  28.529  1.00  0.00     0.010 A 
ATOM     39  C   UNL A   1      38.643  29.015  29.300  1.00  0.00    -0.014 A 
BRANCH  39  40
ATOM     40  C   UNL A   1      40.266  28.404  29.051  1.00  0.00     0.031 A 
ATOM     41  C   UNL A   1      41.080  26.858  28.698  1.00  0.00     0.074 A 
ATOM     42  C   UNL A   1      41.198  29.370  29.151  1.00  0.00     0.049 A 
ATOM     43  N   UNL A   1      42.207  26.437  29.255  1.00  0.00    -0.248 NA
ATOM     44  C   UNL A   1      40.658  25.630  27.851  1.00  0.00     0.031 C 
ATOM     45  C   UNL A   1      42.592  29.343  28.737  1.00  0.00     0.029 A 
ATOM     46  N   UNL A   1      41.032  30.646  29.665  1.00  0.00    -0.354 N 
ATOM     47  C   UNL A   1      42.477  25.176  28.653  1.00  0.00     0.074 A 
ATOM     48  C   UNL A   1      41.229  24.595  28.437  1.00  0.00     0.031 C 
ATOM     49  C   UNL A   1      43.202  30.453  29.183  1.00  0.00     0.029 A 
ATOM     50  C   UNL A   1      42.282  31.120  30.077  1.00  0.00     0.049 A 
ATOM     51  H   UNL A   1      40.181  31.134  29.729  1.00  0.00     0.167 HD
ATOM     52  C   UNL A   1      43.597  24.881  27.908  1.00  0.00     0.034 A 
ATOM     53  C   UNL A   1      42.447  31.318  31.417  1.00  0.00     0.034 A 
ATOM     54  C   UNL A   1      44.621  25.818  28.303  1.00  0.00     0.049 A 
ATOM     55  C   UNL A   1      43.300  30.181  32.014  1.00  0.00     0.074 A 
ATOM     56  C   UNL A   1      45.249  26.938  27.811  1.00  0.00     0.029 A 
ATOM     57  N   UNL A   1      44.832  25.846  29.654  1.00  0.00    -0.354 N 
ATOM     58  N   UNL A   1      44.032  29.351  31.302  1.00  0.00    -0.248 NA
ATOM     59  C   UNL A   1      43.378  29.851  33.436  1.00  0.00     0.031 C 
ATOM     60  C   UNL A   1      45.622  27.734  28.968  1.00  0.00     0.029 A 
ATOM     61  C   UNL A   1      45.271  27.049  30.125  1.00  0.00     0.049 A 
ATOM     62  H   UNL A   1      44.681  25.066  30.234  1.00  0.00     0.167 HD
ATOM     63  C   UNL A   1      44.507  28.324  32.076  1.00  0.00     0.074 A 
ATOM     64  C   UNL A   1      44.098  28.713  33.423  1.00  0.00     0.031 C 
ATOM     65  C   UNL A   1      45.153  27.212  31.579  1.00  0.00     0.034 A 
BRANCH  52  66
ATOM     66  C   UNL A   1      43.738  23.818  26.772  1.00  0.00     0.023 A 
ATOM     67  C   UNL A   1      42.980  22.634  26.895  1.00  0.00     0.031 A 
ATOM     68  C   UNL A   1      44.577  23.819  25.612  1.00  0.00     0.131 A 
ATOM     69  C   UNL A   1      43.076  21.567  25.962  1.00  0.00     0.055 A 
ATOM     70  C   UNL A   1      44.659  22.765  24.680  1.00  0.00     0.041 A 
ATOM     71  F   UNL A   1      45.413  24.808  25.287  1.00  0.00    -0.206 F 
ATOM     72  C   UNL A   1      43.913  21.623  24.855  1.00  0.00     0.022 A 
BRANCH  69  73
ATOM     73  S   UNL A   1      42.061  20.085  26.202  1.00  0.00     0.124 S 
ATOM     74  O   UNL A   1      42.348  19.745  27.592  1.00  0.00    -0.237 OA
ATOM     75  O   UNL A   1      40.721  20.583  25.916  1.00  0.00    -0.237 OA
ATOM     76  O   UNL A   1      42.590  19.144  25.215  1.00  0.00    -0.744 OA
ENDBRANCH  69  73
ENDBRANCH  52  66
BRANCH  53  77
ATOM     77  C   UNL A   1      41.251  32.097  31.947  1.00  0.00     0.023 A 
ATOM     78  C   UNL A   1      40.284  31.320  32.665  1.00  0.00     0.031 A 
ATOM     79  C   UNL A   1      41.221  33.480  32.175  1.00  0.00     0.131 A 
ATOM     80  C   UNL A   1      39.502  31.875  33.692  1.00  0.00     0.055 A 
ATOM     81  C   UNL A   1      40.352  34.051  33.134  1.00  0.00     0.041 A 
ATOM     82  F   UNL A   1      42.137  34.288  31.624  1.00  0.00    -0.206 F 
ATOM     83  C   UNL A   1      39.521  33.246  33.922  1.00  0.00     0.022 A 
BRANCH  80  84
ATOM     84  S   UNL A   1      38.707  30.795  34.935  1.00  0.00     0.124 S 
ATOM     85  O   UNL A   1      38.432  29.589  34.163  1.00  0.00    -0.237 OA
ATOM     86  O   UNL A   1      39.720  30.663  35.979  1.00  0.00    -0.237 OA
ATOM     87  O   UNL A   1      37.539  31.574  35.339  1.00  0.00    -0.744 OA
ENDBRANCH  80  84
ENDBRANCH  53  77
BRANCH  65  88
ATOM     88  C   UNL A   1      45.657  26.088  32.496  1.00  0.00     0.023 A 
ATOM     89  C   UNL A   1      44.723  25.278  33.139  1.00  0.00     0.031 A 
ATOM     90  C   UNL A   1      47.016  25.809  32.829  1.00  0.00     0.131 A 
ATOM     91  C   UNL A   1      45.134  24.197  33.933  1.00  0.00     0.055 A 
ATOM     92  C   UNL A   1      47.414  24.834  33.745  1.00  0.00     0.041 A 
ATOM     93  F   UNL A   1      48.060  26.409  32.240  1.00  0.00    -0.206 F 
ATOM     94  C   UNL A   1      46.467  23.992  34.281  1.00  0.00     0.022 A 
BRANCH  91  95
ATOM     95  S   UNL A   1      43.893  22.965  34.366  1.00  0.00     0.124 S 
ATOM     96  O   UNL A   1      43.033  23.694  35.291  1.00  0.00    -0.237 OA
ATOM     97  O   UNL A   1      43.315  22.673  33.056  1.00  0.00    -0.237 OA
ATOM     98  O   UNL A   1      44.677  21.884  34.957  1.00  0.00    -0.744 OA
ENDBRANCH  91  95
ENDBRANCH  65  88
ENDBRANCH  39  40
ENDBRANCH  32  34
ENDBRANCH  31  32
ENDBRANCH  30  31
ENDBRANCH  29  30
ENDBRANCH  28  29
ENDBRANCH  27  28
ENDBRANCH   1  27
TORSDOF 24
ENDMDL
MODEL 2
REMARK VINA RESULT:     -10.5      2.004      3.881
REMARK SMILES Cc1ccc(O[C@H](C)C(=O)Nc2ccsc2C(=O)OCCOCCOCCOC(=O)c2ccc(-c3c4nc(c(-c5cc(S(=O)(=O)[O-])ccc5F)c5ccc([nH]5)c(-c5cc(S(=O)(=O)[O-])ccc5F)c5nc(c(-c6cc(S(=O)(=O)[O-])ccc6F)c6ccc3[nH]6)C=C5)C=C4)cc2)cc1
REMARK SMILES IDX 23 1 22 2 21 3 20 4 19 5 17 6 18 7 16 8 12 9 13 10 14 11
REMARK SMILES IDX 15 12 11 13 9 14 10 15 7 17 8 18 6 19 5 20 1 21 2 22 3 23
REMARK SMILES IDX 95 24 4 25 94 26 24 27 25 28 26 29 27 30 28 31 29 32 30 33
REMARK SMILES IDX 31 34 32 35 93 36 33 37 92 38 34 39 35 40 36 41 86 42 37 43
REMARK SMILES IDX 91 44 85 45 87 46 38 47 90 48 84 49 83 50 39 52 71 53 51 54
REMARK SMILES IDX 70 55 52 56 55 57 69 58 88 59 53 60 54 61 68 63 89 64 56 65
REMARK SMILES IDX 40 66 41 67 49 68 42 69 48 70 50 71 47 72 43 73 44 74 45 75
REMARK SMILES IDX 46 76 72 77 73 78 81 79 74 80 80 81 82 82 79 83 75 84 76 85
REMARK SMILES IDX 77 86 78 87 57 88 58 89 66 90 59 91 65 92 67 93 64 94 60 95
REMARK SMILES IDX 61 96 62 97 63 98
REMARK H PARENT 11 16 87 51 55 62
REMARK Flexibility Score: inf
ROOT
ATOM      1  C   UNL A   1      34.314  34.907  28.266  1.00  0.00     0.188 C 
ENDROOT
BRANCH   1   2
ATOM      2  O   UNL A   1      34.256  33.704  27.489  1.00  0.00    -0.376 OA
BRANCH   2   3
ATOM      3  C   UNL A   1      33.316  32.743  27.942  1.00  0.00     0.202 C 
BRANCH   3   4
ATOM      4  C   UNL A   1      32.334  32.269  26.857  1.00  0.00     0.261 C 
BRANCH   4   5
ATOM      5  O   UNL A   1      31.924  30.855  26.693  1.00  0.00    -0.459 OA
BRANCH   5   6
ATOM      6  C   UNL A   1      32.419  29.751  26.046  1.00  0.00     0.350 C 
ATOM      7  O   UNL A   1      33.572  29.396  26.276  1.00  0.00    -0.245 OA
BRANCH   6   8
ATOM      8  C   UNL A   1      31.320  28.837  25.083  1.00  0.00     0.136 A 
ATOM      9  C   UNL A   1      31.157  27.468  25.035  1.00  0.00     0.066 A 
ATOM     10  C   UNL A   1      30.171  27.015  24.085  1.00  0.00     0.039 A 
ATOM     11  C   UNL A   1      29.911  27.860  23.049  1.00  0.00     0.068 A 
ATOM     12  S   UNL A   1      30.303  29.380  23.541  1.00  0.00    -0.135 S 
BRANCH   9  13
ATOM     13  N   UNL A   1      31.903  26.706  25.890  1.00  0.00    -0.321 N 
ATOM     14  C   UNL A   1      32.593  25.576  25.565  1.00  0.00     0.265 C 
ATOM     15  O   UNL A   1      33.264  25.055  26.463  1.00  0.00    -0.270 OA
ATOM     16  H   UNL A   1      31.946  27.002  26.829  1.00  0.00     0.170 HD
BRANCH  14  17
ATOM     17  C   UNL A   1      32.556  24.963  24.136  1.00  0.00     0.259 C 
ATOM     18  C   UNL A   1      33.990  24.813  23.632  1.00  0.00     0.064 C 
BRANCH  17  19
ATOM     19  O   UNL A   1      31.709  23.805  24.141  1.00  0.00    -0.481 OA
BRANCH  19  20
ATOM     20  C   UNL A   1      32.174  22.528  23.983  1.00  0.00     0.120 A 
ATOM     21  C   UNL A   1      32.593  18.253  23.393  1.00  0.00     0.044 C 
ATOM     22  C   UNL A   1      32.512  19.741  23.555  1.00  0.00    -0.051 A 
ATOM     23  C   UNL A   1      32.765  20.318  24.801  1.00  0.00     0.007 A 
ATOM     24  C   UNL A   1      32.153  20.579  22.500  1.00  0.00     0.007 A 
ATOM     25  C   UNL A   1      32.612  21.696  25.006  1.00  0.00     0.047 A 
ATOM     26  C   UNL A   1      31.994  21.955  22.718  1.00  0.00     0.047 A 
ENDBRANCH  19  20
ENDBRANCH  17  19
ENDBRANCH  14  17
ENDBRANCH   9  13
ENDBRANCH   6   8
ENDBRANCH   5   6
ENDBRANCH   4   5
ENDBRANCH   3   4
ENDBRANCH   2   3
ENDBRANCH   1   2
BRANCH   1  27
ATOM     27  C   UNL A   1      33.154  34.929  29.241  1.00  0.00     0.188 C 
BRANCH  27  28
ATOM     28  O   UNL A   1      33.607  35.139  30.570  1.00  0.00    -0.376 OA
BRANCH  28  29
ATOM     29  C   UNL A   1      34.768  34.427  30.955  1.00  0.00     0.202 C 
BRANCH  29  30
ATOM     30  C   UNL A   1      34.539  33.089  31.690  1.00  0.00     0.261 C 
BRANCH  30  31
ATOM     31  O   UNL A   1      35.245  32.017  31.041  1.00  0.00    -0.460 OA
BRANCH  31  32
ATOM     32  C   UNL A   1      36.550  31.766  31.447  1.00  0.00     0.338 C 
ATOM     33  O   UNL A   1      37.090  32.245  32.385  1.00  0.00    -0.246 OA
BRANCH  32  34
ATOM     34  C   UNL A   1      37.108  30.779  30.455  1.00  0.00     0.060 A 
ATOM     35  C   UNL A   1      37.042  29.393  30.467  1.00  0.00     0.016 A 
ATOM     36  C   UNL A   1      37.947  31.278  29.535  1.00  0.00     0.016 A 
ATOM     37  C   UNL A   1      38.132  28.579  29.920  1.00  0.00     0.010 A 
ATOM     38  C   UNL A   1      38.926  30.443  29.010  1.00  0.00     0.010 A 
ATOM     39  C   UNL A   1      39.299  29.120  29.360  1.00  0.00    -0.014 A 
BRANCH  39  40
ATOM     40  C   UNL A   1      40.825  28.273  29.208  1.00  0.00     0.031 A 
ATOM     41  C   UNL A   1      41.423  26.644  28.802  1.00  0.00     0.074 A 
ATOM     42  C   UNL A   1      41.880  29.067  29.470  1.00  0.00     0.049 A 
ATOM     43  N   UNL A   1      42.409  26.010  29.420  1.00  0.00    -0.248 NA
ATOM     44  C   UNL A   1      40.905  25.560  27.823  1.00  0.00     0.031 C 
ATOM     45  C   UNL A   1      43.288  28.844  29.181  1.00  0.00     0.029 A 
ATOM     46  N   UNL A   1      41.862  30.315  30.070  1.00  0.00    -0.354 N 
ATOM     47  C   UNL A   1      42.541  24.766  28.743  1.00  0.00     0.074 A 
ATOM     48  C   UNL A   1      41.247  24.409  28.370  1.00  0.00     0.031 C 
ATOM     49  C   UNL A   1      44.013  29.809  29.769  1.00  0.00     0.029 A 
ATOM     50  C   UNL A   1      43.121  30.554  30.630  1.00  0.00     0.049 A 
ATOM     51  H   UNL A   1      41.093  30.929  30.099  1.00  0.00     0.167 HD
ATOM     52  C   UNL A   1      43.673  24.345  28.080  1.00  0.00     0.034 A 
ATOM     53  C   UNL A   1      43.179  30.631  31.991  1.00  0.00     0.034 A 
ATOM     54  C   UNL A   1      44.783  25.076  28.640  1.00  0.00     0.049 A 
ATOM     55  C   UNL A   1      43.781  29.334  32.566  1.00  0.00     0.074 A 
ATOM     56  C   UNL A   1      45.622  26.110  28.300  1.00  0.00     0.029 A 
ATOM     57  N   UNL A   1      44.859  24.978  30.002  1.00  0.00    -0.354 N 
ATOM     58  N   UNL A   1      44.445  28.447  31.856  1.00  0.00    -0.248 NA
ATOM     59  C   UNL A   1      43.663  28.901  33.957  1.00  0.00     0.031 C 
ATOM     60  C   UNL A   1      45.995  26.756  29.547  1.00  0.00     0.029 A 
ATOM     61  C   UNL A   1      45.428  26.060  30.608  1.00  0.00     0.049 A 
ATOM     62  H   UNL A   1      44.531  24.195  30.500  1.00  0.00     0.167 HD
ATOM     63  C   UNL A   1      44.676  27.307  32.582  1.00  0.00     0.074 A 
ATOM     64  C   UNL A   1      44.198  27.665  33.914  1.00  0.00     0.031 C 
ATOM     65  C   UNL A   1      45.190  26.142  32.054  1.00  0.00     0.034 A 
BRANCH  52  66
ATOM     66  C   UNL A   1      43.762  23.352  26.876  1.00  0.00     0.023 A 
ATOM     67  C   UNL A   1      43.087  22.119  27.002  1.00  0.00     0.031 A 
ATOM     68  C   UNL A   1      44.483  23.465  25.645  1.00  0.00     0.131 A 
ATOM     69  C   UNL A   1      43.152  21.109  26.005  1.00  0.00     0.055 A 
ATOM     70  C   UNL A   1      44.534  22.466  24.650  1.00  0.00     0.041 A 
ATOM     71  F   UNL A   1      45.228  24.518  25.299  1.00  0.00    -0.206 F 
ATOM     72  C   UNL A   1      43.874  21.274  24.829  1.00  0.00     0.022 A 
BRANCH  69  73
ATOM     73  S   UNL A   1      42.250  19.558  26.254  1.00  0.00     0.124 S 
ATOM     74  O   UNL A   1      42.570  19.243  27.642  1.00  0.00    -0.237 OA
ATOM     75  O   UNL A   1      40.876  19.956  25.975  1.00  0.00    -0.237 OA
ATOM     76  O   UNL A   1      42.841  18.655  25.265  1.00  0.00    -0.744 OA
ENDBRANCH  69  73
ENDBRANCH  52  66
BRANCH  53  77
ATOM     77  C   UNL A   1      42.069  31.555  32.475  1.00  0.00     0.023 A 
ATOM     78  C   UNL A   1      40.904  30.896  32.988  1.00  0.00     0.031 A 
ATOM     79  C   UNL A   1      42.238  32.893  32.858  1.00  0.00     0.131 A 
ATOM     80  C   UNL A   1      40.099  31.480  33.981  1.00  0.00     0.055 A 
ATOM     81  C   UNL A   1      41.360  33.514  33.776  1.00  0.00     0.041 A 
ATOM     82  F   UNL A   1      43.337  33.576  32.508  1.00  0.00    -0.206 F 
ATOM     83  C   UNL A   1      40.314  32.797  34.370  1.00  0.00     0.022 A 
BRANCH  80  84
ATOM     84  S   UNL A   1      38.986  30.443  34.996  1.00  0.00     0.124 S 
ATOM     85  O   UNL A   1      38.306  29.643  33.985  1.00  0.00    -0.237 OA
ATOM     86  O   UNL A   1      39.896  29.715  35.876  1.00  0.00    -0.237 OA
ATOM     87  O   UNL A   1      38.162  31.434  35.684  1.00  0.00    -0.744 OA
ENDBRANCH  80  84
ENDBRANCH  53  77
BRANCH  65  88
ATOM     88  C   UNL A   1      45.419  24.892  32.917  1.00  0.00     0.023 A 
ATOM     89  C   UNL A   1      46.568  24.820  33.702  1.00  0.00     0.031 A 
ATOM     90  C   UNL A   1      44.595  23.727  32.959  1.00  0.00     0.131 A 
ATOM     91  C   UNL A   1      46.787  23.730  34.558  1.00  0.00     0.055 A 
ATOM     92  C   UNL A   1      44.901  22.579  33.690  1.00  0.00     0.041 A 
ATOM     93  F   UNL A   1      43.402  23.643  32.355  1.00  0.00    -0.206 F 
ATOM     94  C   UNL A   1      45.992  22.587  34.528  1.00  0.00     0.022 A 
BRANCH  91  95
ATOM     95  S   UNL A   1      48.048  23.915  35.831  1.00  0.00     0.124 S 
ATOM     96  O   UNL A   1      48.197  22.552  36.329  1.00  0.00    -0.237 OA
ATOM     97  O   UNL A   1      49.168  24.432  35.048  1.00  0.00    -0.237 OA
ATOM     98  O   UNL A   1      47.451  24.862  36.767  1.00  0.00    -0.744 OA
ENDBRANCH  91  95
ENDBRANCH  65  88
ENDBRANCH  39  40
ENDBRANCH  32  34
ENDBRANCH  31  32
ENDBRANCH  30  31
ENDBRANCH  29  30
ENDBRANCH  28  29
ENDBRANCH  27  28
ENDBRANCH   1  27
TORSDOF 24
ENDMDL
MODEL 3
REMARK VINA RESULT:     -10.3      2.608      4.377
REMARK SMILES Cc1ccc(O[C@H](C)C(=O)Nc2ccsc2C(=O)OCCOCCOCCOC(=O)c2ccc(-c3c4nc(c(-c5cc(S(=O)(=O)[O-])ccc5F)c5ccc([nH]5)c(-c5cc(S(=O)(=O)[O-])ccc5F)c5nc(c(-c6cc(S(=O)(=O)[O-])ccc6F)c6ccc3[nH]6)C=C5)C=C4)cc2)cc1
REMARK SMILES IDX 23 1 22 2 21 3 20 4 19 5 17 6 18 7 16 8 12 9 13 10 14 11
REMARK SMILES IDX 15 12 11 13 9 14 10 15 7 17 8 18 6 19 5 20 1 21 2 22 3 23
REMARK SMILES IDX 95 24 4 25 94 26 24 27 25 28 26 29 27 30 28 31 29 32 30 33
REMARK SMILES IDX 31 34 32 35 93 36 33 37 92 38 34 39 35 40 36 41 86 42 37 43
REMARK SMILES IDX 91 44 85 45 87 46 38 47 90 48 84 49 83 50 39 52 71 53 51 54
REMARK SMILES IDX 70 55 52 56 55 57 69 58 88 59 53 60 54 61 68 63 89 64 56 65
REMARK SMILES IDX 40 66 41 67 49 68 42 69 48 70 50 71 47 72 43 73 44 74 45 75
REMARK SMILES IDX 46 76 72 77 73 78 81 79 74 80 80 81 82 82 79 83 75 84 76 85
REMARK SMILES IDX 77 86 78 87 57 88 58 89 66 90 59 91 65 92 67 93 64 94 60 95
REMARK SMILES IDX 61 96 62 97 63 98
REMARK H PARENT 11 16 87 51 55 62
REMARK Flexibility Score: inf
ROOT
ATOM      1  C   UNL A   1      34.167  35.861  28.603  1.00  0.00     0.188 C 
ENDROOT
BRANCH   1   2
ATOM      2  O   UNL A   1      34.223  34.550  28.025  1.00  0.00    -0.376 OA
BRANCH   2   3
ATOM      3  C   UNL A   1      33.091  33.734  28.280  1.00  0.00     0.202 C 
BRANCH   3   4
ATOM      4  C   UNL A   1      32.291  33.363  27.019  1.00  0.00     0.261 C 
BRANCH   4   5
ATOM      5  O   UNL A   1      31.518  32.106  26.888  1.00  0.00    -0.459 OA
BRANCH   5   6
ATOM      6  C   UNL A   1      31.755  30.845  26.402  1.00  0.00     0.350 C 
ATOM      7  O   UNL A   1      32.576  30.133  26.975  1.00  0.00    -0.245 OA
BRANCH   6   8
ATOM      8  C   UNL A   1      30.749  30.288  25.119  1.00  0.00     0.136 A 
ATOM      9  C   UNL A   1      30.811  29.087  24.442  1.00  0.00     0.066 A 
ATOM     10  C   UNL A   1      29.840  28.946  23.383  1.00  0.00     0.039 A 
ATOM     11  C   UNL A   1      29.364  30.107  22.855  1.00  0.00     0.068 A 
ATOM     12  S   UNL A   1      29.538  31.279  23.997  1.00  0.00    -0.135 S 
BRANCH   9  13
ATOM     13  N   UNL A   1      31.737  28.170  24.852  1.00  0.00    -0.321 N 
ATOM     14  C   UNL A   1      32.670  27.564  24.064  1.00  0.00     0.265 C 
ATOM     15  O   UNL A   1      33.467  26.805  24.627  1.00  0.00    -0.270 OA
ATOM     16  H   UNL A   1      31.730  27.924  25.806  1.00  0.00     0.170 HD
BRANCH  14  17
ATOM     17  C   UNL A   1      32.748  27.809  22.530  1.00  0.00     0.259 C 
ATOM     18  C   UNL A   1      34.218  27.913  22.127  1.00  0.00     0.064 C 
BRANCH  17  19
ATOM     19  O   UNL A   1      31.920  26.851  21.856  1.00  0.00    -0.481 OA
BRANCH  19  20
ATOM     20  C   UNL A   1      31.955  25.508  22.115  1.00  0.00     0.120 A 
ATOM     21  C   UNL A   1      32.293  21.591  23.942  1.00  0.00     0.044 C 
ATOM     22  C   UNL A   1      32.119  22.917  23.267  1.00  0.00    -0.051 A 
ATOM     23  C   UNL A   1      33.096  23.379  22.382  1.00  0.00     0.007 A 
ATOM     24  C   UNL A   1      31.019  23.735  23.521  1.00  0.00     0.007 A 
ATOM     25  C   UNL A   1      33.005  24.653  21.804  1.00  0.00     0.047 A 
ATOM     26  C   UNL A   1      30.942  25.011  22.943  1.00  0.00     0.047 A 
ENDBRANCH  19  20
ENDBRANCH  17  19
ENDBRANCH  14  17
ENDBRANCH   9  13
ENDBRANCH   6   8
ENDBRANCH   5   6
ENDBRANCH   4   5
ENDBRANCH   3   4
ENDBRANCH   2   3
ENDBRANCH   1   2
BRANCH   1  27
ATOM     27  C   UNL A   1      32.824  36.052  29.278  1.00  0.00     0.188 C 
BRANCH  27  28
ATOM     28  O   UNL A   1      32.984  36.428  30.638  1.00  0.00    -0.376 OA
BRANCH  28  29
ATOM     29  C   UNL A   1      33.717  35.532  31.453  1.00  0.00     0.202 C 
BRANCH  29  30
ATOM     30  C   UNL A   1      32.996  35.005  32.713  1.00  0.00     0.261 C 
BRANCH  30  31
ATOM     31  O   UNL A   1      33.575  33.767  33.158  1.00  0.00    -0.460 OA
BRANCH  31  32
ATOM     32  C   UNL A   1      34.920  33.773  33.506  1.00  0.00     0.338 C 
ATOM     33  O   UNL A   1      35.372  34.157  34.531  1.00  0.00    -0.246 OA
BRANCH  32  34
ATOM     34  C   UNL A   1      35.655  33.201  32.322  1.00  0.00     0.060 A 
ATOM     35  C   UNL A   1      35.514  31.958  31.721  1.00  0.00     0.016 A 
ATOM     36  C   UNL A   1      36.723  33.894  31.898  1.00  0.00     0.016 A 
ATOM     37  C   UNL A   1      36.661  31.279  31.111  1.00  0.00     0.010 A 
ATOM     38  C   UNL A   1      37.755  33.204  31.276  1.00  0.00     0.010 A 
ATOM     39  C   UNL A   1      37.958  31.813  31.090  1.00  0.00    -0.014 A 
BRANCH  39  40
ATOM     40  C   UNL A   1      39.427  30.876  30.900  1.00  0.00     0.031 A 
ATOM     41  C   UNL A   1      39.951  29.329  30.190  1.00  0.00     0.074 A 
ATOM     42  C   UNL A   1      40.496  31.485  31.447  1.00  0.00     0.049 A 
ATOM     43  N   UNL A   1      40.807  28.479  30.740  1.00  0.00    -0.248 NA
ATOM     44  C   UNL A   1      39.480  28.547  28.936  1.00  0.00     0.031 C 
ATOM     45  C   UNL A   1      41.909  31.195  31.259  1.00  0.00     0.029 A 
ATOM     46  N   UNL A   1      40.494  32.563  32.317  1.00  0.00    -0.354 N 
ATOM     47  C   UNL A   1      40.931  27.411  29.809  1.00  0.00     0.074 A 
ATOM     48  C   UNL A   1      39.670  27.276  29.232  1.00  0.00     0.031 C 
ATOM     49  C   UNL A   1      42.624  31.928  32.127  1.00  0.00     0.029 A 
ATOM     50  C   UNL A   1      41.690  32.546  33.042  1.00  0.00     0.049 A 
ATOM     51  H   UNL A   1      39.774  33.227  32.409  1.00  0.00     0.167 HD
ATOM     52  C   UNL A   1      42.101  27.040  29.184  1.00  0.00     0.034 A 
ATOM     53  C   UNL A   1      41.586  32.310  34.383  1.00  0.00     0.034 A 
ATOM     54  C   UNL A   1      43.185  27.515  30.010  1.00  0.00     0.049 A 
ATOM     55  C   UNL A   1      42.020  30.865  34.698  1.00  0.00     0.074 A 
ATOM     56  C   UNL A   1      44.131  28.512  30.009  1.00  0.00     0.029 A 
ATOM     57  N   UNL A   1      43.087  27.108  31.312  1.00  0.00    -0.354 N 
ATOM     58  N   UNL A   1      42.700  30.099  33.872  1.00  0.00    -0.248 NA
ATOM     59  C   UNL A   1      41.702  30.146  35.930  1.00  0.00     0.031 C 
ATOM     60  C   UNL A   1      44.395  28.823  31.403  1.00  0.00     0.029 A 
ATOM     61  C   UNL A   1      43.654  27.967  32.209  1.00  0.00     0.049 A 
ATOM     62  H   UNL A   1      42.646  26.270  31.578  1.00  0.00     0.167 HD
ATOM     63  C   UNL A   1      42.758  28.809  34.331  1.00  0.00     0.074 A 
ATOM     64  C   UNL A   1      42.148  28.905  35.654  1.00  0.00     0.031 C 
ATOM     65  C   UNL A   1      43.248  27.746  33.602  1.00  0.00     0.034 A 
BRANCH  52  66
ATOM     66  C   UNL A   1      42.265  26.338  27.798  1.00  0.00     0.023 A 
ATOM     67  C   UNL A   1      42.654  24.981  27.801  1.00  0.00     0.031 A 
ATOM     68  C   UNL A   1      42.135  26.873  26.477  1.00  0.00     0.131 A 
ATOM     69  C   UNL A   1      42.901  24.257  26.604  1.00  0.00     0.055 A 
ATOM     70  C   UNL A   1      42.367  26.147  25.290  1.00  0.00     0.041 A 
ATOM     71  F   UNL A   1      41.811  28.139  26.203  1.00  0.00    -0.206 F 
ATOM     72  C   UNL A   1      42.762  24.832  25.347  1.00  0.00     0.022 A 
BRANCH  69  73
ATOM     73  S   UNL A   1      43.394  22.516  26.707  1.00  0.00     0.124 S 
ATOM     74  O   UNL A   1      42.671  22.068  27.892  1.00  0.00    -0.237 OA
ATOM     75  O   UNL A   1      42.935  21.993  25.426  1.00  0.00    -0.237 OA
ATOM     76  O   UNL A   1      44.848  22.581  26.860  1.00  0.00    -0.744 OA
ENDBRANCH  69  73
ENDBRANCH  52  66
BRANCH  53  77
ATOM     77  C   UNL A   1      40.496  33.207  34.953  1.00  0.00     0.023 A 
ATOM     78  C   UNL A   1      39.415  32.521  35.599  1.00  0.00     0.031 A 
ATOM     79  C   UNL A   1      40.648  34.561  35.281  1.00  0.00     0.131 A 
ATOM     80  C   UNL A   1      38.693  33.104  36.654  1.00  0.00     0.055 A 
ATOM     81  C   UNL A   1      39.843  35.177  36.268  1.00  0.00     0.041 A 
ATOM     82  F   UNL A   1      41.678  35.273  34.803  1.00  0.00    -0.206 F 
ATOM     83  C   UNL A   1      38.893  34.440  36.984  1.00  0.00     0.022 A 
BRANCH  80  84
ATOM     84  S   UNL A   1      37.730  32.058  37.804  1.00  0.00     0.124 S 
ATOM     85  O   UNL A   1      37.715  30.775  37.113  1.00  0.00    -0.237 OA
ATOM     86  O   UNL A   1      38.502  32.103  39.043  1.00  0.00    -0.237 OA
ATOM     87  O   UNL A   1      36.449  32.756  37.879  1.00  0.00    -0.744 OA
ENDBRANCH  80  84
ENDBRANCH  53  77
BRANCH  65  88
ATOM     88  C   UNL A   1      43.280  26.318  34.168  1.00  0.00     0.023 A 
ATOM     89  C   UNL A   1      44.461  25.586  34.075  1.00  0.00     0.031 A 
ATOM     90  C   UNL A   1      42.182  25.608  34.740  1.00  0.00     0.131 A 
ATOM     91  C   UNL A   1      44.560  24.305  34.637  1.00  0.00     0.055 A 
ATOM     92  C   UNL A   1      42.242  24.277  35.153  1.00  0.00     0.041 A 
ATOM     93  F   UNL A   1      40.995  26.170  35.008  1.00  0.00    -0.206 F 
ATOM     94  C   UNL A   1      43.452  23.622  35.134  1.00  0.00     0.022 A 
BRANCH  91  95
ATOM     95  S   UNL A   1      46.210  23.616  34.851  1.00  0.00     0.124 S 
ATOM     96  O   UNL A   1      47.037  24.526  34.067  1.00  0.00    -0.237 OA
ATOM     97  O   UNL A   1      46.368  23.702  36.300  1.00  0.00    -0.237 OA
ATOM     98  O   UNL A   1      46.087  22.263  34.315  1.00  0.00    -0.744 OA
ENDBRANCH  91  95
ENDBRANCH  65  88
ENDBRANCH  39  40
ENDBRANCH  32  34
ENDBRANCH  31  32
ENDBRANCH  30  31
ENDBRANCH  29  30
ENDBRANCH  28  29
ENDBRANCH  27  28
ENDBRANCH   1  27
TORSDOF 24
ENDMDL
