MODEL 1
REMARK VINA RESULT:     -10.1      0.000      0.000
REMARK SMILES O=C(OCCOCCOCCOC(=O)[C@H](F)Sc1cc2ccccc2[nH]1)c1ccc(-c2c3nc(c(-c4cc(S(=O)(=O)[O-])ccc4F)c4ccc([nH]4)c(-c4cc(S(=O)(=O)[O-])ccc4F)c4nc(c(-c5cc(S(=O)(=O)[O-])ccc5F)c5ccc2[nH]5)C=C4)C=C3)cc1
REMARK SMILES IDX 7 1 6 2 5 3 4 4 3 5 2 6 1 7 27 8 28 9 89 10 29 11 88 12
REMARK SMILES IDX 30 13 31 14 32 15 82 16 33 17 87 18 81 19 83 20 34 21 86 22
REMARK SMILES IDX 80 23 79 24 35 26 67 27 47 28 66 29 48 30 51 31 65 32 84 33
REMARK SMILES IDX 49 34 50 35 64 37 85 38 52 39 36 40 37 41 45 42 38 43 44 44
REMARK SMILES IDX 46 45 43 46 39 47 40 48 41 49 42 50 68 51 69 52 77 53 70 54
REMARK SMILES IDX 76 55 78 56 75 57 71 58 72 59 73 60 74 61 53 62 54 63 62 64
REMARK SMILES IDX 55 65 61 66 63 67 60 68 56 69 57 70 58 71 59 72 8 73 9 74
REMARK SMILES IDX 10 75 11 76 12 77 13 78 14 79 15 80 16 81 17 82 18 83 19 84
REMARK SMILES IDX 26 85 20 86 25 87 21 89 24 90 22 91 23 92
REMARK H PARENT 83 25 51 36 26 88
REMARK Flexibility Score: inf
ROOT
ATOM      1  C   UNL A   1      34.762  20.998  25.783  1.00  0.00     0.188 C 
ENDROOT
BRANCH   1   2
ATOM      2  O   UNL A   1      36.128  21.430  25.769  1.00  0.00    -0.376 OA
BRANCH   2   3
ATOM      3  C   UNL A   1      36.874  20.958  24.639  1.00  0.00     0.202 C 
BRANCH   3   4
ATOM      4  C   UNL A   1      38.064  20.029  24.945  1.00  0.00     0.261 C 
BRANCH   4   5
ATOM      5  O   UNL A   1      38.641  20.252  26.240  1.00  0.00    -0.460 OA
BRANCH   5   6
ATOM      6  C   UNL A   1      39.915  20.633  26.520  1.00  0.00     0.338 C 
ATOM      7  O   UNL A   1      40.785  19.763  26.563  1.00  0.00    -0.246 OA
BRANCH   6   8
ATOM      8  C   UNL A   1      40.312  22.048  26.818  1.00  0.00     0.060 A 
ATOM      9  C   UNL A   1      39.734  23.181  26.242  1.00  0.00     0.016 A 
ATOM     10  C   UNL A   1      41.291  22.248  27.808  1.00  0.00     0.016 A 
ATOM     11  C   UNL A   1      40.167  24.464  26.559  1.00  0.00     0.010 A 
ATOM     12  C   UNL A   1      41.697  23.537  28.173  1.00  0.00     0.010 A 
ATOM     13  C   UNL A   1      41.151  24.652  27.527  1.00  0.00    -0.014 A 
BRANCH  13  14
ATOM     14  C   UNL A   1      41.643  26.021  27.778  1.00  0.00     0.031 A 
ATOM     15  C   UNL A   1      42.959  26.427  27.190  1.00  0.00     0.074 A 
ATOM     16  C   UNL A   1      40.868  26.897  28.446  1.00  0.00     0.049 A 
ATOM     17  N   UNL A   1      43.612  27.549  27.319  1.00  0.00    -0.248 NA
ATOM     18  C   UNL A   1      43.626  25.435  26.332  1.00  0.00     0.031 C 
ATOM     19  C   UNL A   1      39.534  26.602  28.973  1.00  0.00     0.029 A 
ATOM     20  N   UNL A   1      41.078  28.207  28.788  1.00  0.00    -0.354 N 
ATOM     21  C   UNL A   1      44.783  27.389  26.587  1.00  0.00     0.074 A 
ATOM     22  C   UNL A   1      44.748  26.061  26.014  1.00  0.00     0.031 C 
ATOM     23  C   UNL A   1      39.040  27.704  29.562  1.00  0.00     0.029 A 
ATOM     24  C   UNL A   1      40.052  28.755  29.525  1.00  0.00     0.049 A 
ATOM     25  H   UNL A   1      41.886  28.708  28.532  1.00  0.00     0.167 HD
ATOM     26  C   UNL A   1      45.795  28.273  26.427  1.00  0.00     0.034 A 
ATOM     27  C   UNL A   1      39.972  29.952  30.141  1.00  0.00     0.034 A 
ATOM     28  C   UNL A   1      45.799  29.582  27.027  1.00  0.00     0.049 A 
ATOM     29  C   UNL A   1      41.160  30.879  30.029  1.00  0.00     0.074 A 
ATOM     30  C   UNL A   1      46.771  30.561  26.964  1.00  0.00     0.029 A 
ATOM     31  N   UNL A   1      44.774  30.086  27.820  1.00  0.00    -0.354 N 
ATOM     32  N   UNL A   1      42.275  30.712  29.349  1.00  0.00    -0.248 NA
ATOM     33  C   UNL A   1      41.096  32.140  30.776  1.00  0.00     0.031 C 
ATOM     34  C   UNL A   1      46.365  31.628  27.774  1.00  0.00     0.029 A 
ATOM     35  C   UNL A   1      45.109  31.343  28.290  1.00  0.00     0.049 A 
ATOM     36  H   UNL A   1      43.931  29.615  28.019  1.00  0.00     0.167 HD
ATOM     37  C   UNL A   1      43.040  31.848  29.588  1.00  0.00     0.074 A 
ATOM     38  C   UNL A   1      42.247  32.707  30.445  1.00  0.00     0.031 C 
ATOM     39  C   UNL A   1      44.288  32.159  29.152  1.00  0.00     0.034 A 
BRANCH  26  40
ATOM     40  C   UNL A   1      47.007  27.796  25.666  1.00  0.00     0.023 A 
ATOM     41  C   UNL A   1      47.197  28.090  24.304  1.00  0.00     0.031 A 
ATOM     42  C   UNL A   1      47.951  26.973  26.304  1.00  0.00     0.131 A 
ATOM     43  C   UNL A   1      48.268  27.506  23.610  1.00  0.00     0.055 A 
ATOM     44  C   UNL A   1      49.052  26.453  25.623  1.00  0.00     0.041 A 
ATOM     45  F   UNL A   1      47.801  26.637  27.595  1.00  0.00    -0.206 F 
ATOM     46  C   UNL A   1      49.209  26.707  24.264  1.00  0.00     0.022 A 
BRANCH  43  47
ATOM     47  S   UNL A   1      48.342  27.696  21.806  1.00  0.00     0.124 S 
ATOM     48  O   UNL A   1      47.018  28.239  21.511  1.00  0.00    -0.237 OA
ATOM     49  O   UNL A   1      49.460  28.615  21.629  1.00  0.00    -0.237 OA
ATOM     50  O   UNL A   1      48.570  26.334  21.326  1.00  0.00    -0.744 OA
ENDBRANCH  43  47
ENDBRANCH  26  40
BRANCH  27  51
ATOM     51  C   UNL A   1      38.794  30.306  30.992  1.00  0.00     0.023 A 
ATOM     52  C   UNL A   1      37.754  31.113  30.507  1.00  0.00     0.031 A 
ATOM     53  C   UNL A   1      38.725  29.890  32.337  1.00  0.00     0.131 A 
ATOM     54  C   UNL A   1      36.718  31.518  31.368  1.00  0.00     0.055 A 
ATOM     55  C   UNL A   1      37.662  30.243  33.170  1.00  0.00     0.041 A 
ATOM     56  F   UNL A   1      39.697  29.128  32.864  1.00  0.00    -0.206 F 
ATOM     57  C   UNL A   1      36.658  31.076  32.691  1.00  0.00     0.022 A 
BRANCH  54  58
ATOM     58  S   UNL A   1      35.508  32.730  30.766  1.00  0.00     0.124 S 
ATOM     59  O   UNL A   1      36.202  33.990  31.007  1.00  0.00    -0.237 OA
ATOM     60  O   UNL A   1      35.359  32.337  29.369  1.00  0.00    -0.237 OA
ATOM     61  O   UNL A   1      34.338  32.491  31.609  1.00  0.00    -0.744 OA
ENDBRANCH  54  58
ENDBRANCH  27  51
BRANCH  39  62
ATOM     62  C   UNL A   1      44.845  33.487  29.592  1.00  0.00     0.023 A 
ATOM     63  C   UNL A   1      44.572  34.664  28.875  1.00  0.00     0.031 A 
ATOM     64  C   UNL A   1      45.638  33.574  30.748  1.00  0.00     0.131 A 
ATOM     65  C   UNL A   1      45.125  35.879  29.302  1.00  0.00     0.055 A 
ATOM     66  C   UNL A   1      46.142  34.794  31.197  1.00  0.00     0.041 A 
ATOM     67  F   UNL A   1      45.923  32.475  31.465  1.00  0.00    -0.206 F 
ATOM     68  C   UNL A   1      45.893  35.954  30.468  1.00  0.00     0.022 A 
BRANCH  65  69
ATOM     69  S   UNL A   1      44.868  37.356  28.283  1.00  0.00     0.124 S 
ATOM     70  O   UNL A   1      44.878  38.419  29.283  1.00  0.00    -0.237 OA
ATOM     71  O   UNL A   1      46.013  37.319  27.380  1.00  0.00    -0.237 OA
ATOM     72  O   UNL A   1      43.572  37.112  27.649  1.00  0.00    -0.744 OA
ENDBRANCH  65  69
ENDBRANCH  39  62
ENDBRANCH  13  14
ENDBRANCH   6   8
ENDBRANCH   5   6
ENDBRANCH   4   5
ENDBRANCH   3   4
ENDBRANCH   2   3
ENDBRANCH   1   2
BRANCH   1  73
ATOM     73  C   UNL A   1      34.123  21.032  24.392  1.00  0.00     0.188 C 
BRANCH  73  74
ATOM     74  O   UNL A   1      33.583  22.280  23.956  1.00  0.00    -0.376 OA
BRANCH  74  75
ATOM     75  C   UNL A   1      34.468  23.163  23.274  1.00  0.00     0.202 C 
BRANCH  75  76
ATOM     76  C   UNL A   1      34.142  24.665  23.311  1.00  0.00     0.261 C 
BRANCH  76  77
ATOM     77  O   UNL A   1      34.144  25.293  22.022  1.00  0.00    -0.460 OA
BRANCH  77  78
ATOM     78  C   UNL A   1      32.917  25.533  21.454  1.00  0.00     0.351 C 
ATOM     79  O   UNL A   1      32.733  25.657  20.250  1.00  0.00    -0.248 OA
BRANCH  78  80
ATOM     80  C   UNL A   1      31.865  25.652  22.558  1.00  0.00     0.339 C 
ATOM     81  F   UNL A   1      30.986  24.601  22.552  1.00  0.00    -0.222 F 
BRANCH  80  82
ATOM     82  S   UNL A   1      30.901  27.188  22.494  1.00  0.00    -0.059 SA
BRANCH  82  83
ATOM     83  C   UNL A   1      31.542  28.163  23.774  1.00  0.00     0.077 A 
ATOM     84  C   UNL A   1      31.019  29.292  24.357  1.00  0.00     0.043 A 
ATOM     85  N   UNL A   1      32.749  27.901  24.359  1.00  0.00    -0.350 N 
ATOM     86  C   UNL A   1      31.905  29.688  25.395  1.00  0.00     0.001 A 
ATOM     87  C   UNL A   1      32.974  28.789  25.391  1.00  0.00     0.046 A 
ATOM     88  H   UNL A   1      33.366  27.185  24.086  1.00  0.00     0.167 HD
ATOM     89  C   UNL A   1      31.890  30.725  26.348  1.00  0.00     0.010 A 
ATOM     90  C   UNL A   1      34.027  28.870  26.311  1.00  0.00     0.027 A 
ATOM     91  C   UNL A   1      32.933  30.817  27.276  1.00  0.00     0.001 A 
ATOM     92  C   UNL A   1      33.981  29.899  27.259  1.00  0.00     0.002 A 
ENDBRANCH  82  83
ENDBRANCH  80  82
ENDBRANCH  78  80
ENDBRANCH  77  78
ENDBRANCH  76  77
ENDBRANCH  75  76
ENDBRANCH  74  75
ENDBRANCH  73  74
ENDBRANCH   1  73
TORSDOF 22
ENDMDL
MODEL 2
REMARK VINA RESULT:     -10.1      5.103      8.229
REMARK SMILES O=C(OCCOCCOCCOC(=O)[C@H](F)Sc1cc2ccccc2[nH]1)c1ccc(-c2c3nc(c(-c4cc(S(=O)(=O)[O-])ccc4F)c4ccc([nH]4)c(-c4cc(S(=O)(=O)[O-])ccc4F)c4nc(c(-c5cc(S(=O)(=O)[O-])ccc5F)c5ccc2[nH]5)C=C4)C=C3)cc1
REMARK SMILES IDX 7 1 6 2 5 3 4 4 3 5 2 6 1 7 27 8 28 9 89 10 29 11 88 12
REMARK SMILES IDX 30 13 31 14 32 15 82 16 33 17 87 18 81 19 83 20 34 21 86 22
REMARK SMILES IDX 80 23 79 24 35 26 67 27 47 28 66 29 48 30 51 31 65 32 84 33
REMARK SMILES IDX 49 34 50 35 64 37 85 38 52 39 36 40 37 41 45 42 38 43 44 44
REMARK SMILES IDX 46 45 43 46 39 47 40 48 41 49 42 50 68 51 69 52 77 53 70 54
REMARK SMILES IDX 76 55 78 56 75 57 71 58 72 59 73 60 74 61 53 62 54 63 62 64
REMARK SMILES IDX 55 65 61 66 63 67 60 68 56 69 57 70 58 71 59 72 8 73 9 74
REMARK SMILES IDX 10 75 11 76 12 77 13 78 14 79 15 80 16 81 17 82 18 83 19 84
REMARK SMILES IDX 26 85 20 86 25 87 21 89 24 90 22 91 23 92
REMARK H PARENT 83 25 51 36 26 88
REMARK Flexibility Score: inf
ROOT
ATOM      1  C   UNL A   1      33.502  29.263  25.839  1.00  0.00     0.188 C 
ENDROOT
BRANCH   1   2
ATOM      2  O   UNL A   1      33.336  30.518  26.510  1.00  0.00    -0.376 OA
BRANCH   2   3
ATOM      3  C   UNL A   1      31.988  30.787  26.914  1.00  0.00     0.202 C 
BRANCH   3   4
ATOM      4  C   UNL A   1      31.531  32.256  26.839  1.00  0.00     0.261 C 
BRANCH   4   5
ATOM      5  O   UNL A   1      32.618  33.193  26.900  1.00  0.00    -0.460 OA
BRANCH   5   6
ATOM      6  C   UNL A   1      33.219  33.685  28.014  1.00  0.00     0.338 C 
ATOM      7  O   UNL A   1      32.781  34.730  28.496  1.00  0.00    -0.246 OA
BRANCH   6   8
ATOM      8  C   UNL A   1      34.410  33.050  28.665  1.00  0.00     0.060 A 
ATOM      9  C   UNL A   1      34.360  31.968  29.546  1.00  0.00     0.016 A 
ATOM     10  C   UNL A   1      35.680  33.536  28.302  1.00  0.00     0.016 A 
ATOM     11  C   UNL A   1      35.510  31.441  30.123  1.00  0.00     0.010 A 
ATOM     12  C   UNL A   1      36.847  32.977  28.836  1.00  0.00     0.010 A 
ATOM     13  C   UNL A   1      36.762  31.940  29.772  1.00  0.00    -0.014 A 
BRANCH  13  14
ATOM     14  C   UNL A   1      37.954  31.412  30.465  1.00  0.00     0.031 A 
ATOM     15  C   UNL A   1      38.813  30.414  29.751  1.00  0.00     0.074 A 
ATOM     16  C   UNL A   1      38.293  31.898  31.674  1.00  0.00     0.049 A 
ATOM     17  N   UNL A   1      39.869  29.778  30.176  1.00  0.00    -0.248 NA
ATOM     18  C   UNL A   1      38.432  30.096  28.365  1.00  0.00     0.031 C 
ATOM     19  C   UNL A   1      37.556  32.937  32.396  1.00  0.00     0.029 A 
ATOM     20  N   UNL A   1      39.341  31.597  32.504  1.00  0.00    -0.354 N 
ATOM     21  C   UNL A   1      40.263  28.959  29.124  1.00  0.00     0.074 A 
ATOM     22  C   UNL A   1      39.332  29.182  28.039  1.00  0.00     0.031 C 
ATOM     23  C   UNL A   1      38.181  33.195  33.556  1.00  0.00     0.029 A 
ATOM     24  C   UNL A   1      39.315  32.286  33.696  1.00  0.00     0.049 A 
ATOM     25  H   UNL A   1      40.045  30.950  32.271  1.00  0.00     0.167 HD
ATOM     26  C   UNL A   1      41.301  28.091  29.084  1.00  0.00     0.034 A 
ATOM     27  C   UNL A   1      40.090  32.150  34.792  1.00  0.00     0.034 A 
ATOM     28  C   UNL A   1      42.198  27.887  30.192  1.00  0.00     0.049 A 
ATOM     29  C   UNL A   1      41.178  31.103  34.755  1.00  0.00     0.074 A 
ATOM     30  C   UNL A   1      43.271  27.022  30.289  1.00  0.00     0.029 A 
ATOM     31  N   UNL A   1      42.108  28.553  31.409  1.00  0.00    -0.354 N 
ATOM     32  N   UNL A   1      41.533  30.317  33.761  1.00  0.00    -0.248 NA
ATOM     33  C   UNL A   1      41.956  30.906  35.984  1.00  0.00     0.031 C 
ATOM     34  C   UNL A   1      43.787  27.116  31.587  1.00  0.00     0.029 A 
ATOM     35  C   UNL A   1      43.078  28.087  32.280  1.00  0.00     0.049 A 
ATOM     36  H   UNL A   1      41.449  29.254  31.621  1.00  0.00     0.167 HD
ATOM     37  C   UNL A   1      42.576  29.536  34.247  1.00  0.00     0.074 A 
ATOM     38  C   UNL A   1      42.815  29.969  35.610  1.00  0.00     0.031 C 
ATOM     39  C   UNL A   1      43.272  28.544  33.635  1.00  0.00     0.034 A 
BRANCH  26  40
ATOM     40  C   UNL A   1      41.436  27.240  27.847  1.00  0.00     0.023 A 
ATOM     41  C   UNL A   1      41.050  25.888  27.823  1.00  0.00     0.031 A 
ATOM     42  C   UNL A   1      42.029  27.779  26.692  1.00  0.00     0.131 A 
ATOM     43  C   UNL A   1      41.327  25.106  26.691  1.00  0.00     0.055 A 
ATOM     44  C   UNL A   1      42.238  27.013  25.545  1.00  0.00     0.041 A 
ATOM     45  F   UNL A   1      42.444  29.056  26.671  1.00  0.00    -0.206 F 
ATOM     46  C   UNL A   1      41.898  25.663  25.544  1.00  0.00     0.022 A 
BRANCH  43  47
ATOM     47  S   UNL A   1      41.052  23.314  26.784  1.00  0.00     0.124 S 
ATOM     48  O   UNL A   1      41.986  22.819  25.776  1.00  0.00    -0.237 OA
ATOM     49  O   UNL A   1      41.391  23.012  28.170  1.00  0.00    -0.237 OA
ATOM     50  O   UNL A   1      39.639  23.165  26.441  1.00  0.00    -0.744 OA
ENDBRANCH  43  47
ENDBRANCH  26  40
BRANCH  27  51
ATOM     51  C   UNL A   1      39.814  32.935  36.035  1.00  0.00     0.023 A 
ATOM     52  C   UNL A   1      38.957  32.450  37.035  1.00  0.00     0.031 A 
ATOM     53  C   UNL A   1      40.357  34.223  36.209  1.00  0.00     0.131 A 
ATOM     54  C   UNL A   1      38.632  33.262  38.136  1.00  0.00     0.055 A 
ATOM     55  C   UNL A   1      40.081  35.000  37.336  1.00  0.00     0.041 A 
ATOM     56  F   UNL A   1      41.172  34.750  35.281  1.00  0.00    -0.206 F 
ATOM     57  C   UNL A   1      39.200  34.527  38.301  1.00  0.00     0.022 A 
BRANCH  54  58
ATOM     58  S   UNL A   1      37.361  32.686  39.298  1.00  0.00     0.124 S 
ATOM     59  O   UNL A   1      37.487  33.655  40.382  1.00  0.00    -0.237 OA
ATOM     60  O   UNL A   1      36.150  32.782  38.491  1.00  0.00    -0.237 OA
ATOM     61  O   UNL A   1      37.788  31.327  39.625  1.00  0.00    -0.744 OA
ENDBRANCH  54  58
ENDBRANCH  27  51
BRANCH  39  62
ATOM     62  C   UNL A   1      44.357  27.884  34.443  1.00  0.00     0.023 A 
ATOM     63  C   UNL A   1      44.124  26.681  35.131  1.00  0.00     0.031 A 
ATOM     64  C   UNL A   1      45.639  28.456  34.508  1.00  0.00     0.131 A 
ATOM     65  C   UNL A   1      45.153  26.106  35.890  1.00  0.00     0.055 A 
ATOM     66  C   UNL A   1      46.672  27.851  35.223  1.00  0.00     0.041 A 
ATOM     67  F   UNL A   1      45.908  29.604  33.865  1.00  0.00    -0.206 F 
ATOM     68  C   UNL A   1      46.430  26.674  35.925  1.00  0.00     0.022 A 
BRANCH  65  69
ATOM     69  S   UNL A   1      44.784  24.629  36.874  1.00  0.00     0.124 S 
ATOM     70  O   UNL A   1      44.162  25.205  38.062  1.00  0.00    -0.237 OA
ATOM     71  O   UNL A   1      43.900  23.875  35.992  1.00  0.00    -0.237 OA
ATOM     72  O   UNL A   1      46.099  24.027  37.092  1.00  0.00    -0.744 OA
ENDBRANCH  65  69
ENDBRANCH  39  62
ENDBRANCH  13  14
ENDBRANCH   6   8
ENDBRANCH   5   6
ENDBRANCH   4   5
ENDBRANCH   3   4
ENDBRANCH   2   3
ENDBRANCH   1   2
BRANCH   1  73
ATOM     73  C   UNL A   1      32.646  28.152  26.455  1.00  0.00     0.188 C 
BRANCH  73  74
ATOM     74  O   UNL A   1      32.334  27.035  25.621  1.00  0.00    -0.376 OA
BRANCH  74  75
ATOM     75  C   UNL A   1      32.164  25.777  26.265  1.00  0.00     0.202 C 
BRANCH  75  76
ATOM     76  C   UNL A   1      32.426  24.511  25.432  1.00  0.00     0.261 C 
BRANCH  76  77
ATOM     77  O   UNL A   1      32.046  24.632  24.055  1.00  0.00    -0.460 OA
BRANCH  77  78
ATOM     78  C   UNL A   1      33.061  24.845  23.155  1.00  0.00     0.351 C 
ATOM     79  O   UNL A   1      34.171  24.333  23.242  1.00  0.00    -0.248 OA
BRANCH  78  80
ATOM     80  C   UNL A   1      32.590  25.831  22.085  1.00  0.00     0.339 C 
ATOM     81  F   UNL A   1      33.136  25.565  20.858  1.00  0.00    -0.222 F 
BRANCH  80  82
ATOM     82  S   UNL A   1      32.929  27.569  22.485  1.00  0.00    -0.059 SA
BRANCH  82  83
ATOM     83  C   UNL A   1      31.365  28.286  22.689  1.00  0.00     0.077 A 
ATOM     84  C   UNL A   1      30.121  27.717  22.564  1.00  0.00     0.043 A 
ATOM     85  N   UNL A   1      31.201  29.609  22.990  1.00  0.00    -0.350 N 
ATOM     86  C   UNL A   1      29.160  28.715  22.880  1.00  0.00     0.001 A 
ATOM     87  C   UNL A   1      29.861  29.889  23.164  1.00  0.00     0.046 A 
ATOM     88  H   UNL A   1      31.930  30.265  23.071  1.00  0.00     0.167 HD
ATOM     89  C   UNL A   1      27.754  28.723  22.963  1.00  0.00     0.010 A 
ATOM     90  C   UNL A   1      29.219  31.074  23.544  1.00  0.00     0.027 A 
ATOM     91  C   UNL A   1      27.098  29.899  23.345  1.00  0.00     0.001 A 
ATOM     92  C   UNL A   1      27.822  31.053  23.635  1.00  0.00     0.002 A 
ENDBRANCH  82  83
ENDBRANCH  80  82
ENDBRANCH  78  80
ENDBRANCH  77  78
ENDBRANCH  76  77
ENDBRANCH  75  76
ENDBRANCH  74  75
ENDBRANCH  73  74
ENDBRANCH   1  73
TORSDOF 22
ENDMDL
MODEL 3
REMARK VINA RESULT:      -9.9      5.522      9.364
REMARK SMILES O=C(OCCOCCOCCOC(=O)[C@H](F)Sc1cc2ccccc2[nH]1)c1ccc(-c2c3nc(c(-c4cc(S(=O)(=O)[O-])ccc4F)c4ccc([nH]4)c(-c4cc(S(=O)(=O)[O-])ccc4F)c4nc(c(-c5cc(S(=O)(=O)[O-])ccc5F)c5ccc2[nH]5)C=C4)C=C3)cc1
REMARK SMILES IDX 7 1 6 2 5 3 4 4 3 5 2 6 1 7 27 8 28 9 89 10 29 11 88 12
REMARK SMILES IDX 30 13 31 14 32 15 82 16 33 17 87 18 81 19 83 20 34 21 86 22
REMARK SMILES IDX 80 23 79 24 35 26 67 27 47 28 66 29 48 30 51 31 65 32 84 33
REMARK SMILES IDX 49 34 50 35 64 37 85 38 52 39 36 40 37 41 45 42 38 43 44 44
REMARK SMILES IDX 46 45 43 46 39 47 40 48 41 49 42 50 68 51 69 52 77 53 70 54
REMARK SMILES IDX 76 55 78 56 75 57 71 58 72 59 73 60 74 61 53 62 54 63 62 64
REMARK SMILES IDX 55 65 61 66 63 67 60 68 56 69 57 70 58 71 59 72 8 73 9 74
REMARK SMILES IDX 10 75 11 76 12 77 13 78 14 79 15 80 16 81 17 82 18 83 19 84
REMARK SMILES IDX 26 85 20 86 25 87 21 89 24 90 22 91 23 92
REMARK H PARENT 83 25 51 36 26 88
REMARK Flexibility Score: inf
ROOT
ATOM      1  C   UNL A   1      34.565  29.663  27.379  1.00  0.00     0.188 C 
ENDROOT
BRANCH   1   2
ATOM      2  O   UNL A   1      34.344  31.040  27.704  1.00  0.00    -0.376 OA
BRANCH   2   3
ATOM      3  C   UNL A   1      32.995  31.477  27.495  1.00  0.00     0.202 C 
BRANCH   3   4
ATOM      4  C   UNL A   1      32.813  32.923  26.997  1.00  0.00     0.261 C 
BRANCH   4   5
ATOM      5  O   UNL A   1      32.349  33.821  28.017  1.00  0.00    -0.460 OA
BRANCH   5   6
ATOM      6  C   UNL A   1      33.104  34.609  28.825  1.00  0.00     0.338 C 
ATOM      7  O   UNL A   1      32.770  35.786  28.966  1.00  0.00    -0.246 OA
BRANCH   6   8
ATOM      8  C   UNL A   1      34.343  34.137  29.525  1.00  0.00     0.060 A 
ATOM      9  C   UNL A   1      35.648  34.386  29.098  1.00  0.00     0.016 A 
ATOM     10  C   UNL A   1      34.175  33.453  30.743  1.00  0.00     0.016 A 
ATOM     11  C   UNL A   1      36.751  33.901  29.793  1.00  0.00     0.010 A 
ATOM     12  C   UNL A   1      35.280  33.007  31.479  1.00  0.00     0.010 A 
ATOM     13  C   UNL A   1      36.575  33.209  30.989  1.00  0.00    -0.014 A 
BRANCH  13  14
ATOM     14  C   UNL A   1      37.762  32.639  31.657  1.00  0.00     0.031 A 
ATOM     15  C   UNL A   1      38.500  31.526  30.978  1.00  0.00     0.074 A 
ATOM     16  C   UNL A   1      38.207  33.182  32.806  1.00  0.00     0.049 A 
ATOM     17  N   UNL A   1      39.528  30.840  31.394  1.00  0.00    -0.248 NA
ATOM     18  C   UNL A   1      38.016  31.140  29.642  1.00  0.00     0.031 C 
ATOM     19  C   UNL A   1      37.593  34.326  33.484  1.00  0.00     0.029 A 
ATOM     20  N   UNL A   1      39.275  32.860  33.600  1.00  0.00    -0.354 N 
ATOM     21  C   UNL A   1      39.797  29.918  30.389  1.00  0.00     0.074 A 
ATOM     22  C   UNL A   1      38.824  30.137  29.341  1.00  0.00     0.031 C 
ATOM     23  C   UNL A   1      38.303  34.617  34.587  1.00  0.00     0.029 A 
ATOM     24  C   UNL A   1      39.371  33.633  34.736  1.00  0.00     0.049 A 
ATOM     25  H   UNL A   1      39.913  32.143  33.381  1.00  0.00     0.167 HD
ATOM     26  C   UNL A   1      40.762  28.970  30.361  1.00  0.00     0.034 A 
ATOM     27  C   UNL A   1      40.196  33.515  35.797  1.00  0.00     0.034 A 
ATOM     28  C   UNL A   1      41.704  28.776  31.433  1.00  0.00     0.049 A 
ATOM     29  C   UNL A   1      41.198  32.385  35.783  1.00  0.00     0.074 A 
ATOM     30  C   UNL A   1      42.713  27.838  31.539  1.00  0.00     0.029 A 
ATOM     31  N   UNL A   1      41.736  29.533  32.598  1.00  0.00    -0.354 N 
ATOM     32  N   UNL A   1      41.434  31.503  34.835  1.00  0.00    -0.248 NA
ATOM     33  C   UNL A   1      42.030  32.216  36.981  1.00  0.00     0.031 C 
ATOM     34  C   UNL A   1      43.309  27.984  32.797  1.00  0.00     0.029 A 
ATOM     35  C   UNL A   1      42.717  29.056  33.450  1.00  0.00     0.049 A 
ATOM     36  H   UNL A   1      41.146  30.298  32.790  1.00  0.00     0.167 HD
ATOM     37  C   UNL A   1      42.442  30.679  35.324  1.00  0.00     0.074 A 
ATOM     38  C   UNL A   1      42.792  31.188  36.635  1.00  0.00     0.031 C 
ATOM     39  C   UNL A   1      43.024  29.592  34.754  1.00  0.00     0.034 A 
BRANCH  26  40
ATOM     40  C   UNL A   1      40.760  28.024  29.187  1.00  0.00     0.023 A 
ATOM     41  C   UNL A   1      41.686  28.137  28.134  1.00  0.00     0.031 A 
ATOM     42  C   UNL A   1      39.765  27.036  29.090  1.00  0.00     0.131 A 
ATOM     43  C   UNL A   1      41.553  27.322  27.000  1.00  0.00     0.055 A 
ATOM     44  C   UNL A   1      39.682  26.182  27.990  1.00  0.00     0.041 A 
ATOM     45  F   UNL A   1      38.839  26.905  30.052  1.00  0.00    -0.206 F 
ATOM     46  C   UNL A   1      40.570  26.330  26.929  1.00  0.00     0.022 A 
BRANCH  43  47
ATOM     47  S   UNL A   1      42.599  27.661  25.556  1.00  0.00     0.124 S 
ATOM     48  O   UNL A   1      42.425  26.441  24.772  1.00  0.00    -0.237 OA
ATOM     49  O   UNL A   1      41.992  28.867  25.002  1.00  0.00    -0.237 OA
ATOM     50  O   UNL A   1      43.931  27.841  26.131  1.00  0.00    -0.744 OA
ENDBRANCH  43  47
ENDBRANCH  26  40
BRANCH  27  51
ATOM     51  C   UNL A   1      40.053  34.407  36.989  1.00  0.00     0.023 A 
ATOM     52  C   UNL A   1      39.455  33.957  38.176  1.00  0.00     0.031 A 
ATOM     53  C   UNL A   1      40.456  35.756  36.932  1.00  0.00     0.131 A 
ATOM     54  C   UNL A   1      39.235  34.854  39.237  1.00  0.00     0.055 A 
ATOM     55  C   UNL A   1      40.293  36.627  38.011  1.00  0.00     0.041 A 
ATOM     56  F   UNL A   1      41.021  36.251  35.819  1.00  0.00    -0.206 F 
ATOM     57  C   UNL A   1      39.664  36.181  39.167  1.00  0.00     0.022 A 
BRANCH  54  58
ATOM     58  S   UNL A   1      38.274  34.290  40.670  1.00  0.00     0.124 S 
ATOM     59  O   UNL A   1      39.298  33.633  41.476  1.00  0.00    -0.237 OA
ATOM     60  O   UNL A   1      37.753  35.547  41.196  1.00  0.00    -0.237 OA
ATOM     61  O   UNL A   1      37.277  33.398  40.082  1.00  0.00    -0.744 OA
ENDBRANCH  54  58
ENDBRANCH  27  51
BRANCH  39  62
ATOM     62  C   UNL A   1      44.102  28.909  35.552  1.00  0.00     0.023 A 
ATOM     63  C   UNL A   1      43.816  27.790  36.353  1.00  0.00     0.031 A 
ATOM     64  C   UNL A   1      45.427  29.370  35.494  1.00  0.00     0.131 A 
ATOM     65  C   UNL A   1      44.840  27.191  37.099  1.00  0.00     0.055 A 
ATOM     66  C   UNL A   1      46.452  28.738  36.197  1.00  0.00     0.041 A 
ATOM     67  F   UNL A   1      45.747  30.434  34.740  1.00  0.00    -0.206 F 
ATOM     68  C   UNL A   1      46.159  27.647  37.012  1.00  0.00     0.022 A 
BRANCH  65  69
ATOM     69  S   UNL A   1      44.417  25.837  38.226  1.00  0.00     0.124 S 
ATOM     70  O   UNL A   1      45.679  25.109  38.313  1.00  0.00    -0.237 OA
ATOM     71  O   UNL A   1      44.006  26.547  39.432  1.00  0.00    -0.237 OA
ATOM     72  O   UNL A   1      43.341  25.134  37.527  1.00  0.00    -0.744 OA
ENDBRANCH  65  69
ENDBRANCH  39  62
ENDBRANCH  13  14
ENDBRANCH   6   8
ENDBRANCH   5   6
ENDBRANCH   4   5
ENDBRANCH   3   4
ENDBRANCH   2   3
ENDBRANCH   1   2
BRANCH   1  73
ATOM     73  C   UNL A   1      33.406  29.055  26.584  1.00  0.00     0.188 C 
BRANCH  73  74
ATOM     74  O   UNL A   1      33.743  28.295  25.423  1.00  0.00    -0.376 OA
BRANCH  74  75
ATOM     75  C   UNL A   1      32.819  28.326  24.340  1.00  0.00     0.202 C 
BRANCH  75  76
ATOM     76  C   UNL A   1      32.192  26.993  23.902  1.00  0.00     0.261 C 
BRANCH  76  77
ATOM     77  O   UNL A   1      33.075  25.870  24.014  1.00  0.00    -0.460 OA
BRANCH  77  78
ATOM     78  C   UNL A   1      33.610  25.392  22.842  1.00  0.00     0.351 C 
ATOM     79  O   UNL A   1      33.778  26.073  21.839  1.00  0.00    -0.248 OA
BRANCH  78  80
ATOM     80  C   UNL A   1      33.911  23.900  22.997  1.00  0.00     0.339 C 
ATOM     81  F   UNL A   1      33.369  23.154  21.984  1.00  0.00    -0.222 F 
BRANCH  80  82
ATOM     82  S   UNL A   1      33.352  23.195  24.573  1.00  0.00    -0.059 SA
BRANCH  82  83
ATOM     83  C   UNL A   1      33.582  21.487  24.397  1.00  0.00     0.077 A 
ATOM     84  C   UNL A   1      34.636  20.703  24.800  1.00  0.00     0.043 A 
ATOM     85  N   UNL A   1      32.676  20.689  23.759  1.00  0.00    -0.350 N 
ATOM     86  C   UNL A   1      34.322  19.358  24.464  1.00  0.00     0.001 A 
ATOM     87  C   UNL A   1      33.078  19.371  23.829  1.00  0.00     0.046 A 
ATOM     88  H   UNL A   1      31.857  21.006  23.315  1.00  0.00     0.167 HD
ATOM     89  C   UNL A   1      34.979  18.127  24.653  1.00  0.00     0.010 A 
ATOM     90  C   UNL A   1      32.449  18.200  23.386  1.00  0.00     0.027 A 
ATOM     91  C   UNL A   1      34.362  16.948  24.219  1.00  0.00     0.001 A 
ATOM     92  C   UNL A   1      33.114  16.987  23.600  1.00  0.00     0.002 A 
ENDBRANCH  82  83
ENDBRANCH  80  82
ENDBRANCH  78  80
ENDBRANCH  77  78
ENDBRANCH  76  77
ENDBRANCH  75  76
ENDBRANCH  74  75
ENDBRANCH  73  74
ENDBRANCH   1  73
TORSDOF 22
ENDMDL
