MODEL 1
REMARK VINA RESULT:     -10.4      0.000      0.000
REMARK SMILES COc1cccc(-c2nn(-c3cc4c(cc3C(N)=O)OCO4)cc2C(=O)OCCOCCOCCOC(=O)c2ccc(-c3c4nc(c(-c5cc(S(=O)(=O)[O-])ccc5F)c5ccc([nH]5)c(-c5cc(S(=O)(=O)[O-])ccc5F)c5nc(c(-c6cc(S(=O)(=O)[O-])ccc6F)c6ccc3[nH]6)C=C5)C=C4)cc2)c1
REMARK SMILES IDX 32 1 31 2 30 3 29 4 28 5 27 6 25 7 26 8 24 9 8 10 9 11 10 12
REMARK SMILES IDX 23 13 7 14 3 15 4 16 102 17 5 18 6 19 2 20 1 21 11 22 12 23
REMARK SMILES IDX 16 24 13 25 15 26 14 27 22 28 20 29 21 30 17 31 18 32 19 33
REMARK SMILES IDX 33 36 34 37 35 38 36 39 37 40 38 41 39 42 40 43 101 44 41 45
REMARK SMILES IDX 100 46 42 47 43 48 44 49 94 50 45 51 99 52 93 53 95 54 46 55
REMARK SMILES IDX 98 56 92 57 91 58 47 60 79 61 59 62 78 63 60 64 63 65 77 66
REMARK SMILES IDX 96 67 61 68 62 69 76 71 97 72 64 73 48 74 49 75 57 76 50 77
REMARK SMILES IDX 56 78 58 79 55 80 51 81 52 82 53 83 54 84 80 85 81 86 89 87
REMARK SMILES IDX 82 88 88 89 90 90 87 91 83 92 84 93 85 94 86 95 65 96 66 97
REMARK SMILES IDX 74 98 67 99 73 100 75 101 72 102 68 103 69 104 70 105 71 106
REMARK H PARENT 18 34 18 35 95 59 63 70
REMARK Flexibility Score: inf
ROOT
ATOM      1  C   UNL A   1      38.806  24.128  26.670  1.00  0.00     0.188 C 
ENDROOT
BRANCH   1   2
ATOM      2  C   UNL A   1      37.419  23.569  26.295  1.00  0.00     0.188 C 
BRANCH   2   3
ATOM      3  O   UNL A   1      37.382  22.789  25.126  1.00  0.00    -0.376 OA
BRANCH   3   4
ATOM      4  C   UNL A   1      37.060  23.380  23.880  1.00  0.00     0.202 C 
BRANCH   4   5
ATOM      5  C   UNL A   1      35.893  22.971  22.955  1.00  0.00     0.261 C 
BRANCH   5   6
ATOM      6  O   UNL A   1      34.812  23.883  22.774  1.00  0.00    -0.460 OA
BRANCH   6   7
ATOM      7  C   UNL A   1      33.615  23.340  22.379  1.00  0.00     0.342 C 
ATOM      8  O   UNL A   1      33.026  23.637  21.360  1.00  0.00    -0.246 OA
BRANCH   7   9
ATOM      9  C   UNL A   1      33.181  22.294  23.286  1.00  0.00     0.106 A 
ATOM     10  C   UNL A   1      32.611  22.395  24.588  1.00  0.00     0.107 A 
ATOM     11  N   UNL A   1      32.409  21.176  25.126  1.00  0.00    -0.167 NA
ATOM     12  N   UNL A   1      32.991  20.337  24.234  1.00  0.00    -0.239 N 
ATOM     13  C   UNL A   1      33.147  20.945  23.016  1.00  0.00     0.131 A 
BRANCH  10  14
ATOM     14  C   UNL A   1      32.175  23.612  25.259  1.00  0.00     0.007 A 
ATOM     15  C   UNL A   1      32.660  25.820  26.133  1.00  0.00     0.119 A 
ATOM     16  C   UNL A   1      31.300  26.002  26.399  1.00  0.00     0.046 A 
ATOM     17  C   UNL A   1      33.097  24.626  25.551  1.00  0.00     0.056 A 
ATOM     18  C   UNL A   1      30.379  24.995  26.120  1.00  0.00     0.005 A 
ATOM     19  C   UNL A   1      30.821  23.793  25.574  1.00  0.00     0.011 A 
BRANCH  15  20
ATOM     20  O   UNL A   1      33.454  26.866  26.513  1.00  0.00    -0.497 OA
ATOM     21  C   UNL A   1      32.815  28.119  26.709  1.00  0.00     0.278 C 
ENDBRANCH  15  20
ENDBRANCH  10  14
BRANCH  12  22
ATOM     22  C   UNL A   1      33.345  19.003  24.561  1.00  0.00     0.081 A 
ATOM     23  C   UNL A   1      32.308  18.064  24.734  1.00  0.00     0.079 A 
ATOM     24  C   UNL A   1      34.713  18.620  24.715  1.00  0.00     0.069 A 
ATOM     25  C   UNL A   1      32.671  16.757  24.983  1.00  0.00     0.167 A 
ATOM     26  C   UNL A   1      35.024  17.256  24.834  1.00  0.00     0.066 A 
ATOM     27  C   UNL A   1      33.988  16.365  24.996  1.00  0.00     0.166 A 
ATOM     28  O   UNL A   1      31.836  15.720  25.260  1.00  0.00    -0.454 OA
ATOM     29  O   UNL A   1      34.141  15.043  25.275  1.00  0.00    -0.454 OA
ATOM     30  C   UNL A   1      32.789  14.710  25.652  1.00  0.00     0.468 C 
BRANCH  24  31
ATOM     31  C   UNL A   1      35.796  19.624  25.037  1.00  0.00     0.251 C 
ATOM     32  N   UNL A   1      35.486  20.721  25.791  1.00  0.00    -0.366 N 
ATOM     33  O   UNL A   1      36.930  19.586  24.580  1.00  0.00    -0.269 OA
ATOM     34  H   UNL A   1      34.588  20.809  26.185  1.00  0.00     0.159 HD
ATOM     35  H   UNL A   1      36.160  21.423  25.938  1.00  0.00     0.159 HD
ENDBRANCH  24  31
ENDBRANCH  12  22
ENDBRANCH   7   9
ENDBRANCH   6   7
ENDBRANCH   5   6
ENDBRANCH   4   5
ENDBRANCH   3   4
ENDBRANCH   2   3
ENDBRANCH   1   2
BRANCH   1  36
ATOM     36  O   UNL A   1      39.991  23.373  26.486  1.00  0.00    -0.376 OA
BRANCH  36  37
ATOM     37  C   UNL A   1      40.279  22.227  27.269  1.00  0.00     0.202 C 
BRANCH  37  38
ATOM     38  C   UNL A   1      41.399  21.248  26.931  1.00  0.00     0.261 C 
BRANCH  38  39
ATOM     39  O   UNL A   1      41.951  21.388  25.641  1.00  0.00    -0.460 OA
BRANCH  39  40
ATOM     40  C   UNL A   1      43.295  21.282  25.607  1.00  0.00     0.338 C 
ATOM     41  O   UNL A   1      43.953  20.252  25.556  1.00  0.00    -0.246 OA
BRANCH  40  42
ATOM     42  C   UNL A   1      43.856  22.626  25.737  1.00  0.00     0.060 A 
ATOM     43  C   UNL A   1      44.660  22.860  26.853  1.00  0.00     0.016 A 
ATOM     44  C   UNL A   1      43.263  23.662  25.003  1.00  0.00     0.016 A 
ATOM     45  C   UNL A   1      44.614  24.113  27.414  1.00  0.00     0.010 A 
ATOM     46  C   UNL A   1      43.185  24.896  25.587  1.00  0.00     0.010 A 
ATOM     47  C   UNL A   1      43.774  25.069  26.836  1.00  0.00    -0.014 A 
BRANCH  47  48
ATOM     48  C   UNL A   1      43.613  26.342  27.497  1.00  0.00     0.031 A 
ATOM     49  C   UNL A   1      44.689  27.271  27.107  1.00  0.00     0.074 A 
ATOM     50  C   UNL A   1      42.550  26.641  28.267  1.00  0.00     0.049 A 
ATOM     51  N   UNL A   1      45.739  27.566  27.795  1.00  0.00    -0.248 NA
ATOM     52  C   UNL A   1      44.763  27.690  25.695  1.00  0.00     0.031 C 
ATOM     53  C   UNL A   1      41.340  25.851  28.502  1.00  0.00     0.029 A 
ATOM     54  N   UNL A   1      42.296  27.785  28.954  1.00  0.00    -0.354 N 
ATOM     55  C   UNL A   1      46.439  28.463  27.003  1.00  0.00     0.074 A 
ATOM     56  C   UNL A   1      45.976  28.243  25.663  1.00  0.00     0.031 C 
ATOM     57  C   UNL A   1      40.398  26.636  29.080  1.00  0.00     0.029 A 
ATOM     58  C   UNL A   1      40.973  27.942  29.365  1.00  0.00     0.049 A 
ATOM     59  H   UNL A   1      42.992  28.453  29.146  1.00  0.00     0.167 HD
ATOM     60  C   UNL A   1      47.043  29.544  27.564  1.00  0.00     0.034 A 
ATOM     61  C   UNL A   1      40.399  29.088  29.836  1.00  0.00     0.034 A 
ATOM     62  C   UNL A   1      47.216  29.343  28.992  1.00  0.00     0.049 A 
ATOM     63  C   UNL A   1      41.516  29.942  30.330  1.00  0.00     0.074 A 
ATOM     64  C   UNL A   1      47.824  28.367  29.760  1.00  0.00     0.029 A 
ATOM     65  N   UNL A   1      46.359  30.004  29.848  1.00  0.00    -0.354 N 
ATOM     66  N   UNL A   1      42.260  29.613  31.353  1.00  0.00    -0.248 NA
ATOM     67  C   UNL A   1      42.140  30.857  29.385  1.00  0.00     0.031 C 
ATOM     68  C   UNL A   1      46.951  28.173  30.872  1.00  0.00     0.029 A 
ATOM     69  C   UNL A   1      45.914  29.104  30.786  1.00  0.00     0.049 A 
ATOM     70  H   UNL A   1      46.109  30.955  29.795  1.00  0.00     0.167 HD
ATOM     71  C   UNL A   1      43.560  29.901  30.961  1.00  0.00     0.074 A 
ATOM     72  C   UNL A   1      43.416  30.741  29.771  1.00  0.00     0.031 C 
ATOM     73  C   UNL A   1      44.621  29.188  31.446  1.00  0.00     0.034 A 
BRANCH  60  74
ATOM     74  C   UNL A   1      47.058  30.919  26.929  1.00  0.00     0.023 A 
ATOM     75  C   UNL A   1      48.303  31.565  26.873  1.00  0.00     0.031 A 
ATOM     76  C   UNL A   1      45.934  31.738  26.653  1.00  0.00     0.131 A 
ATOM     77  C   UNL A   1      48.390  32.955  26.699  1.00  0.00     0.055 A 
ATOM     78  C   UNL A   1      46.031  33.111  26.415  1.00  0.00     0.041 A 
ATOM     79  F   UNL A   1      44.672  31.300  26.677  1.00  0.00    -0.206 F 
ATOM     80  C   UNL A   1      47.260  33.736  26.474  1.00  0.00     0.022 A 
BRANCH  77  81
ATOM     81  S   UNL A   1      49.994  33.743  26.963  1.00  0.00     0.124 S 
ATOM     82  O   UNL A   1      50.520  33.787  25.602  1.00  0.00    -0.237 OA
ATOM     83  O   UNL A   1      49.604  35.022  27.546  1.00  0.00    -0.237 OA
ATOM     84  O   UNL A   1      50.675  32.824  27.870  1.00  0.00    -0.744 OA
ENDBRANCH  77  81
ENDBRANCH  60  74
BRANCH  61  85
ATOM     85  C   UNL A   1      39.037  29.623  29.514  1.00  0.00     0.023 A 
ATOM     86  C   UNL A   1      38.240  30.346  30.437  1.00  0.00     0.031 A 
ATOM     87  C   UNL A   1      38.596  29.637  28.171  1.00  0.00     0.131 A 
ATOM     88  C   UNL A   1      37.075  31.031  30.001  1.00  0.00     0.055 A 
ATOM     89  C   UNL A   1      37.451  30.316  27.747  1.00  0.00     0.041 A 
ATOM     90  F   UNL A   1      39.314  29.059  27.195  1.00  0.00    -0.206 F 
ATOM     91  C   UNL A   1      36.689  31.025  28.659  1.00  0.00     0.022 A 
BRANCH  88  92
ATOM     92  S   UNL A   1      36.065  32.021  31.160  1.00  0.00     0.124 S 
ATOM     93  O   UNL A   1      35.747  31.053  32.202  1.00  0.00    -0.237 OA
ATOM     94  O   UNL A   1      36.972  33.101  31.529  1.00  0.00    -0.237 OA
ATOM     95  O   UNL A   1      34.921  32.440  30.347  1.00  0.00    -0.744 OA
ENDBRANCH  88  92
ENDBRANCH  61  85
BRANCH  73  96
ATOM     96  C   UNL A   1      44.403  28.285  32.647  1.00  0.00     0.023 A 
ATOM     97  C   UNL A   1      44.385  28.702  34.000  1.00  0.00     0.031 A 
ATOM     98  C   UNL A   1      44.085  26.942  32.379  1.00  0.00     0.131 A 
ATOM     99  C   UNL A   1      44.066  27.778  35.018  1.00  0.00     0.055 A 
ATOM    100  C   UNL A   1      43.746  26.040  33.384  1.00  0.00     0.041 A 
ATOM    101  F   UNL A   1      44.065  26.488  31.114  1.00  0.00    -0.206 F 
ATOM    102  C   UNL A   1      43.741  26.453  34.710  1.00  0.00     0.022 A 
BRANCH  99 103
ATOM    103  S   UNL A   1      44.091  28.268  36.775  1.00  0.00     0.124 S 
ATOM    104  O   UNL A   1      45.457  27.976  37.192  1.00  0.00    -0.237 OA
ATOM    105  O   UNL A   1      43.728  29.681  36.714  1.00  0.00    -0.237 OA
ATOM    106  O   UNL A   1      43.073  27.407  37.383  1.00  0.00    -0.744 OA
ENDBRANCH  99 103
ENDBRANCH  73  96
ENDBRANCH  47  48
ENDBRANCH  40  42
ENDBRANCH  39  40
ENDBRANCH  38  39
ENDBRANCH  37  38
ENDBRANCH  36  37
ENDBRANCH   1  36
TORSDOF 24
ENDMDL
MODEL 2
REMARK VINA RESULT:     -10.4      3.220      8.060
REMARK SMILES COc1cccc(-c2nn(-c3cc4c(cc3C(N)=O)OCO4)cc2C(=O)OCCOCCOCCOC(=O)c2ccc(-c3c4nc(c(-c5cc(S(=O)(=O)[O-])ccc5F)c5ccc([nH]5)c(-c5cc(S(=O)(=O)[O-])ccc5F)c5nc(c(-c6cc(S(=O)(=O)[O-])ccc6F)c6ccc3[nH]6)C=C5)C=C4)cc2)c1
REMARK SMILES IDX 32 1 31 2 30 3 29 4 28 5 27 6 25 7 26 8 24 9 8 10 9 11 10 12
REMARK SMILES IDX 23 13 7 14 3 15 4 16 102 17 5 18 6 19 2 20 1 21 11 22 12 23
REMARK SMILES IDX 16 24 13 25 15 26 14 27 22 28 20 29 21 30 17 31 18 32 19 33
REMARK SMILES IDX 33 36 34 37 35 38 36 39 37 40 38 41 39 42 40 43 101 44 41 45
REMARK SMILES IDX 100 46 42 47 43 48 44 49 94 50 45 51 99 52 93 53 95 54 46 55
REMARK SMILES IDX 98 56 92 57 91 58 47 60 79 61 59 62 78 63 60 64 63 65 77 66
REMARK SMILES IDX 96 67 61 68 62 69 76 71 97 72 64 73 48 74 49 75 57 76 50 77
REMARK SMILES IDX 56 78 58 79 55 80 51 81 52 82 53 83 54 84 80 85 81 86 89 87
REMARK SMILES IDX 82 88 88 89 90 90 87 91 83 92 84 93 85 94 86 95 65 96 66 97
REMARK SMILES IDX 74 98 67 99 73 100 75 101 72 102 68 103 69 104 70 105 71 106
REMARK H PARENT 18 34 18 35 95 59 63 70
REMARK Flexibility Score: inf
ROOT
ATOM      1  C   UNL A   1      37.838  23.996  26.428  1.00  0.00     0.188 C 
ENDROOT
BRANCH   1   2
ATOM      2  C   UNL A   1      36.688  23.696  25.446  1.00  0.00     0.188 C 
BRANCH   2   3
ATOM      3  O   UNL A   1      37.019  22.847  24.375  1.00  0.00    -0.376 OA
BRANCH   3   4
ATOM      4  C   UNL A   1      36.380  22.993  23.121  1.00  0.00     0.202 C 
BRANCH   4   5
ATOM      5  C   UNL A   1      34.881  23.287  22.893  1.00  0.00     0.261 C 
BRANCH   5   6
ATOM      6  O   UNL A   1      34.464  24.642  22.746  1.00  0.00    -0.460 OA
BRANCH   6   7
ATOM      7  C   UNL A   1      33.164  24.844  22.353  1.00  0.00     0.342 C 
ATOM      8  O   UNL A   1      32.587  24.183  21.516  1.00  0.00    -0.246 OA
BRANCH   7   9
ATOM      9  C   UNL A   1      32.531  25.890  23.133  1.00  0.00     0.106 A 
ATOM     10  C   UNL A   1      31.924  25.826  24.421  1.00  0.00     0.107 A 
ATOM     11  N   UNL A   1      31.388  27.013  24.765  1.00  0.00    -0.167 NA
ATOM     12  N   UNL A   1      31.523  27.759  23.642  1.00  0.00    -0.239 N 
ATOM     13  C   UNL A   1      32.473  27.227  22.809  1.00  0.00     0.131 A 
BRANCH  10  14
ATOM     14  C   UNL A   1      31.944  24.696  25.341  1.00  0.00     0.007 A 
ATOM     15  C   UNL A   1      30.857  22.767  26.324  1.00  0.00     0.119 A 
ATOM     16  C   UNL A   1      32.046  22.444  26.983  1.00  0.00     0.046 A 
ATOM     17  C   UNL A   1      30.809  23.890  25.492  1.00  0.00     0.056 A 
ATOM     18  C   UNL A   1      33.177  23.247  26.843  1.00  0.00     0.005 A 
ATOM     19  C   UNL A   1      33.117  24.385  26.043  1.00  0.00     0.011 A 
BRANCH  15  20
ATOM     20  O   UNL A   1      29.814  21.926  26.600  1.00  0.00    -0.497 OA
ATOM     21  C   UNL A   1      28.856  22.379  27.545  1.00  0.00     0.278 C 
ENDBRANCH  15  20
ENDBRANCH  10  14
BRANCH  12  22
ATOM     22  C   UNL A   1      30.777  28.944  23.419  1.00  0.00     0.081 A 
ATOM     23  C   UNL A   1      30.084  29.072  22.197  1.00  0.00     0.079 A 
ATOM     24  C   UNL A   1      30.727  29.981  24.401  1.00  0.00     0.069 A 
ATOM     25  C   UNL A   1      29.308  30.198  22.023  1.00  0.00     0.167 A 
ATOM     26  C   UNL A   1      29.815  31.035  24.226  1.00  0.00     0.066 A 
ATOM     27  C   UNL A   1      29.154  31.128  23.023  1.00  0.00     0.166 A 
ATOM     28  O   UNL A   1      28.631  30.553  20.898  1.00  0.00    -0.454 OA
ATOM     29  O   UNL A   1      28.363  32.171  22.654  1.00  0.00    -0.454 OA
ATOM     30  C   UNL A   1      28.227  31.895  21.245  1.00  0.00     0.468 C 
BRANCH  24  31
ATOM     31  C   UNL A   1      31.797  30.137  25.457  1.00  0.00     0.251 C 
ATOM     32  N   UNL A   1      33.111  30.110  25.085  1.00  0.00    -0.366 N 
ATOM     33  O   UNL A   1      31.576  30.183  26.660  1.00  0.00    -0.269 OA
ATOM     34  H   UNL A   1      33.352  30.071  24.131  1.00  0.00     0.159 HD
ATOM     35  H   UNL A   1      33.817  30.127  25.771  1.00  0.00     0.159 HD
ENDBRANCH  24  31
ENDBRANCH  12  22
ENDBRANCH   7   9
ENDBRANCH   6   7
ENDBRANCH   5   6
ENDBRANCH   4   5
ENDBRANCH   3   4
ENDBRANCH   2   3
ENDBRANCH   1   2
BRANCH   1  36
ATOM     36  O   UNL A   1      39.164  23.560  26.183  1.00  0.00    -0.376 OA
BRANCH  36  37
ATOM     37  C   UNL A   1      39.735  22.466  26.881  1.00  0.00     0.202 C 
BRANCH  37  38
ATOM     38  C   UNL A   1      40.501  21.344  26.187  1.00  0.00     0.261 C 
BRANCH  38  39
ATOM     39  O   UNL A   1      41.612  21.757  25.423  1.00  0.00    -0.460 OA
BRANCH  39  40
ATOM     40  C   UNL A   1      42.766  21.149  25.765  1.00  0.00     0.338 C 
ATOM     41  O   UNL A   1      43.178  20.068  25.366  1.00  0.00    -0.246 OA
BRANCH  40  42
ATOM     42  C   UNL A   1      43.421  21.968  26.784  1.00  0.00     0.060 A 
ATOM     43  C   UNL A   1      43.036  21.743  28.106  1.00  0.00     0.016 A 
ATOM     44  C   UNL A   1      44.059  23.147  26.374  1.00  0.00     0.016 A 
ATOM     45  C   UNL A   1      43.011  22.826  28.951  1.00  0.00     0.010 A 
ATOM     46  C   UNL A   1      43.992  24.231  27.203  1.00  0.00     0.010 A 
ATOM     47  C   UNL A   1      43.371  24.076  28.439  1.00  0.00    -0.014 A 
BRANCH  47  48
ATOM     48  C   UNL A   1      43.216  25.240  29.278  1.00  0.00     0.031 A 
ATOM     49  C   UNL A   1      42.145  26.113  28.765  1.00  0.00     0.074 A 
ATOM     50  C   UNL A   1      43.897  25.414  30.426  1.00  0.00     0.049 A 
ATOM     51  N   UNL A   1      42.295  27.195  28.079  1.00  0.00    -0.248 NA
ATOM     52  C   UNL A   1      40.768  25.585  28.754  1.00  0.00     0.031 C 
ATOM     53  C   UNL A   1      44.796  24.480  31.107  1.00  0.00     0.029 A 
ATOM     54  N   UNL A   1      43.856  26.466  31.285  1.00  0.00    -0.354 N 
ATOM     55  C   UNL A   1      41.004  27.636  27.831  1.00  0.00     0.074 A 
ATOM     56  C   UNL A   1      40.163  26.483  27.976  1.00  0.00     0.031 C 
ATOM     57  C   UNL A   1      45.023  24.918  32.370  1.00  0.00     0.029 A 
ATOM     58  C   UNL A   1      44.388  26.214  32.549  1.00  0.00     0.049 A 
ATOM     59  H   UNL A   1      43.479  27.339  31.034  1.00  0.00     0.167 HD
ATOM     60  C   UNL A   1      40.710  28.961  27.904  1.00  0.00     0.034 A 
ATOM     61  C   UNL A   1      44.245  26.994  33.660  1.00  0.00     0.034 A 
ATOM     62  C   UNL A   1      41.921  29.755  27.811  1.00  0.00     0.049 A 
ATOM     63  C   UNL A   1      43.911  28.361  33.171  1.00  0.00     0.074 A 
ATOM     64  C   UNL A   1      42.948  29.842  26.887  1.00  0.00     0.029 A 
ATOM     65  N   UNL A   1      42.421  30.314  28.969  1.00  0.00    -0.354 N 
ATOM     66  N   UNL A   1      44.746  29.089  32.478  1.00  0.00    -0.248 NA
ATOM     67  C   UNL A   1      42.505  28.690  32.980  1.00  0.00     0.031 C 
ATOM     68  C   UNL A   1      44.136  29.977  27.666  1.00  0.00     0.029 A 
ATOM     69  C   UNL A   1      43.772  30.073  29.011  1.00  0.00     0.049 A 
ATOM     70  H   UNL A   1      41.899  30.800  29.648  1.00  0.00     0.167 HD
ATOM     71  C   UNL A   1      43.984  29.637  31.455  1.00  0.00     0.074 A 
ATOM     72  C   UNL A   1      42.596  29.421  31.865  1.00  0.00     0.031 C 
ATOM     73  C   UNL A   1      44.537  29.935  30.240  1.00  0.00     0.034 A 
BRANCH  60  74
ATOM     74  C   UNL A   1      39.426  29.502  28.500  1.00  0.00     0.023 A 
ATOM     75  C   UNL A   1      39.349  29.516  29.902  1.00  0.00     0.031 A 
ATOM     76  C   UNL A   1      38.201  29.721  27.821  1.00  0.00     0.131 A 
ATOM     77  C   UNL A   1      38.111  29.597  30.557  1.00  0.00     0.055 A 
ATOM     78  C   UNL A   1      36.979  29.867  28.481  1.00  0.00     0.041 A 
ATOM     79  F   UNL A   1      38.081  29.725  26.490  1.00  0.00    -0.206 F 
ATOM     80  C   UNL A   1      36.921  29.766  29.856  1.00  0.00     0.022 A 
BRANCH  77  81
ATOM     81  S   UNL A   1      38.072  29.282  32.337  1.00  0.00     0.124 S 
ATOM     82  O   UNL A   1      36.637  29.308  32.602  1.00  0.00    -0.237 OA
ATOM     83  O   UNL A   1      38.721  27.978  32.421  1.00  0.00    -0.237 OA
ATOM     84  O   UNL A   1      38.834  30.397  32.892  1.00  0.00    -0.744 OA
ENDBRANCH  77  81
ENDBRANCH  60  74
BRANCH  61  85
ATOM     85  C   UNL A   1      43.989  26.539  35.065  1.00  0.00     0.023 A 
ATOM     86  C   UNL A   1      44.737  26.986  36.183  1.00  0.00     0.031 A 
ATOM     87  C   UNL A   1      42.807  25.821  35.357  1.00  0.00     0.131 A 
ATOM     88  C   UNL A   1      44.293  26.711  37.503  1.00  0.00     0.055 A 
ATOM     89  C   UNL A   1      42.374  25.557  36.659  1.00  0.00     0.041 A 
ATOM     90  F   UNL A   1      41.974  25.422  34.384  1.00  0.00    -0.206 F 
ATOM     91  C   UNL A   1      43.110  26.009  37.740  1.00  0.00     0.022 A 
BRANCH  88  92
ATOM     92  S   UNL A   1      45.207  27.331  38.961  1.00  0.00     0.124 S 
ATOM     93  O   UNL A   1      46.527  26.739  38.777  1.00  0.00    -0.237 OA
ATOM     94  O   UNL A   1      45.114  28.777  38.804  1.00  0.00    -0.237 OA
ATOM     95  O   UNL A   1      44.451  26.792  40.094  1.00  0.00    -0.744 OA
ENDBRANCH  88  92
ENDBRANCH  61  85
BRANCH  73  96
ATOM     96  C   UNL A   1      46.050  29.952  30.113  1.00  0.00     0.023 A 
ATOM     97  C   UNL A   1      46.868  28.827  29.851  1.00  0.00     0.031 A 
ATOM     98  C   UNL A   1      46.673  31.212  30.153  1.00  0.00     0.131 A 
ATOM     99  C   UNL A   1      48.255  28.996  29.651  1.00  0.00     0.055 A 
ATOM    100  C   UNL A   1      48.038  31.376  29.930  1.00  0.00     0.041 A 
ATOM    101  F   UNL A   1      45.950  32.321  30.377  1.00  0.00    -0.206 F 
ATOM    102  C   UNL A   1      48.837  30.267  29.684  1.00  0.00     0.022 A 
BRANCH  99 103
ATOM    103  S   UNL A   1      49.347  27.561  29.369  1.00  0.00     0.124 S 
ATOM    104  O   UNL A   1      49.507  27.533  27.921  1.00  0.00    -0.237 OA
ATOM    105  O   UNL A   1      50.537  27.914  30.139  1.00  0.00    -0.237 OA
ATOM    106  O   UNL A   1      48.581  26.439  29.918  1.00  0.00    -0.744 OA
ENDBRANCH  99 103
ENDBRANCH  73  96
ENDBRANCH  47  48
ENDBRANCH  40  42
ENDBRANCH  39  40
ENDBRANCH  38  39
ENDBRANCH  37  38
ENDBRANCH  36  37
ENDBRANCH   1  36
TORSDOF 24
ENDMDL
MODEL 3
REMARK VINA RESULT:     -10.2      5.736     11.799
REMARK SMILES COc1cccc(-c2nn(-c3cc4c(cc3C(N)=O)OCO4)cc2C(=O)OCCOCCOCCOC(=O)c2ccc(-c3c4nc(c(-c5cc(S(=O)(=O)[O-])ccc5F)c5ccc([nH]5)c(-c5cc(S(=O)(=O)[O-])ccc5F)c5nc(c(-c6cc(S(=O)(=O)[O-])ccc6F)c6ccc3[nH]6)C=C5)C=C4)cc2)c1
REMARK SMILES IDX 32 1 31 2 30 3 29 4 28 5 27 6 25 7 26 8 24 9 8 10 9 11 10 12
REMARK SMILES IDX 23 13 7 14 3 15 4 16 102 17 5 18 6 19 2 20 1 21 11 22 12 23
REMARK SMILES IDX 16 24 13 25 15 26 14 27 22 28 20 29 21 30 17 31 18 32 19 33
REMARK SMILES IDX 33 36 34 37 35 38 36 39 37 40 38 41 39 42 40 43 101 44 41 45
REMARK SMILES IDX 100 46 42 47 43 48 44 49 94 50 45 51 99 52 93 53 95 54 46 55
REMARK SMILES IDX 98 56 92 57 91 58 47 60 79 61 59 62 78 63 60 64 63 65 77 66
REMARK SMILES IDX 96 67 61 68 62 69 76 71 97 72 64 73 48 74 49 75 57 76 50 77
REMARK SMILES IDX 56 78 58 79 55 80 51 81 52 82 53 83 54 84 80 85 81 86 89 87
REMARK SMILES IDX 82 88 88 89 90 90 87 91 83 92 84 93 85 94 86 95 65 96 66 97
REMARK SMILES IDX 74 98 67 99 73 100 75 101 72 102 68 103 69 104 70 105 71 106
REMARK H PARENT 18 34 18 35 95 59 63 70
REMARK Flexibility Score: inf
ROOT
ATOM      1  C   UNL A   1      39.690  28.797  33.096  1.00  0.00     0.188 C 
ENDROOT
BRANCH   1   2
ATOM      2  C   UNL A   1      41.133  28.918  33.626  1.00  0.00     0.188 C 
BRANCH   2   3
ATOM      3  O   UNL A   1      41.250  29.066  35.020  1.00  0.00    -0.376 OA
BRANCH   3   4
ATOM      4  C   UNL A   1      41.684  30.294  35.576  1.00  0.00     0.202 C 
BRANCH   4   5
ATOM      5  C   UNL A   1      41.072  31.684  35.298  1.00  0.00     0.261 C 
BRANCH   5   6
ATOM      6  O   UNL A   1      41.383  32.335  34.069  1.00  0.00    -0.460 OA
BRANCH   6   7
ATOM      7  C   UNL A   1      41.277  33.704  34.058  1.00  0.00     0.342 C 
ATOM      8  O   UNL A   1      42.211  34.469  34.180  1.00  0.00    -0.246 OA
BRANCH   7   9
ATOM      9  C   UNL A   1      39.917  34.129  33.784  1.00  0.00     0.106 A 
ATOM     10  C   UNL A   1      38.898  34.558  34.683  1.00  0.00     0.107 A 
ATOM     11  N   UNL A   1      37.745  34.803  34.030  1.00  0.00    -0.167 NA
ATOM     12  N   UNL A   1      38.002  34.382  32.767  1.00  0.00    -0.239 N 
ATOM     13  C   UNL A   1      39.351  34.299  32.541  1.00  0.00     0.131 A 
BRANCH  10  14
ATOM     14  C   UNL A   1      39.046  34.825  36.108  1.00  0.00     0.007 A 
ATOM     15  C   UNL A   1      39.772  36.271  37.911  1.00  0.00     0.119 A 
ATOM     16  C   UNL A   1      39.179  35.404  38.833  1.00  0.00     0.046 A 
ATOM     17  C   UNL A   1      39.695  35.986  36.544  1.00  0.00     0.056 A 
ATOM     18  C   UNL A   1      38.539  34.242  38.406  1.00  0.00     0.005 A 
ATOM     19  C   UNL A   1      38.495  33.942  37.047  1.00  0.00     0.011 A 
BRANCH  15  20
ATOM     20  O   UNL A   1      40.416  37.338  38.475  1.00  0.00    -0.497 OA
ATOM     21  C   UNL A   1      39.928  37.793  39.729  1.00  0.00     0.278 C 
ENDBRANCH  15  20
ENDBRANCH  10  14
BRANCH  12  22
ATOM     22  C   UNL A   1      36.973  34.106  31.832  1.00  0.00     0.081 A 
ATOM     23  C   UNL A   1      37.338  33.880  30.489  1.00  0.00     0.079 A 
ATOM     24  C   UNL A   1      35.602  34.059  32.235  1.00  0.00     0.069 A 
ATOM     25  C   UNL A   1      36.334  33.545  29.606  1.00  0.00     0.167 A 
ATOM     26  C   UNL A   1      34.645  33.582  31.325  1.00  0.00     0.066 A 
ATOM     27  C   UNL A   1      35.037  33.368  30.024  1.00  0.00     0.166 A 
ATOM     28  O   UNL A   1      36.458  33.369  28.263  1.00  0.00    -0.454 OA
ATOM     29  O   UNL A   1      34.194  33.056  29.003  1.00  0.00    -0.454 OA
ATOM     30  C   UNL A   1      35.070  33.278  27.879  1.00  0.00     0.468 C 
BRANCH  24  31
ATOM     31  C   UNL A   1      35.108  34.760  33.480  1.00  0.00     0.251 C 
ATOM     32  N   UNL A   1      34.813  34.019  34.590  1.00  0.00    -0.366 N 
ATOM     33  O   UNL A   1      34.848  35.954  33.542  1.00  0.00    -0.269 OA
ATOM     34  H   UNL A   1      34.999  33.052  34.600  1.00  0.00     0.159 HD
ATOM     35  H   UNL A   1      34.414  34.452  35.378  1.00  0.00     0.159 HD
ENDBRANCH  24  31
ENDBRANCH  12  22
ENDBRANCH   7   9
ENDBRANCH   6   7
ENDBRANCH   5   6
ENDBRANCH   4   5
ENDBRANCH   3   4
ENDBRANCH   2   3
ENDBRANCH   1   2
BRANCH   1  36
ATOM     36  O   UNL A   1      38.645  29.623  33.578  1.00  0.00    -0.376 OA
BRANCH  36  37
ATOM     37  C   UNL A   1      38.061  30.638  32.779  1.00  0.00     0.202 C 
BRANCH  37  38
ATOM     38  C   UNL A   1      36.994  30.357  31.726  1.00  0.00     0.261 C 
BRANCH  38  39
ATOM     39  O   UNL A   1      37.248  29.248  30.892  1.00  0.00    -0.460 OA
BRANCH  39  40
ATOM     40  C   UNL A   1      37.020  29.482  29.585  1.00  0.00     0.338 C 
ATOM     41  O   UNL A   1      36.107  30.137  29.100  1.00  0.00    -0.246 OA
BRANCH  40  42
ATOM     42  C   UNL A   1      38.012  28.735  28.813  1.00  0.00     0.060 A 
ATOM     43  C   UNL A   1      38.400  27.499  29.332  1.00  0.00     0.016 A 
ATOM     44  C   UNL A   1      38.779  29.434  27.871  1.00  0.00     0.016 A 
ATOM     45  C   UNL A   1      39.705  27.114  29.138  1.00  0.00     0.010 A 
ATOM     46  C   UNL A   1      40.087  29.070  27.716  1.00  0.00     0.010 A 
ATOM     47  C   UNL A   1      40.555  27.976  28.438  1.00  0.00    -0.014 A 
BRANCH  47  48
ATOM     48  C   UNL A   1      41.957  27.647  28.348  1.00  0.00     0.031 A 
ATOM     49  C   UNL A   1      42.147  26.355  27.664  1.00  0.00     0.074 A 
ATOM     50  C   UNL A   1      42.935  28.483  28.744  1.00  0.00     0.049 A 
ATOM     51  N   UNL A   1      42.387  25.217  28.220  1.00  0.00    -0.248 NA
ATOM     52  C   UNL A   1      41.740  26.255  26.250  1.00  0.00     0.031 C 
ATOM     53  C   UNL A   1      42.821  29.867  29.211  1.00  0.00     0.029 A 
ATOM     54  N   UNL A   1      44.279  28.284  28.732  1.00  0.00    -0.354 N 
ATOM     55  C   UNL A   1      42.470  24.320  27.165  1.00  0.00     0.074 A 
ATOM     56  C   UNL A   1      41.766  24.934  26.076  1.00  0.00     0.031 C 
ATOM     57  C   UNL A   1      44.049  30.441  29.211  1.00  0.00     0.029 A 
ATOM     58  C   UNL A   1      45.046  29.440  28.862  1.00  0.00     0.049 A 
ATOM     59  H   UNL A   1      44.679  27.390  28.637  1.00  0.00     0.167 HD
ATOM     60  C   UNL A   1      43.418  23.346  27.171  1.00  0.00     0.034 A 
ATOM     61  C   UNL A   1      46.386  29.556  28.629  1.00  0.00     0.034 A 
ATOM     62  C   UNL A   1      43.925  23.139  28.515  1.00  0.00     0.049 A 
ATOM     63  C   UNL A   1      46.951  28.182  28.746  1.00  0.00     0.074 A 
ATOM     64  C   UNL A   1      43.338  22.836  29.730  1.00  0.00     0.029 A 
ATOM     65  N   UNL A   1      45.167  23.654  28.825  1.00  0.00    -0.354 N 
ATOM     66  N   UNL A   1      46.964  27.515  29.869  1.00  0.00    -0.248 NA
ATOM     67  C   UNL A   1      46.996  27.363  27.543  1.00  0.00     0.031 C 
ATOM     68  C   UNL A   1      44.034  23.634  30.687  1.00  0.00     0.029 A 
ATOM     69  C   UNL A   1      45.072  24.301  30.033  1.00  0.00     0.049 A 
ATOM     70  H   UNL A   1      45.980  23.573  28.275  1.00  0.00     0.167 HD
ATOM     71  C   UNL A   1      46.568  26.229  29.528  1.00  0.00     0.074 A 
ATOM     72  C   UNL A   1      46.681  26.174  28.070  1.00  0.00     0.031 C 
ATOM     73  C   UNL A   1      45.898  25.434  30.418  1.00  0.00     0.034 A 
BRANCH  60  74
ATOM     74  C   UNL A   1      44.186  22.919  25.936  1.00  0.00     0.023 A 
ATOM     75  C   UNL A   1      44.315  21.536  25.731  1.00  0.00     0.031 A 
ATOM     76  C   UNL A   1      45.026  23.734  25.136  1.00  0.00     0.131 A 
ATOM     77  C   UNL A   1      45.314  21.020  24.892  1.00  0.00     0.055 A 
ATOM     78  C   UNL A   1      45.975  23.215  24.253  1.00  0.00     0.041 A 
ATOM     79  F   UNL A   1      45.052  25.068  25.207  1.00  0.00    -0.206 F 
ATOM     80  C   UNL A   1      46.152  21.850  24.154  1.00  0.00     0.022 A 
BRANCH  77  81
ATOM     81  S   UNL A   1      45.619  19.239  24.936  1.00  0.00     0.124 S 
ATOM     82  O   UNL A   1      45.628  18.914  23.513  1.00  0.00    -0.237 OA
ATOM     83  O   UNL A   1      46.906  19.175  25.622  1.00  0.00    -0.237 OA
ATOM     84  O   UNL A   1      44.482  18.721  25.692  1.00  0.00    -0.744 OA
ENDBRANCH  77  81
ENDBRANCH  60  74
BRANCH  61  85
ATOM     85  C   UNL A   1      47.096  30.680  27.937  1.00  0.00     0.023 A 
ATOM     86  C   UNL A   1      46.434  31.677  27.178  1.00  0.00     0.031 A 
ATOM     87  C   UNL A   1      48.457  30.927  28.231  1.00  0.00     0.131 A 
ATOM     88  C   UNL A   1      47.128  32.842  26.756  1.00  0.00     0.055 A 
ATOM     89  C   UNL A   1      49.133  32.077  27.816  1.00  0.00     0.041 A 
ATOM     90  F   UNL A   1      49.163  30.097  29.014  1.00  0.00    -0.206 F 
ATOM     91  C   UNL A   1      48.469  33.045  27.084  1.00  0.00     0.022 A 
BRANCH  88  92
ATOM     92  S   UNL A   1      46.279  34.170  25.829  1.00  0.00     0.124 S 
ATOM     93  O   UNL A   1      47.363  34.738  25.036  1.00  0.00    -0.237 OA
ATOM     94  O   UNL A   1      45.251  33.440  25.098  1.00  0.00    -0.237 OA
ATOM     95  O   UNL A   1      45.768  35.050  26.882  1.00  0.00    -0.744 OA
ENDBRANCH  88  92
ENDBRANCH  61  85
BRANCH  73  96
ATOM     96  C   UNL A   1      45.860  25.848  31.878  1.00  0.00     0.023 A 
ATOM     97  C   UNL A   1      46.887  25.624  32.826  1.00  0.00     0.031 A 
ATOM     98  C   UNL A   1      44.755  26.614  32.289  1.00  0.00     0.131 A 
ATOM     99  C   UNL A   1      46.771  26.154  34.129  1.00  0.00     0.055 A 
ATOM    100  C   UNL A   1      44.656  27.157  33.568  1.00  0.00     0.041 A 
ATOM    101  F   UNL A   1      43.755  26.881  31.431  1.00  0.00    -0.206 F 
ATOM    102  C   UNL A   1      45.663  26.924  34.496  1.00  0.00     0.022 A 
BRANCH  99 103
ATOM    103  S   UNL A   1      48.049  25.834  35.392  1.00  0.00     0.124 S 
ATOM    104  O   UNL A   1      48.523  27.167  35.744  1.00  0.00    -0.237 OA
ATOM    105  O   UNL A   1      47.300  25.127  36.426  1.00  0.00    -0.237 OA
ATOM    106  O   UNL A   1      49.029  25.009  34.682  1.00  0.00    -0.744 OA
ENDBRANCH  99 103
ENDBRANCH  73  96
ENDBRANCH  47  48
ENDBRANCH  40  42
ENDBRANCH  39  40
ENDBRANCH  38  39
ENDBRANCH  37  38
ENDBRANCH  36  37
ENDBRANCH   1  36
TORSDOF 24
ENDMDL
