MODEL 1
REMARK VINA RESULT:     -10.1      0.000      0.000
REMARK SMILES Cc1c[nH]c(C[N@H+]2C[C@@H]3CN(S(C)(=O)=O)C[C@@]3(C(=O)OCCOCCOCCOC(=O)c3ccc(-c4c5nc(c(-c6cc(S(=O)(=O)[O-])ccc6F)c6ccc([nH]6)c(-c6cc(S(=O)(=O)[O-])ccc6F)c6nc(c(-c7cc(S(=O)(=O)[O-])ccc7F)c7ccc4[nH]7)C=C6)C=C5)cc3)C2)n1
REMARK SMILES IDX 25 1 24 2 23 3 22 4 21 5 20 6 18 7 19 8 17 9 7 10 8 11 95 12
REMARK SMILES IDX 9 14 10 15 16 16 11 17 6 18 5 19 1 20 2 21 3 22 96 23 4 24
REMARK SMILES IDX 12 26 13 27 14 28 15 29 26 30 27 31 28 32 29 33 30 34 31 35
REMARK SMILES IDX 32 36 33 37 94 38 34 39 93 40 35 41 36 42 37 43 87 44 38 45
REMARK SMILES IDX 92 46 86 47 88 48 39 49 91 50 85 51 84 52 40 54 72 55 52 56
REMARK SMILES IDX 71 57 53 58 56 59 70 60 89 61 54 62 55 63 69 65 90 66 57 67
REMARK SMILES IDX 41 68 42 69 50 70 43 71 49 72 51 73 48 74 44 75 45 76 46 77
REMARK SMILES IDX 47 78 73 79 74 80 82 81 75 82 81 83 83 84 80 85 76 86 77 87
REMARK SMILES IDX 78 88 79 89 58 90 59 91 67 92 60 93 66 94 68 95 65 96 61 97
REMARK SMILES IDX 62 98 63 99 64 100
REMARK H PARENT 7 13 4 25 88 53 56 64
REMARK Flexibility Score: inf
ROOT
ATOM      1  C   UNL A   1      35.021  31.816  29.124  1.00  0.00     0.188 C 
ENDROOT
BRANCH   1   2
ATOM      2  C   UNL A   1      34.915  31.661  27.607  1.00  0.00     0.188 C 
BRANCH   2   3
ATOM      3  O   UNL A   1      33.957  30.781  27.060  1.00  0.00    -0.376 OA
BRANCH   3   4
ATOM      4  C   UNL A   1      33.861  29.452  27.569  1.00  0.00     0.202 C 
BRANCH   4   5
ATOM      5  C   UNL A   1      32.579  28.587  27.415  1.00  0.00     0.261 C 
BRANCH   5   6
ATOM      6  O   UNL A   1      32.872  27.276  26.903  1.00  0.00    -0.463 OA
BRANCH   6   7
ATOM      7  C   UNL A   1      31.935  26.463  26.284  1.00  0.00     0.319 C 
ATOM      8  O   UNL A   1      30.768  26.362  26.612  1.00  0.00    -0.251 OA
BRANCH   7   9
ATOM      9  C   UNL A   1      32.664  25.859  25.065  1.00  0.00     0.140 C 
ATOM     10  N   UNL A   1      31.426  26.914  23.348  1.00  0.00    -0.327 N 
ATOM     11  C   UNL A   1      31.324  25.487  23.051  1.00  0.00     0.268 C 
ATOM     12  C   UNL A   1      32.646  27.158  24.197  1.00  0.00     0.283 C 
ATOM     13  H   UNL A   1      30.632  27.207  23.919  1.00  0.00     0.348 HD
ATOM     14  C   UNL A   1      32.496  24.989  23.818  1.00  0.00     0.084 C 
ATOM     15  C   UNL A   1      32.710  23.531  24.069  1.00  0.00     0.113 C 
ATOM     16  C   UNL A   1      33.667  24.919  25.775  1.00  0.00     0.127 C 
ATOM     17  N   UNL A   1      33.230  23.517  25.433  1.00  0.00    -0.200 NA
BRANCH  10  18
ATOM     18  C   UNL A   1      31.227  27.781  22.183  1.00  0.00     0.338 C 
BRANCH  18  19
ATOM     19  C   UNL A   1      30.005  28.646  22.235  1.00  0.00     0.161 A 
ATOM     20  C   UNL A   1      28.037  31.511  21.498  1.00  0.00     0.068 C 
ATOM     21  C   UNL A   1      28.564  30.222  21.985  1.00  0.00     0.056 A 
ATOM     22  C   UNL A   1      27.996  29.334  22.869  1.00  0.00     0.107 A 
ATOM     23  N   UNL A   1      29.792  29.766  21.572  1.00  0.00    -0.233 NA
ATOM     24  N   UNL A   1      28.927  28.350  23.036  1.00  0.00    -0.344 N 
ATOM     25  H   UNL A   1      28.842  27.566  23.626  1.00  0.00     0.167 HD
ENDBRANCH  18  19
ENDBRANCH  10  18
BRANCH  17  26
ATOM     26  S   UNL A   1      32.462  22.496  26.520  1.00  0.00     0.211 S 
ATOM     27  C   UNL A   1      33.810  21.568  27.227  1.00  0.00     0.176 C 
ATOM     28  O   UNL A   1      31.932  23.334  27.584  1.00  0.00    -0.213 OA
ATOM     29  O   UNL A   1      31.610  21.586  25.797  1.00  0.00    -0.213 OA
ENDBRANCH  17  26
ENDBRANCH   7   9
ENDBRANCH   6   7
ENDBRANCH   5   6
ENDBRANCH   4   5
ENDBRANCH   3   4
ENDBRANCH   2   3
ENDBRANCH   1   2
BRANCH   1  30
ATOM     30  O   UNL A   1      34.344  32.843  29.805  1.00  0.00    -0.376 OA
BRANCH  30  31
ATOM     31  C   UNL A   1      33.851  33.948  29.055  1.00  0.00     0.202 C 
BRANCH  31  32
ATOM     32  C   UNL A   1      33.283  35.259  29.661  1.00  0.00     0.261 C 
BRANCH  32  33
ATOM     33  O   UNL A   1      32.488  35.162  30.852  1.00  0.00    -0.460 OA
BRANCH  33  34
ATOM     34  C   UNL A   1      32.988  35.810  31.944  1.00  0.00     0.338 C 
ATOM     35  O   UNL A   1      32.501  36.770  32.514  1.00  0.00    -0.246 OA
BRANCH  34  36
ATOM     36  C   UNL A   1      34.105  35.010  32.497  1.00  0.00     0.060 A 
ATOM     37  C   UNL A   1      35.417  35.479  32.334  1.00  0.00     0.016 A 
ATOM     38  C   UNL A   1      33.869  33.819  33.177  1.00  0.00     0.016 A 
ATOM     39  C   UNL A   1      36.488  34.795  32.908  1.00  0.00     0.010 A 
ATOM     40  C   UNL A   1      34.955  33.099  33.693  1.00  0.00     0.010 A 
ATOM     41  C   UNL A   1      36.272  33.583  33.565  1.00  0.00    -0.014 A 
BRANCH  41  42
ATOM     42  C   UNL A   1      37.422  32.732  33.969  1.00  0.00     0.031 A 
ATOM     43  C   UNL A   1      38.105  33.028  35.275  1.00  0.00     0.074 A 
ATOM     44  C   UNL A   1      37.848  31.700  33.217  1.00  0.00     0.049 A 
ATOM     45  N   UNL A   1      39.232  32.566  35.749  1.00  0.00    -0.248 NA
ATOM     46  C   UNL A   1      37.413  33.972  36.164  1.00  0.00     0.031 C 
ATOM     47  C   UNL A   1      37.195  31.207  32.007  1.00  0.00     0.029 A 
ATOM     48  N   UNL A   1      38.942  30.881  33.366  1.00  0.00    -0.354 N 
ATOM     49  C   UNL A   1      39.405  33.189  36.980  1.00  0.00     0.074 A 
ATOM     50  C   UNL A   1      38.267  34.065  37.170  1.00  0.00     0.031 C 
ATOM     51  C   UNL A   1      37.915  30.185  31.511  1.00  0.00     0.029 A 
ATOM     52  C   UNL A   1      39.116  30.000  32.324  1.00  0.00     0.049 A 
ATOM     53  H   UNL A   1      39.545  30.922  34.144  1.00  0.00     0.167 HD
ATOM     54  C   UNL A   1      40.423  33.047  37.863  1.00  0.00     0.034 A 
ATOM     55  C   UNL A   1      40.151  29.183  32.030  1.00  0.00     0.034 A 
ATOM     56  C   UNL A   1      41.552  32.173  37.655  1.00  0.00     0.049 A 
ATOM     57  C   UNL A   1      41.357  29.163  32.944  1.00  0.00     0.074 A 
ATOM     58  C   UNL A   1      42.640  31.961  38.483  1.00  0.00     0.029 A 
ATOM     59  N   UNL A   1      41.747  31.375  36.536  1.00  0.00    -0.354 N 
ATOM     60  N   UNL A   1      41.547  29.794  34.080  1.00  0.00    -0.248 NA
ATOM     61  C   UNL A   1      42.497  28.332  32.526  1.00  0.00     0.031 C 
ATOM     62  C   UNL A   1      43.533  31.107  37.826  1.00  0.00     0.029 A 
ATOM     63  C   UNL A   1      42.960  30.711  36.628  1.00  0.00     0.049 A 
ATOM     64  H   UNL A   1      41.115  31.293  35.785  1.00  0.00     0.167 HD
ATOM     65  C   UNL A   1      42.815  29.416  34.520  1.00  0.00     0.074 A 
ATOM     66  C   UNL A   1      43.338  28.491  33.538  1.00  0.00     0.031 C 
ATOM     67  C   UNL A   1      43.484  29.799  35.638  1.00  0.00     0.034 A 
BRANCH  54  68
ATOM     68  C   UNL A   1      40.400  33.922  39.093  1.00  0.00     0.023 A 
ATOM     69  C   UNL A   1      39.695  33.559  40.251  1.00  0.00     0.031 A 
ATOM     70  C   UNL A   1      41.070  35.159  39.087  1.00  0.00     0.131 A 
ATOM     71  C   UNL A   1      39.611  34.457  41.327  1.00  0.00     0.055 A 
ATOM     72  C   UNL A   1      41.056  36.009  40.194  1.00  0.00     0.041 A 
ATOM     73  F   UNL A   1      41.738  35.571  37.999  1.00  0.00    -0.206 F 
ATOM     74  C   UNL A   1      40.309  35.667  41.317  1.00  0.00     0.022 A 
BRANCH  71  75
ATOM     75  S   UNL A   1      38.446  34.091  42.668  1.00  0.00     0.124 S 
ATOM     76  O   UNL A   1      39.340  34.007  43.820  1.00  0.00    -0.237 OA
ATOM     77  O   UNL A   1      37.555  35.245  42.634  1.00  0.00    -0.237 OA
ATOM     78  O   UNL A   1      37.844  32.823  42.262  1.00  0.00    -0.744 OA
ENDBRANCH  71  75
ENDBRANCH  54  68
BRANCH  55  79
ATOM     79  C   UNL A   1      40.151  28.379  30.770  1.00  0.00     0.023 A 
ATOM     80  C   UNL A   1      40.963  28.733  29.680  1.00  0.00     0.031 A 
ATOM     81  C   UNL A   1      39.279  27.286  30.611  1.00  0.00     0.131 A 
ATOM     82  C   UNL A   1      40.858  28.029  28.470  1.00  0.00     0.055 A 
ATOM     83  C   UNL A   1      39.223  26.550  29.426  1.00  0.00     0.041 A 
ATOM     84  F   UNL A   1      38.464  26.914  31.611  1.00  0.00    -0.206 F 
ATOM     85  C   UNL A   1      40.008  26.928  28.341  1.00  0.00     0.022 A 
BRANCH  82  86
ATOM     86  S   UNL A   1      41.782  28.632  27.030  1.00  0.00     0.124 S 
ATOM     87  O   UNL A   1      42.521  29.752  27.600  1.00  0.00    -0.237 OA
ATOM     88  O   UNL A   1      42.573  27.460  26.665  1.00  0.00    -0.237 OA
ATOM     89  O   UNL A   1      40.734  28.993  26.079  1.00  0.00    -0.744 OA
ENDBRANCH  82  86
ENDBRANCH  55  79
BRANCH  67  90
ATOM     90  C   UNL A   1      44.846  29.191  35.882  1.00  0.00     0.023 A 
ATOM     91  C   UNL A   1      44.999  27.956  36.535  1.00  0.00     0.031 A 
ATOM     92  C   UNL A   1      46.006  29.847  35.430  1.00  0.00     0.131 A 
ATOM     93  C   UNL A   1      46.284  27.434  36.751  1.00  0.00     0.055 A 
ATOM     94  C   UNL A   1      47.276  29.292  35.593  1.00  0.00     0.041 A 
ATOM     95  F   UNL A   1      45.921  31.031  34.803  1.00  0.00    -0.206 F 
ATOM     96  C   UNL A   1      47.422  28.083  36.265  1.00  0.00     0.022 A 
BRANCH  93  97
ATOM     97  S   UNL A   1      46.458  25.924  37.741  1.00  0.00     0.124 S 
ATOM     98  O   UNL A   1      46.659  24.909  36.712  1.00  0.00    -0.237 OA
ATOM     99  O   UNL A   1      47.618  26.225  38.575  1.00  0.00    -0.237 OA
ATOM    100  O   UNL A   1      45.188  25.835  38.460  1.00  0.00    -0.744 OA
ENDBRANCH  93  97
ENDBRANCH  67  90
ENDBRANCH  41  42
ENDBRANCH  34  36
ENDBRANCH  33  34
ENDBRANCH  32  33
ENDBRANCH  31  32
ENDBRANCH  30  31
ENDBRANCH   1  30
TORSDOF 23
ENDMDL
MODEL 2
REMARK VINA RESULT:     -10.1      6.594     12.042
REMARK SMILES Cc1c[nH]c(C[N@H+]2C[C@@H]3CN(S(C)(=O)=O)C[C@@]3(C(=O)OCCOCCOCCOC(=O)c3ccc(-c4c5nc(c(-c6cc(S(=O)(=O)[O-])ccc6F)c6ccc([nH]6)c(-c6cc(S(=O)(=O)[O-])ccc6F)c6nc(c(-c7cc(S(=O)(=O)[O-])ccc7F)c7ccc4[nH]7)C=C6)C=C5)cc3)C2)n1
REMARK SMILES IDX 25 1 24 2 23 3 22 4 21 5 20 6 18 7 19 8 17 9 7 10 8 11 95 12
REMARK SMILES IDX 9 14 10 15 16 16 11 17 6 18 5 19 1 20 2 21 3 22 96 23 4 24
REMARK SMILES IDX 12 26 13 27 14 28 15 29 26 30 27 31 28 32 29 33 30 34 31 35
REMARK SMILES IDX 32 36 33 37 94 38 34 39 93 40 35 41 36 42 37 43 87 44 38 45
REMARK SMILES IDX 92 46 86 47 88 48 39 49 91 50 85 51 84 52 40 54 72 55 52 56
REMARK SMILES IDX 71 57 53 58 56 59 70 60 89 61 54 62 55 63 69 65 90 66 57 67
REMARK SMILES IDX 41 68 42 69 50 70 43 71 49 72 51 73 48 74 44 75 45 76 46 77
REMARK SMILES IDX 47 78 73 79 74 80 82 81 75 82 81 83 83 84 80 85 76 86 77 87
REMARK SMILES IDX 78 88 79 89 58 90 59 91 67 92 60 93 66 94 68 95 65 96 61 97
REMARK SMILES IDX 62 98 63 99 64 100
REMARK H PARENT 7 13 4 25 88 53 56 64
REMARK Flexibility Score: inf
ROOT
ATOM      1  C   UNL A   1      37.367  22.336  24.787  1.00  0.00     0.188 C 
ENDROOT
BRANCH   1   2
ATOM      2  C   UNL A   1      36.087  21.501  24.836  1.00  0.00     0.188 C 
BRANCH   2   3
ATOM      3  O   UNL A   1      34.853  22.129  25.108  1.00  0.00    -0.376 OA
BRANCH   3   4
ATOM      4  C   UNL A   1      34.659  22.765  26.371  1.00  0.00     0.202 C 
BRANCH   4   5
ATOM      5  C   UNL A   1      33.274  22.827  27.073  1.00  0.00     0.261 C 
BRANCH   5   6
ATOM      6  O   UNL A   1      32.496  23.954  26.634  1.00  0.00    -0.463 OA
BRANCH   6   7
ATOM      7  C   UNL A   1      31.124  23.915  26.438  1.00  0.00     0.319 C 
ATOM      8  O   UNL A   1      30.310  23.531  27.257  1.00  0.00    -0.251 OA
BRANCH   7   9
ATOM      9  C   UNL A   1      30.892  24.567  25.059  1.00  0.00     0.140 C 
ATOM     10  N   UNL A   1      32.062  23.007  23.722  1.00  0.00    -0.327 N 
ATOM     11  C   UNL A   1      32.668  24.296  23.397  1.00  0.00     0.268 C 
ATOM     12  C   UNL A   1      30.680  23.233  24.274  1.00  0.00     0.283 C 
ATOM     13  H   UNL A   1      32.587  22.556  24.472  1.00  0.00     0.348 HD
ATOM     14  C   UNL A   1      31.581  25.203  23.849  1.00  0.00     0.084 C 
ATOM     15  C   UNL A   1      31.790  26.677  23.983  1.00  0.00     0.113 C 
ATOM     16  C   UNL A   1      30.112  25.837  25.478  1.00  0.00     0.127 C 
ATOM     17  N   UNL A   1      31.030  26.997  25.187  1.00  0.00    -0.200 NA
BRANCH  10  18
ATOM     18  C   UNL A   1      32.214  21.996  22.672  1.00  0.00     0.338 C 
BRANCH  18  19
ATOM     19  C   UNL A   1      32.273  20.579  23.156  1.00  0.00     0.161 A 
ATOM     20  C   UNL A   1      32.751  17.996  25.549  1.00  0.00     0.068 C 
ATOM     21  C   UNL A   1      32.486  18.794  24.337  1.00  0.00     0.056 A 
ATOM     22  C   UNL A   1      32.270  18.365  23.048  1.00  0.00     0.107 A 
ATOM     23  N   UNL A   1      32.449  20.167  24.397  1.00  0.00    -0.233 NA
ATOM     24  N   UNL A   1      32.158  19.505  22.305  1.00  0.00    -0.344 N 
ATOM     25  H   UNL A   1      32.018  19.550  21.331  1.00  0.00     0.167 HD
ENDBRANCH  18  19
ENDBRANCH  10  18
BRANCH  17  26
ATOM     26  S   UNL A   1      31.838  27.858  26.379  1.00  0.00     0.211 S 
ATOM     27  C   UNL A   1      33.526  27.312  26.202  1.00  0.00     0.176 C 
ATOM     28  O   UNL A   1      31.811  29.256  25.981  1.00  0.00    -0.213 OA
ATOM     29  O   UNL A   1      31.357  27.445  27.673  1.00  0.00    -0.213 OA
ENDBRANCH  17  26
ENDBRANCH   7   9
ENDBRANCH   6   7
ENDBRANCH   5   6
ENDBRANCH   4   5
ENDBRANCH   3   4
ENDBRANCH   2   3
ENDBRANCH   1   2
BRANCH   1  30
ATOM     30  O   UNL A   1      38.479  22.021  25.588  1.00  0.00    -0.376 OA
BRANCH  30  31
ATOM     31  C   UNL A   1      39.126  20.768  25.394  1.00  0.00     0.202 C 
BRANCH  31  32
ATOM     32  C   UNL A   1      40.031  20.058  26.435  1.00  0.00     0.261 C 
BRANCH  32  33
ATOM     33  O   UNL A   1      40.800  18.927  25.999  1.00  0.00    -0.460 OA
BRANCH  33  34
ATOM     34  C   UNL A   1      42.150  19.035  26.169  1.00  0.00     0.338 C 
ATOM     35  O   UNL A   1      42.981  18.158  26.017  1.00  0.00    -0.246 OA
BRANCH  34  36
ATOM     36  C   UNL A   1      42.492  20.467  26.328  1.00  0.00     0.060 A 
ATOM     37  C   UNL A   1      42.402  21.045  27.603  1.00  0.00     0.016 A 
ATOM     38  C   UNL A   1      42.906  21.233  25.242  1.00  0.00     0.016 A 
ATOM     39  C   UNL A   1      42.790  22.368  27.808  1.00  0.00     0.010 A 
ATOM     40  C   UNL A   1      43.230  22.582  25.441  1.00  0.00     0.010 A 
ATOM     41  C   UNL A   1      43.177  23.159  26.725  1.00  0.00    -0.014 A 
BRANCH  41  42
ATOM     42  C   UNL A   1      43.362  24.625  26.893  1.00  0.00     0.031 A 
ATOM     43  C   UNL A   1      44.672  25.232  26.477  1.00  0.00     0.074 A 
ATOM     44  C   UNL A   1      42.389  25.418  27.379  1.00  0.00     0.049 A 
ATOM     45  N   UNL A   1      45.144  26.430  26.699  1.00  0.00    -0.248 NA
ATOM     46  C   UNL A   1      45.565  24.362  25.698  1.00  0.00     0.031 C 
ATOM     47  C   UNL A   1      41.024  24.995  27.685  1.00  0.00     0.029 A 
ATOM     48  N   UNL A   1      42.407  26.753  27.705  1.00  0.00    -0.354 N 
ATOM     49  C   UNL A   1      46.407  26.451  26.118  1.00  0.00     0.074 A 
ATOM     50  C   UNL A   1      46.624  25.140  25.541  1.00  0.00     0.031 C 
ATOM     51  C   UNL A   1      40.343  26.046  28.175  1.00  0.00     0.029 A 
ATOM     52  C   UNL A   1      41.242  27.194  28.288  1.00  0.00     0.049 A 
ATOM     53  H   UNL A   1      43.182  27.339  27.537  1.00  0.00     0.167 HD
ATOM     54  C   UNL A   1      47.302  27.468  26.080  1.00  0.00     0.034 A 
ATOM     55  C   UNL A   1      40.954  28.367  28.894  1.00  0.00     0.034 A 
ATOM     56  C   UNL A   1      47.071  28.766  26.665  1.00  0.00     0.049 A 
ATOM     57  C   UNL A   1      42.025  29.431  28.988  1.00  0.00     0.074 A 
ATOM     58  C   UNL A   1      47.915  29.862  26.688  1.00  0.00     0.029 A 
ATOM     59  N   UNL A   1      45.918  29.141  27.342  1.00  0.00    -0.354 N 
ATOM     60  N   UNL A   1      43.240  29.431  28.488  1.00  0.00    -0.248 NA
ATOM     61  C   UNL A   1      41.692  30.648  29.744  1.00  0.00     0.031 C 
ATOM     62  C   UNL A   1      47.311  30.865  27.453  1.00  0.00     0.029 A 
ATOM     63  C   UNL A   1      46.050  30.431  27.830  1.00  0.00     0.049 A 
ATOM     64  H   UNL A   1      45.123  28.572  27.459  1.00  0.00     0.167 HD
ATOM     65  C   UNL A   1      43.802  30.655  28.850  1.00  0.00     0.074 A 
ATOM     66  C   UNL A   1      42.791  31.373  29.594  1.00  0.00     0.031 C 
ATOM     67  C   UNL A   1      45.043  31.139  28.586  1.00  0.00     0.034 A 
BRANCH  54  68
ATOM     68  C   UNL A   1      48.646  27.183  25.455  1.00  0.00     0.023 A 
ATOM     69  C   UNL A   1      49.715  26.655  26.197  1.00  0.00     0.031 A 
ATOM     70  C   UNL A   1      48.868  27.481  24.098  1.00  0.00     0.131 A 
ATOM     71  C   UNL A   1      50.977  26.513  25.599  1.00  0.00     0.055 A 
ATOM     72  C   UNL A   1      50.101  27.254  23.486  1.00  0.00     0.041 A 
ATOM     73  F   UNL A   1      47.891  28.011  23.346  1.00  0.00    -0.206 F 
ATOM     74  C   UNL A   1      51.170  26.783  24.241  1.00  0.00     0.022 A 
BRANCH  71  75
ATOM     75  S   UNL A   1      52.396  26.126  26.659  1.00  0.00     0.124 S 
ATOM     76  O   UNL A   1      52.597  24.707  26.376  1.00  0.00    -0.237 OA
ATOM     77  O   UNL A   1      53.423  27.030  26.153  1.00  0.00    -0.237 OA
ATOM     78  O   UNL A   1      51.909  26.423  28.005  1.00  0.00    -0.744 OA
ENDBRANCH  71  75
ENDBRANCH  54  68
BRANCH  55  79
ATOM     79  C   UNL A   1      39.626  28.578  29.548  1.00  0.00     0.023 A 
ATOM     80  C   UNL A   1      38.565  29.187  28.859  1.00  0.00     0.031 A 
ATOM     81  C   UNL A   1      39.425  28.242  30.899  1.00  0.00     0.131 A 
ATOM     82  C   UNL A   1      37.367  29.477  29.533  1.00  0.00     0.055 A 
ATOM     83  C   UNL A   1      38.211  28.477  31.547  1.00  0.00     0.041 A 
ATOM     84  F   UNL A   1      40.411  27.678  31.614  1.00  0.00    -0.206 F 
ATOM     85  C   UNL A   1      37.176  29.110  30.866  1.00  0.00     0.022 A 
BRANCH  82  86
ATOM     86  S   UNL A   1      36.091  30.430  28.665  1.00  0.00     0.124 S 
ATOM     87  O   UNL A   1      35.709  31.407  29.678  1.00  0.00    -0.237 OA
ATOM     88  O   UNL A   1      36.828  30.950  27.518  1.00  0.00    -0.237 OA
ATOM     89  O   UNL A   1      35.074  29.429  28.348  1.00  0.00    -0.744 OA
ENDBRANCH  82  86
ENDBRANCH  55  79
BRANCH  67  90
ATOM     90  C   UNL A   1      45.370  32.531  29.076  1.00  0.00     0.023 A 
ATOM     91  C   UNL A   1      45.151  33.668  28.278  1.00  0.00     0.031 A 
ATOM     92  C   UNL A   1      45.884  32.724  30.371  1.00  0.00     0.131 A 
ATOM     93  C   UNL A   1      45.480  34.941  28.769  1.00  0.00     0.055 A 
ATOM     94  C   UNL A   1      46.151  33.997  30.876  1.00  0.00     0.041 A 
ATOM     95  F   UNL A   1      46.117  31.675  31.177  1.00  0.00    -0.206 F 
ATOM     96  C   UNL A   1      45.958  35.115  30.071  1.00  0.00     0.022 A 
BRANCH  93  97
ATOM     97  S   UNL A   1      45.343  36.368  27.658  1.00  0.00     0.124 S 
ATOM     98  O   UNL A   1      46.622  37.038  27.867  1.00  0.00    -0.237 OA
ATOM     99  O   UNL A   1      45.159  35.736  26.355  1.00  0.00    -0.237 OA
ATOM    100  O   UNL A   1      44.175  37.088  28.166  1.00  0.00    -0.744 OA
ENDBRANCH  93  97
ENDBRANCH  67  90
ENDBRANCH  41  42
ENDBRANCH  34  36
ENDBRANCH  33  34
ENDBRANCH  32  33
ENDBRANCH  31  32
ENDBRANCH  30  31
ENDBRANCH   1  30
TORSDOF 23
ENDMDL
MODEL 3
REMARK VINA RESULT:     -10.0      1.539      7.676
REMARK SMILES Cc1c[nH]c(C[N@H+]2C[C@@H]3CN(S(C)(=O)=O)C[C@@]3(C(=O)OCCOCCOCCOC(=O)c3ccc(-c4c5nc(c(-c6cc(S(=O)(=O)[O-])ccc6F)c6ccc([nH]6)c(-c6cc(S(=O)(=O)[O-])ccc6F)c6nc(c(-c7cc(S(=O)(=O)[O-])ccc7F)c7ccc4[nH]7)C=C6)C=C5)cc3)C2)n1
REMARK SMILES IDX 25 1 24 2 23 3 22 4 21 5 20 6 18 7 19 8 17 9 7 10 8 11 95 12
REMARK SMILES IDX 9 14 10 15 16 16 11 17 6 18 5 19 1 20 2 21 3 22 96 23 4 24
REMARK SMILES IDX 12 26 13 27 14 28 15 29 26 30 27 31 28 32 29 33 30 34 31 35
REMARK SMILES IDX 32 36 33 37 94 38 34 39 93 40 35 41 36 42 37 43 87 44 38 45
REMARK SMILES IDX 92 46 86 47 88 48 39 49 91 50 85 51 84 52 40 54 72 55 52 56
REMARK SMILES IDX 71 57 53 58 56 59 70 60 89 61 54 62 55 63 69 65 90 66 57 67
REMARK SMILES IDX 41 68 42 69 50 70 43 71 49 72 51 73 48 74 44 75 45 76 46 77
REMARK SMILES IDX 47 78 73 79 74 80 82 81 75 82 81 83 83 84 80 85 76 86 77 87
REMARK SMILES IDX 78 88 79 89 58 90 59 91 67 92 60 93 66 94 68 95 65 96 61 97
REMARK SMILES IDX 62 98 63 99 64 100
REMARK H PARENT 7 13 4 25 88 53 56 64
REMARK Flexibility Score: inf
ROOT
ATOM      1  C   UNL A   1      34.355  32.350  28.073  1.00  0.00     0.188 C 
ENDROOT
BRANCH   1   2
ATOM      2  C   UNL A   1      35.670  31.576  27.990  1.00  0.00     0.188 C 
BRANCH   2   3
ATOM      3  O   UNL A   1      35.686  30.284  27.424  1.00  0.00    -0.376 OA
BRANCH   3   4
ATOM      4  C   UNL A   1      34.453  29.676  27.043  1.00  0.00     0.202 C 
BRANCH   4   5
ATOM      5  C   UNL A   1      34.296  28.139  26.868  1.00  0.00     0.261 C 
BRANCH   5   6
ATOM      6  O   UNL A   1      33.370  27.808  25.820  1.00  0.00    -0.463 OA
BRANCH   6   7
ATOM      7  C   UNL A   1      32.316  26.921  25.975  1.00  0.00     0.319 C 
ATOM      8  O   UNL A   1      31.584  26.862  26.945  1.00  0.00    -0.251 OA
BRANCH   7   9
ATOM      9  C   UNL A   1      32.222  26.164  24.632  1.00  0.00     0.140 C 
ATOM     10  N   UNL A   1      31.239  27.872  23.326  1.00  0.00    -0.327 N 
ATOM     11  C   UNL A   1      30.339  26.731  23.175  1.00  0.00     0.268 C 
ATOM     12  C   UNL A   1      32.604  27.379  23.727  1.00  0.00     0.283 C 
ATOM     13  H   UNL A   1      30.924  28.463  24.096  1.00  0.00     0.348 HD
ATOM     14  C   UNL A   1      31.263  25.634  23.565  1.00  0.00     0.084 C 
ATOM     15  C   UNL A   1      30.769  24.248  23.837  1.00  0.00     0.113 C 
ATOM     16  C   UNL A   1      32.768  24.779  25.053  1.00  0.00     0.127 C 
ATOM     17  N   UNL A   1      31.598  23.832  24.964  1.00  0.00    -0.200 NA
BRANCH  10  18
ATOM     18  C   UNL A   1      31.164  28.838  22.226  1.00  0.00     0.338 C 
BRANCH  18  19
ATOM     19  C   UNL A   1      30.067  29.852  22.343  1.00  0.00     0.161 A 
ATOM     20  C   UNL A   1      27.292  31.452  23.880  1.00  0.00     0.068 C 
ATOM     21  C   UNL A   1      28.392  31.036  22.990  1.00  0.00     0.056 A 
ATOM     22  C   UNL A   1      28.714  31.499  21.736  1.00  0.00     0.107 A 
ATOM     23  N   UNL A   1      29.261  30.041  23.370  1.00  0.00    -0.233 NA
ATOM     24  N   UNL A   1      29.763  30.727  21.326  1.00  0.00    -0.344 N 
ATOM     25  H   UNL A   1      30.221  30.787  20.456  1.00  0.00     0.167 HD
ENDBRANCH  18  19
ENDBRANCH  10  18
BRANCH  17  26
ATOM     26  S   UNL A   1      30.792  23.228  26.306  1.00  0.00     0.211 S 
ATOM     27  C   UNL A   1      32.096  23.023  27.504  1.00  0.00     0.176 C 
ATOM     28  O   UNL A   1      29.939  24.296  26.801  1.00  0.00    -0.213 OA
ATOM     29  O   UNL A   1      30.252  21.929  25.992  1.00  0.00    -0.213 OA
ENDBRANCH  17  26
ENDBRANCH   7   9
ENDBRANCH   6   7
ENDBRANCH   5   6
ENDBRANCH   4   5
ENDBRANCH   3   4
ENDBRANCH   2   3
ENDBRANCH   1   2
BRANCH   1  30
ATOM     30  O   UNL A   1      34.191  33.591  27.431  1.00  0.00    -0.376 OA
BRANCH  30  31
ATOM     31  C   UNL A   1      34.398  34.780  28.185  1.00  0.00     0.202 C 
BRANCH  31  32
ATOM     32  C   UNL A   1      33.462  35.302  29.308  1.00  0.00     0.261 C 
BRANCH  32  33
ATOM     33  O   UNL A   1      33.072  34.385  30.341  1.00  0.00    -0.460 OA
BRANCH  33  34
ATOM     34  C   UNL A   1      33.491  34.707  31.599  1.00  0.00     0.338 C 
ATOM     35  O   UNL A   1      32.835  35.238  32.477  1.00  0.00    -0.246 OA
BRANCH  34  36
ATOM     36  C   UNL A   1      34.813  34.082  31.830  1.00  0.00     0.060 A 
ATOM     37  C   UNL A   1      34.864  32.796  32.389  1.00  0.00     0.016 A 
ATOM     38  C   UNL A   1      35.990  34.744  31.494  1.00  0.00     0.016 A 
ATOM     39  C   UNL A   1      36.085  32.143  32.548  1.00  0.00     0.010 A 
ATOM     40  C   UNL A   1      37.220  34.110  31.719  1.00  0.00     0.010 A 
ATOM     41  C   UNL A   1      37.277  32.804  32.245  1.00  0.00    -0.014 A 
BRANCH  41  42
ATOM     42  C   UNL A   1      38.584  32.212  32.633  1.00  0.00     0.031 A 
ATOM     43  C   UNL A   1      39.186  31.164  31.740  1.00  0.00     0.074 A 
ATOM     44  C   UNL A   1      39.249  32.603  33.737  1.00  0.00     0.049 A 
ATOM     45  N   UNL A   1      40.200  30.369  31.954  1.00  0.00    -0.248 NA
ATOM     46  C   UNL A   1      38.553  31.000  30.423  1.00  0.00     0.031 C 
ATOM     47  C   UNL A   1      38.861  33.706  34.613  1.00  0.00     0.029 A 
ATOM     48  N   UNL A   1      40.395  32.106  34.310  1.00  0.00    -0.354 N 
ATOM     49  C   UNL A   1      40.310  29.582  30.813  1.00  0.00     0.074 A 
ATOM     50  C   UNL A   1      39.251  29.996  29.915  1.00  0.00     0.031 C 
ATOM     51  C   UNL A   1      39.742  33.786  35.625  1.00  0.00     0.029 A 
ATOM     52  C   UNL A   1      40.711  32.697  35.511  1.00  0.00     0.049 A 
ATOM     53  H   UNL A   1      40.938  31.393  33.899  1.00  0.00     0.167 HD
ATOM     54  C   UNL A   1      41.206  28.601  30.545  1.00  0.00     0.034 A 
ATOM     55  C   UNL A   1      41.637  32.362  36.436  1.00  0.00     0.034 A 
ATOM     56  C   UNL A   1      42.251  28.197  31.454  1.00  0.00     0.049 A 
ATOM     57  C   UNL A   1      42.519  31.157  36.194  1.00  0.00     0.074 A 
ATOM     58  C   UNL A   1      43.206  27.210  31.283  1.00  0.00     0.029 A 
ATOM     59  N   UNL A   1      42.474  28.749  32.709  1.00  0.00    -0.354 N 
ATOM     60  N   UNL A   1      42.585  30.377  35.139  1.00  0.00    -0.248 NA
ATOM     61  C   UNL A   1      43.441  30.777  37.275  1.00  0.00     0.031 C 
ATOM     62  C   UNL A   1      43.945  27.104  32.466  1.00  0.00     0.029 A 
ATOM     63  C   UNL A   1      43.515  28.088  33.342  1.00  0.00     0.049 A 
ATOM     64  H   UNL A   1      41.966  29.499  33.093  1.00  0.00     0.167 HD
ATOM     65  C   UNL A   1      43.571  29.432  35.423  1.00  0.00     0.074 A 
ATOM     66  C   UNL A   1      44.083  29.748  36.739  1.00  0.00     0.031 C 
ATOM     67  C   UNL A   1      44.012  28.398  34.662  1.00  0.00     0.034 A 
BRANCH  54  68
ATOM     68  C   UNL A   1      41.035  27.841  29.253  1.00  0.00     0.023 A 
ATOM     69  C   UNL A   1      41.887  28.040  28.154  1.00  0.00     0.031 A 
ATOM     70  C   UNL A   1      39.974  26.928  29.108  1.00  0.00     0.131 A 
ATOM     71  C   UNL A   1      41.620  27.394  26.938  1.00  0.00     0.055 A 
ATOM     72  C   UNL A   1      39.767  26.222  27.923  1.00  0.00     0.041 A 
ATOM     73  F   UNL A   1      39.112  26.717  30.115  1.00  0.00    -0.206 F 
ATOM     74  C   UNL A   1      40.582  26.465  26.823  1.00  0.00     0.022 A 
BRANCH  71  75
ATOM     75  S   UNL A   1      42.547  27.906  25.466  1.00  0.00     0.124 S 
ATOM     76  O   UNL A   1      42.424  26.727  24.614  1.00  0.00    -0.237 OA
ATOM     77  O   UNL A   1      41.816  29.090  25.030  1.00  0.00    -0.237 OA
ATOM     78  O   UNL A   1      43.893  28.157  25.979  1.00  0.00    -0.744 OA
ENDBRANCH  71  75
ENDBRANCH  54  68
BRANCH  55  79
ATOM     79  C   UNL A   1      41.728  33.111  37.726  1.00  0.00     0.023 A 
ATOM     80  C   UNL A   1      40.962  32.735  38.841  1.00  0.00     0.031 A 
ATOM     81  C   UNL A   1      42.527  34.264  37.838  1.00  0.00     0.131 A 
ATOM     82  C   UNL A   1      40.981  33.524  40.003  1.00  0.00     0.055 A 
ATOM     83  C   UNL A   1      42.590  35.010  39.016  1.00  0.00     0.041 A 
ATOM     84  F   UNL A   1      43.264  34.684  36.797  1.00  0.00    -0.206 F 
ATOM     85  C   UNL A   1      41.803  34.648  40.104  1.00  0.00     0.022 A 
BRANCH  82  86
ATOM     86  S   UNL A   1      39.840  33.113  41.352  1.00  0.00     0.124 S 
ATOM     87  O   UNL A   1      39.294  31.838  40.901  1.00  0.00    -0.237 OA
ATOM     88  O   UNL A   1      40.737  33.057  42.502  1.00  0.00    -0.237 OA
ATOM     89  O   UNL A   1      38.898  34.230  41.354  1.00  0.00    -0.744 OA
ENDBRANCH  82  86
ENDBRANCH  55  79
BRANCH  67  90
ATOM     90  C   UNL A   1      45.132  27.549  35.217  1.00  0.00     0.023 A 
ATOM     91  C   UNL A   1      44.889  26.300  35.815  1.00  0.00     0.031 A 
ATOM     92  C   UNL A   1      46.467  27.985  35.122  1.00  0.00     0.131 A 
ATOM     93  C   UNL A   1      45.959  25.550  36.328  1.00  0.00     0.055 A 
ATOM     94  C   UNL A   1      47.531  27.206  35.578  1.00  0.00     0.041 A 
ATOM     95  F   UNL A   1      46.760  29.171  34.564  1.00  0.00    -0.206 F 
ATOM     96  C   UNL A   1      47.279  25.984  36.194  1.00  0.00     0.022 A 
BRANCH  93  97
ATOM     97  S   UNL A   1      45.597  24.024  37.241  1.00  0.00     0.124 S 
ATOM     98  O   UNL A   1      44.449  23.498  36.509  1.00  0.00    -0.237 OA
ATOM     99  O   UNL A   1      46.841  23.272  37.102  1.00  0.00    -0.237 OA
ATOM    100  O   UNL A   1      45.307  24.494  38.595  1.00  0.00    -0.744 OA
ENDBRANCH  93  97
ENDBRANCH  67  90
ENDBRANCH  41  42
ENDBRANCH  34  36
ENDBRANCH  33  34
ENDBRANCH  32  33
ENDBRANCH  31  32
ENDBRANCH  30  31
ENDBRANCH   1  30
TORSDOF 23
ENDMDL
