MODEL 1
REMARK VINA RESULT:     -11.4      0.000      0.000
REMARK SMILES Cc1cccc2c1[C@H]1c3c(C)cccc3[C@H](CC(=O)OCCOCCOCCOC(=O)c3ccc(-c4c5nc(c(-c6cc(S(=O)(=O)[O-])ccc6F)c6ccc([nH]6)c(-c6cc(S(=O)(=O)[O-])ccc6F)c6nc(c(-c7cc(S(=O)(=O)[O-])ccc7F)c7ccc4[nH]7)C=C6)C=C5)cc3)C[C@H]1CC2
REMARK SMILES IDX 25 1 24 2 23 3 22 4 21 5 20 6 18 7 19 8 17 9 16 10 1 11 2 12
REMARK SMILES IDX 3 13 7 14 4 15 6 16 8 17 5 18 98 19 9 20 96 21 97 22 10 23
REMARK SMILES IDX 15 24 95 25 12 26 11 27 14 28 13 29 26 30 27 31 28 32 29 33
REMARK SMILES IDX 30 34 31 35 32 36 33 37 94 38 34 39 93 40 35 41 36 42 37 43
REMARK SMILES IDX 87 44 38 45 92 46 86 47 88 48 39 49 91 50 85 51 84 52 40 54
REMARK SMILES IDX 72 55 52 56 71 57 53 58 56 59 70 60 89 61 54 62 55 63 69 65
REMARK SMILES IDX 90 66 57 67 41 68 42 69 50 70 43 71 49 72 51 73 48 74 44 75
REMARK SMILES IDX 45 76 46 77 47 78 73 79 74 80 82 81 75 82 81 83 83 84 80 85
REMARK SMILES IDX 76 86 77 87 78 88 79 89 58 90 59 91 67 92 60 93 66 94 68 95
REMARK SMILES IDX 65 96 61 97 62 98 63 99 64 100
REMARK H PARENT 88 53 56 64
REMARK Flexibility Score: inf
ROOT
ATOM      1  C   UNL A   1      32.469  29.283  26.510  1.00  0.00     0.188 C 
ENDROOT
BRANCH   1   2
ATOM      2  C   UNL A   1      33.489  28.430  25.755  1.00  0.00     0.188 C 
BRANCH   2   3
ATOM      3  O   UNL A   1      33.086  27.888  24.508  1.00  0.00    -0.376 OA
BRANCH   3   4
ATOM      4  C   UNL A   1      32.379  28.744  23.611  1.00  0.00     0.202 C 
BRANCH   4   5
ATOM      5  C   UNL A   1      30.926  28.366  23.254  1.00  0.00     0.261 C 
BRANCH   5   6
ATOM      6  O   UNL A   1      30.055  28.121  24.400  1.00  0.00    -0.463 OA
BRANCH   6   7
ATOM      7  C   UNL A   1      29.644  26.839  24.554  1.00  0.00     0.306 C 
ATOM      8  O   UNL A   1      28.778  26.332  23.841  1.00  0.00    -0.252 OA
BRANCH   7   9
ATOM      9  C   UNL A   1      30.487  25.963  25.488  1.00  0.00     0.131 C 
BRANCH   9  10
ATOM     10  C   UNL A   1      30.962  24.471  25.321  1.00  0.00     0.031 C 
ATOM     11  C   UNL A   1      36.739  23.680  26.123  1.00  0.00     0.044 C 
ATOM     12  C   UNL A   1      36.205  22.351  25.650  1.00  0.00    -0.047 A 
ATOM     13  C   UNL A   1      37.138  21.341  25.359  1.00  0.00     0.004 A 
ATOM     14  C   UNL A   1      34.814  22.087  25.506  1.00  0.00    -0.034 A 
ATOM     15  C   UNL A   1      36.717  20.067  24.993  1.00  0.00     0.001 A 
ATOM     16  C   UNL A   1      34.402  20.753  25.285  1.00  0.00    -0.044 A 
ATOM     17  C   UNL A   1      33.758  23.197  25.547  1.00  0.00     0.053 C 
ATOM     18  C   UNL A   1      35.360  19.763  25.002  1.00  0.00     0.004 A 
ATOM     19  C   UNL A   1      32.972  20.318  25.499  1.00  0.00     0.036 C 
ATOM     20  C   UNL A   1      33.292  23.833  24.206  1.00  0.00    -0.034 A 
ATOM     21  C   UNL A   1      32.535  22.666  26.338  1.00  0.00     0.002 C 
ATOM     22  C   UNL A   1      31.941  21.442  25.632  1.00  0.00     0.009 C 
ATOM     23  C   UNL A   1      34.112  23.941  23.036  1.00  0.00    -0.047 A 
ATOM     24  C   UNL A   1      31.977  24.411  24.139  1.00  0.00    -0.040 A 
ATOM     25  C   UNL A   1      31.546  23.819  26.583  1.00  0.00     0.013 C 
ATOM     26  C   UNL A   1      33.652  24.649  21.907  1.00  0.00     0.004 A 
ATOM     27  C   UNL A   1      35.481  23.343  22.838  1.00  0.00     0.044 C 
ATOM     28  C   UNL A   1      31.529  24.971  22.920  1.00  0.00     0.004 A 
ATOM     29  C   UNL A   1      32.370  25.147  21.839  1.00  0.00     0.001 A 
ENDBRANCH   9  10
ENDBRANCH   7   9
ENDBRANCH   6   7
ENDBRANCH   5   6
ENDBRANCH   4   5
ENDBRANCH   3   4
ENDBRANCH   2   3
ENDBRANCH   1   2
BRANCH   1  30
ATOM     30  O   UNL A   1      32.676  30.678  26.417  1.00  0.00    -0.376 OA
BRANCH  30  31
ATOM     31  C   UNL A   1      31.556  31.538  26.524  1.00  0.00     0.202 C 
BRANCH  31  32
ATOM     32  C   UNL A   1      31.948  33.021  26.577  1.00  0.00     0.261 C 
BRANCH  32  33
ATOM     33  O   UNL A   1      32.157  33.558  27.897  1.00  0.00    -0.460 OA
BRANCH  33  34
ATOM     34  C   UNL A   1      33.227  34.367  28.079  1.00  0.00     0.338 C 
ATOM     35  O   UNL A   1      33.230  35.590  28.093  1.00  0.00    -0.246 OA
BRANCH  34  36
ATOM     36  C   UNL A   1      34.347  33.520  28.551  1.00  0.00     0.060 A 
ATOM     37  C   UNL A   1      34.049  32.353  29.271  1.00  0.00     0.016 A 
ATOM     38  C   UNL A   1      35.666  33.823  28.220  1.00  0.00     0.016 A 
ATOM     39  C   UNL A   1      35.070  31.510  29.707  1.00  0.00     0.010 A 
ATOM     40  C   UNL A   1      36.689  32.986  28.665  1.00  0.00     0.010 A 
ATOM     41  C   UNL A   1      36.399  31.848  29.438  1.00  0.00    -0.014 A 
BRANCH  41  42
ATOM     42  C   UNL A   1      37.502  31.121  30.104  1.00  0.00     0.031 A 
ATOM     43  C   UNL A   1      37.821  31.466  31.528  1.00  0.00     0.074 A 
ATOM     44  C   UNL A   1      38.231  30.200  29.450  1.00  0.00     0.049 A 
ATOM     45  N   UNL A   1      38.780  31.017  32.291  1.00  0.00    -0.248 NA
ATOM     46  C   UNL A   1      36.945  32.457  32.175  1.00  0.00     0.031 C 
ATOM     47  C   UNL A   1      37.999  29.766  28.076  1.00  0.00     0.029 A 
ATOM     48  N   UNL A   1      39.330  29.485  29.856  1.00  0.00    -0.354 N 
ATOM     49  C   UNL A   1      38.641  31.686  33.500  1.00  0.00     0.074 A 
ATOM     50  C   UNL A   1      37.516  32.584  33.363  1.00  0.00     0.031 C 
ATOM     51  C   UNL A   1      38.945  28.871  27.742  1.00  0.00     0.029 A 
ATOM     52  C   UNL A   1      39.867  28.696  28.867  1.00  0.00     0.049 A 
ATOM     53  H   UNL A   1      39.698  29.531  30.767  1.00  0.00     0.167 HD
ATOM     54  C   UNL A   1      39.387  31.562  34.620  1.00  0.00     0.034 A 
ATOM     55  C   UNL A   1      40.985  27.940  28.859  1.00  0.00     0.034 A 
ATOM     56  C   UNL A   1      40.503  30.663  34.746  1.00  0.00     0.049 A 
ATOM     57  C   UNL A   1      41.826  27.838  30.106  1.00  0.00     0.074 A 
ATOM     58  C   UNL A   1      41.277  30.421  35.867  1.00  0.00     0.029 A 
ATOM     59  N   UNL A   1      41.020  29.879  33.725  1.00  0.00    -0.354 N 
ATOM     60  N   UNL A   1      41.638  28.410  31.273  1.00  0.00    -0.248 NA
ATOM     61  C   UNL A   1      43.022  26.987  30.045  1.00  0.00     0.031 C 
ATOM     62  C   UNL A   1      42.308  29.554  35.505  1.00  0.00     0.029 A 
ATOM     63  C   UNL A   1      42.131  29.188  34.179  1.00  0.00     0.049 A 
ATOM     64  H   UNL A   1      40.652  29.823  32.814  1.00  0.00     0.167 HD
ATOM     65  C   UNL A   1      42.678  27.973  32.089  1.00  0.00     0.074 A 
ATOM     66  C   UNL A   1      43.484  27.076  31.288  1.00  0.00     0.031 C 
ATOM     67  C   UNL A   1      42.934  28.288  33.385  1.00  0.00     0.034 A 
BRANCH  54  68
ATOM     68  C   UNL A   1      39.047  32.426  35.805  1.00  0.00     0.023 A 
ATOM     69  C   UNL A   1      39.577  33.726  35.884  1.00  0.00     0.031 A 
ATOM     70  C   UNL A   1      38.305  31.937  36.893  1.00  0.00     0.131 A 
ATOM     71  C   UNL A   1      39.388  34.482  37.045  1.00  0.00     0.055 A 
ATOM     72  C   UNL A   1      38.085  32.711  38.033  1.00  0.00     0.041 A 
ATOM     73  F   UNL A   1      37.773  30.704  36.858  1.00  0.00    -0.206 F 
ATOM     74  C   UNL A   1      38.639  33.985  38.117  1.00  0.00     0.022 A 
BRANCH  71  75
ATOM     75  S   UNL A   1      40.150  36.116  37.228  1.00  0.00     0.124 S 
ATOM     76  O   UNL A   1      39.951  36.691  35.899  1.00  0.00    -0.237 OA
ATOM     77  O   UNL A   1      39.344  36.710  38.292  1.00  0.00    -0.237 OA
ATOM     78  O   UNL A   1      41.536  35.821  37.574  1.00  0.00    -0.744 OA
ENDBRANCH  71  75
ENDBRANCH  54  68
BRANCH  55  79
ATOM     79  C   UNL A   1      41.324  27.191  27.618  1.00  0.00     0.023 A 
ATOM     80  C   UNL A   1      41.202  25.791  27.567  1.00  0.00     0.031 A 
ATOM     81  C   UNL A   1      41.908  27.848  26.524  1.00  0.00     0.131 A 
ATOM     82  C   UNL A   1      41.735  25.087  26.480  1.00  0.00     0.055 A 
ATOM     83  C   UNL A   1      42.383  27.147  25.415  1.00  0.00     0.041 A 
ATOM     84  F   UNL A   1      42.044  29.183  26.533  1.00  0.00    -0.206 F 
ATOM     85  C   UNL A   1      42.315  25.757  25.398  1.00  0.00     0.022 A 
BRANCH  82  86
ATOM     86  S   UNL A   1      41.791  23.274  26.489  1.00  0.00     0.124 S 
ATOM     87  O   UNL A   1      42.515  22.992  27.726  1.00  0.00    -0.237 OA
ATOM     88  O   UNL A   1      40.370  22.939  26.500  1.00  0.00    -0.237 OA
ATOM     89  O   UNL A   1      42.502  22.945  25.258  1.00  0.00    -0.744 OA
ENDBRANCH  82  86
ENDBRANCH  55  79
BRANCH  67  90
ATOM     90  C   UNL A   1      44.135  27.676  34.065  1.00  0.00     0.023 A 
ATOM     91  C   UNL A   1      44.011  26.439  34.729  1.00  0.00     0.031 A 
ATOM     92  C   UNL A   1      45.339  28.387  34.207  1.00  0.00     0.131 A 
ATOM     93  C   UNL A   1      45.050  25.976  35.545  1.00  0.00     0.055 A 
ATOM     94  C   UNL A   1      46.391  27.898  34.983  1.00  0.00     0.041 A 
ATOM     95  F   UNL A   1      45.503  29.575  33.603  1.00  0.00    -0.206 F 
ATOM     96  C   UNL A   1      46.244  26.695  35.669  1.00  0.00     0.022 A 
BRANCH  93  97
ATOM     97  S   UNL A   1      44.864  24.465  36.532  1.00  0.00     0.124 S 
ATOM     98  O   UNL A   1      43.773  23.782  35.839  1.00  0.00    -0.237 OA
ATOM     99  O   UNL A   1      46.178  23.844  36.391  1.00  0.00    -0.237 OA
ATOM    100  O   UNL A   1      44.538  24.954  37.867  1.00  0.00    -0.744 OA
ENDBRANCH  93  97
ENDBRANCH  67  90
ENDBRANCH  41  42
ENDBRANCH  34  36
ENDBRANCH  33  34
ENDBRANCH  32  33
ENDBRANCH  31  32
ENDBRANCH  30  31
ENDBRANCH   1  30
TORSDOF 21
ENDMDL
MODEL 2
REMARK VINA RESULT:     -11.3      5.981     11.568
REMARK SMILES Cc1cccc2c1[C@H]1c3c(C)cccc3[C@H](CC(=O)OCCOCCOCCOC(=O)c3ccc(-c4c5nc(c(-c6cc(S(=O)(=O)[O-])ccc6F)c6ccc([nH]6)c(-c6cc(S(=O)(=O)[O-])ccc6F)c6nc(c(-c7cc(S(=O)(=O)[O-])ccc7F)c7ccc4[nH]7)C=C6)C=C5)cc3)C[C@H]1CC2
REMARK SMILES IDX 25 1 24 2 23 3 22 4 21 5 20 6 18 7 19 8 17 9 16 10 1 11 2 12
REMARK SMILES IDX 3 13 7 14 4 15 6 16 8 17 5 18 98 19 9 20 96 21 97 22 10 23
REMARK SMILES IDX 15 24 95 25 12 26 11 27 14 28 13 29 26 30 27 31 28 32 29 33
REMARK SMILES IDX 30 34 31 35 32 36 33 37 94 38 34 39 93 40 35 41 36 42 37 43
REMARK SMILES IDX 87 44 38 45 92 46 86 47 88 48 39 49 91 50 85 51 84 52 40 54
REMARK SMILES IDX 72 55 52 56 71 57 53 58 56 59 70 60 89 61 54 62 55 63 69 65
REMARK SMILES IDX 90 66 57 67 41 68 42 69 50 70 43 71 49 72 51 73 48 74 44 75
REMARK SMILES IDX 45 76 46 77 47 78 73 79 74 80 82 81 75 82 81 83 83 84 80 85
REMARK SMILES IDX 76 86 77 87 78 88 79 89 58 90 59 91 67 92 60 93 66 94 68 95
REMARK SMILES IDX 65 96 61 97 62 98 63 99 64 100
REMARK H PARENT 88 53 56 64
REMARK Flexibility Score: inf
ROOT
ATOM      1  C   UNL A   1      41.043  21.277  27.474  1.00  0.00     0.188 C 
ENDROOT
BRANCH   1   2
ATOM      2  C   UNL A   1      40.259  22.120  26.468  1.00  0.00     0.188 C 
BRANCH   2   3
ATOM      3  O   UNL A   1      38.992  22.607  26.877  1.00  0.00    -0.376 OA
BRANCH   3   4
ATOM      4  C   UNL A   1      38.510  23.799  26.258  1.00  0.00     0.202 C 
BRANCH   4   5
ATOM      5  C   UNL A   1      37.122  23.748  25.586  1.00  0.00     0.261 C 
BRANCH   5   6
ATOM      6  O   UNL A   1      36.259  22.662  26.040  1.00  0.00    -0.463 OA
BRANCH   6   7
ATOM      7  C   UNL A   1      36.062  21.663  25.147  1.00  0.00     0.306 C 
ATOM      8  O   UNL A   1      36.901  20.785  24.940  1.00  0.00    -0.252 OA
BRANCH   7   9
ATOM      9  C   UNL A   1      34.641  21.520  24.588  1.00  0.00     0.131 C 
BRANCH   9  10
ATOM     10  C   UNL A   1      33.781  22.531  23.743  1.00  0.00     0.031 C 
ATOM     11  C   UNL A   1      33.506  27.951  26.024  1.00  0.00     0.044 C 
ATOM     12  C   UNL A   1      32.558  27.950  24.852  1.00  0.00    -0.047 A 
ATOM     13  C   UNL A   1      31.749  29.086  24.669  1.00  0.00     0.004 A 
ATOM     14  C   UNL A   1      32.467  26.867  23.934  1.00  0.00    -0.034 A 
ATOM     15  C   UNL A   1      30.907  29.190  23.567  1.00  0.00     0.001 A 
ATOM     16  C   UNL A   1      31.727  27.053  22.744  1.00  0.00    -0.044 A 
ATOM     17  C   UNL A   1      33.110  25.502  24.206  1.00  0.00     0.053 C 
ATOM     18  C   UNL A   1      30.931  28.202  22.589  1.00  0.00     0.004 A 
ATOM     19  C   UNL A   1      31.884  26.131  21.559  1.00  0.00     0.036 C 
ATOM     20  C   UNL A   1      32.249  24.391  24.872  1.00  0.00    -0.034 A 
ATOM     21  C   UNL A   1      33.716  24.984  22.877  1.00  0.00     0.002 C 
ATOM     22  C   UNL A   1      32.612  24.811  21.827  1.00  0.00     0.009 C 
ATOM     23  C   UNL A   1      31.164  24.642  25.773  1.00  0.00    -0.047 A 
ATOM     24  C   UNL A   1      32.590  23.016  24.624  1.00  0.00    -0.040 A 
ATOM     25  C   UNL A   1      34.552  23.723  23.155  1.00  0.00     0.013 C 
ATOM     26  C   UNL A   1      30.522  23.572  26.430  1.00  0.00     0.004 A 
ATOM     27  C   UNL A   1      30.572  25.984  26.118  1.00  0.00     0.044 C 
ATOM     28  C   UNL A   1      31.801  21.994  25.201  1.00  0.00     0.004 A 
ATOM     29  C   UNL A   1      30.823  22.260  26.139  1.00  0.00     0.001 A 
ENDBRANCH   9  10
ENDBRANCH   7   9
ENDBRANCH   6   7
ENDBRANCH   5   6
ENDBRANCH   4   5
ENDBRANCH   3   4
ENDBRANCH   2   3
ENDBRANCH   1   2
BRANCH   1  30
ATOM     30  O   UNL A   1      42.148  20.581  26.934  1.00  0.00    -0.376 OA
BRANCH  30  31
ATOM     31  C   UNL A   1      41.902  19.458  26.107  1.00  0.00     0.202 C 
BRANCH  31  32
ATOM     32  C   UNL A   1      43.193  18.782  25.625  1.00  0.00     0.261 C 
BRANCH  32  33
ATOM     33  O   UNL A   1      43.718  19.273  24.376  1.00  0.00    -0.460 OA
BRANCH  33  34
ATOM     34  C   UNL A   1      45.004  19.698  24.364  1.00  0.00     0.338 C 
ATOM     35  O   UNL A   1      45.958  19.136  23.847  1.00  0.00    -0.246 OA
BRANCH  34  36
ATOM     36  C   UNL A   1      45.009  21.104  24.830  1.00  0.00     0.060 A 
ATOM     37  C   UNL A   1      44.597  22.108  23.940  1.00  0.00     0.016 A 
ATOM     38  C   UNL A   1      45.333  21.423  26.147  1.00  0.00     0.016 A 
ATOM     39  C   UNL A   1      44.556  23.441  24.346  1.00  0.00     0.010 A 
ATOM     40  C   UNL A   1      45.304  22.757  26.551  1.00  0.00     0.010 A 
ATOM     41  C   UNL A   1      44.950  23.773  25.645  1.00  0.00    -0.014 A 
BRANCH  41  42
ATOM     42  C   UNL A   1      45.165  25.188  26.020  1.00  0.00     0.031 A 
ATOM     43  C   UNL A   1      46.549  25.751  25.898  1.00  0.00     0.074 A 
ATOM     44  C   UNL A   1      44.163  25.949  26.494  1.00  0.00     0.049 A 
ATOM     45  N   UNL A   1      46.991  26.934  26.230  1.00  0.00    -0.248 NA
ATOM     46  C   UNL A   1      47.574  24.858  25.333  1.00  0.00     0.031 C 
ATOM     47  C   UNL A   1      42.776  25.518  26.634  1.00  0.00     0.029 A 
ATOM     48  N   UNL A   1      44.172  27.237  26.966  1.00  0.00    -0.354 N 
ATOM     49  C   UNL A   1      48.349  26.921  25.939  1.00  0.00     0.074 A 
ATOM     50  C   UNL A   1      48.661  25.608  25.420  1.00  0.00     0.031 C 
ATOM     51  C   UNL A   1      42.067  26.521  27.180  1.00  0.00     0.029 A 
ATOM     52  C   UNL A   1      42.958  27.650  27.459  1.00  0.00     0.049 A 
ATOM     53  H   UNL A   1      44.972  27.811  26.953  1.00  0.00     0.167 HD
ATOM     54  C   UNL A   1      49.251  27.915  26.093  1.00  0.00     0.034 A 
ATOM     55  C   UNL A   1      42.608  28.794  28.083  1.00  0.00     0.034 A 
ATOM     56  C   UNL A   1      48.929  29.219  26.610  1.00  0.00     0.049 A 
ATOM     57  C   UNL A   1      43.634  29.881  28.279  1.00  0.00     0.074 A 
ATOM     58  C   UNL A   1      49.767  30.313  26.739  1.00  0.00     0.029 A 
ATOM     59  N   UNL A   1      47.689  29.603  27.099  1.00  0.00    -0.354 N 
ATOM     60  N   UNL A   1      44.898  29.892  27.924  1.00  0.00    -0.248 NA
ATOM     61  C   UNL A   1      43.193  31.112  28.951  1.00  0.00     0.031 C 
ATOM     62  C   UNL A   1      49.057  31.330  27.378  1.00  0.00     0.029 A 
ATOM     63  C   UNL A   1      47.753  30.903  27.573  1.00  0.00     0.049 A 
ATOM     64  H   UNL A   1      46.884  29.037  27.107  1.00  0.00     0.167 HD
ATOM     65  C   UNL A   1      45.396  31.134  28.309  1.00  0.00     0.074 A 
ATOM     66  C   UNL A   1      44.294  31.854  28.911  1.00  0.00     0.031 C 
ATOM     67  C   UNL A   1      46.654  31.627  28.169  1.00  0.00     0.034 A 
BRANCH  54  68
ATOM     68  C   UNL A   1      50.685  27.644  25.724  1.00  0.00     0.023 A 
ATOM     69  C   UNL A   1      51.075  27.718  24.376  1.00  0.00     0.031 A 
ATOM     70  C   UNL A   1      51.627  27.210  26.672  1.00  0.00     0.131 A 
ATOM     71  C   UNL A   1      52.366  27.327  24.005  1.00  0.00     0.055 A 
ATOM     72  C   UNL A   1      52.926  26.860  26.303  1.00  0.00     0.041 A 
ATOM     73  F   UNL A   1      51.301  27.132  27.973  1.00  0.00    -0.206 F 
ATOM     74  C   UNL A   1      53.296  26.905  24.962  1.00  0.00     0.022 A 
BRANCH  71  75
ATOM     75  S   UNL A   1      52.869  27.301  22.265  1.00  0.00     0.124 S 
ATOM     76  O   UNL A   1      53.214  28.702  22.031  1.00  0.00    -0.237 OA
ATOM     77  O   UNL A   1      53.998  26.376  22.288  1.00  0.00    -0.237 OA
ATOM     78  O   UNL A   1      51.680  26.831  21.562  1.00  0.00    -0.744 OA
ENDBRANCH  71  75
ENDBRANCH  54  68
BRANCH  55  79
ATOM     79  C   UNL A   1      41.194  28.958  28.521  1.00  0.00     0.023 A 
ATOM     80  C   UNL A   1      40.836  28.796  29.871  1.00  0.00     0.031 A 
ATOM     81  C   UNL A   1      40.170  29.132  27.576  1.00  0.00     0.131 A 
ATOM     82  C   UNL A   1      39.483  28.729  30.226  1.00  0.00     0.055 A 
ATOM     83  C   UNL A   1      38.824  29.126  27.944  1.00  0.00     0.041 A 
ATOM     84  F   UNL A   1      40.469  29.289  26.278  1.00  0.00    -0.206 F 
ATOM     85  C   UNL A   1      38.475  28.904  29.273  1.00  0.00     0.022 A 
BRANCH  82  86
ATOM     86  S   UNL A   1      38.991  28.302  31.919  1.00  0.00     0.124 S 
ATOM     87  O   UNL A   1      38.336  27.010  31.735  1.00  0.00    -0.237 OA
ATOM     88  O   UNL A   1      40.284  28.262  32.597  1.00  0.00    -0.237 OA
ATOM     89  O   UNL A   1      38.113  29.399  32.310  1.00  0.00    -0.744 OA
ENDBRANCH  82  86
ENDBRANCH  55  79
BRANCH  67  90
ATOM     90  C   UNL A   1      46.955  33.020  28.667  1.00  0.00     0.023 A 
ATOM     91  C   UNL A   1      46.878  34.114  27.782  1.00  0.00     0.031 A 
ATOM     92  C   UNL A   1      47.480  33.242  29.952  1.00  0.00     0.131 A 
ATOM     93  C   UNL A   1      47.367  35.366  28.173  1.00  0.00     0.055 A 
ATOM     94  C   UNL A   1      47.922  34.504  30.354  1.00  0.00     0.041 A 
ATOM     95  F   UNL A   1      47.583  32.232  30.829  1.00  0.00    -0.206 F 
ATOM     96  C   UNL A   1      47.881  35.570  29.458  1.00  0.00     0.022 A 
BRANCH  93  97
ATOM     97  S   UNL A   1      47.423  36.755  27.007  1.00  0.00     0.124 S 
ATOM     98  O   UNL A   1      47.620  37.895  27.901  1.00  0.00    -0.237 OA
ATOM     99  O   UNL A   1      48.572  36.410  26.175  1.00  0.00    -0.237 OA
ATOM    100  O   UNL A   1      46.126  36.709  26.341  1.00  0.00    -0.744 OA
ENDBRANCH  93  97
ENDBRANCH  67  90
ENDBRANCH  41  42
ENDBRANCH  34  36
ENDBRANCH  33  34
ENDBRANCH  32  33
ENDBRANCH  31  32
ENDBRANCH  30  31
ENDBRANCH   1  30
TORSDOF 21
ENDMDL
MODEL 3
REMARK VINA RESULT:     -11.3      1.498      7.478
REMARK SMILES Cc1cccc2c1[C@H]1c3c(C)cccc3[C@H](CC(=O)OCCOCCOCCOC(=O)c3ccc(-c4c5nc(c(-c6cc(S(=O)(=O)[O-])ccc6F)c6ccc([nH]6)c(-c6cc(S(=O)(=O)[O-])ccc6F)c6nc(c(-c7cc(S(=O)(=O)[O-])ccc7F)c7ccc4[nH]7)C=C6)C=C5)cc3)C[C@H]1CC2
REMARK SMILES IDX 25 1 24 2 23 3 22 4 21 5 20 6 18 7 19 8 17 9 16 10 1 11 2 12
REMARK SMILES IDX 3 13 7 14 4 15 6 16 8 17 5 18 98 19 9 20 96 21 97 22 10 23
REMARK SMILES IDX 15 24 95 25 12 26 11 27 14 28 13 29 26 30 27 31 28 32 29 33
REMARK SMILES IDX 30 34 31 35 32 36 33 37 94 38 34 39 93 40 35 41 36 42 37 43
REMARK SMILES IDX 87 44 38 45 92 46 86 47 88 48 39 49 91 50 85 51 84 52 40 54
REMARK SMILES IDX 72 55 52 56 71 57 53 58 56 59 70 60 89 61 54 62 55 63 69 65
REMARK SMILES IDX 90 66 57 67 41 68 42 69 50 70 43 71 49 72 51 73 48 74 44 75
REMARK SMILES IDX 45 76 46 77 47 78 73 79 74 80 82 81 75 82 81 83 83 84 80 85
REMARK SMILES IDX 76 86 77 87 78 88 79 89 58 90 59 91 67 92 60 93 66 94 68 95
REMARK SMILES IDX 65 96 61 97 62 98 63 99 64 100
REMARK H PARENT 88 53 56 64
REMARK Flexibility Score: inf
ROOT
ATOM      1  C   UNL A   1      33.202  29.488  27.279  1.00  0.00     0.188 C 
ENDROOT
BRANCH   1   2
ATOM      2  C   UNL A   1      33.079  28.519  26.103  1.00  0.00     0.188 C 
BRANCH   2   3
ATOM      3  O   UNL A   1      33.534  28.971  24.839  1.00  0.00    -0.376 OA
BRANCH   3   4
ATOM      4  C   UNL A   1      32.558  29.179  23.819  1.00  0.00     0.202 C 
BRANCH   4   5
ATOM      5  C   UNL A   1      31.119  29.517  24.261  1.00  0.00     0.261 C 
BRANCH   5   6
ATOM      6  O   UNL A   1      30.120  28.504  23.930  1.00  0.00    -0.463 OA
BRANCH   6   7
ATOM      7  C   UNL A   1      30.211  27.983  22.683  1.00  0.00     0.306 C 
ATOM      8  O   UNL A   1      30.094  28.672  21.669  1.00  0.00    -0.252 OA
BRANCH   7   9
ATOM      9  C   UNL A   1      30.725  26.542  22.583  1.00  0.00     0.131 C 
BRANCH   9  10
ATOM     10  C   UNL A   1      32.014  25.883  23.200  1.00  0.00     0.031 C 
ATOM     11  C   UNL A   1      32.073  20.003  22.936  1.00  0.00     0.044 C 
ATOM     12  C   UNL A   1      33.282  20.389  23.750  1.00  0.00    -0.047 A 
ATOM     13  C   UNL A   1      34.009  19.356  24.367  1.00  0.00     0.004 A 
ATOM     14  C   UNL A   1      33.713  21.737  23.899  1.00  0.00    -0.034 A 
ATOM     15  C   UNL A   1      35.178  19.628  25.068  1.00  0.00     0.001 A 
ATOM     16  C   UNL A   1      34.978  21.979  24.480  1.00  0.00    -0.044 A 
ATOM     17  C   UNL A   1      32.841  22.929  23.487  1.00  0.00     0.053 C 
ATOM     18  C   UNL A   1      35.683  20.923  25.084  1.00  0.00     0.004 A 
ATOM     19  C   UNL A   1      35.677  23.310  24.335  1.00  0.00     0.036 C 
ATOM     20  C   UNL A   1      31.935  23.597  24.561  1.00  0.00    -0.034 A 
ATOM     21  C   UNL A   1      33.760  23.990  22.828  1.00  0.00     0.002 C 
ATOM     22  C   UNL A   1      34.814  24.470  23.832  1.00  0.00     0.009 C 
ATOM     23  C   UNL A   1      31.375  22.910  25.685  1.00  0.00    -0.047 A 
ATOM     24  C   UNL A   1      31.578  24.980  24.394  1.00  0.00    -0.040 A 
ATOM     25  C   UNL A   1      32.894  25.103  22.212  1.00  0.00     0.013 C 
ATOM     26  C   UNL A   1      30.460  23.564  26.536  1.00  0.00     0.004 A 
ATOM     27  C   UNL A   1      31.668  21.496  26.114  1.00  0.00     0.044 C 
ATOM     28  C   UNL A   1      30.776  25.610  25.375  1.00  0.00     0.004 A 
ATOM     29  C   UNL A   1      30.173  24.903  26.396  1.00  0.00     0.001 A 
ENDBRANCH   9  10
ENDBRANCH   7   9
ENDBRANCH   6   7
ENDBRANCH   5   6
ENDBRANCH   4   5
ENDBRANCH   3   4
ENDBRANCH   2   3
ENDBRANCH   1   2
BRANCH   1  30
ATOM     30  O   UNL A   1      33.083  30.855  26.938  1.00  0.00    -0.376 OA
BRANCH  30  31
ATOM     31  C   UNL A   1      31.792  31.437  26.918  1.00  0.00     0.202 C 
BRANCH  31  32
ATOM     32  C   UNL A   1      31.832  32.970  26.970  1.00  0.00     0.261 C 
BRANCH  32  33
ATOM     33  O   UNL A   1      33.143  33.550  27.101  1.00  0.00    -0.460 OA
BRANCH  33  34
ATOM     34  C   UNL A   1      33.462  34.112  28.291  1.00  0.00     0.338 C 
ATOM     35  O   UNL A   1      32.770  34.870  28.954  1.00  0.00    -0.246 OA
BRANCH  34  36
ATOM     36  C   UNL A   1      34.672  33.423  28.795  1.00  0.00     0.060 A 
ATOM     37  C   UNL A   1      34.510  32.285  29.601  1.00  0.00     0.016 A 
ATOM     38  C   UNL A   1      35.946  33.836  28.413  1.00  0.00     0.016 A 
ATOM     39  C   UNL A   1      35.621  31.587  30.072  1.00  0.00     0.010 A 
ATOM     40  C   UNL A   1      37.059  33.145  28.892  1.00  0.00     0.010 A 
ATOM     41  C   UNL A   1      36.903  32.042  29.750  1.00  0.00    -0.014 A 
BRANCH  41  42
ATOM     42  C   UNL A   1      38.087  31.484  30.439  1.00  0.00     0.031 A 
ATOM     43  C   UNL A   1      38.890  30.434  29.730  1.00  0.00     0.074 A 
ATOM     44  C   UNL A   1      38.424  31.872  31.681  1.00  0.00     0.049 A 
ATOM     45  N   UNL A   1      39.919  29.754  30.158  1.00  0.00    -0.248 NA
ATOM     46  C   UNL A   1      38.470  30.100  28.359  1.00  0.00     0.031 C 
ATOM     47  C   UNL A   1      37.735  32.899  32.455  1.00  0.00     0.029 A 
ATOM     48  N   UNL A   1      39.421  31.425  32.512  1.00  0.00    -0.354 N 
ATOM     49  C   UNL A   1      40.257  28.894  29.121  1.00  0.00     0.074 A 
ATOM     50  C   UNL A   1      39.313  29.127  28.051  1.00  0.00     0.031 C 
ATOM     51  C   UNL A   1      38.317  32.989  33.664  1.00  0.00     0.029 A 
ATOM     52  C   UNL A   1      39.397  32.004  33.758  1.00  0.00     0.049 A 
ATOM     53  H   UNL A   1      40.089  30.755  32.242  1.00  0.00     0.167 HD
ATOM     54  C   UNL A   1      41.263  27.994  29.070  1.00  0.00     0.034 A 
ATOM     55  C   UNL A   1      40.141  31.753  34.855  1.00  0.00     0.034 A 
ATOM     56  C   UNL A   1      42.198  27.772  30.140  1.00  0.00     0.049 A 
ATOM     57  C   UNL A   1      41.237  30.720  34.793  1.00  0.00     0.074 A 
ATOM     58  C   UNL A   1      43.292  26.926  30.151  1.00  0.00     0.029 A 
ATOM     59  N   UNL A   1      42.144  28.375  31.388  1.00  0.00    -0.354 N 
ATOM     60  N   UNL A   1      41.604  29.971  33.779  1.00  0.00    -0.248 NA
ATOM     61  C   UNL A   1      42.027  30.500  36.013  1.00  0.00     0.031 C 
ATOM     62  C   UNL A   1      43.852  26.956  31.429  1.00  0.00     0.029 A 
ATOM     63  C   UNL A   1      43.160  27.884  32.192  1.00  0.00     0.049 A 
ATOM     64  H   UNL A   1      41.484  29.052  31.662  1.00  0.00     0.167 HD
ATOM     65  C   UNL A   1      42.678  29.208  34.232  1.00  0.00     0.074 A 
ATOM     66  C   UNL A   1      42.912  29.596  35.607  1.00  0.00     0.031 C 
ATOM     67  C   UNL A   1      43.400  28.274  33.562  1.00  0.00     0.034 A 
BRANCH  54  68
ATOM     68  C   UNL A   1      41.408  27.153  27.830  1.00  0.00     0.023 A 
ATOM     69  C   UNL A   1      41.029  25.800  27.865  1.00  0.00     0.031 A 
ATOM     70  C   UNL A   1      42.016  27.649  26.663  1.00  0.00     0.131 A 
ATOM     71  C   UNL A   1      41.294  24.976  26.766  1.00  0.00     0.055 A 
ATOM     72  C   UNL A   1      42.241  26.832  25.555  1.00  0.00     0.041 A 
ATOM     73  F   UNL A   1      42.387  28.937  26.581  1.00  0.00    -0.206 F 
ATOM     74  C   UNL A   1      41.892  25.487  25.609  1.00  0.00     0.022 A 
BRANCH  71  75
ATOM     75  S   UNL A   1      40.922  23.203  26.819  1.00  0.00     0.124 S 
ATOM     76  O   UNL A   1      39.490  23.188  26.526  1.00  0.00    -0.237 OA
ATOM     77  O   UNL A   1      41.782  22.681  25.761  1.00  0.00    -0.237 OA
ATOM     78  O   UNL A   1      41.280  22.809  28.178  1.00  0.00    -0.744 OA
ENDBRANCH  71  75
ENDBRANCH  54  68
BRANCH  55  79
ATOM     79  C   UNL A   1      39.876  32.547  36.087  1.00  0.00     0.023 A 
ATOM     80  C   UNL A   1      38.972  32.083  37.060  1.00  0.00     0.031 A 
ATOM     81  C   UNL A   1      40.408  33.837  36.233  1.00  0.00     0.131 A 
ATOM     82  C   UNL A   1      38.565  32.939  38.092  1.00  0.00     0.055 A 
ATOM     83  C   UNL A   1      40.046  34.664  37.297  1.00  0.00     0.041 A 
ATOM     84  F   UNL A   1      41.272  34.317  35.326  1.00  0.00    -0.206 F 
ATOM     85  C   UNL A   1      39.105  34.222  38.223  1.00  0.00     0.022 A 
BRANCH  82  86
ATOM     86  S   UNL A   1      37.241  32.451  39.230  1.00  0.00     0.124 S 
ATOM     87  O   UNL A   1      37.536  33.255  40.413  1.00  0.00    -0.237 OA
ATOM     88  O   UNL A   1      36.051  32.847  38.480  1.00  0.00    -0.237 OA
ATOM     89  O   UNL A   1      37.432  31.013  39.386  1.00  0.00    -0.744 OA
ENDBRANCH  82  86
ENDBRANCH  55  79
BRANCH  67  90
ATOM     90  C   UNL A   1      44.534  27.575  34.274  1.00  0.00     0.023 A 
ATOM     91  C   UNL A   1      44.270  26.445  35.073  1.00  0.00     0.031 A 
ATOM     92  C   UNL A   1      45.828  28.122  34.304  1.00  0.00     0.131 A 
ATOM     93  C   UNL A   1      45.270  25.930  35.908  1.00  0.00     0.055 A 
ATOM     94  C   UNL A   1      46.835  27.575  35.101  1.00  0.00     0.041 A 
ATOM     95  F   UNL A   1      46.128  29.204  33.569  1.00  0.00    -0.206 F 
ATOM     96  C   UNL A   1      46.554  26.483  35.920  1.00  0.00     0.022 A 
BRANCH  93  97
ATOM     97  S   UNL A   1      44.920  24.573  37.060  1.00  0.00     0.124 S 
ATOM     98  O   UNL A   1      45.995  24.720  38.039  1.00  0.00    -0.237 OA
ATOM     99  O   UNL A   1      43.586  24.917  37.543  1.00  0.00    -0.237 OA
ATOM    100  O   UNL A   1      45.000  23.376  36.230  1.00  0.00    -0.744 OA
ENDBRANCH  93  97
ENDBRANCH  67  90
ENDBRANCH  41  42
ENDBRANCH  34  36
ENDBRANCH  33  34
ENDBRANCH  32  33
ENDBRANCH  31  32
ENDBRANCH  30  31
ENDBRANCH   1  30
TORSDOF 21
ENDMDL
