MODEL 1
REMARK VINA RESULT:     -10.6      0.000      0.000
REMARK SMILES O=C(OCCOCCOCCOC(=O)[C@H](c1c[nH]c2ccc(Cl)cc12)[NH+]1CCN(c2cccc(Cl)c2)CC1)c1ccc(-c2c3nc(c(-c4cc(S(=O)(=O)[O-])ccc4F)c4ccc([nH]4)c(-c4cc(S(=O)(=O)[O-])ccc4F)c4nc(c(-c5cc(S(=O)(=O)[O-])ccc5F)c5ccc2[nH]5)C=C4)C=C3)cc1
REMARK SMILES IDX 7 1 6 2 5 3 4 4 3 5 2 6 1 7 39 8 40 9 101 10 41 11 100 12
REMARK SMILES IDX 42 13 43 14 44 15 94 16 45 17 99 18 93 19 95 20 46 21 98 22
REMARK SMILES IDX 92 23 91 24 47 26 79 27 59 28 78 29 60 30 63 31 77 32 96 33
REMARK SMILES IDX 61 34 62 35 76 37 97 38 64 39 48 40 49 41 57 42 50 43 56 44
REMARK SMILES IDX 58 45 55 46 51 47 52 48 53 49 54 50 80 51 81 52 89 53 82 54
REMARK SMILES IDX 88 55 90 56 87 57 83 58 84 59 85 60 86 61 65 62 66 63 74 64
REMARK SMILES IDX 67 65 73 66 75 67 72 68 68 69 69 70 70 71 71 72 8 73 9 74
REMARK SMILES IDX 10 75 11 76 12 77 13 78 14 79 15 80 26 81 27 82 38 83 28 85
REMARK SMILES IDX 37 86 29 87 30 88 31 89 36 90 32 91 34 92 33 93 35 94 16 95
REMARK SMILES IDX 17 96 25 97 18 98 19 99 24 100 20 102 22 103 21 104 23 105
REMARK H PARENT 95 25 63 36 26 84 18 101
REMARK Flexibility Score: inf
ROOT
ATOM      1  C   UNL A   1      41.154  21.674  26.600  1.00  0.00     0.188 C 
ENDROOT
BRANCH   1   2
ATOM      2  O   UNL A   1      41.155  21.848  28.010  1.00  0.00    -0.376 OA
BRANCH   2   3
ATOM      3  C   UNL A   1      42.105  22.768  28.503  1.00  0.00     0.202 C 
BRANCH   3   4
ATOM      4  C   UNL A   1      42.061  24.111  27.773  1.00  0.00     0.261 C 
BRANCH   4   5
ATOM      5  O   UNL A   1      43.209  24.373  26.936  1.00  0.00    -0.460 OA
BRANCH   5   6
ATOM      6  C   UNL A   1      43.418  25.218  25.892  1.00  0.00     0.338 C 
ATOM      7  O   UNL A   1      43.689  24.714  24.800  1.00  0.00    -0.246 OA
BRANCH   6   8
ATOM      8  C   UNL A   1      43.473  26.714  25.987  1.00  0.00     0.060 A 
ATOM      9  C   UNL A   1      42.412  27.588  25.810  1.00  0.00     0.016 A 
ATOM     10  C   UNL A   1      44.727  27.299  26.256  1.00  0.00     0.016 A 
ATOM     11  C   UNL A   1      42.523  28.921  26.225  1.00  0.00     0.010 A 
ATOM     12  C   UNL A   1      44.846  28.637  26.679  1.00  0.00     0.010 A 
ATOM     13  C   UNL A   1      43.695  29.404  26.858  1.00  0.00    -0.014 A 
BRANCH  13  14
ATOM     14  C   UNL A   1      43.687  30.931  27.650  1.00  0.00     0.031 A 
ATOM     15  C   UNL A   1      43.169  30.106  29.229  1.00  0.00     0.074 A 
ATOM     16  C   UNL A   1      44.141  32.722  27.259  1.00  0.00     0.049 A 
ATOM     17  N   UNL A   1      42.959  30.682  30.401  1.00  0.00    -0.248 NA
ATOM     18  C   UNL A   1      43.046  28.633  29.374  1.00  0.00     0.031 C 
ATOM     19  C   UNL A   1      44.594  33.680  25.962  1.00  0.00     0.029 A 
ATOM     20  N   UNL A   1      44.210  33.999  28.124  1.00  0.00    -0.354 N 
ATOM     21  C   UNL A   1      43.077  29.739  31.370  1.00  0.00     0.074 A 
ATOM     22  C   UNL A   1      42.978  28.472  30.696  1.00  0.00     0.031 C 
ATOM     23  C   UNL A   1      44.595  35.003  26.215  1.00  0.00     0.029 A 
ATOM     24  C   UNL A   1      44.326  35.230  27.593  1.00  0.00     0.049 A 
ATOM     25  H   UNL A   1      44.167  33.909  29.104  1.00  0.00     0.167 HD
ATOM     26  C   UNL A   1      43.420  29.980  32.655  1.00  0.00     0.034 A 
ATOM     27  C   UNL A   1      44.171  36.361  28.303  1.00  0.00     0.034 A 
ATOM     28  C   UNL A   1      43.617  31.305  33.233  1.00  0.00     0.049 A 
ATOM     29  C   UNL A   1      44.069  36.266  29.832  1.00  0.00     0.074 A 
ATOM     30  C   UNL A   1      43.903  31.599  34.553  1.00  0.00     0.029 A 
ATOM     31  N   UNL A   1      43.543  32.547  32.572  1.00  0.00    -0.354 N 
ATOM     32  N   UNL A   1      44.013  35.198  30.618  1.00  0.00    -0.248 NA
ATOM     33  C   UNL A   1      44.089  37.534  30.555  1.00  0.00     0.031 C 
ATOM     34  C   UNL A   1      44.002  32.987  34.687  1.00  0.00     0.029 A 
ATOM     35  C   UNL A   1      43.869  33.593  33.439  1.00  0.00     0.049 A 
ATOM     36  H   UNL A   1      43.295  32.662  31.627  1.00  0.00     0.167 HD
ATOM     37  C   UNL A   1      44.024  35.670  31.937  1.00  0.00     0.074 A 
ATOM     38  C   UNL A   1      44.129  37.121  31.813  1.00  0.00     0.031 C 
ATOM     39  C   UNL A   1      43.969  35.028  33.148  1.00  0.00     0.034 A 
BRANCH  26  40
ATOM     40  C   UNL A   1      43.621  28.748  33.491  1.00  0.00     0.023 A 
ATOM     41  C   UNL A   1      42.621  28.261  34.356  1.00  0.00     0.031 A 
ATOM     42  C   UNL A   1      44.873  28.119  33.496  1.00  0.00     0.131 A 
ATOM     43  C   UNL A   1      42.922  27.222  35.249  1.00  0.00     0.055 A 
ATOM     44  C   UNL A   1      45.146  27.044  34.338  1.00  0.00     0.041 A 
ATOM     45  F   UNL A   1      45.861  28.566  32.705  1.00  0.00    -0.206 F 
ATOM     46  C   UNL A   1      44.174  26.601  35.233  1.00  0.00     0.022 A 
BRANCH  43  47
ATOM     47  S   UNL A   1      41.722  26.802  36.546  1.00  0.00     0.124 S 
ATOM     48  O   UNL A   1      41.018  28.070  36.729  1.00  0.00    -0.237 OA
ATOM     49  O   UNL A   1      40.950  25.730  35.929  1.00  0.00    -0.237 OA
ATOM     50  O   UNL A   1      42.562  26.398  37.672  1.00  0.00    -0.744 OA
ENDBRANCH  43  47
ENDBRANCH  26  40
BRANCH  27  51
ATOM     51  C   UNL A   1      44.077  37.633  27.565  1.00  0.00     0.023 A 
ATOM     52  C   UNL A   1      45.203  38.247  27.014  1.00  0.00     0.031 A 
ATOM     53  C   UNL A   1      42.819  38.239  27.378  1.00  0.00     0.131 A 
ATOM     54  C   UNL A   1      45.058  39.456  26.322  1.00  0.00     0.055 A 
ATOM     55  C   UNL A   1      42.674  39.418  26.652  1.00  0.00     0.041 A 
ATOM     56  F   UNL A   1      41.710  37.675  27.885  1.00  0.00    -0.206 F 
ATOM     57  C   UNL A   1      43.801  40.038  26.125  1.00  0.00     0.022 A 
BRANCH  54  58
ATOM     58  S   UNL A   1      46.555  40.282  25.729  1.00  0.00     0.124 S 
ATOM     59  O   UNL A   1      46.235  41.685  25.966  1.00  0.00    -0.237 OA
ATOM     60  O   UNL A   1      47.577  39.703  26.596  1.00  0.00    -0.237 OA
ATOM     61  O   UNL A   1      46.628  39.882  24.326  1.00  0.00    -0.744 OA
ENDBRANCH  54  58
ENDBRANCH  27  51
BRANCH  39  62
ATOM     62  C   UNL A   1      44.115  35.947  34.364  1.00  0.00     0.023 A 
ATOM     63  C   UNL A   1      45.377  36.319  34.859  1.00  0.00     0.031 A 
ATOM     64  C   UNL A   1      42.979  36.418  35.056  1.00  0.00     0.131 A 
ATOM     65  C   UNL A   1      45.476  37.061  36.048  1.00  0.00     0.055 A 
ATOM     66  C   UNL A   1      43.084  37.240  36.182  1.00  0.00     0.041 A 
ATOM     67  F   UNL A   1      41.743  36.095  34.642  1.00  0.00    -0.206 F 
ATOM     68  C   UNL A   1      44.339  37.549  36.696  1.00  0.00     0.022 A 
BRANCH  65  69
ATOM     69  S   UNL A   1      47.106  37.243  36.824  1.00  0.00     0.124 S 
ATOM     70  O   UNL A   1      46.886  36.621  38.126  1.00  0.00    -0.237 OA
ATOM     71  O   UNL A   1      47.972  36.512  35.905  1.00  0.00    -0.237 OA
ATOM     72  O   UNL A   1      47.312  38.689  36.854  1.00  0.00    -0.744 OA
ENDBRANCH  65  69
ENDBRANCH  39  62
ENDBRANCH  13  14
ENDBRANCH   6   8
ENDBRANCH   5   6
ENDBRANCH   4   5
ENDBRANCH   3   4
ENDBRANCH   2   3
ENDBRANCH   1   2
BRANCH   1  73
ATOM     73  C   UNL A   1      39.821  21.169  26.024  1.00  0.00     0.188 C 
BRANCH  73  74
ATOM     74  O   UNL A   1      38.638  21.856  26.418  1.00  0.00    -0.376 OA
BRANCH  74  75
ATOM     75  C   UNL A   1      37.777  22.315  25.368  1.00  0.00     0.202 C 
BRANCH  75  76
ATOM     76  C   UNL A   1      37.220  23.754  25.462  1.00  0.00     0.261 C 
BRANCH  76  77
ATOM     77  O   UNL A   1      36.177  24.004  24.496  1.00  0.00    -0.459 OA
BRANCH  77  78
ATOM     78  C   UNL A   1      34.982  24.557  24.872  1.00  0.00     0.370 C 
ATOM     79  O   UNL A   1      34.889  25.337  25.819  1.00  0.00    -0.245 OA
BRANCH  78  80
ATOM     80  C   UNL A   1      33.750  24.204  23.887  1.00  0.00     0.328 C 
BRANCH  80  81
ATOM     81  N   UNL A   1      32.838  23.376  24.720  1.00  0.00    -0.316 N 
ATOM     82  C   UNL A   1      31.866  22.520  24.042  1.00  0.00     0.284 C 
ATOM     83  C   UNL A   1      33.585  22.562  25.722  1.00  0.00     0.284 C 
ATOM     84  H   UNL A   1      32.273  24.100  25.165  1.00  0.00     0.349 HD
ATOM     85  C   UNL A   1      32.464  21.248  23.446  1.00  0.00     0.178 C 
ATOM     86  C   UNL A   1      34.217  21.243  25.181  1.00  0.00     0.178 C 
ATOM     87  N   UNL A   1      33.195  20.494  24.453  1.00  0.00    -0.360 N 
BRANCH  87  88
ATOM     88  C   UNL A   1      33.277  19.134  24.221  1.00  0.00     0.038 A 
ATOM     89  C   UNL A   1      32.647  18.627  23.079  1.00  0.00     0.026 A 
ATOM     90  C   UNL A   1      34.131  18.291  24.946  1.00  0.00     0.046 A 
ATOM     91  C   UNL A   1      32.906  17.332  22.630  1.00  0.00     0.004 A 
ATOM     92  C   UNL A   1      34.385  16.993  24.498  1.00  0.00     0.043 A 
ATOM     93  C   UNL A   1      33.786  16.516  23.336  1.00  0.00     0.020 A 
ATOM     94  Cl  UNL A   1      35.496  15.992  25.351  1.00  0.00    -0.084 Cl
ENDBRANCH  87  88
ENDBRANCH  80  81
BRANCH  80  95
ATOM     95  C   UNL A   1      33.186  25.461  23.190  1.00  0.00     0.046 A 
ATOM     96  C   UNL A   1      32.924  25.505  21.826  1.00  0.00     0.094 A 
ATOM     97  C   UNL A   1      32.678  26.749  23.668  1.00  0.00     0.011 A 
ATOM     98  N   UNL A   1      31.788  26.173  21.429  1.00  0.00    -0.361 N 
ATOM     99  C   UNL A   1      31.481  27.134  22.340  1.00  0.00     0.046 A 
ATOM    100  C   UNL A   1      32.748  27.869  25.146  1.00  0.00     0.031 A 
ATOM    101  H   UNL A   1      31.277  25.984  20.609  1.00  0.00     0.166 HD
ATOM    102  C   UNL A   1      30.373  28.604  22.407  1.00  0.00     0.028 A 
ATOM    103  C   UNL A   1      31.662  29.368  25.262  1.00  0.00     0.041 A 
ATOM    104  C   UNL A   1      30.445  29.736  23.856  1.00  0.00     0.022 A 
ATOM    105  Cl  UNL A   1      31.617  30.223  26.767  1.00  0.00    -0.084 Cl
ENDBRANCH  80  95
ENDBRANCH  78  80
ENDBRANCH  77  78
ENDBRANCH  76  77
ENDBRANCH  75  76
ENDBRANCH  74  75
ENDBRANCH  73  74
ENDBRANCH   1  73
TORSDOF 23
ENDMDL
MODEL 2
REMARK VINA RESULT:     -10.2      3.499      4.615
REMARK SMILES O=C(OCCOCCOCCOC(=O)[C@H](c1c[nH]c2ccc(Cl)cc12)[NH+]1CCN(c2cccc(Cl)c2)CC1)c1ccc(-c2c3nc(c(-c4cc(S(=O)(=O)[O-])ccc4F)c4ccc([nH]4)c(-c4cc(S(=O)(=O)[O-])ccc4F)c4nc(c(-c5cc(S(=O)(=O)[O-])ccc5F)c5ccc2[nH]5)C=C4)C=C3)cc1
REMARK SMILES IDX 7 1 6 2 5 3 4 4 3 5 2 6 1 7 39 8 40 9 101 10 41 11 100 12
REMARK SMILES IDX 42 13 43 14 44 15 94 16 45 17 99 18 93 19 95 20 46 21 98 22
REMARK SMILES IDX 92 23 91 24 47 26 79 27 59 28 78 29 60 30 63 31 77 32 96 33
REMARK SMILES IDX 61 34 62 35 76 37 97 38 64 39 48 40 49 41 57 42 50 43 56 44
REMARK SMILES IDX 58 45 55 46 51 47 52 48 53 49 54 50 80 51 81 52 89 53 82 54
REMARK SMILES IDX 88 55 90 56 87 57 83 58 84 59 85 60 86 61 65 62 66 63 74 64
REMARK SMILES IDX 67 65 73 66 75 67 72 68 68 69 69 70 70 71 71 72 8 73 9 74
REMARK SMILES IDX 10 75 11 76 12 77 13 78 14 79 15 80 26 81 27 82 38 83 28 85
REMARK SMILES IDX 37 86 29 87 30 88 31 89 36 90 32 91 34 92 33 93 35 94 16 95
REMARK SMILES IDX 17 96 25 97 18 98 19 99 24 100 20 102 22 103 21 104 23 105
REMARK H PARENT 95 25 63 36 26 84 18 101
REMARK Flexibility Score: inf
ROOT
ATOM      1  C   UNL A   1      41.468  22.219  26.532  1.00  0.00     0.188 C 
ENDROOT
BRANCH   1   2
ATOM      2  O   UNL A   1      41.324  22.712  27.858  1.00  0.00    -0.376 OA
BRANCH   2   3
ATOM      3  C   UNL A   1      42.239  23.720  28.228  1.00  0.00     0.202 C 
BRANCH   3   4
ATOM      4  C   UNL A   1      43.320  23.954  27.172  1.00  0.00     0.261 C 
BRANCH   4   5
ATOM      5  O   UNL A   1      44.670  23.943  27.687  1.00  0.00    -0.460 OA
BRANCH   5   6
ATOM      6  C   UNL A   1      45.875  24.234  27.128  1.00  0.00     0.338 C 
ATOM      7  O   UNL A   1      46.558  23.289  26.730  1.00  0.00    -0.246 OA
BRANCH   6   8
ATOM      8  C   UNL A   1      46.496  25.598  27.074  1.00  0.00     0.060 A 
ATOM      9  C   UNL A   1      46.764  26.333  25.930  1.00  0.00     0.016 A 
ATOM     10  C   UNL A   1      46.874  26.186  28.298  1.00  0.00     0.016 A 
ATOM     11  C   UNL A   1      47.055  27.701  26.027  1.00  0.00     0.010 A 
ATOM     12  C   UNL A   1      47.163  27.560  28.404  1.00  0.00     0.010 A 
ATOM     13  C   UNL A   1      47.056  28.372  27.274  1.00  0.00    -0.014 A 
BRANCH  13  14
ATOM     14  C   UNL A   1      47.084  30.090  27.335  1.00  0.00     0.031 A 
ATOM     15  C   UNL A   1      45.266  30.105  27.704  1.00  0.00     0.074 A 
ATOM     16  C   UNL A   1      48.359  31.480  27.248  1.00  0.00     0.049 A 
ATOM     17  N   UNL A   1      44.503  31.162  27.921  1.00  0.00    -0.248 NA
ATOM     18  C   UNL A   1      44.471  28.870  27.922  1.00  0.00     0.031 C 
ATOM     19  C   UNL A   1      49.985  31.716  26.918  1.00  0.00     0.029 A 
ATOM     20  N   UNL A   1      48.262  33.008  27.453  1.00  0.00    -0.354 N 
ATOM     21  C   UNL A   1      43.404  30.766  28.612  1.00  0.00     0.074 A 
ATOM     22  C   UNL A   1      43.344  29.336  28.460  1.00  0.00     0.031 C 
ATOM     23  C   UNL A   1      50.351  33.006  26.792  1.00  0.00     0.029 A 
ATOM     24  C   UNL A   1      49.251  33.851  27.107  1.00  0.00     0.049 A 
ATOM     25  H   UNL A   1      47.442  33.379  27.853  1.00  0.00     0.167 HD
ATOM     26  C   UNL A   1      42.667  31.554  29.426  1.00  0.00     0.034 A 
ATOM     27  C   UNL A   1      49.108  35.187  27.073  1.00  0.00     0.034 A 
ATOM     28  C   UNL A   1      42.872  32.986  29.612  1.00  0.00     0.049 A 
ATOM     29  C   UNL A   1      47.832  35.809  27.658  1.00  0.00     0.074 A 
ATOM     30  C   UNL A   1      42.104  33.840  30.380  1.00  0.00     0.029 A 
ATOM     31  N   UNL A   1      43.878  33.788  29.039  1.00  0.00    -0.354 N 
ATOM     32  N   UNL A   1      46.742  35.224  28.138  1.00  0.00    -0.248 NA
ATOM     33  C   UNL A   1      47.818  37.265  27.760  1.00  0.00     0.031 C 
ATOM     34  C   UNL A   1      42.635  35.129  30.277  1.00  0.00     0.029 A 
ATOM     35  C   UNL A   1      43.800  35.101  29.514  1.00  0.00     0.049 A 
ATOM     36  H   UNL A   1      44.547  33.468  28.391  1.00  0.00     0.167 HD
ATOM     37  C   UNL A   1      45.922  36.247  28.632  1.00  0.00     0.074 A 
ATOM     38  C   UNL A   1      46.683  37.474  28.412  1.00  0.00     0.031 C 
ATOM     39  C   UNL A   1      44.682  36.236  29.219  1.00  0.00     0.034 A 
BRANCH  26  40
ATOM     40  C   UNL A   1      41.588  30.835  30.183  1.00  0.00     0.023 A 
ATOM     41  C   UNL A   1      40.277  30.711  29.680  1.00  0.00     0.031 A 
ATOM     42  C   UNL A   1      41.855  30.363  31.476  1.00  0.00     0.131 A 
ATOM     43  C   UNL A   1      39.264  30.197  30.503  1.00  0.00     0.055 A 
ATOM     44  C   UNL A   1      40.858  29.793  32.264  1.00  0.00     0.041 A 
ATOM     45  F   UNL A   1      43.083  30.484  32.002  1.00  0.00    -0.206 F 
ATOM     46  C   UNL A   1      39.551  29.723  31.785  1.00  0.00     0.022 A 
BRANCH  43  47
ATOM     47  S   UNL A   1      37.538  30.308  29.946  1.00  0.00     0.124 S 
ATOM     48  O   UNL A   1      36.815  30.369  31.215  1.00  0.00    -0.237 OA
ATOM     49  O   UNL A   1      37.538  31.532  29.155  1.00  0.00    -0.237 OA
ATOM     50  O   UNL A   1      37.343  29.074  29.187  1.00  0.00    -0.744 OA
ENDBRANCH  43  47
ENDBRANCH  26  40
BRANCH  27  51
ATOM     51  C   UNL A   1      50.178  35.982  26.444  1.00  0.00     0.023 A 
ATOM     52  C   UNL A   1      51.152  36.632  27.203  1.00  0.00     0.031 A 
ATOM     53  C   UNL A   1      50.247  36.069  25.040  1.00  0.00     0.131 A 
ATOM     54  C   UNL A   1      52.147  37.375  26.555  1.00  0.00     0.055 A 
ATOM     55  C   UNL A   1      51.263  36.772  24.399  1.00  0.00     0.041 A 
ATOM     56  F   UNL A   1      49.334  35.450  24.273  1.00  0.00    -0.206 F 
ATOM     57  C   UNL A   1      52.218  37.438  25.160  1.00  0.00     0.022 A 
BRANCH  54  58
ATOM     58  S   UNL A   1      53.317  38.303  27.576  1.00  0.00     0.124 S 
ATOM     59  O   UNL A   1      52.609  39.563  27.771  1.00  0.00    -0.237 OA
ATOM     60  O   UNL A   1      53.433  37.445  28.752  1.00  0.00    -0.237 OA
ATOM     61  O   UNL A   1      54.512  38.376  26.739  1.00  0.00    -0.744 OA
ENDBRANCH  54  58
ENDBRANCH  27  51
BRANCH  39  62
ATOM     62  C   UNL A   1      44.195  37.603  29.709  1.00  0.00     0.023 A 
ATOM     63  C   UNL A   1      44.499  38.076  30.997  1.00  0.00     0.031 A 
ATOM     64  C   UNL A   1      43.386  38.418  28.890  1.00  0.00     0.131 A 
ATOM     65  C   UNL A   1      43.934  39.277  31.457  1.00  0.00     0.055 A 
ATOM     66  C   UNL A   1      42.910  39.660  29.319  1.00  0.00     0.041 A 
ATOM     67  F   UNL A   1      43.051  38.025  27.649  1.00  0.00    -0.206 F 
ATOM     68  C   UNL A   1      43.166  40.086  30.617  1.00  0.00     0.022 A 
BRANCH  65  69
ATOM     69  S   UNL A   1      44.084  39.688  33.219  1.00  0.00     0.124 S 
ATOM     70  O   UNL A   1      45.179  38.817  33.635  1.00  0.00    -0.237 OA
ATOM     71  O   UNL A   1      44.381  41.116  33.182  1.00  0.00    -0.237 OA
ATOM     72  O   UNL A   1      42.773  39.340  33.764  1.00  0.00    -0.744 OA
ENDBRANCH  65  69
ENDBRANCH  39  62
ENDBRANCH  13  14
ENDBRANCH   6   8
ENDBRANCH   5   6
ENDBRANCH   4   5
ENDBRANCH   3   4
ENDBRANCH   2   3
ENDBRANCH   1   2
BRANCH   1  73
ATOM     73  C   UNL A   1      40.320  21.308  26.066  1.00  0.00     0.188 C 
BRANCH  73  74
ATOM     74  O   UNL A   1      39.002  21.658  26.475  1.00  0.00    -0.376 OA
BRANCH  74  75
ATOM     75  C   UNL A   1      38.101  22.097  25.450  1.00  0.00     0.202 C 
BRANCH  75  76
ATOM     76  C   UNL A   1      37.472  23.502  25.587  1.00  0.00     0.261 C 
BRANCH  76  77
ATOM     77  O   UNL A   1      36.384  23.711  24.662  1.00  0.00    -0.459 OA
BRANCH  77  78
ATOM     78  C   UNL A   1      35.171  24.179  25.090  1.00  0.00     0.370 C 
ATOM     79  O   UNL A   1      35.068  24.993  26.008  1.00  0.00    -0.245 OA
BRANCH  78  80
ATOM     80  C   UNL A   1      33.917  23.679  24.201  1.00  0.00     0.328 C 
BRANCH  80  81
ATOM     81  N   UNL A   1      33.074  22.910  25.155  1.00  0.00    -0.316 N 
ATOM     82  C   UNL A   1      31.938  22.158  24.624  1.00  0.00     0.284 C 
ATOM     83  C   UNL A   1      33.891  22.009  26.018  1.00  0.00     0.284 C 
ATOM     84  H   UNL A   1      32.649  23.666  25.691  1.00  0.00     0.349 HD
ATOM     85  C   UNL A   1      32.325  20.856  23.925  1.00  0.00     0.178 C 
ATOM     86  C   UNL A   1      34.315  20.656  25.368  1.00  0.00     0.178 C 
ATOM     87  N   UNL A   1      33.132  20.016  24.797  1.00  0.00    -0.360 N 
BRANCH  87  88
ATOM     88  C   UNL A   1      33.058  18.661  24.536  1.00  0.00     0.038 A 
ATOM     89  C   UNL A   1      33.736  18.173  23.414  1.00  0.00     0.026 A 
ATOM     90  C   UNL A   1      32.526  17.741  25.450  1.00  0.00     0.046 A 
ATOM     91  C   UNL A   1      33.938  16.805  23.234  1.00  0.00     0.004 A 
ATOM     92  C   UNL A   1      32.723  16.371  25.266  1.00  0.00     0.043 A 
ATOM     93  C   UNL A   1      33.438  15.901  24.168  1.00  0.00     0.020 A 
ATOM     94  Cl  UNL A   1      32.134  15.253  26.435  1.00  0.00    -0.084 Cl
ENDBRANCH  87  88
ENDBRANCH  80  81
BRANCH  80  95
ATOM     95  C   UNL A   1      33.273  24.835  23.405  1.00  0.00     0.046 A 
ATOM     96  C   UNL A   1      32.911  24.710  22.069  1.00  0.00     0.094 A 
ATOM     97  C   UNL A   1      32.772  26.164  23.763  1.00  0.00     0.011 A 
ATOM     98  N   UNL A   1      31.733  25.309  21.683  1.00  0.00    -0.361 N 
ATOM     99  C   UNL A   1      31.472  26.369  22.494  1.00  0.00     0.046 A 
ATOM    100  C   UNL A   1      32.926  27.455  25.087  1.00  0.00     0.031 A 
ATOM    101  H   UNL A   1      31.167  25.015  20.933  1.00  0.00     0.166 HD
ATOM    102  C   UNL A   1      30.338  27.820  22.469  1.00  0.00     0.028 A 
ATOM    103  C   UNL A   1      31.815  28.941  25.105  1.00  0.00     0.041 A 
ATOM    104  C   UNL A   1      30.490  29.119  23.763  1.00  0.00     0.022 A 
ATOM    105  Cl  UNL A   1      31.862  29.971  26.496  1.00  0.00    -0.084 Cl
ENDBRANCH  80  95
ENDBRANCH  78  80
ENDBRANCH  77  78
ENDBRANCH  76  77
ENDBRANCH  75  76
ENDBRANCH  74  75
ENDBRANCH  73  74
ENDBRANCH   1  73
TORSDOF 23
ENDMDL
MODEL 3
REMARK VINA RESULT:     -10.0      6.359     13.881
REMARK SMILES O=C(OCCOCCOCCOC(=O)[C@H](c1c[nH]c2ccc(Cl)cc12)[NH+]1CCN(c2cccc(Cl)c2)CC1)c1ccc(-c2c3nc(c(-c4cc(S(=O)(=O)[O-])ccc4F)c4ccc([nH]4)c(-c4cc(S(=O)(=O)[O-])ccc4F)c4nc(c(-c5cc(S(=O)(=O)[O-])ccc5F)c5ccc2[nH]5)C=C4)C=C3)cc1
REMARK SMILES IDX 7 1 6 2 5 3 4 4 3 5 2 6 1 7 39 8 40 9 101 10 41 11 100 12
REMARK SMILES IDX 42 13 43 14 44 15 94 16 45 17 99 18 93 19 95 20 46 21 98 22
REMARK SMILES IDX 92 23 91 24 47 26 79 27 59 28 78 29 60 30 63 31 77 32 96 33
REMARK SMILES IDX 61 34 62 35 76 37 97 38 64 39 48 40 49 41 57 42 50 43 56 44
REMARK SMILES IDX 58 45 55 46 51 47 52 48 53 49 54 50 80 51 81 52 89 53 82 54
REMARK SMILES IDX 88 55 90 56 87 57 83 58 84 59 85 60 86 61 65 62 66 63 74 64
REMARK SMILES IDX 67 65 73 66 75 67 72 68 68 69 69 70 70 71 71 72 8 73 9 74
REMARK SMILES IDX 10 75 11 76 12 77 13 78 14 79 15 80 26 81 27 82 38 83 28 85
REMARK SMILES IDX 37 86 29 87 30 88 31 89 36 90 32 91 34 92 33 93 35 94 16 95
REMARK SMILES IDX 17 96 25 97 18 98 19 99 24 100 20 102 22 103 21 104 23 105
REMARK H PARENT 95 25 63 36 26 84 18 101
REMARK Flexibility Score: inf
ROOT
ATOM      1  C   UNL A   1      40.028  35.347  41.624  1.00  0.00     0.188 C 
ENDROOT
BRANCH   1   2
ATOM      2  O   UNL A   1      39.270  36.211  40.789  1.00  0.00    -0.376 OA
BRANCH   2   3
ATOM      3  C   UNL A   1      39.888  37.440  40.473  1.00  0.00     0.202 C 
BRANCH   3   4
ATOM      4  C   UNL A   1      41.412  37.378  40.576  1.00  0.00     0.261 C 
BRANCH   4   5
ATOM      5  O   UNL A   1      42.109  37.747  39.365  1.00  0.00    -0.460 OA
BRANCH   5   6
ATOM      6  C   UNL A   1      43.186  37.225  38.723  1.00  0.00     0.338 C 
ATOM      7  O   UNL A   1      44.303  37.562  39.122  1.00  0.00    -0.246 OA
BRANCH   6   8
ATOM      8  C   UNL A   1      43.129  36.376  37.488  1.00  0.00     0.060 A 
ATOM      9  C   UNL A   1      44.169  36.148  36.600  1.00  0.00     0.016 A 
ATOM     10  C   UNL A   1      41.896  35.770  37.175  1.00  0.00     0.016 A 
ATOM     11  C   UNL A   1      44.082  35.104  35.669  1.00  0.00     0.010 A 
ATOM     12  C   UNL A   1      41.801  34.717  36.246  1.00  0.00     0.010 A 
ATOM     13  C   UNL A   1      42.958  34.242  35.627  1.00  0.00    -0.014 A 
BRANCH  13  14
ATOM     14  C   UNL A   1      43.017  32.784  34.717  1.00  0.00     0.031 A 
ATOM     15  C   UNL A   1      42.590  33.729  33.179  1.00  0.00     0.074 A 
ATOM     16  C   UNL A   1      43.465  30.970  34.993  1.00  0.00     0.049 A 
ATOM     17  N   UNL A   1      42.461  33.247  31.954  1.00  0.00    -0.248 NA
ATOM     18  C   UNL A   1      42.461  35.208  33.143  1.00  0.00     0.031 C 
ATOM     19  C   UNL A   1      43.845  29.914  36.237  1.00  0.00     0.029 A 
ATOM     20  N   UNL A   1      43.602  29.766  34.036  1.00  0.00    -0.354 N 
ATOM     21  C   UNL A   1      42.630  34.264  31.072  1.00  0.00     0.074 A 
ATOM     22  C   UNL A   1      42.474  35.473  31.837  1.00  0.00     0.031 C 
ATOM     23  C   UNL A   1      43.877  28.615  35.881  1.00  0.00     0.029 A 
ATOM     24  C   UNL A   1      43.698  28.498  34.475  1.00  0.00     0.049 A 
ATOM     25  H   UNL A   1      43.620  29.934  33.066  1.00  0.00     0.167 HD
ATOM     26  C   UNL A   1      43.055  34.129  29.796  1.00  0.00     0.034 A 
ATOM     27  C   UNL A   1      43.600  27.426  33.669  1.00  0.00     0.034 A 
ATOM     28  C   UNL A   1      43.302  32.855  29.129  1.00  0.00     0.049 A 
ATOM     29  C   UNL A   1      43.593  27.642  32.149  1.00  0.00     0.074 A 
ATOM     30  C   UNL A   1      43.674  32.669  27.811  1.00  0.00     0.029 A 
ATOM     31  N   UNL A   1      43.200  31.564  29.684  1.00  0.00    -0.354 N 
ATOM     32  N   UNL A   1      43.575  28.768  31.449  1.00  0.00    -0.248 NA
ATOM     33  C   UNL A   1      43.672  26.435  31.331  1.00  0.00     0.031 C 
ATOM     34  C   UNL A   1      43.796  31.296  27.574  1.00  0.00     0.029 A 
ATOM     35  C   UNL A   1      43.592  30.592  28.759  1.00  0.00     0.049 A 
ATOM     36  H   UNL A   1      42.894  31.372  30.600  1.00  0.00     0.167 HD
ATOM     37  C   UNL A   1      43.674  28.403  30.100  1.00  0.00     0.074 A 
ATOM     38  C   UNL A   1      43.786  26.947  30.115  1.00  0.00     0.031 C 
ATOM     39  C   UNL A   1      43.688  29.139  28.942  1.00  0.00     0.034 A 
BRANCH  26  40
ATOM     40  C   UNL A   1      43.294  35.424  29.075  1.00  0.00     0.023 A 
ATOM     41  C   UNL A   1      44.552  36.058  29.075  1.00  0.00     0.031 A 
ATOM     42  C   UNL A   1      42.214  36.082  28.472  1.00  0.00     0.131 A 
ATOM     43  C   UNL A   1      44.677  37.352  28.548  1.00  0.00     0.055 A 
ATOM     44  C   UNL A   1      42.359  37.340  27.890  1.00  0.00     0.041 A 
ATOM     45  F   UNL A   1      40.994  35.525  28.471  1.00  0.00    -0.206 F 
ATOM     46  C   UNL A   1      43.591  37.989  27.942  1.00  0.00     0.022 A 
BRANCH  43  47
ATOM     47  S   UNL A   1      46.226  38.264  28.812  1.00  0.00     0.124 S 
ATOM     48  O   UNL A   1      47.018  37.300  29.575  1.00  0.00    -0.237 OA
ATOM     49  O   UNL A   1      46.679  38.521  27.450  1.00  0.00    -0.237 OA
ATOM     50  O   UNL A   1      45.805  39.444  29.564  1.00  0.00    -0.744 OA
ENDBRANCH  43  47
ENDBRANCH  26  40
BRANCH  27  51
ATOM     51  C   UNL A   1      43.473  26.099  34.298  1.00  0.00     0.023 A 
ATOM     52  C   UNL A   1      44.570  25.249  34.446  1.00  0.00     0.031 A 
ATOM     53  C   UNL A   1      42.223  25.678  34.791  1.00  0.00     0.131 A 
ATOM     54  C   UNL A   1      44.395  23.998  35.050  1.00  0.00     0.055 A 
ATOM     55  C   UNL A   1      42.062  24.452  35.430  1.00  0.00     0.041 A 
ATOM     56  F   UNL A   1      41.143  26.470  34.676  1.00  0.00    -0.206 F 
ATOM     57  C   UNL A   1      43.153  23.599  35.555  1.00  0.00     0.022 A 
BRANCH  54  58
ATOM     58  S   UNL A   1      45.814  22.877  35.113  1.00  0.00     0.124 S 
ATOM     59  O   UNL A   1      45.564  22.014  33.964  1.00  0.00    -0.237 OA
ATOM     60  O   UNL A   1      46.933  23.806  34.985  1.00  0.00    -0.237 OA
ATOM     61  O   UNL A   1      45.682  22.238  36.419  1.00  0.00    -0.744 OA
ENDBRANCH  54  58
ENDBRANCH  27  51
BRANCH  39  62
ATOM     62  C   UNL A   1      43.920  28.321  27.669  1.00  0.00     0.023 A 
ATOM     63  C   UNL A   1      45.195  28.210  27.086  1.00  0.00     0.031 A 
ATOM     64  C   UNL A   1      42.847  27.682  27.013  1.00  0.00     0.131 A 
ATOM     65  C   UNL A   1      45.350  27.555  25.853  1.00  0.00     0.055 A 
ATOM     66  C   UNL A   1      43.027  26.946  25.838  1.00  0.00     0.041 A 
ATOM     67  F   UNL A   1      41.601  27.752  27.511  1.00  0.00    -0.206 F 
ATOM     68  C   UNL A   1      44.282  26.898  25.240  1.00  0.00     0.022 A 
BRANCH  65  69
ATOM     69  S   UNL A   1      46.934  27.713  24.980  1.00  0.00     0.124 S 
ATOM     70  O   UNL A   1      47.831  28.107  26.062  1.00  0.00    -0.237 OA
ATOM     71  O   UNL A   1      47.130  26.370  24.444  1.00  0.00    -0.237 OA
ATOM     72  O   UNL A   1      46.674  28.749  23.982  1.00  0.00    -0.744 OA
ENDBRANCH  65  69
ENDBRANCH  39  62
ENDBRANCH  13  14
ENDBRANCH   6   8
ENDBRANCH   5   6
ENDBRANCH   4   5
ENDBRANCH   3   4
ENDBRANCH   2   3
ENDBRANCH   1   2
BRANCH   1  73
ATOM     73  C   UNL A   1      40.350  33.981  40.997  1.00  0.00     0.188 C 
BRANCH  73  74
ATOM     74  O   UNL A   1      40.066  33.814  39.612  1.00  0.00    -0.376 OA
BRANCH  74  75
ATOM     75  C   UNL A   1      38.989  32.933  39.272  1.00  0.00     0.202 C 
BRANCH  75  76
ATOM     76  C   UNL A   1      38.077  33.321  38.087  1.00  0.00     0.261 C 
BRANCH  76  77
ATOM     77  O   UNL A   1      38.576  32.830  36.825  1.00  0.00    -0.459 OA
BRANCH  77  78
ATOM     78  C   UNL A   1      38.021  31.733  36.223  1.00  0.00     0.370 C 
ATOM     79  O   UNL A   1      37.765  30.702  36.844  1.00  0.00    -0.245 OA
BRANCH  78  80
ATOM     80  C   UNL A   1      37.609  31.963  34.676  1.00  0.00     0.328 C 
BRANCH  80  81
ATOM     81  N   UNL A   1      37.448  33.436  34.555  1.00  0.00    -0.316 N 
ATOM     82  C   UNL A   1      37.735  34.060  33.264  1.00  0.00     0.284 C 
ATOM     83  C   UNL A   1      36.107  33.891  35.024  1.00  0.00     0.284 C 
ATOM     84  H   UNL A   1      38.195  33.763  35.167  1.00  0.00     0.349 HD
ATOM     85  C   UNL A   1      36.641  33.861  32.218  1.00  0.00     0.178 C 
ATOM     86  C   UNL A   1      34.943  33.722  34.000  1.00  0.00     0.178 C 
ATOM     87  N   UNL A   1      35.350  34.303  32.723  1.00  0.00    -0.360 N 
BRANCH  87  88
ATOM     88  C   UNL A   1      34.450  34.705  31.755  1.00  0.00     0.038 A 
ATOM     89  C   UNL A   1      33.792  35.926  31.941  1.00  0.00     0.026 A 
ATOM     90  C   UNL A   1      34.333  34.063  30.514  1.00  0.00     0.046 A 
ATOM     91  C   UNL A   1      33.085  36.529  30.901  1.00  0.00     0.004 A 
ATOM     92  C   UNL A   1      33.620  34.664  29.475  1.00  0.00     0.043 A 
ATOM     93  C   UNL A   1      33.007  35.901  29.660  1.00  0.00     0.020 A 
ATOM     94  Cl  UNL A   1      33.548  33.907  27.931  1.00  0.00    -0.084 Cl
ENDBRANCH  87  88
ENDBRANCH  80  81
BRANCH  80  95
ATOM     95  C   UNL A   1      38.566  31.236  33.707  1.00  0.00     0.046 A 
ATOM     96  C   UNL A   1      39.873  30.912  34.050  1.00  0.00     0.094 A 
ATOM     97  C   UNL A   1      38.403  30.614  32.391  1.00  0.00     0.011 A 
ATOM     98  N   UNL A   1      40.348  29.694  33.619  1.00  0.00    -0.361 N 
ATOM     99  C   UNL A   1      39.697  29.326  32.483  1.00  0.00     0.046 A 
ATOM    100  C   UNL A   1      37.274  30.628  30.918  1.00  0.00     0.031 A 
ATOM    101  H   UNL A   1      41.052  29.171  34.065  1.00  0.00     0.166 HD
ATOM    102  C   UNL A   1      39.935  28.069  31.158  1.00  0.00     0.028 A 
ATOM    103  C   UNL A   1      37.474  29.392  29.549  1.00  0.00     0.041 A 
ATOM    104  C   UNL A   1      38.837  28.081  29.681  1.00  0.00     0.022 A 
ATOM    105  Cl  UNL A   1      36.242  29.321  28.334  1.00  0.00    -0.084 Cl
ENDBRANCH  80  95
ENDBRANCH  78  80
ENDBRANCH  77  78
ENDBRANCH  76  77
ENDBRANCH  75  76
ENDBRANCH  74  75
ENDBRANCH  73  74
ENDBRANCH   1  73
TORSDOF 23
ENDMDL
