MODEL 1
REMARK VINA RESULT:      -9.7      0.000      0.000
REMARK SMILES O=C(OCCOCCOCCOC(=O)c1cccc2cccc([S@](=O)c3ccccc3CO)c12)c1ccc(-c2c3nc(c(-c4cc(S(=O)(=O)[O-])ccc4F)c4ccc([nH]4)c(-c4cc(S(=O)(=O)[O-])ccc4F)c4nc(c(-c5cc(S(=O)(=O)[O-])ccc5F)c5ccc2[nH]5)C=C4)C=C3)cc1
REMARK SMILES IDX 8 1 7 2 6 3 5 4 4 5 3 6 2 7 1 8 35 9 36 10 97 11 37 12 96 13
REMARK SMILES IDX 38 14 39 15 40 16 90 17 41 18 95 19 89 20 91 21 42 22 94 23
REMARK SMILES IDX 88 24 87 25 43 27 75 28 55 29 74 30 56 31 59 32 73 33 92 34
REMARK SMILES IDX 57 35 58 36 72 38 93 39 60 40 44 41 45 42 53 43 46 44 52 45
REMARK SMILES IDX 54 46 51 47 47 48 48 49 49 50 50 51 76 52 77 53 85 54 78 55
REMARK SMILES IDX 84 56 86 57 83 58 79 59 80 60 81 61 82 62 61 63 62 64 70 65
REMARK SMILES IDX 63 66 69 67 71 68 68 69 64 70 65 71 66 72 67 73 9 74 10 75
REMARK SMILES IDX 11 76 12 77 13 78 14 79 15 80 16 81 34 82 17 83 19 84 23 85
REMARK SMILES IDX 18 86 20 87 22 88 21 89 24 90 25 91 26 92 27 93 31 94 28 95
REMARK SMILES IDX 30 96 29 97 32 98 33 99
REMARK H PARENT 91 26 59 37 33 100
REMARK Flexibility Score: inf
ROOT
ATOM      1  C   UNL A   1      40.579  23.365  26.784  1.00  0.00     0.188 C 
ENDROOT
BRANCH   1   2
ATOM      2  C   UNL A   1      40.575  21.977  26.192  1.00  0.00     0.188 C 
BRANCH   2   3
ATOM      3  O   UNL A   1      41.835  21.367  26.450  1.00  0.00    -0.376 OA
BRANCH   3   4
ATOM      4  C   UNL A   1      41.764  19.959  26.662  1.00  0.00     0.202 C 
BRANCH   4   5
ATOM      5  C   UNL A   1      42.712  19.077  25.819  1.00  0.00     0.261 C 
BRANCH   5   6
ATOM      6  O   UNL A   1      43.457  19.807  24.819  1.00  0.00    -0.460 OA
BRANCH   6   7
ATOM      7  C   UNL A   1      44.766  20.183  24.886  1.00  0.00     0.338 C 
ATOM      8  O   UNL A   1      45.630  19.308  24.871  1.00  0.00    -0.246 OA
BRANCH   7   9
ATOM      9  C   UNL A   1      45.196  21.601  25.149  1.00  0.00     0.060 A 
ATOM     10  C   UNL A   1      45.323  22.156  26.420  1.00  0.00     0.016 A 
ATOM     11  C   UNL A   1      45.590  22.394  24.055  1.00  0.00     0.016 A 
ATOM     12  C   UNL A   1      45.807  23.437  26.621  1.00  0.00     0.010 A 
ATOM     13  C   UNL A   1      46.071  23.701  24.241  1.00  0.00     0.010 A 
ATOM     14  C   UNL A   1      46.166  24.225  25.535  1.00  0.00    -0.014 A 
BRANCH  14  15
ATOM     15  C   UNL A   1      46.426  25.646  25.838  1.00  0.00     0.031 A 
ATOM     16  C   UNL A   1      45.264  26.473  26.302  1.00  0.00     0.074 A 
ATOM     17  C   UNL A   1      47.693  26.082  25.960  1.00  0.00     0.049 A 
ATOM     18  N   UNL A   1      45.244  27.699  26.743  1.00  0.00    -0.248 NA
ATOM     19  C   UNL A   1      43.952  25.801  26.319  1.00  0.00     0.031 C 
ATOM     20  C   UNL A   1      48.886  25.263  25.731  1.00  0.00     0.029 A 
ATOM     21  N   UNL A   1      48.194  27.292  26.362  1.00  0.00    -0.354 N 
ATOM     22  C   UNL A   1      43.925  27.942  27.111  1.00  0.00     0.074 A 
ATOM     23  C   UNL A   1      43.169  26.747  26.814  1.00  0.00     0.031 C 
ATOM     24  C   UNL A   1      49.978  25.996  26.002  1.00  0.00     0.029 A 
ATOM     25  C   UNL A   1      49.570  27.349  26.353  1.00  0.00     0.049 A 
ATOM     26  H   UNL A   1      47.625  28.048  26.631  1.00  0.00     0.167 HD
ATOM     27  C   UNL A   1      43.401  29.065  27.654  1.00  0.00     0.034 A 
ATOM     28  C   UNL A   1      50.395  28.394  26.567  1.00  0.00     0.034 A 
ATOM     29  C   UNL A   1      44.180  30.250  27.893  1.00  0.00     0.049 A 
ATOM     30  C   UNL A   1      49.756  29.703  26.969  1.00  0.00     0.074 A 
ATOM     31  C   UNL A   1      43.757  31.497  28.312  1.00  0.00     0.029 A 
ATOM     32  N   UNL A   1      45.558  30.333  27.717  1.00  0.00    -0.354 N 
ATOM     33  N   UNL A   1      48.491  29.956  27.224  1.00  0.00    -0.248 NA
ATOM     34  C   UNL A   1      50.646  30.857  27.121  1.00  0.00     0.031 C 
ATOM     35  C   UNL A   1      44.866  32.350  28.315  1.00  0.00     0.029 A 
ATOM     36  C   UNL A   1      45.997  31.617  27.986  1.00  0.00     0.049 A 
ATOM     37  H   UNL A   1      46.138  29.585  27.442  1.00  0.00     0.167 HD
ATOM     38  C   UNL A   1      48.440  31.295  27.598  1.00  0.00     0.074 A 
ATOM     39  C   UNL A   1      49.807  31.781  27.563  1.00  0.00     0.031 C 
ATOM     40  C   UNL A   1      47.370  32.061  27.933  1.00  0.00     0.034 A 
BRANCH  27  41
ATOM     41  C   UNL A   1      41.916  29.071  27.908  1.00  0.00     0.023 A 
ATOM     42  C   UNL A   1      41.383  28.955  29.205  1.00  0.00     0.031 A 
ATOM     43  C   UNL A   1      41.020  29.104  26.825  1.00  0.00     0.131 A 
ATOM     44  C   UNL A   1      39.998  28.807  29.379  1.00  0.00     0.055 A 
ATOM     45  C   UNL A   1      39.638  29.035  27.013  1.00  0.00     0.041 A 
ATOM     46  F   UNL A   1      41.475  29.173  25.565  1.00  0.00    -0.206 F 
ATOM     47  C   UNL A   1      39.121  28.872  28.293  1.00  0.00     0.022 A 
BRANCH  44  48
ATOM     48  S   UNL A   1      39.368  28.378  31.027  1.00  0.00     0.124 S 
ATOM     49  O   UNL A   1      38.576  27.185  30.736  1.00  0.00    -0.237 OA
ATOM     50  O   UNL A   1      40.592  28.161  31.788  1.00  0.00    -0.237 OA
ATOM     51  O   UNL A   1      38.592  29.554  31.414  1.00  0.00    -0.744 OA
ENDBRANCH  44  48
ENDBRANCH  27  41
BRANCH  28  52
ATOM     52  C   UNL A   1      51.867  28.293  26.318  1.00  0.00     0.023 A 
ATOM     53  C   UNL A   1      52.414  28.427  25.032  1.00  0.00     0.031 A 
ATOM     54  C   UNL A   1      52.745  27.934  27.362  1.00  0.00     0.131 A 
ATOM     55  C   UNL A   1      53.771  28.133  24.810  1.00  0.00     0.055 A 
ATOM     56  C   UNL A   1      54.106  27.711  27.149  1.00  0.00     0.041 A 
ATOM     57  F   UNL A   1      52.288  27.779  28.616  1.00  0.00    -0.206 F 
ATOM     58  C   UNL A   1      54.623  27.789  25.861  1.00  0.00     0.022 A 
BRANCH  55  59
ATOM     59  S   UNL A   1      54.378  28.061  23.100  1.00  0.00     0.124 S 
ATOM     60  O   UNL A   1      53.138  28.177  22.342  1.00  0.00    -0.237 OA
ATOM     61  O   UNL A   1      55.272  29.214  23.051  1.00  0.00    -0.237 OA
ATOM     62  O   UNL A   1      55.037  26.759  23.028  1.00  0.00    -0.744 OA
ENDBRANCH  55  59
ENDBRANCH  28  52
BRANCH  40  63
ATOM     63  C   UNL A   1      47.660  33.487  28.325  1.00  0.00     0.023 A 
ATOM     64  C   UNL A   1      47.765  34.503  27.362  1.00  0.00     0.031 A 
ATOM     65  C   UNL A   1      47.857  33.825  29.674  1.00  0.00     0.131 A 
ATOM     66  C   UNL A   1      48.137  35.796  27.754  1.00  0.00     0.055 A 
ATOM     67  C   UNL A   1      48.145  35.131  30.067  1.00  0.00     0.041 A 
ATOM     68  F   UNL A   1      47.771  32.889  30.633  1.00  0.00    -0.206 F 
ATOM     69  C   UNL A   1      48.305  36.122  29.102  1.00  0.00     0.022 A 
BRANCH  66  70
ATOM     70  S   UNL A   1      48.522  37.010  26.464  1.00  0.00     0.124 S 
ATOM     71  O   UNL A   1      47.488  36.734  25.472  1.00  0.00    -0.237 OA
ATOM     72  O   UNL A   1      48.396  38.275  27.180  1.00  0.00    -0.237 OA
ATOM     73  O   UNL A   1      49.881  36.658  26.060  1.00  0.00    -0.744 OA
ENDBRANCH  66  70
ENDBRANCH  40  63
ENDBRANCH  14  15
ENDBRANCH   7   9
ENDBRANCH   6   7
ENDBRANCH   5   6
ENDBRANCH   4   5
ENDBRANCH   3   4
ENDBRANCH   2   3
ENDBRANCH   1   2
BRANCH   1  74
ATOM     74  O   UNL A   1      39.458  24.089  26.273  1.00  0.00    -0.376 OA
BRANCH  74  75
ATOM     75  C   UNL A   1      38.312  23.250  26.159  1.00  0.00     0.202 C 
BRANCH  75  76
ATOM     76  C   UNL A   1      37.040  24.036  25.824  1.00  0.00     0.261 C 
BRANCH  76  77
ATOM     77  O   UNL A   1      36.020  23.196  25.246  1.00  0.00    -0.460 OA
BRANCH  77  78
ATOM     78  C   UNL A   1      35.248  23.772  24.283  1.00  0.00     0.338 C 
ATOM     79  O   UNL A   1      35.534  23.866  23.099  1.00  0.00    -0.246 OA
BRANCH  78  80
ATOM     80  C   UNL A   1      34.070  24.396  24.937  1.00  0.00     0.069 A 
ATOM     81  C   UNL A   1      34.319  25.750  25.246  1.00  0.00     0.016 A 
ATOM     82  C   UNL A   1      32.828  23.723  25.301  1.00  0.00     0.013 A 
ATOM     83  C   UNL A   1      33.379  26.501  25.920  1.00  0.00     0.002 A 
ATOM     84  C   UNL A   1      31.938  24.539  26.069  1.00  0.00    -0.016 A 
ATOM     85  C   UNL A   1      32.358  22.355  25.030  1.00  0.00     0.052 A 
ATOM     86  C   UNL A   1      32.208  25.891  26.341  1.00  0.00     0.009 A 
ATOM     87  C   UNL A   1      30.750  24.027  26.604  1.00  0.00     0.009 A 
ATOM     88  C   UNL A   1      31.202  21.863  25.665  1.00  0.00     0.019 A 
ATOM     89  C   UNL A   1      30.401  22.695  26.438  1.00  0.00     0.002 A 
BRANCH  85  90
ATOM     90  S   UNL A   1      33.249  21.348  23.783  1.00  0.00     0.086 S 
ATOM     91  O   UNL A   1      32.203  21.132  22.726  1.00  0.00    -0.249 OA
BRANCH  90  92
ATOM     92  C   UNL A   1      33.435  19.672  24.477  1.00  0.00     0.049 A 
ATOM     93  C   UNL A   1      32.336  18.795  24.417  1.00  0.00     0.018 A 
ATOM     94  C   UNL A   1      34.730  19.128  24.669  1.00  0.00    -0.006 A 
ATOM     95  C   UNL A   1      32.512  17.412  24.462  1.00  0.00     0.001 A 
ATOM     96  C   UNL A   1      34.887  17.727  24.668  1.00  0.00     0.007 A 
ATOM     97  C   UNL A   1      33.791  16.877  24.543  1.00  0.00     0.000 A 
BRANCH  94  98
ATOM     98  C   UNL A   1      35.985  19.964  24.725  1.00  0.00     0.192 C 
BRANCH  98  99
ATOM     99  O   UNL A   1      37.089  19.182  25.182  1.00  0.00    -0.392 OA
ATOM    100  H   UNL A   1      36.917  18.244  25.007  1.00  0.00     0.211 HD
ENDBRANCH  98  99
ENDBRANCH  94  98
ENDBRANCH  90  92
ENDBRANCH  85  90
ENDBRANCH  78  80
ENDBRANCH  77  78
ENDBRANCH  76  77
ENDBRANCH  75  76
ENDBRANCH  74  75
ENDBRANCH   1  74
TORSDOF 24
ENDMDL
MODEL 2
REMARK VINA RESULT:      -9.6      3.492      8.663
REMARK SMILES O=C(OCCOCCOCCOC(=O)c1cccc2cccc([S@](=O)c3ccccc3CO)c12)c1ccc(-c2c3nc(c(-c4cc(S(=O)(=O)[O-])ccc4F)c4ccc([nH]4)c(-c4cc(S(=O)(=O)[O-])ccc4F)c4nc(c(-c5cc(S(=O)(=O)[O-])ccc5F)c5ccc2[nH]5)C=C4)C=C3)cc1
REMARK SMILES IDX 8 1 7 2 6 3 5 4 4 5 3 6 2 7 1 8 35 9 36 10 97 11 37 12 96 13
REMARK SMILES IDX 38 14 39 15 40 16 90 17 41 18 95 19 89 20 91 21 42 22 94 23
REMARK SMILES IDX 88 24 87 25 43 27 75 28 55 29 74 30 56 31 59 32 73 33 92 34
REMARK SMILES IDX 57 35 58 36 72 38 93 39 60 40 44 41 45 42 53 43 46 44 52 45
REMARK SMILES IDX 54 46 51 47 47 48 48 49 49 50 50 51 76 52 77 53 85 54 78 55
REMARK SMILES IDX 84 56 86 57 83 58 79 59 80 60 81 61 82 62 61 63 62 64 70 65
REMARK SMILES IDX 63 66 69 67 71 68 68 69 64 70 65 71 66 72 67 73 9 74 10 75
REMARK SMILES IDX 11 76 12 77 13 78 14 79 15 80 16 81 34 82 17 83 19 84 23 85
REMARK SMILES IDX 18 86 20 87 22 88 21 89 24 90 25 91 26 92 27 93 31 94 28 95
REMARK SMILES IDX 30 96 29 97 32 98 33 99
REMARK H PARENT 91 26 59 37 33 100
REMARK Flexibility Score: inf
ROOT
ATOM      1  C   UNL A   1      39.456  20.642  25.917  1.00  0.00     0.188 C 
ENDROOT
BRANCH   1   2
ATOM      2  C   UNL A   1      40.718  20.354  26.690  1.00  0.00     0.188 C 
BRANCH   2   3
ATOM      3  O   UNL A   1      41.465  19.363  25.993  1.00  0.00    -0.376 OA
BRANCH   3   4
ATOM      4  C   UNL A   1      42.752  19.802  25.565  1.00  0.00     0.202 C 
BRANCH   4   5
ATOM      5  C   UNL A   1      43.196  21.210  26.018  1.00  0.00     0.261 C 
BRANCH   5   6
ATOM      6  O   UNL A   1      42.901  22.254  25.065  1.00  0.00    -0.460 OA
BRANCH   6   7
ATOM      7  C   UNL A   1      43.682  23.328  24.758  1.00  0.00     0.338 C 
ATOM      8  O   UNL A   1      44.483  23.226  23.830  1.00  0.00    -0.246 OA
BRANCH   7   9
ATOM      9  C   UNL A   1      43.734  24.570  25.606  1.00  0.00     0.060 A 
ATOM     10  C   UNL A   1      43.993  24.572  26.975  1.00  0.00     0.016 A 
ATOM     11  C   UNL A   1      43.608  25.820  24.971  1.00  0.00     0.016 A 
ATOM     12  C   UNL A   1      44.119  25.744  27.701  1.00  0.00     0.010 A 
ATOM     13  C   UNL A   1      43.721  27.018  25.696  1.00  0.00     0.010 A 
ATOM     14  C   UNL A   1      43.965  26.973  27.073  1.00  0.00    -0.014 A 
BRANCH  14  15
ATOM     15  C   UNL A   1      43.867  28.139  27.971  1.00  0.00     0.031 A 
ATOM     16  C   UNL A   1      45.121  28.924  28.218  1.00  0.00     0.074 A 
ATOM     17  C   UNL A   1      42.657  28.621  28.310  1.00  0.00     0.049 A 
ATOM     18  N   UNL A   1      45.282  30.047  28.860  1.00  0.00    -0.248 NA
ATOM     19  C   UNL A   1      46.353  28.394  27.608  1.00  0.00     0.031 C 
ATOM     20  C   UNL A   1      41.378  28.022  27.919  1.00  0.00     0.029 A 
ATOM     21  N   UNL A   1      42.298  29.747  29.001  1.00  0.00    -0.354 N 
ATOM     22  C   UNL A   1      46.627  30.370  28.716  1.00  0.00     0.074 A 
ATOM     23  C   UNL A   1      47.243  29.310  27.950  1.00  0.00     0.031 C 
ATOM     24  C   UNL A   1      40.378  28.794  28.374  1.00  0.00     0.029 A 
ATOM     25  C   UNL A   1      40.936  29.895  29.145  1.00  0.00     0.049 A 
ATOM     26  H   UNL A   1      42.950  30.390  29.361  1.00  0.00     0.167 HD
ATOM     27  C   UNL A   1      47.280  31.460  29.179  1.00  0.00     0.034 A 
ATOM     28  C   UNL A   1      40.233  30.801  29.855  1.00  0.00     0.034 A 
ATOM     29  C   UNL A   1      46.638  32.470  29.977  1.00  0.00     0.049 A 
ATOM     30  C   UNL A   1      41.017  31.894  30.543  1.00  0.00     0.074 A 
ATOM     31  C   UNL A   1      47.202  33.555  30.622  1.00  0.00     0.029 A 
ATOM     32  N   UNL A   1      45.273  32.508  30.248  1.00  0.00    -0.354 N 
ATOM     33  N   UNL A   1      42.308  32.142  30.483  1.00  0.00    -0.248 NA
ATOM     34  C   UNL A   1      40.261  32.827  31.381  1.00  0.00     0.031 C 
ATOM     35  C   UNL A   1      46.191  34.201  31.343  1.00  0.00     0.029 A 
ATOM     36  C   UNL A   1      44.982  33.576  31.078  1.00  0.00     0.049 A 
ATOM     37  H   UNL A   1      44.611  31.868  29.900  1.00  0.00     0.167 HD
ATOM     38  C   UNL A   1      42.511  33.283  31.253  1.00  0.00     0.074 A 
ATOM     39  C   UNL A   1      41.204  33.686  31.738  1.00  0.00     0.031 C 
ATOM     40  C   UNL A   1      43.664  33.939  31.543  1.00  0.00     0.034 A 
BRANCH  27  41
ATOM     41  C   UNL A   1      48.761  31.530  28.918  1.00  0.00     0.023 A 
ATOM     42  C   UNL A   1      49.283  32.093  27.739  1.00  0.00     0.031 A 
ATOM     43  C   UNL A   1      49.662  30.943  29.824  1.00  0.00     0.131 A 
ATOM     44  C   UNL A   1      50.656  31.995  27.466  1.00  0.00     0.055 A 
ATOM     45  C   UNL A   1      51.037  30.919  29.582  1.00  0.00     0.041 A 
ATOM     46  F   UNL A   1      49.216  30.356  30.945  1.00  0.00    -0.206 F 
ATOM     47  C   UNL A   1      51.540  31.434  28.392  1.00  0.00     0.022 A 
BRANCH  44  48
ATOM     48  S   UNL A   1      51.255  32.474  25.821  1.00  0.00     0.124 S 
ATOM     49  O   UNL A   1      50.177  33.345  25.358  1.00  0.00    -0.237 OA
ATOM     50  O   UNL A   1      52.521  33.133  26.123  1.00  0.00    -0.237 OA
ATOM     51  O   UNL A   1      51.368  31.202  25.113  1.00  0.00    -0.744 OA
ENDBRANCH  44  48
ENDBRANCH  27  41
BRANCH  28  52
ATOM     52  C   UNL A   1      38.754  30.673  30.040  1.00  0.00     0.023 A 
ATOM     53  C   UNL A   1      37.843  31.459  29.316  1.00  0.00     0.031 A 
ATOM     54  C   UNL A   1      38.230  29.836  31.047  1.00  0.00     0.131 A 
ATOM     55  C   UNL A   1      36.479  31.448  29.656  1.00  0.00     0.055 A 
ATOM     56  C   UNL A   1      36.865  29.777  31.333  1.00  0.00     0.041 A 
ATOM     57  F   UNL A   1      39.045  29.063  31.784  1.00  0.00    -0.206 F 
ATOM     58  C   UNL A   1      35.982  30.603  30.650  1.00  0.00     0.022 A 
BRANCH  55  59
ATOM     59  S   UNL A   1      35.379  32.667  28.879  1.00  0.00     0.124 S 
ATOM     60  O   UNL A   1      35.311  33.700  29.906  1.00  0.00    -0.237 OA
ATOM     61  O   UNL A   1      36.120  33.012  27.670  1.00  0.00    -0.237 OA
ATOM     62  O   UNL A   1      34.143  31.919  28.660  1.00  0.00    -0.744 OA
ENDBRANCH  55  59
ENDBRANCH  28  52
BRANCH  40  63
ATOM     63  C   UNL A   1      43.537  35.178  32.390  1.00  0.00     0.023 A 
ATOM     64  C   UNL A   1      43.248  35.101  33.762  1.00  0.00     0.031 A 
ATOM     65  C   UNL A   1      43.684  36.450  31.811  1.00  0.00     0.131 A 
ATOM     66  C   UNL A   1      43.037  36.275  34.495  1.00  0.00     0.055 A 
ATOM     67  C   UNL A   1      43.554  37.616  32.564  1.00  0.00     0.041 A 
ATOM     68  F   UNL A   1      43.956  36.579  30.503  1.00  0.00    -0.206 F 
ATOM     69  C   UNL A   1      43.210  37.533  33.911  1.00  0.00     0.022 A 
BRANCH  66  70
ATOM     70  S   UNL A   1      42.407  36.133  36.188  1.00  0.00     0.124 S 
ATOM     71  O   UNL A   1      41.023  36.570  36.032  1.00  0.00    -0.237 OA
ATOM     72  O   UNL A   1      42.597  34.714  36.473  1.00  0.00    -0.237 OA
ATOM     73  O   UNL A   1      43.264  37.039  36.949  1.00  0.00    -0.744 OA
ENDBRANCH  66  70
ENDBRANCH  40  63
ENDBRANCH  14  15
ENDBRANCH   7   9
ENDBRANCH   6   7
ENDBRANCH   5   6
ENDBRANCH   4   5
ENDBRANCH   3   4
ENDBRANCH   2   3
ENDBRANCH   1   2
BRANCH   1  74
ATOM     74  O   UNL A   1      39.331  22.055  25.746  1.00  0.00    -0.376 OA
BRANCH  74  75
ATOM     75  C   UNL A   1      38.035  22.507  26.128  1.00  0.00     0.202 C 
BRANCH  75  76
ATOM     76  C   UNL A   1      37.271  23.153  24.967  1.00  0.00     0.261 C 
BRANCH  76  77
ATOM     77  O   UNL A   1      36.076  23.826  25.412  1.00  0.00    -0.460 OA
BRANCH  77  78
ATOM     78  C   UNL A   1      35.215  24.222  24.434  1.00  0.00     0.338 C 
ATOM     79  O   UNL A   1      35.462  24.266  23.238  1.00  0.00    -0.246 OA
BRANCH  78  80
ATOM     80  C   UNL A   1      33.977  24.733  25.076  1.00  0.00     0.069 A 
ATOM     81  C   UNL A   1      34.128  26.080  25.470  1.00  0.00     0.016 A 
ATOM     82  C   UNL A   1      32.770  23.964  25.355  1.00  0.00     0.013 A 
ATOM     83  C   UNL A   1      33.119  26.730  26.150  1.00  0.00     0.002 A 
ATOM     84  C   UNL A   1      31.803  24.676  26.134  1.00  0.00    -0.016 A 
ATOM     85  C   UNL A   1      32.398  22.588  24.990  1.00  0.00     0.052 A 
ATOM     86  C   UNL A   1      31.976  26.025  26.491  1.00  0.00     0.009 A 
ATOM     87  C   UNL A   1      30.633  24.061  26.593  1.00  0.00     0.009 A 
ATOM     88  C   UNL A   1      31.255  21.988  25.553  1.00  0.00     0.019 A 
ATOM     89  C   UNL A   1      30.376  22.723  26.340  1.00  0.00     0.002 A 
BRANCH  85  90
ATOM     90  S   UNL A   1      33.395  21.712  23.723  1.00  0.00     0.086 S 
ATOM     91  O   UNL A   1      32.546  21.845  22.489  1.00  0.00    -0.249 OA
BRANCH  90  92
ATOM     92  C   UNL A   1      33.269  19.928  24.077  1.00  0.00     0.049 A 
ATOM     93  C   UNL A   1      32.181  19.213  23.543  1.00  0.00     0.018 A 
ATOM     94  C   UNL A   1      34.418  19.210  24.493  1.00  0.00    -0.006 A 
ATOM     95  C   UNL A   1      32.251  17.833  23.344  1.00  0.00     0.001 A 
ATOM     96  C   UNL A   1      34.482  17.823  24.242  1.00  0.00     0.007 A 
ATOM     97  C   UNL A   1      33.418  17.145  23.654  1.00  0.00     0.000 A 
BRANCH  94  98
ATOM     98  C   UNL A   1      35.653  19.867  25.058  1.00  0.00     0.192 C 
BRANCH  98  99
ATOM     99  O   UNL A   1      36.734  18.936  25.120  1.00  0.00    -0.392 OA
ATOM    100  H   UNL A   1      37.502  19.299  24.652  1.00  0.00     0.211 HD
ENDBRANCH  98  99
ENDBRANCH  94  98
ENDBRANCH  90  92
ENDBRANCH  85  90
ENDBRANCH  78  80
ENDBRANCH  77  78
ENDBRANCH  76  77
ENDBRANCH  75  76
ENDBRANCH  74  75
ENDBRANCH   1  74
TORSDOF 24
ENDMDL
MODEL 3
REMARK VINA RESULT:      -9.5      3.350      8.300
REMARK SMILES O=C(OCCOCCOCCOC(=O)c1cccc2cccc([S@](=O)c3ccccc3CO)c12)c1ccc(-c2c3nc(c(-c4cc(S(=O)(=O)[O-])ccc4F)c4ccc([nH]4)c(-c4cc(S(=O)(=O)[O-])ccc4F)c4nc(c(-c5cc(S(=O)(=O)[O-])ccc5F)c5ccc2[nH]5)C=C4)C=C3)cc1
REMARK SMILES IDX 8 1 7 2 6 3 5 4 4 5 3 6 2 7 1 8 35 9 36 10 97 11 37 12 96 13
REMARK SMILES IDX 38 14 39 15 40 16 90 17 41 18 95 19 89 20 91 21 42 22 94 23
REMARK SMILES IDX 88 24 87 25 43 27 75 28 55 29 74 30 56 31 59 32 73 33 92 34
REMARK SMILES IDX 57 35 58 36 72 38 93 39 60 40 44 41 45 42 53 43 46 44 52 45
REMARK SMILES IDX 54 46 51 47 47 48 48 49 49 50 50 51 76 52 77 53 85 54 78 55
REMARK SMILES IDX 84 56 86 57 83 58 79 59 80 60 81 61 82 62 61 63 62 64 70 65
REMARK SMILES IDX 63 66 69 67 71 68 68 69 64 70 65 71 66 72 67 73 9 74 10 75
REMARK SMILES IDX 11 76 12 77 13 78 14 79 15 80 16 81 34 82 17 83 19 84 23 85
REMARK SMILES IDX 18 86 20 87 22 88 21 89 24 90 25 91 26 92 27 93 31 94 28 95
REMARK SMILES IDX 30 96 29 97 32 98 33 99
REMARK H PARENT 91 26 59 37 33 100
REMARK Flexibility Score: inf
ROOT
ATOM      1  C   UNL A   1      39.292  20.831  25.969  1.00  0.00     0.188 C 
ENDROOT
BRANCH   1   2
ATOM      2  C   UNL A   1      40.482  20.576  26.860  1.00  0.00     0.188 C 
BRANCH   2   3
ATOM      3  O   UNL A   1      41.189  19.443  26.364  1.00  0.00    -0.376 OA
BRANCH   3   4
ATOM      4  C   UNL A   1      42.417  19.765  25.717  1.00  0.00     0.202 C 
BRANCH   4   5
ATOM      5  C   UNL A   1      43.059  21.124  26.074  1.00  0.00     0.261 C 
BRANCH   5   6
ATOM      6  O   UNL A   1      42.764  22.178  25.131  1.00  0.00    -0.460 OA
BRANCH   6   7
ATOM      7  C   UNL A   1      43.578  23.212  24.777  1.00  0.00     0.338 C 
ATOM      8  O   UNL A   1      44.376  23.042  23.857  1.00  0.00    -0.246 OA
BRANCH   7   9
ATOM      9  C   UNL A   1      43.667  24.490  25.566  1.00  0.00     0.060 A 
ATOM     10  C   UNL A   1      44.038  24.557  26.907  1.00  0.00     0.016 A 
ATOM     11  C   UNL A   1      43.457  25.708  24.893  1.00  0.00     0.016 A 
ATOM     12  C   UNL A   1      44.193  25.761  27.571  1.00  0.00     0.010 A 
ATOM     13  C   UNL A   1      43.597  26.938  25.557  1.00  0.00     0.010 A 
ATOM     14  C   UNL A   1      43.955  26.958  26.909  1.00  0.00    -0.014 A 
BRANCH  14  15
ATOM     15  C   UNL A   1      43.901  28.159  27.764  1.00  0.00     0.031 A 
ATOM     16  C   UNL A   1      45.144  28.993  27.857  1.00  0.00     0.074 A 
ATOM     17  C   UNL A   1      42.712  28.618  28.197  1.00  0.00     0.049 A 
ATOM     18  N   UNL A   1      45.325  30.148  28.435  1.00  0.00    -0.248 NA
ATOM     19  C   UNL A   1      46.331  28.475  27.155  1.00  0.00     0.031 C 
ATOM     20  C   UNL A   1      41.424  27.963  27.954  1.00  0.00     0.029 A 
ATOM     21  N   UNL A   1      42.380  29.762  28.872  1.00  0.00    -0.354 N 
ATOM     22  C   UNL A   1      46.638  30.506  28.149  1.00  0.00     0.074 A 
ATOM     23  C   UNL A   1      47.217  29.433  27.373  1.00  0.00     0.031 C 
ATOM     24  C   UNL A   1      40.444  28.722  28.471  1.00  0.00     0.029 A 
ATOM     25  C   UNL A   1      41.034  29.873  29.139  1.00  0.00     0.049 A 
ATOM     26  H   UNL A   1      43.040  30.439  29.142  1.00  0.00     0.167 HD
ATOM     27  C   UNL A   1      47.293  31.635  28.504  1.00  0.00     0.034 A 
ATOM     28  C   UNL A   1      40.369  30.787  29.875  1.00  0.00     0.034 A 
ATOM     29  C   UNL A   1      46.694  32.659  29.317  1.00  0.00     0.049 A 
ATOM     30  C   UNL A   1      41.175  31.933  30.440  1.00  0.00     0.074 A 
ATOM     31  C   UNL A   1      47.277  33.788  29.860  1.00  0.00     0.029 A 
ATOM     32  N   UNL A   1      45.360  32.666  29.715  1.00  0.00    -0.354 N 
ATOM     33  N   UNL A   1      42.445  32.219  30.247  1.00  0.00    -0.248 NA
ATOM     34  C   UNL A   1      40.468  32.879  31.307  1.00  0.00     0.031 C 
ATOM     35  C   UNL A   1      46.317  34.434  30.647  1.00  0.00     0.029 A 
ATOM     36  C   UNL A   1      45.110  33.761  30.525  1.00  0.00     0.049 A 
ATOM     37  H   UNL A   1      44.691  31.991  29.458  1.00  0.00     0.167 HD
ATOM     38  C   UNL A   1      42.679  33.398  30.946  1.00  0.00     0.074 A 
ATOM     39  C   UNL A   1      41.410  33.781  31.537  1.00  0.00     0.031 C 
ATOM     40  C   UNL A   1      43.830  34.102  31.098  1.00  0.00     0.034 A 
BRANCH  27  41
ATOM     41  C   UNL A   1      48.740  31.740  28.099  1.00  0.00     0.023 A 
ATOM     42  C   UNL A   1      49.774  31.214  28.894  1.00  0.00     0.031 A 
ATOM     43  C   UNL A   1      49.095  32.456  26.943  1.00  0.00     0.131 A 
ATOM     44  C   UNL A   1      51.113  31.472  28.559  1.00  0.00     0.055 A 
ATOM     45  C   UNL A   1      50.429  32.642  26.573  1.00  0.00     0.041 A 
ATOM     46  F   UNL A   1      48.151  33.014  26.169  1.00  0.00    -0.206 F 
ATOM     47  C   UNL A   1      51.446  32.160  27.390  1.00  0.00     0.022 A 
BRANCH  44  48
ATOM     48  S   UNL A   1      52.411  31.026  29.747  1.00  0.00     0.124 S 
ATOM     49  O   UNL A   1      51.871  31.571  30.990  1.00  0.00    -0.237 OA
ATOM     50  O   UNL A   1      52.444  29.571  29.650  1.00  0.00    -0.237 OA
ATOM     51  O   UNL A   1      53.595  31.712  29.235  1.00  0.00    -0.744 OA
ENDBRANCH  44  48
ENDBRANCH  27  41
BRANCH  28  52
ATOM     52  C   UNL A   1      38.919  30.621  30.206  1.00  0.00     0.023 A 
ATOM     53  C   UNL A   1      37.909  31.239  29.451  1.00  0.00     0.031 A 
ATOM     54  C   UNL A   1      38.527  29.931  31.371  1.00  0.00     0.131 A 
ATOM     55  C   UNL A   1      36.579  31.219  29.905  1.00  0.00     0.055 A 
ATOM     56  C   UNL A   1      37.195  29.855  31.781  1.00  0.00     0.041 A 
ATOM     57  F   UNL A   1      39.442  29.325  32.146  1.00  0.00    -0.206 F 
ATOM     58  C   UNL A   1      36.213  30.520  31.058  1.00  0.00     0.022 A 
BRANCH  55  59
ATOM     59  S   UNL A   1      35.350  32.246  29.049  1.00  0.00     0.124 S 
ATOM     60  O   UNL A   1      34.712  31.272  28.171  1.00  0.00    -0.237 OA
ATOM     61  O   UNL A   1      34.542  32.735  30.161  1.00  0.00    -0.237 OA
ATOM     62  O   UNL A   1      36.162  33.257  28.376  1.00  0.00    -0.744 OA
ENDBRANCH  55  59
ENDBRANCH  28  52
BRANCH  40  63
ATOM     63  C   UNL A   1      43.740  35.373  31.902  1.00  0.00     0.023 A 
ATOM     64  C   UNL A   1      43.719  36.632  31.281  1.00  0.00     0.031 A 
ATOM     65  C   UNL A   1      43.696  35.322  33.305  1.00  0.00     0.131 A 
ATOM     66  C   UNL A   1      43.736  37.793  32.064  1.00  0.00     0.055 A 
ATOM     67  C   UNL A   1      43.630  36.480  34.078  1.00  0.00     0.041 A 
ATOM     68  F   UNL A   1      43.717  34.143  33.948  1.00  0.00    -0.206 F 
ATOM     69  C   UNL A   1      43.669  37.726  33.458  1.00  0.00     0.022 A 
BRANCH  66  70
ATOM     70  S   UNL A   1      43.980  39.387  31.236  1.00  0.00     0.124 S 
ATOM     71  O   UNL A   1      43.358  39.149  29.937  1.00  0.00    -0.237 OA
ATOM     72  O   UNL A   1      43.273  40.308  32.120  1.00  0.00    -0.237 OA
ATOM     73  O   UNL A   1      45.432  39.541  31.211  1.00  0.00    -0.744 OA
ENDBRANCH  66  70
ENDBRANCH  40  63
ENDBRANCH  14  15
ENDBRANCH   7   9
ENDBRANCH   6   7
ENDBRANCH   5   6
ENDBRANCH   4   5
ENDBRANCH   3   4
ENDBRANCH   2   3
ENDBRANCH   1   2
BRANCH   1  74
ATOM     74  O   UNL A   1      39.289  22.207  25.584  1.00  0.00    -0.376 OA
BRANCH  74  75
ATOM     75  C   UNL A   1      38.119  22.870  26.051  1.00  0.00     0.202 C 
BRANCH  75  76
ATOM     76  C   UNL A   1      37.058  23.032  24.957  1.00  0.00     0.261 C 
BRANCH  76  77
ATOM     77  O   UNL A   1      36.068  24.021  25.303  1.00  0.00    -0.460 OA
BRANCH  77  78
ATOM     78  C   UNL A   1      35.131  24.287  24.351  1.00  0.00     0.338 C 
ATOM     79  O   UNL A   1      35.310  24.254  23.142  1.00  0.00    -0.246 OA
BRANCH  78  80
ATOM     80  C   UNL A   1      33.898  24.766  25.026  1.00  0.00     0.069 A 
ATOM     81  C   UNL A   1      34.043  26.102  25.459  1.00  0.00     0.016 A 
ATOM     82  C   UNL A   1      32.701  23.979  25.297  1.00  0.00     0.013 A 
ATOM     83  C   UNL A   1      33.039  26.722  26.173  1.00  0.00     0.002 A 
ATOM     84  C   UNL A   1      31.739  24.658  26.110  1.00  0.00    -0.016 A 
ATOM     85  C   UNL A   1      32.336  22.611  24.894  1.00  0.00     0.052 A 
ATOM     86  C   UNL A   1      31.907  25.996  26.507  1.00  0.00     0.009 A 
ATOM     87  C   UNL A   1      30.582  24.018  26.566  1.00  0.00     0.009 A 
ATOM     88  C   UNL A   1      31.206  21.984  25.453  1.00  0.00     0.019 A 
ATOM     89  C   UNL A   1      30.332  22.686  26.275  1.00  0.00     0.002 A 
BRANCH  85  90
ATOM     90  S   UNL A   1      33.322  21.784  23.587  1.00  0.00     0.086 S 
ATOM     91  O   UNL A   1      32.525  22.068  22.345  1.00  0.00    -0.249 OA
BRANCH  90  92
ATOM     92  C   UNL A   1      33.082  19.988  23.786  1.00  0.00     0.049 A 
ATOM     93  C   UNL A   1      32.166  19.335  22.941  1.00  0.00     0.018 A 
ATOM     94  C   UNL A   1      34.069  19.214  24.447  1.00  0.00    -0.006 A 
ATOM     95  C   UNL A   1      32.266  17.967  22.685  1.00  0.00     0.001 A 
ATOM     96  C   UNL A   1      34.177  17.842  24.138  1.00  0.00     0.007 A 
ATOM     97  C   UNL A   1      33.299  17.229  23.249  1.00  0.00     0.000 A 
BRANCH  94  98
ATOM     98  C   UNL A   1      35.119  19.803  25.357  1.00  0.00     0.192 C 
BRANCH  98  99
ATOM     99  O   UNL A   1      36.400  19.237  25.077  1.00  0.00    -0.392 OA
ATOM    100  H   UNL A   1      36.545  19.220  24.119  1.00  0.00     0.211 HD
ENDBRANCH  98  99
ENDBRANCH  94  98
ENDBRANCH  90  92
ENDBRANCH  85  90
ENDBRANCH  78  80
ENDBRANCH  77  78
ENDBRANCH  76  77
ENDBRANCH  75  76
ENDBRANCH  74  75
ENDBRANCH   1  74
TORSDOF 24
ENDMDL
