MODEL 1
REMARK VINA RESULT:      -9.4      0.000      0.000
REMARK SMILES O=C(OCCOCCOCCOC(=O)C1CCN(C(=O)COc2ccc(Cl)cc2Cl)CC1)c1ccc(-c2c3nc(c(-c4cc(S(=O)(=O)[O-])ccc4F)c4ccc([nH]4)c(-c4cc(S(=O)(=O)[O-])ccc4F)c4nc(c(-c5cc(S(=O)(=O)[O-])ccc5F)c5ccc2[nH]5)C=C4)C=C3)cc1
REMARK SMILES IDX 7 1 6 2 5 3 4 4 3 5 2 6 1 7 33 8 34 9 95 10 35 11 94 12
REMARK SMILES IDX 36 13 37 14 38 15 88 16 39 17 93 18 87 19 89 20 40 21 92 22
REMARK SMILES IDX 86 23 85 24 41 26 73 27 53 28 72 29 54 30 57 31 71 32 90 33
REMARK SMILES IDX 55 34 56 35 70 37 91 38 58 39 42 40 43 41 51 42 44 43 50 44
REMARK SMILES IDX 52 45 49 46 45 47 46 48 47 49 48 50 74 51 75 52 83 53 76 54
REMARK SMILES IDX 82 55 84 56 81 57 77 58 78 59 79 60 80 61 59 62 60 63 68 64
REMARK SMILES IDX 61 65 67 66 69 67 66 68 62 69 63 70 64 71 65 72 8 73 9 74
REMARK SMILES IDX 10 75 11 76 12 77 13 78 14 79 15 80 16 81 32 82 17 83 31 84
REMARK SMILES IDX 18 85 19 86 20 87 21 88 22 89 23 90 24 91 29 92 25 93 28 94
REMARK SMILES IDX 30 95 26 96 27 97
REMARK H PARENT 89 25 57 36
REMARK Flexibility Score: inf
ROOT
ATOM      1  C   UNL A   1      32.950  28.375  27.269  1.00  0.00     0.188 C 
ENDROOT
BRANCH   1   2
ATOM      2  O   UNL A   1      33.365  29.624  27.835  1.00  0.00    -0.376 OA
BRANCH   2   3
ATOM      3  C   UNL A   1      32.756  30.755  27.203  1.00  0.00     0.202 C 
BRANCH   3   4
ATOM      4  C   UNL A   1      33.639  32.011  27.185  1.00  0.00     0.261 C 
BRANCH   4   5
ATOM      5  O   UNL A   1      33.530  32.769  28.397  1.00  0.00    -0.460 OA
BRANCH   5   6
ATOM      6  C   UNL A   1      34.535  33.286  29.150  1.00  0.00     0.338 C 
ATOM      7  O   UNL A   1      34.405  34.441  29.559  1.00  0.00    -0.246 OA
BRANCH   6   8
ATOM      8  C   UNL A   1      35.776  32.536  29.538  1.00  0.00     0.060 A 
ATOM      9  C   UNL A   1      35.827  31.271  30.128  1.00  0.00     0.016 A 
ATOM     10  C   UNL A   1      36.999  33.133  29.194  1.00  0.00     0.016 A 
ATOM     11  C   UNL A   1      37.041  30.656  30.437  1.00  0.00     0.010 A 
ATOM     12  C   UNL A   1      38.219  32.484  29.424  1.00  0.00     0.010 A 
ATOM     13  C   UNL A   1      38.249  31.248  30.075  1.00  0.00    -0.014 A 
BRANCH  13  14
ATOM     14  C   UNL A   1      39.521  30.593  30.463  1.00  0.00     0.031 A 
ATOM     15  C   UNL A   1      40.215  31.060  31.705  1.00  0.00     0.074 A 
ATOM     16  C   UNL A   1      39.981  29.532  29.770  1.00  0.00     0.049 A 
ATOM     17  N   UNL A   1      41.259  30.554  32.307  1.00  0.00    -0.248 NA
ATOM     18  C   UNL A   1      39.642  32.238  32.376  1.00  0.00     0.031 C 
ATOM     19  C   UNL A   1      39.344  28.973  28.581  1.00  0.00     0.029 A 
ATOM     20  N   UNL A   1      41.067  28.717  29.965  1.00  0.00    -0.354 N 
ATOM     21  C   UNL A   1      41.432  31.319  33.453  1.00  0.00     0.074 A 
ATOM     22  C   UNL A   1      40.450  32.378  33.413  1.00  0.00     0.031 C 
ATOM     23  C   UNL A   1      40.048  27.919  28.141  1.00  0.00     0.029 A 
ATOM     24  C   UNL A   1      41.194  27.724  29.019  1.00  0.00     0.049 A 
ATOM     25  H   UNL A   1      41.697  28.832  30.713  1.00  0.00     0.167 HD
ATOM     26  C   UNL A   1      42.304  31.127  34.471  1.00  0.00     0.034 A 
ATOM     27  C   UNL A   1      42.128  26.763  28.881  1.00  0.00     0.034 A 
ATOM     28  C   UNL A   1      43.318  30.105  34.458  1.00  0.00     0.049 A 
ATOM     29  C   UNL A   1      43.177  26.654  29.958  1.00  0.00     0.074 A 
ATOM     30  C   UNL A   1      44.327  29.868  35.372  1.00  0.00     0.029 A 
ATOM     31  N   UNL A   1      43.456  29.152  33.452  1.00  0.00    -0.354 N 
ATOM     32  N   UNL A   1      43.318  27.379  31.045  1.00  0.00    -0.248 NA
ATOM     33  C   UNL A   1      44.168  25.583  29.813  1.00  0.00     0.031 C 
ATOM     34  C   UNL A   1      45.103  28.803  34.894  1.00  0.00     0.029 A 
ATOM     35  C   UNL A   1      44.544  28.337  33.714  1.00  0.00     0.049 A 
ATOM     36  H   UNL A   1      42.866  29.070  32.669  1.00  0.00     0.167 HD
ATOM     37  C   UNL A   1      44.397  26.832  31.729  1.00  0.00     0.074 A 
ATOM     38  C   UNL A   1      44.850  25.701  30.942  1.00  0.00     0.031 C 
ATOM     39  C   UNL A   1      44.969  27.224  32.897  1.00  0.00     0.034 A 
BRANCH  26  40
ATOM     40  C   UNL A   1      42.191  32.085  35.629  1.00  0.00     0.023 A 
ATOM     41  C   UNL A   1      41.164  31.943  36.583  1.00  0.00     0.031 A 
ATOM     42  C   UNL A   1      43.017  33.216  35.709  1.00  0.00     0.131 A 
ATOM     43  C   UNL A   1      40.933  32.962  37.518  1.00  0.00     0.055 A 
ATOM     44  C   UNL A   1      42.830  34.190  36.692  1.00  0.00     0.041 A 
ATOM     45  F   UNL A   1      43.990  33.418  34.807  1.00  0.00    -0.206 F 
ATOM     46  C   UNL A   1      41.772  34.076  37.592  1.00  0.00     0.022 A 
BRANCH  43  47
ATOM     47  S   UNL A   1      39.427  32.891  38.528  1.00  0.00     0.124 S 
ATOM     48  O   UNL A   1      38.579  32.009  37.730  1.00  0.00    -0.237 OA
ATOM     49  O   UNL A   1      39.915  32.337  39.788  1.00  0.00    -0.237 OA
ATOM     50  O   UNL A   1      38.987  34.282  38.588  1.00  0.00    -0.744 OA
ENDBRANCH  43  47
ENDBRANCH  26  40
BRANCH  27  51
ATOM     51  C   UNL A   1      42.129  25.851  27.697  1.00  0.00     0.023 A 
ATOM     52  C   UNL A   1      41.558  24.569  27.750  1.00  0.00     0.031 A 
ATOM     53  C   UNL A   1      42.765  26.234  26.501  1.00  0.00     0.131 A 
ATOM     54  C   UNL A   1      41.681  23.698  26.652  1.00  0.00     0.055 A 
ATOM     55  C   UNL A   1      42.843  25.383  25.395  1.00  0.00     0.041 A 
ATOM     56  F   UNL A   1      43.321  27.450  26.386  1.00  0.00    -0.206 F 
ATOM     57  C   UNL A   1      42.314  24.099  25.474  1.00  0.00     0.022 A 
BRANCH  54  58
ATOM     58  S   UNL A   1      41.092  21.989  26.822  1.00  0.00     0.124 S 
ATOM     59  O   UNL A   1      41.772  21.325  25.716  1.00  0.00    -0.237 OA
ATOM     60  O   UNL A   1      41.556  21.645  28.161  1.00  0.00    -0.237 OA
ATOM     61  O   UNL A   1      39.643  22.113  26.678  1.00  0.00    -0.744 OA
ENDBRANCH  54  58
ENDBRANCH  27  51
BRANCH  39  62
ATOM     62  C   UNL A   1      46.124  26.389  33.385  1.00  0.00     0.023 A 
ATOM     63  C   UNL A   1      47.440  26.650  32.967  1.00  0.00     0.031 A 
ATOM     64  C   UNL A   1      45.899  25.305  34.249  1.00  0.00     0.131 A 
ATOM     65  C   UNL A   1      48.476  25.793  33.359  1.00  0.00     0.055 A 
ATOM     66  C   UNL A   1      46.945  24.493  34.688  1.00  0.00     0.041 A 
ATOM     67  F   UNL A   1      44.659  25.015  34.676  1.00  0.00    -0.206 F 
ATOM     68  C   UNL A   1      48.240  24.726  34.229  1.00  0.00     0.022 A 
BRANCH  65  69
ATOM     69  S   UNL A   1      50.118  26.033  32.632  1.00  0.00     0.124 S 
ATOM     70  O   UNL A   1      49.994  27.360  32.038  1.00  0.00    -0.237 OA
ATOM     71  O   UNL A   1      50.992  25.935  33.796  1.00  0.00    -0.237 OA
ATOM     72  O   UNL A   1      50.233  24.933  31.676  1.00  0.00    -0.744 OA
ENDBRANCH  65  69
ENDBRANCH  39  62
ENDBRANCH  13  14
ENDBRANCH   6   8
ENDBRANCH   5   6
ENDBRANCH   4   5
ENDBRANCH   3   4
ENDBRANCH   2   3
ENDBRANCH   1   2
BRANCH   1  73
ATOM     73  C   UNL A   1      34.008  27.807  26.321  1.00  0.00     0.188 C 
BRANCH  73  74
ATOM     74  O   UNL A   1      33.587  27.572  24.978  1.00  0.00    -0.376 OA
BRANCH  74  75
ATOM     75  C   UNL A   1      33.601  28.698  24.102  1.00  0.00     0.202 C 
BRANCH  75  76
ATOM     76  C   UNL A   1      33.328  28.448  22.610  1.00  0.00     0.261 C 
BRANCH  76  77
ATOM     77  O   UNL A   1      32.308  27.478  22.308  1.00  0.00    -0.463 OA
BRANCH  77  78
ATOM     78  C   UNL A   1      31.047  27.820  22.690  1.00  0.00     0.309 C 
ATOM     79  O   UNL A   1      30.625  28.973  22.726  1.00  0.00    -0.252 OA
BRANCH  78  80
ATOM     80  C   UNL A   1      30.176  26.638  23.100  1.00  0.00     0.103 C 
ATOM     81  C   UNL A   1      29.618  26.659  24.524  1.00  0.00     0.037 C 
ATOM     82  C   UNL A   1      30.852  25.298  22.764  1.00  0.00     0.037 C 
ATOM     83  C   UNL A   1      30.572  26.085  25.567  1.00  0.00     0.120 C 
ATOM     84  C   UNL A   1      31.758  24.767  23.870  1.00  0.00     0.120 C 
ATOM     85  N   UNL A   1      31.084  24.784  25.156  1.00  0.00    -0.340 N 
ATOM     86  C   UNL A   1      30.962  23.701  26.015  1.00  0.00     0.260 C 
ATOM     87  O   UNL A   1      30.503  23.804  27.155  1.00  0.00    -0.271 OA
BRANCH  86  88
ATOM     88  C   UNL A   1      31.346  22.306  25.519  1.00  0.00     0.329 C 
BRANCH  88  89
ATOM     89  O   UNL A   1      32.229  21.530  26.313  1.00  0.00    -0.482 OA
BRANCH  89  90
ATOM     90  C   UNL A   1      33.520  21.345  25.898  1.00  0.00     0.138 A 
ATOM     91  C   UNL A   1      34.575  22.238  26.118  1.00  0.00     0.049 A 
ATOM     92  C   UNL A   1      33.807  20.118  25.276  1.00  0.00     0.084 A 
ATOM     93  C   UNL A   1      35.885  21.901  25.759  1.00  0.00     0.024 A 
ATOM     94  C   UNL A   1      35.112  19.785  24.901  1.00  0.00     0.045 A 
ATOM     95  Cl  UNL A   1      32.555  18.970  24.939  1.00  0.00    -0.080 Cl
ATOM     96  C   UNL A   1      36.147  20.676  25.157  1.00  0.00     0.042 A 
ATOM     97  Cl  UNL A   1      37.760  20.256  24.735  1.00  0.00    -0.084 Cl
ENDBRANCH  89  90
ENDBRANCH  88  89
ENDBRANCH  86  88
ENDBRANCH  78  80
ENDBRANCH  77  78
ENDBRANCH  76  77
ENDBRANCH  75  76
ENDBRANCH  74  75
ENDBRANCH  73  74
ENDBRANCH   1  73
TORSDOF 23
ENDMDL
MODEL 2
REMARK VINA RESULT:      -8.8      6.089     10.295
REMARK SMILES O=C(OCCOCCOCCOC(=O)C1CCN(C(=O)COc2ccc(Cl)cc2Cl)CC1)c1ccc(-c2c3nc(c(-c4cc(S(=O)(=O)[O-])ccc4F)c4ccc([nH]4)c(-c4cc(S(=O)(=O)[O-])ccc4F)c4nc(c(-c5cc(S(=O)(=O)[O-])ccc5F)c5ccc2[nH]5)C=C4)C=C3)cc1
REMARK SMILES IDX 7 1 6 2 5 3 4 4 3 5 2 6 1 7 33 8 34 9 95 10 35 11 94 12
REMARK SMILES IDX 36 13 37 14 38 15 88 16 39 17 93 18 87 19 89 20 40 21 92 22
REMARK SMILES IDX 86 23 85 24 41 26 73 27 53 28 72 29 54 30 57 31 71 32 90 33
REMARK SMILES IDX 55 34 56 35 70 37 91 38 58 39 42 40 43 41 51 42 44 43 50 44
REMARK SMILES IDX 52 45 49 46 45 47 46 48 47 49 48 50 74 51 75 52 83 53 76 54
REMARK SMILES IDX 82 55 84 56 81 57 77 58 78 59 79 60 80 61 59 62 60 63 68 64
REMARK SMILES IDX 61 65 67 66 69 67 66 68 62 69 63 70 64 71 65 72 8 73 9 74
REMARK SMILES IDX 10 75 11 76 12 77 13 78 14 79 15 80 16 81 32 82 17 83 31 84
REMARK SMILES IDX 18 85 19 86 20 87 21 88 22 89 23 90 24 91 29 92 25 93 28 94
REMARK SMILES IDX 30 95 26 96 27 97
REMARK H PARENT 89 25 57 36
REMARK Flexibility Score: inf
ROOT
ATOM      1  C   UNL A   1      44.700  23.081  26.182  1.00  0.00     0.188 C 
ENDROOT
BRANCH   1   2
ATOM      2  O   UNL A   1      45.014  24.203  25.350  1.00  0.00    -0.376 OA
BRANCH   2   3
ATOM      3  C   UNL A   1      43.987  25.200  25.342  1.00  0.00     0.202 C 
BRANCH   3   4
ATOM      4  C   UNL A   1      44.478  26.601  24.953  1.00  0.00     0.261 C 
BRANCH   4   5
ATOM      5  O   UNL A   1      45.897  26.641  24.746  1.00  0.00    -0.460 OA
BRANCH   5   6
ATOM      6  C   UNL A   1      46.830  27.284  25.494  1.00  0.00     0.338 C 
ATOM      7  O   UNL A   1      47.327  28.310  25.026  1.00  0.00    -0.246 OA
BRANCH   6   8
ATOM      8  C   UNL A   1      47.274  26.845  26.859  1.00  0.00     0.060 A 
ATOM      9  C   UNL A   1      47.366  25.528  27.314  1.00  0.00     0.016 A 
ATOM     10  C   UNL A   1      47.718  27.856  27.726  1.00  0.00     0.016 A 
ATOM     11  C   UNL A   1      47.806  25.228  28.604  1.00  0.00     0.010 A 
ATOM     12  C   UNL A   1      48.240  27.556  28.991  1.00  0.00     0.010 A 
ATOM     13  C   UNL A   1      48.262  26.237  29.451  1.00  0.00    -0.014 A 
BRANCH  13  14
ATOM     14  C   UNL A   1      48.674  25.891  30.832  1.00  0.00     0.031 A 
ATOM     15  C   UNL A   1      47.609  25.662  31.860  1.00  0.00     0.074 A 
ATOM     16  C   UNL A   1      49.974  25.682  31.124  1.00  0.00     0.049 A 
ATOM     17  N   UNL A   1      47.725  25.226  33.086  1.00  0.00    -0.248 NA
ATOM     18  C   UNL A   1      46.224  25.937  31.444  1.00  0.00     0.031 C 
ATOM     19  C   UNL A   1      51.075  25.826  30.175  1.00  0.00     0.029 A 
ATOM     20  N   UNL A   1      50.596  25.285  32.279  1.00  0.00    -0.354 N 
ATOM     21  C   UNL A   1      46.426  25.123  33.566  1.00  0.00     0.074 A 
ATOM     22  C   UNL A   1      45.548  25.632  32.538  1.00  0.00     0.031 C 
ATOM     23  C   UNL A   1      52.237  25.537  30.781  1.00  0.00     0.029 A 
ATOM     24  C   UNL A   1      51.965  25.186  32.168  1.00  0.00     0.049 A 
ATOM     25  H   UNL A   1      50.108  25.088  33.112  1.00  0.00     0.167 HD
ATOM     26  C   UNL A   1      46.002  24.606  34.744  1.00  0.00     0.034 A 
ATOM     27  C   UNL A   1      52.894  24.845  33.083  1.00  0.00     0.034 A 
ATOM     28  C   UNL A   1      46.898  24.166  35.780  1.00  0.00     0.049 A 
ATOM     29  C   UNL A   1      52.405  24.403  34.438  1.00  0.00     0.074 A 
ATOM     30  C   UNL A   1      46.604  23.722  37.055  1.00  0.00     0.029 A 
ATOM     31  N   UNL A   1      48.285  24.137  35.656  1.00  0.00    -0.354 N 
ATOM     32  N   UNL A   1      51.168  24.298  34.872  1.00  0.00    -0.248 NA
ATOM     33  C   UNL A   1      53.424  24.003  35.413  1.00  0.00     0.031 C 
ATOM     34  C   UNL A   1      47.814  23.469  37.716  1.00  0.00     0.029 A 
ATOM     35  C   UNL A   1      48.860  23.699  36.836  1.00  0.00     0.049 A 
ATOM     36  H   UNL A   1      48.783  24.390  34.846  1.00  0.00     0.167 HD
ATOM     37  C   UNL A   1      51.261  23.791  36.163  1.00  0.00     0.074 A 
ATOM     38  C   UNL A   1      52.674  23.588  36.423  1.00  0.00     0.031 C 
ATOM     39  C   UNL A   1      50.276  23.519  37.058  1.00  0.00     0.034 A 
BRANCH  26  40
ATOM     40  C   UNL A   1      44.508  24.553  34.942  1.00  0.00     0.023 A 
ATOM     41  C   UNL A   1      43.846  25.543  35.693  1.00  0.00     0.031 A 
ATOM     42  C   UNL A   1      43.764  23.448  34.501  1.00  0.00     0.131 A 
ATOM     43  C   UNL A   1      42.504  25.362  36.059  1.00  0.00     0.055 A 
ATOM     44  C   UNL A   1      42.407  23.312  34.803  1.00  0.00     0.041 A 
ATOM     45  F   UNL A   1      44.352  22.460  33.809  1.00  0.00    -0.206 F 
ATOM     46  C   UNL A   1      41.774  24.263  35.602  1.00  0.00     0.022 A 
BRANCH  43  47
ATOM     47  S   UNL A   1      41.773  26.497  37.272  1.00  0.00     0.124 S 
ATOM     48  O   UNL A   1      42.904  26.745  38.162  1.00  0.00    -0.237 OA
ATOM     49  O   UNL A   1      41.357  27.624  36.442  1.00  0.00    -0.237 OA
ATOM     50  O   UNL A   1      40.684  25.720  37.857  1.00  0.00    -0.744 OA
ENDBRANCH  43  47
ENDBRANCH  26  40
BRANCH  27  51
ATOM     51  C   UNL A   1      54.352  24.914  32.766  1.00  0.00     0.023 A 
ATOM     52  C   UNL A   1      55.045  26.135  32.724  1.00  0.00     0.031 A 
ATOM     53  C   UNL A   1      55.068  23.747  32.435  1.00  0.00     0.131 A 
ATOM     54  C   UNL A   1      56.388  26.170  32.309  1.00  0.00     0.055 A 
ATOM     55  C   UNL A   1      56.416  23.779  32.069  1.00  0.00     0.041 A 
ATOM     56  F   UNL A   1      54.463  22.548  32.465  1.00  0.00    -0.206 F 
ATOM     57  C   UNL A   1      57.079  25.000  31.987  1.00  0.00     0.022 A 
BRANCH  54  58
ATOM     58  S   UNL A   1      57.196  27.781  32.092  1.00  0.00     0.124 S 
ATOM     59  O   UNL A   1      56.244  28.483  31.240  1.00  0.00    -0.237 OA
ATOM     60  O   UNL A   1      57.294  28.253  33.469  1.00  0.00    -0.237 OA
ATOM     61  O   UNL A   1      58.468  27.441  31.459  1.00  0.00    -0.744 OA
ENDBRANCH  54  58
ENDBRANCH  27  51
BRANCH  39  62
ATOM     62  C   UNL A   1      50.718  22.946  38.379  1.00  0.00     0.023 A 
ATOM     63  C   UNL A   1      50.653  21.566  38.634  1.00  0.00     0.031 A 
ATOM     64  C   UNL A   1      51.176  23.793  39.400  1.00  0.00     0.131 A 
ATOM     65  C   UNL A   1      50.975  21.078  39.907  1.00  0.00     0.055 A 
ATOM     66  C   UNL A   1      51.558  23.295  40.647  1.00  0.00     0.041 A 
ATOM     67  F   UNL A   1      51.256  25.120  39.205  1.00  0.00    -0.206 F 
ATOM     68  C   UNL A   1      51.443  21.932  40.909  1.00  0.00     0.022 A 
BRANCH  65  69
ATOM     69  S   UNL A   1      50.677  19.327  40.263  1.00  0.00     0.124 S 
ATOM     70  O   UNL A   1      51.648  19.064  41.319  1.00  0.00    -0.237 OA
ATOM     71  O   UNL A   1      49.275  19.326  40.670  1.00  0.00    -0.237 OA
ATOM     72  O   UNL A   1      50.953  18.667  38.988  1.00  0.00    -0.744 OA
ENDBRANCH  65  69
ENDBRANCH  39  62
ENDBRANCH  13  14
ENDBRANCH   6   8
ENDBRANCH   5   6
ENDBRANCH   4   5
ENDBRANCH   3   4
ENDBRANCH   2   3
ENDBRANCH   1   2
BRANCH   1  73
ATOM     73  C   UNL A   1      43.231  23.089  26.607  1.00  0.00     0.188 C 
BRANCH  73  74
ATOM     74  O   UNL A   1      42.793  21.970  27.377  1.00  0.00    -0.376 OA
BRANCH  74  75
ATOM     75  C   UNL A   1      41.591  21.334  26.946  1.00  0.00     0.202 C 
BRANCH  75  76
ATOM     76  C   UNL A   1      40.358  22.221  26.705  1.00  0.00     0.261 C 
BRANCH  76  77
ATOM     77  O   UNL A   1      39.230  21.578  26.082  1.00  0.00    -0.463 OA
BRANCH  77  78
ATOM     78  C   UNL A   1      38.202  22.405  25.745  1.00  0.00     0.309 C 
ATOM     79  O   UNL A   1      37.993  23.497  26.268  1.00  0.00    -0.252 OA
BRANCH  78  80
ATOM     80  C   UNL A   1      37.289  21.855  24.655  1.00  0.00     0.103 C 
ATOM     81  C   UNL A   1      36.806  22.849  23.598  1.00  0.00     0.037 C 
ATOM     82  C   UNL A   1      36.131  21.036  25.251  1.00  0.00     0.037 C 
ATOM     83  C   UNL A   1      35.553  23.618  24.005  1.00  0.00     0.120 C 
ATOM     84  C   UNL A   1      34.899  21.867  25.595  1.00  0.00     0.120 C 
ATOM     85  N   UNL A   1      34.512  22.719  24.484  1.00  0.00    -0.340 N 
ATOM     86  C   UNL A   1      33.246  22.778  23.919  1.00  0.00     0.260 C 
ATOM     87  O   UNL A   1      32.934  23.618  23.071  1.00  0.00    -0.271 OA
BRANCH  86  88
ATOM     88  C   UNL A   1      32.205  21.725  24.302  1.00  0.00     0.329 C 
BRANCH  88  89
ATOM     89  O   UNL A   1      32.100  20.561  23.500  1.00  0.00    -0.482 OA
BRANCH  89  90
ATOM     90  C   UNL A   1      32.475  19.350  24.017  1.00  0.00     0.138 A 
ATOM     91  C   UNL A   1      32.663  19.077  25.376  1.00  0.00     0.049 A 
ATOM     92  C   UNL A   1      32.594  18.290  23.103  1.00  0.00     0.084 A 
ATOM     93  C   UNL A   1      32.929  17.774  25.814  1.00  0.00     0.024 A 
ATOM     94  C   UNL A   1      32.877  16.991  23.535  1.00  0.00     0.045 A 
ATOM     95  Cl  UNL A   1      32.407  18.549  21.401  1.00  0.00    -0.080 Cl
ATOM     96  C   UNL A   1      33.030  16.739  24.893  1.00  0.00     0.042 A 
ATOM     97  Cl  UNL A   1      33.338  15.136  25.434  1.00  0.00    -0.084 Cl
ENDBRANCH  89  90
ENDBRANCH  88  89
ENDBRANCH  86  88
ENDBRANCH  78  80
ENDBRANCH  77  78
ENDBRANCH  76  77
ENDBRANCH  75  76
ENDBRANCH  74  75
ENDBRANCH  73  74
ENDBRANCH   1  73
TORSDOF 23
ENDMDL
MODEL 3
REMARK VINA RESULT:      -8.8      4.905      8.399
REMARK SMILES O=C(OCCOCCOCCOC(=O)C1CCN(C(=O)COc2ccc(Cl)cc2Cl)CC1)c1ccc(-c2c3nc(c(-c4cc(S(=O)(=O)[O-])ccc4F)c4ccc([nH]4)c(-c4cc(S(=O)(=O)[O-])ccc4F)c4nc(c(-c5cc(S(=O)(=O)[O-])ccc5F)c5ccc2[nH]5)C=C4)C=C3)cc1
REMARK SMILES IDX 7 1 6 2 5 3 4 4 3 5 2 6 1 7 33 8 34 9 95 10 35 11 94 12
REMARK SMILES IDX 36 13 37 14 38 15 88 16 39 17 93 18 87 19 89 20 40 21 92 22
REMARK SMILES IDX 86 23 85 24 41 26 73 27 53 28 72 29 54 30 57 31 71 32 90 33
REMARK SMILES IDX 55 34 56 35 70 37 91 38 58 39 42 40 43 41 51 42 44 43 50 44
REMARK SMILES IDX 52 45 49 46 45 47 46 48 47 49 48 50 74 51 75 52 83 53 76 54
REMARK SMILES IDX 82 55 84 56 81 57 77 58 78 59 79 60 80 61 59 62 60 63 68 64
REMARK SMILES IDX 61 65 67 66 69 67 66 68 62 69 63 70 64 71 65 72 8 73 9 74
REMARK SMILES IDX 10 75 11 76 12 77 13 78 14 79 15 80 16 81 32 82 17 83 31 84
REMARK SMILES IDX 18 85 19 86 20 87 21 88 22 89 23 90 24 91 29 92 25 93 28 94
REMARK SMILES IDX 30 95 26 96 27 97
REMARK H PARENT 89 25 57 36
REMARK Flexibility Score: inf
ROOT
ATOM      1  C   UNL A   1      35.338  33.204  31.347  1.00  0.00     0.188 C 
ENDROOT
BRANCH   1   2
ATOM      2  O   UNL A   1      35.531  33.504  29.960  1.00  0.00    -0.376 OA
BRANCH   2   3
ATOM      3  C   UNL A   1      34.304  33.568  29.224  1.00  0.00     0.202 C 
BRANCH   3   4
ATOM      4  C   UNL A   1      34.291  32.705  27.955  1.00  0.00     0.261 C 
BRANCH   4   5
ATOM      5  O   UNL A   1      33.953  31.338  28.232  1.00  0.00    -0.460 OA
BRANCH   5   6
ATOM      6  C   UNL A   1      34.644  30.223  27.883  1.00  0.00     0.338 C 
ATOM      7  O   UNL A   1      34.079  29.407  27.152  1.00  0.00    -0.246 OA
BRANCH   6   8
ATOM      8  C   UNL A   1      36.055  29.932  28.305  1.00  0.00     0.060 A 
ATOM      9  C   UNL A   1      36.463  29.464  29.556  1.00  0.00     0.016 A 
ATOM     10  C   UNL A   1      37.042  30.063  27.316  1.00  0.00     0.016 A 
ATOM     11  C   UNL A   1      37.806  29.211  29.840  1.00  0.00     0.010 A 
ATOM     12  C   UNL A   1      38.379  29.732  27.569  1.00  0.00     0.010 A 
ATOM     13  C   UNL A   1      38.776  29.328  28.847  1.00  0.00    -0.014 A 
BRANCH  13  14
ATOM     14  C   UNL A   1      40.199  29.103  29.195  1.00  0.00     0.031 A 
ATOM     15  C   UNL A   1      40.906  30.136  30.017  1.00  0.00     0.074 A 
ATOM     16  C   UNL A   1      40.806  27.944  28.869  1.00  0.00     0.049 A 
ATOM     17  N   UNL A   1      42.099  30.093  30.549  1.00  0.00    -0.248 NA
ATOM     18  C   UNL A   1      40.161  31.373  30.302  1.00  0.00     0.031 C 
ATOM     19  C   UNL A   1      40.181  26.858  28.118  1.00  0.00     0.029 A 
ATOM     20  N   UNL A   1      42.063  27.466  29.137  1.00  0.00    -0.354 N 
ATOM     21  C   UNL A   1      42.223  31.271  31.274  1.00  0.00     0.074 A 
ATOM     22  C   UNL A   1      41.029  32.048  31.036  1.00  0.00     0.031 C 
ATOM     23  C   UNL A   1      41.051  25.847  27.972  1.00  0.00     0.029 A 
ATOM     24  C   UNL A   1      42.304  26.213  28.619  1.00  0.00     0.049 A 
ATOM     25  H   UNL A   1      42.732  27.973  29.652  1.00  0.00     0.167 HD
ATOM     26  C   UNL A   1      43.226  31.650  32.101  1.00  0.00     0.034 A 
ATOM     27  C   UNL A   1      43.411  25.445  28.668  1.00  0.00     0.034 A 
ATOM     28  C   UNL A   1      44.437  30.891  32.270  1.00  0.00     0.049 A 
ATOM     29  C   UNL A   1      44.572  25.951  29.484  1.00  0.00     0.074 A 
ATOM     30  C   UNL A   1      45.571  31.210  32.993  1.00  0.00     0.029 A 
ATOM     31  N   UNL A   1      44.673  29.651  31.682  1.00  0.00    -0.354 N 
ATOM     32  N   UNL A   1      44.667  27.064  30.177  1.00  0.00    -0.248 NA
ATOM     33  C   UNL A   1      45.757  25.091  29.556  1.00  0.00     0.031 C 
ATOM     34  C   UNL A   1      46.509  30.186  32.802  1.00  0.00     0.029 A 
ATOM     35  C   UNL A   1      45.940  29.200  32.010  1.00  0.00     0.049 A 
ATOM     36  H   UNL A   1      44.031  29.165  31.115  1.00  0.00     0.167 HD
ATOM     37  C   UNL A   1      45.913  27.023  30.791  1.00  0.00     0.074 A 
ATOM     38  C   UNL A   1      46.519  25.763  30.406  1.00  0.00     0.031 C 
ATOM     39  C   UNL A   1      46.511  27.939  31.597  1.00  0.00     0.034 A 
BRANCH  26  40
ATOM     40  C   UNL A   1      43.031  32.959  32.821  1.00  0.00     0.023 A 
ATOM     41  C   UNL A   1      42.310  33.016  34.030  1.00  0.00     0.031 A 
ATOM     42  C   UNL A   1      43.442  34.168  32.239  1.00  0.00     0.131 A 
ATOM     43  C   UNL A   1      41.943  34.258  34.568  1.00  0.00     0.055 A 
ATOM     44  C   UNL A   1      43.140  35.401  32.821  1.00  0.00     0.041 A 
ATOM     45  F   UNL A   1      44.104  34.174  31.071  1.00  0.00    -0.206 F 
ATOM     46  C   UNL A   1      42.371  35.452  33.982  1.00  0.00     0.022 A 
BRANCH  43  47
ATOM     47  S   UNL A   1      40.765  34.294  35.948  1.00  0.00     0.124 S 
ATOM     48  O   UNL A   1      41.008  32.998  36.576  1.00  0.00    -0.237 OA
ATOM     49  O   UNL A   1      41.202  35.462  36.708  1.00  0.00    -0.237 OA
ATOM     50  O   UNL A   1      39.469  34.430  35.291  1.00  0.00    -0.744 OA
ENDBRANCH  43  47
ENDBRANCH  26  40
BRANCH  27  51
ATOM     51  C   UNL A   1      43.483  24.148  27.930  1.00  0.00     0.023 A 
ATOM     52  C   UNL A   1      44.290  23.987  26.792  1.00  0.00     0.031 A 
ATOM     53  C   UNL A   1      42.687  23.056  28.325  1.00  0.00     0.131 A 
ATOM     54  C   UNL A   1      44.243  22.788  26.059  1.00  0.00     0.055 A 
ATOM     55  C   UNL A   1      42.678  21.848  27.621  1.00  0.00     0.041 A 
ATOM     56  F   UNL A   1      41.901  23.145  29.410  1.00  0.00    -0.206 F 
ATOM     57  C   UNL A   1      43.447  21.716  26.470  1.00  0.00     0.022 A 
BRANCH  54  58
ATOM     58  S   UNL A   1      45.159  22.681  24.495  1.00  0.00     0.124 S 
ATOM     59  O   UNL A   1      45.277  24.085  24.119  1.00  0.00    -0.237 OA
ATOM     60  O   UNL A   1      46.391  22.024  24.915  1.00  0.00    -0.237 OA
ATOM     61  O   UNL A   1      44.284  21.878  23.643  1.00  0.00    -0.744 OA
ENDBRANCH  54  58
ENDBRANCH  27  51
BRANCH  39  62
ATOM     62  C   UNL A   1      47.873  27.573  32.125  1.00  0.00     0.023 A 
ATOM     63  C   UNL A   1      49.026  27.728  31.337  1.00  0.00     0.031 A 
ATOM     64  C   UNL A   1      48.011  27.035  33.414  1.00  0.00     0.131 A 
ATOM     65  C   UNL A   1      50.263  27.283  31.822  1.00  0.00     0.055 A 
ATOM     66  C   UNL A   1      49.256  26.652  33.916  1.00  0.00     0.041 A 
ATOM     67  F   UNL A   1      46.939  26.867  34.205  1.00  0.00    -0.206 F 
ATOM     68  C   UNL A   1      50.388  26.761  33.112  1.00  0.00     0.022 A 
BRANCH  65  69
ATOM     69  S   UNL A   1      51.687  27.302  30.701  1.00  0.00     0.124 S 
ATOM     70  O   UNL A   1      52.785  27.600  31.614  1.00  0.00    -0.237 OA
ATOM     71  O   UNL A   1      51.666  25.952  30.147  1.00  0.00    -0.237 OA
ATOM     72  O   UNL A   1      51.362  28.366  29.753  1.00  0.00    -0.744 OA
ENDBRANCH  65  69
ENDBRANCH  39  62
ENDBRANCH  13  14
ENDBRANCH   6   8
ENDBRANCH   5   6
ENDBRANCH   4   5
ENDBRANCH   3   4
ENDBRANCH   2   3
ENDBRANCH   1   2
BRANCH   1  73
ATOM     73  C   UNL A   1      36.195  34.099  32.242  1.00  0.00     0.188 C 
BRANCH  73  74
ATOM     74  O   UNL A   1      36.918  33.442  33.282  1.00  0.00    -0.376 OA
BRANCH  74  75
ATOM     75  C   UNL A   1      37.152  32.046  33.108  1.00  0.00     0.202 C 
BRANCH  75  76
ATOM     76  C   UNL A   1      37.843  31.287  34.253  1.00  0.00     0.261 C 
BRANCH  76  77
ATOM     77  O   UNL A   1      39.102  30.667  33.931  1.00  0.00    -0.463 OA
BRANCH  77  78
ATOM     78  C   UNL A   1      39.779  30.140  34.988  1.00  0.00     0.309 C 
ATOM     79  O   UNL A   1      39.314  30.024  36.118  1.00  0.00    -0.252 OA
BRANCH  78  80
ATOM     80  C   UNL A   1      41.205  29.708  34.664  1.00  0.00     0.103 C 
ATOM     81  C   UNL A   1      41.368  28.628  33.594  1.00  0.00     0.037 C 
ATOM     82  C   UNL A   1      41.998  29.382  35.941  1.00  0.00     0.037 C 
ATOM     83  C   UNL A   1      41.255  27.205  34.134  1.00  0.00     0.120 C 
ATOM     84  C   UNL A   1      41.869  27.933  36.397  1.00  0.00     0.120 C 
ATOM     85  N   UNL A   1      42.109  27.012  35.299  1.00  0.00    -0.340 N 
ATOM     86  C   UNL A   1      43.013  25.960  35.314  1.00  0.00     0.260 C 
ATOM     87  O   UNL A   1      43.079  25.125  34.410  1.00  0.00    -0.271 OA
BRANCH  86  88
ATOM     88  C   UNL A   1      44.022  25.858  36.460  1.00  0.00     0.329 C 
BRANCH  88  89
ATOM     89  O   UNL A   1      45.356  25.488  36.150  1.00  0.00    -0.482 OA
BRANCH  89  90
ATOM     90  C   UNL A   1      45.802  24.238  36.484  1.00  0.00     0.138 A 
ATOM     91  C   UNL A   1      45.107  23.045  36.259  1.00  0.00     0.049 A 
ATOM     92  C   UNL A   1      47.100  24.161  37.018  1.00  0.00     0.084 A 
ATOM     93  C   UNL A   1      45.703  21.808  36.528  1.00  0.00     0.024 A 
ATOM     94  C   UNL A   1      47.692  22.927  37.303  1.00  0.00     0.045 A 
ATOM     95  Cl  UNL A   1      48.017  25.591  37.356  1.00  0.00    -0.080 Cl
ATOM     96  C   UNL A   1      46.992  21.755  37.044  1.00  0.00     0.042 A 
ATOM     97  Cl  UNL A   1      47.729  20.232  37.355  1.00  0.00    -0.084 Cl
ENDBRANCH  89  90
ENDBRANCH  88  89
ENDBRANCH  86  88
ENDBRANCH  78  80
ENDBRANCH  77  78
ENDBRANCH  76  77
ENDBRANCH  75  76
ENDBRANCH  74  75
ENDBRANCH  73  74
ENDBRANCH   1  73
TORSDOF 23
ENDMDL
