MODEL 1
REMARK VINA RESULT:     -11.7      0.000      0.000
REMARK SMILES CC1=C([C@H](NC(=O)[C@@H]2[C@H](C)c3cc(F)ccc3N2C)C(=O)OCCOCCOCCOC(=O)c2ccc(-c3c4nc(c(-c5cc(S(=O)(=O)[O-])ccc5F)c5ccc([nH]5)c(-c5cc(S(=O)(=O)[O-])ccc5F)c5nc(c(-c6cc(S(=O)(=O)[O-])ccc6F)c6ccc3[nH]6)C=C5)C=C4)cc2)[C@@H](C)N=N1
REMARK SMILES IDX 27 1 26 2 25 3 24 4 23 5 22 6 20 7 21 8 4 9 3 10 1 11 2 12
REMARK SMILES IDX 100 13 97 14 99 15 98 16 5 17 6 18 7 20 8 21 9 22 18 23
REMARK SMILES IDX 11 24 10 25 17 26 19 27 12 28 16 29 13 30 15 31 14 32 28 33
REMARK SMILES IDX 29 34 30 35 31 36 32 37 33 38 34 39 35 40 96 41 36 42 95 43
REMARK SMILES IDX 37 44 38 45 39 46 89 47 40 48 94 49 88 50 90 51 41 52 93 53
REMARK SMILES IDX 87 54 86 55 42 57 74 58 54 59 73 60 55 61 58 62 72 63 91 64
REMARK SMILES IDX 56 65 57 66 71 68 92 69 59 70 43 71 44 72 52 73 45 74 51 75
REMARK SMILES IDX 53 76 50 77 46 78 47 79 48 80 49 81 75 82 76 83 84 84 77 85
REMARK SMILES IDX 83 86 85 87 82 88 78 89 79 90 80 91 81 92 60 93 61 94 69 95
REMARK SMILES IDX 62 96 68 97 70 98 67 99 63 100 64 101 65 102 66 103
REMARK H PARENT 5 19 90 56 58 67
REMARK Flexibility Score: inf
ROOT
ATOM      1  C   UNL A   1      34.082  32.268  27.907  1.00  0.00     0.188 C 
ENDROOT
BRANCH   1   2
ATOM      2  C   UNL A   1      34.219  30.819  27.390  1.00  0.00     0.188 C 
BRANCH   2   3
ATOM      3  O   UNL A   1      33.216  30.441  26.461  1.00  0.00    -0.376 OA
BRANCH   3   4
ATOM      4  C   UNL A   1      32.003  30.020  27.048  1.00  0.00     0.202 C 
BRANCH   4   5
ATOM      5  C   UNL A   1      32.055  28.580  27.612  1.00  0.00     0.261 C 
BRANCH   5   6
ATOM      6  O   UNL A   1      31.403  27.526  26.847  1.00  0.00    -0.461 OA
BRANCH   6   7
ATOM      7  C   UNL A   1      32.262  26.884  26.024  1.00  0.00     0.333 C 
ATOM      8  O   UNL A   1      32.871  25.897  26.434  1.00  0.00    -0.249 OA
BRANCH   7   9
ATOM      9  C   UNL A   1      32.379  27.414  24.523  1.00  0.00     0.223 C 
BRANCH   9  10
ATOM     10  C   UNL A   1      30.943  27.594  24.196  1.00  0.00     0.012 C 
ATOM     11  C   UNL A   1      30.063  25.182  24.311  1.00  0.00     0.069 C 
ATOM     12  C   UNL A   1      29.985  26.659  24.057  1.00  0.00     0.064 C 
ATOM     13  N   UNL A   1      28.853  27.169  23.474  1.00  0.00    -0.160 NA
ATOM     14  C   UNL A   1      30.366  28.833  23.631  1.00  0.00     0.156 C 
ATOM     15  N   UNL A   1      29.019  28.388  23.189  1.00  0.00    -0.181 NA
ATOM     16  C   UNL A   1      31.137  29.367  22.429  1.00  0.00     0.040 C 
ENDBRANCH   9  10
BRANCH   9  17
ATOM     17  N   UNL A   1      33.155  26.709  23.452  1.00  0.00    -0.337 N 
ATOM     18  C   UNL A   1      33.388  25.423  22.978  1.00  0.00     0.244 C 
ATOM     19  H   UNL A   1      33.657  27.363  22.914  1.00  0.00     0.164 HD
ATOM     20  O   UNL A   1      33.918  25.431  21.855  1.00  0.00    -0.273 OA
BRANCH  18  21
ATOM     21  C   UNL A   1      33.099  24.014  23.693  1.00  0.00     0.178 C 
ATOM     22  C   UNL A   1      34.285  23.201  24.408  1.00  0.00     0.050 C 
ATOM     23  N   UNL A   1      32.555  23.008  22.768  1.00  0.00    -0.362 N 
ATOM     24  C   UNL A   1      33.800  21.765  24.277  1.00  0.00    -0.016 A 
ATOM     25  C   UNL A   1      35.660  23.252  23.747  1.00  0.00     0.015 C 
ATOM     26  C   UNL A   1      32.787  21.730  23.341  1.00  0.00     0.041 A 
ATOM     27  C   UNL A   1      32.964  23.018  21.404  1.00  0.00     0.144 C 
ATOM     28  C   UNL A   1      34.279  20.569  24.815  1.00  0.00     0.045 A 
ATOM     29  C   UNL A   1      32.201  20.512  22.974  1.00  0.00     0.029 A 
ATOM     30  C   UNL A   1      33.645  19.362  24.488  1.00  0.00     0.123 A 
ATOM     31  C   UNL A   1      32.591  19.325  23.589  1.00  0.00     0.041 A 
ATOM     32  F   UNL A   1      34.070  18.212  25.028  1.00  0.00    -0.207 F 
ENDBRANCH  18  21
ENDBRANCH   9  17
ENDBRANCH   7   9
ENDBRANCH   6   7
ENDBRANCH   5   6
ENDBRANCH   4   5
ENDBRANCH   3   4
ENDBRANCH   2   3
ENDBRANCH   1   2
BRANCH   1  33
ATOM     33  O   UNL A   1      35.181  33.151  27.771  1.00  0.00    -0.376 OA
BRANCH  33  34
ATOM     34  C   UNL A   1      35.273  34.180  28.747  1.00  0.00     0.202 C 
BRANCH  34  35
ATOM     35  C   UNL A   1      34.347  34.101  29.987  1.00  0.00     0.261 C 
BRANCH  35  36
ATOM     36  O   UNL A   1      34.299  32.803  30.635  1.00  0.00    -0.460 OA
BRANCH  36  37
ATOM     37  C   UNL A   1      35.261  32.539  31.583  1.00  0.00     0.338 C 
ATOM     38  O   UNL A   1      35.132  32.703  32.758  1.00  0.00    -0.246 OA
BRANCH  37  39
ATOM     39  C   UNL A   1      36.349  31.669  30.968  1.00  0.00     0.060 A 
ATOM     40  C   UNL A   1      36.238  30.326  30.579  1.00  0.00     0.016 A 
ATOM     41  C   UNL A   1      37.623  32.212  30.993  1.00  0.00     0.016 A 
ATOM     42  C   UNL A   1      37.393  29.487  30.452  1.00  0.00     0.010 A 
ATOM     43  C   UNL A   1      38.737  31.392  30.747  1.00  0.00     0.010 A 
ATOM     44  C   UNL A   1      38.690  29.981  30.643  1.00  0.00    -0.014 A 
BRANCH  44  45
ATOM     45  C   UNL A   1      39.954  29.174  30.321  1.00  0.00     0.031 A 
ATOM     46  C   UNL A   1      40.665  28.934  31.579  1.00  0.00     0.074 A 
ATOM     47  C   UNL A   1      40.537  28.544  29.242  1.00  0.00     0.049 A 
ATOM     48  N   UNL A   1      41.669  29.636  31.977  1.00  0.00    -0.248 NA
ATOM     49  C   UNL A   1      40.101  28.019  32.577  1.00  0.00     0.031 C 
ATOM     50  C   UNL A   1      40.022  28.457  27.898  1.00  0.00     0.029 A 
ATOM     51  N   UNL A   1      41.654  27.703  29.105  1.00  0.00    -0.354 N 
ATOM     52  C   UNL A   1      42.033  29.035  33.160  1.00  0.00     0.074 A 
ATOM     53  C   UNL A   1      40.878  28.308  33.621  1.00  0.00     0.031 C 
ATOM     54  C   UNL A   1      40.571  27.458  27.169  1.00  0.00     0.029 A 
ATOM     55  C   UNL A   1      41.640  26.876  27.934  1.00  0.00     0.049 A 
ATOM     56  H   UNL A   1      42.388  27.682  29.761  1.00  0.00     0.167 HD
ATOM     57  C   UNL A   1      43.346  28.859  33.456  1.00  0.00     0.034 A 
ATOM     58  C   UNL A   1      42.475  25.866  27.534  1.00  0.00     0.034 A 
ATOM     59  C   UNL A   1      44.201  29.551  32.529  1.00  0.00     0.049 A 
ATOM     60  C   UNL A   1      43.803  26.334  28.019  1.00  0.00     0.074 A 
ATOM     61  C   UNL A   1      44.545  30.864  32.321  1.00  0.00     0.029 A 
ATOM     62  N   UNL A   1      44.527  28.855  31.390  1.00  0.00    -0.354 N 
ATOM     63  N   UNL A   1      44.387  27.430  27.602  1.00  0.00    -0.248 NA
ATOM     64  C   UNL A   1      44.398  25.737  29.208  1.00  0.00     0.031 C 
ATOM     65  C   UNL A   1      45.010  30.954  30.983  1.00  0.00     0.029 A 
ATOM     66  C   UNL A   1      45.000  29.686  30.397  1.00  0.00     0.049 A 
ATOM     67  H   UNL A   1      44.433  27.880  31.294  1.00  0.00     0.167 HD
ATOM     68  C   UNL A   1      45.068  27.899  28.703  1.00  0.00     0.074 A 
ATOM     69  C   UNL A   1      45.200  26.740  29.578  1.00  0.00     0.031 C 
ATOM     70  C   UNL A   1      45.131  29.231  29.006  1.00  0.00     0.034 A 
BRANCH  57  71
ATOM     71  C   UNL A   1      43.848  27.759  34.336  1.00  0.00     0.023 A 
ATOM     72  C   UNL A   1      43.899  26.418  33.917  1.00  0.00     0.031 A 
ATOM     73  C   UNL A   1      44.447  28.054  35.568  1.00  0.00     0.131 A 
ATOM     74  C   UNL A   1      44.435  25.418  34.727  1.00  0.00     0.055 A 
ATOM     75  C   UNL A   1      45.061  27.068  36.346  1.00  0.00     0.041 A 
ATOM     76  F   UNL A   1      44.475  29.312  36.035  1.00  0.00    -0.206 F 
ATOM     77  C   UNL A   1      45.043  25.737  35.935  1.00  0.00     0.022 A 
BRANCH  74  78
ATOM     78  S   UNL A   1      44.316  23.684  34.213  1.00  0.00     0.124 S 
ATOM     79  O   UNL A   1      44.355  23.800  32.761  1.00  0.00    -0.237 OA
ATOM     80  O   UNL A   1      45.500  23.105  34.841  1.00  0.00    -0.237 OA
ATOM     81  O   UNL A   1      43.042  23.248  34.781  1.00  0.00    -0.744 OA
ENDBRANCH  74  78
ENDBRANCH  57  71
BRANCH  58  82
ATOM     82  C   UNL A   1      42.352  24.595  26.680  1.00  0.00     0.023 A 
ATOM     83  C   UNL A   1      41.784  23.354  27.110  1.00  0.00     0.031 A 
ATOM     84  C   UNL A   1      43.072  24.511  25.462  1.00  0.00     0.131 A 
ATOM     85  C   UNL A   1      42.018  22.133  26.395  1.00  0.00     0.055 A 
ATOM     86  C   UNL A   1      43.293  23.311  24.760  1.00  0.00     0.041 A 
ATOM     87  F   UNL A   1      43.632  25.604  24.923  1.00  0.00    -0.206 F 
ATOM     88  C   UNL A   1      42.791  22.116  25.237  1.00  0.00     0.022 A 
BRANCH  85  89
ATOM     89  S   UNL A   1      41.356  20.484  26.869  1.00  0.00     0.124 S 
ATOM     90  O   UNL A   1      40.373  20.215  25.820  1.00  0.00    -0.237 OA
ATOM     91  O   UNL A   1      42.548  19.642  26.813  1.00  0.00    -0.237 OA
ATOM     92  O   UNL A   1      40.766  20.696  28.182  1.00  0.00    -0.744 OA
ENDBRANCH  85  89
ENDBRANCH  58  82
BRANCH  70  93
ATOM     93  C   UNL A   1      45.116  30.303  27.920  1.00  0.00     0.023 A 
ATOM     94  C   UNL A   1      46.342  30.941  27.628  1.00  0.00     0.031 A 
ATOM     95  C   UNL A   1      43.981  30.839  27.294  1.00  0.00     0.131 A 
ATOM     96  C   UNL A   1      46.390  32.142  26.904  1.00  0.00     0.055 A 
ATOM     97  C   UNL A   1      44.043  31.997  26.497  1.00  0.00     0.041 A 
ATOM     98  F   UNL A   1      42.766  30.311  27.476  1.00  0.00    -0.206 F 
ATOM     99  C   UNL A   1      45.240  32.683  26.340  1.00  0.00     0.022 A 
BRANCH  96 100
ATOM    100  S   UNL A   1      47.933  33.081  26.764  1.00  0.00     0.124 S 
ATOM    101  O   UNL A   1      48.908  32.036  26.463  1.00  0.00    -0.237 OA
ATOM    102  O   UNL A   1      47.638  33.995  25.663  1.00  0.00    -0.237 OA
ATOM    103  O   UNL A   1      48.081  33.711  28.072  1.00  0.00    -0.744 OA
ENDBRANCH  96 100
ENDBRANCH  70  93
ENDBRANCH  44  45
ENDBRANCH  37  39
ENDBRANCH  36  37
ENDBRANCH  35  36
ENDBRANCH  34  35
ENDBRANCH  33  34
ENDBRANCH   1  33
TORSDOF 23
ENDMDL
MODEL 2
REMARK VINA RESULT:     -11.6      3.472      9.598
REMARK SMILES CC1=C([C@H](NC(=O)[C@@H]2[C@H](C)c3cc(F)ccc3N2C)C(=O)OCCOCCOCCOC(=O)c2ccc(-c3c4nc(c(-c5cc(S(=O)(=O)[O-])ccc5F)c5ccc([nH]5)c(-c5cc(S(=O)(=O)[O-])ccc5F)c5nc(c(-c6cc(S(=O)(=O)[O-])ccc6F)c6ccc3[nH]6)C=C5)C=C4)cc2)[C@@H](C)N=N1
REMARK SMILES IDX 27 1 26 2 25 3 24 4 23 5 22 6 20 7 21 8 4 9 3 10 1 11 2 12
REMARK SMILES IDX 100 13 97 14 99 15 98 16 5 17 6 18 7 20 8 21 9 22 18 23
REMARK SMILES IDX 11 24 10 25 17 26 19 27 12 28 16 29 13 30 15 31 14 32 28 33
REMARK SMILES IDX 29 34 30 35 31 36 32 37 33 38 34 39 35 40 96 41 36 42 95 43
REMARK SMILES IDX 37 44 38 45 39 46 89 47 40 48 94 49 88 50 90 51 41 52 93 53
REMARK SMILES IDX 87 54 86 55 42 57 74 58 54 59 73 60 55 61 58 62 72 63 91 64
REMARK SMILES IDX 56 65 57 66 71 68 92 69 59 70 43 71 44 72 52 73 45 74 51 75
REMARK SMILES IDX 53 76 50 77 46 78 47 79 48 80 49 81 75 82 76 83 84 84 77 85
REMARK SMILES IDX 83 86 85 87 82 88 78 89 79 90 80 91 81 92 60 93 61 94 69 95
REMARK SMILES IDX 62 96 68 97 70 98 67 99 63 100 64 101 65 102 66 103
REMARK H PARENT 5 19 90 56 58 67
REMARK Flexibility Score: inf
ROOT
ATOM      1  C   UNL A   1      37.146  21.881  25.063  1.00  0.00     0.188 C 
ENDROOT
BRANCH   1   2
ATOM      2  C   UNL A   1      36.406  20.604  24.606  1.00  0.00     0.188 C 
BRANCH   2   3
ATOM      3  O   UNL A   1      35.390  20.176  25.499  1.00  0.00    -0.376 OA
BRANCH   3   4
ATOM      4  C   UNL A   1      34.507  19.214  24.963  1.00  0.00     0.202 C 
BRANCH   4   5
ATOM      5  C   UNL A   1      33.513  19.793  23.929  1.00  0.00     0.261 C 
BRANCH   5   6
ATOM      6  O   UNL A   1      32.476  20.694  24.412  1.00  0.00    -0.461 OA
BRANCH   6   7
ATOM      7  C   UNL A   1      32.298  21.756  23.595  1.00  0.00     0.333 C 
ATOM      8  O   UNL A   1      32.152  21.573  22.388  1.00  0.00    -0.249 OA
BRANCH   7   9
ATOM      9  C   UNL A   1      32.216  23.200  24.271  1.00  0.00     0.223 C 
BRANCH   9  10
ATOM     10  C   UNL A   1      32.413  22.834  25.695  1.00  0.00     0.012 C 
ATOM     11  C   UNL A   1      30.012  22.924  26.607  1.00  0.00     0.069 C 
ATOM     12  C   UNL A   1      31.502  22.767  26.684  1.00  0.00     0.064 C 
ATOM     13  N   UNL A   1      32.093  22.676  27.918  1.00  0.00    -0.160 NA
ATOM     14  C   UNL A   1      33.728  22.793  26.370  1.00  0.00     0.156 C 
ATOM     15  N   UNL A   1      33.350  22.711  27.805  1.00  0.00    -0.181 NA
ATOM     16  C   UNL A   1      34.565  24.046  26.143  1.00  0.00     0.040 C 
ENDBRANCH   9  10
BRANCH   9  17
ATOM     17  N   UNL A   1      31.084  24.157  24.048  1.00  0.00    -0.337 N 
ATOM     18  C   UNL A   1      30.708  25.456  24.374  1.00  0.00     0.244 C 
ATOM     19  H   UNL A   1      30.387  23.733  23.498  1.00  0.00     0.164 HD
ATOM     20  O   UNL A   1      29.759  25.852  23.677  1.00  0.00    -0.273 OA
BRANCH  18  21
ATOM     21  C   UNL A   1      31.304  26.427  25.505  1.00  0.00     0.178 C 
ATOM     22  C   UNL A   1      30.796  27.945  25.631  1.00  0.00     0.050 C 
ATOM     23  N   UNL A   1      32.761  26.602  25.395  1.00  0.00    -0.362 N 
ATOM     24  C   UNL A   1      32.015  28.633  26.228  1.00  0.00    -0.016 A 
ATOM     25  C   UNL A   1      30.480  28.683  24.332  1.00  0.00     0.015 C 
ATOM     26  C   UNL A   1      33.101  27.796  26.085  1.00  0.00     0.041 A 
ATOM     27  C   UNL A   1      33.371  26.585  24.109  1.00  0.00     0.144 C 
ATOM     28  C   UNL A   1      32.204  29.923  26.727  1.00  0.00     0.045 A 
ATOM     29  C   UNL A   1      34.376  28.210  26.492  1.00  0.00     0.029 A 
ATOM     30  C   UNL A   1      33.470  30.306  27.189  1.00  0.00     0.123 A 
ATOM     31  C   UNL A   1      34.557  29.450  27.098  1.00  0.00     0.041 A 
ATOM     32  F   UNL A   1      33.656  31.527  27.707  1.00  0.00    -0.207 F 
ENDBRANCH  18  21
ENDBRANCH   9  17
ENDBRANCH   7   9
ENDBRANCH   6   7
ENDBRANCH   5   6
ENDBRANCH   4   5
ENDBRANCH   3   4
ENDBRANCH   2   3
ENDBRANCH   1   2
BRANCH   1  33
ATOM     33  O   UNL A   1      38.470  21.769  25.552  1.00  0.00    -0.376 OA
BRANCH  33  34
ATOM     34  C   UNL A   1      39.013  20.456  25.574  1.00  0.00     0.202 C 
BRANCH  34  35
ATOM     35  C   UNL A   1      40.419  20.254  26.194  1.00  0.00     0.261 C 
BRANCH  35  36
ATOM     36  O   UNL A   1      40.872  21.336  27.051  1.00  0.00    -0.460 OA
BRANCH  36  37
ATOM     37  C   UNL A   1      41.469  22.413  26.437  1.00  0.00     0.338 C 
ATOM     38  O   UNL A   1      42.036  22.380  25.388  1.00  0.00    -0.246 OA
BRANCH  37  39
ATOM     39  C   UNL A   1      40.979  23.698  27.091  1.00  0.00     0.060 A 
ATOM     40  C   UNL A   1      40.003  24.578  26.600  1.00  0.00     0.016 A 
ATOM     41  C   UNL A   1      41.729  24.133  28.171  1.00  0.00     0.016 A 
ATOM     42  C   UNL A   1      39.945  25.945  27.028  1.00  0.00     0.010 A 
ATOM     43  C   UNL A   1      41.570  25.444  28.650  1.00  0.00     0.010 A 
ATOM     44  C   UNL A   1      40.814  26.451  28.004  1.00  0.00    -0.014 A 
BRANCH  44  45
ATOM     45  C   UNL A   1      40.656  27.841  28.631  1.00  0.00     0.031 A 
ATOM     46  C   UNL A   1      41.685  28.712  28.059  1.00  0.00     0.074 A 
ATOM     47  C   UNL A   1      39.790  28.509  29.472  1.00  0.00     0.049 A 
ATOM     48  N   UNL A   1      42.798  28.985  28.648  1.00  0.00    -0.248 NA
ATOM     49  C   UNL A   1      41.598  29.125  26.654  1.00  0.00     0.031 C 
ATOM     50  C   UNL A   1      38.593  27.990  30.085  1.00  0.00     0.029 A 
ATOM     51  N   UNL A   1      39.677  29.851  29.870  1.00  0.00    -0.354 N 
ATOM     52  C   UNL A   1      43.417  29.854  27.779  1.00  0.00     0.074 A 
ATOM     53  C   UNL A   1      42.818  29.636  26.486  1.00  0.00     0.031 C 
ATOM     54  C   UNL A   1      37.737  28.949  30.507  1.00  0.00     0.029 A 
ATOM     55  C   UNL A   1      38.378  30.226  30.349  1.00  0.00     0.049 A 
ATOM     56  H   UNL A   1      40.430  30.485  29.825  1.00  0.00     0.167 HD
ATOM     57  C   UNL A   1      44.075  30.940  28.258  1.00  0.00     0.034 A 
ATOM     58  C   UNL A   1      37.865  31.446  30.700  1.00  0.00     0.034 A 
ATOM     59  C   UNL A   1      44.205  30.897  29.691  1.00  0.00     0.049 A 
ATOM     60  C   UNL A   1      39.038  32.124  31.319  1.00  0.00     0.074 A 
ATOM     61  C   UNL A   1      44.977  30.185  30.574  1.00  0.00     0.029 A 
ATOM     62  N   UNL A   1      43.149  31.422  30.397  1.00  0.00    -0.354 N 
ATOM     63  N   UNL A   1      39.641  31.695  32.400  1.00  0.00    -0.248 NA
ATOM     64  C   UNL A   1      39.762  33.151  30.582  1.00  0.00     0.031 C 
ATOM     65  C   UNL A   1      44.304  30.224  31.823  1.00  0.00     0.029 A 
ATOM     66  C   UNL A   1      43.152  31.007  31.711  1.00  0.00     0.049 A 
ATOM     67  H   UNL A   1      42.472  32.023  30.010  1.00  0.00     0.167 HD
ATOM     68  C   UNL A   1      40.965  32.023  32.212  1.00  0.00     0.074 A 
ATOM     69  C   UNL A   1      40.946  33.070  31.197  1.00  0.00     0.031 C 
ATOM     70  C   UNL A   1      41.982  31.185  32.580  1.00  0.00     0.034 A 
BRANCH  57  71
ATOM     71  C   UNL A   1      44.251  32.203  27.478  1.00  0.00     0.023 A 
ATOM     72  C   UNL A   1      43.664  33.421  27.867  1.00  0.00     0.031 A 
ATOM     73  C   UNL A   1      45.154  32.256  26.407  1.00  0.00     0.131 A 
ATOM     74  C   UNL A   1      43.897  34.602  27.164  1.00  0.00     0.055 A 
ATOM     75  C   UNL A   1      45.455  33.454  25.753  1.00  0.00     0.041 A 
ATOM     76  F   UNL A   1      45.787  31.150  25.987  1.00  0.00    -0.206 F 
ATOM     77  C   UNL A   1      44.813  34.635  26.120  1.00  0.00     0.022 A 
BRANCH  74  78
ATOM     78  S   UNL A   1      42.979  36.103  27.600  1.00  0.00     0.124 S 
ATOM     79  O   UNL A   1      42.531  36.568  26.293  1.00  0.00    -0.237 OA
ATOM     80  O   UNL A   1      41.942  35.573  28.481  1.00  0.00    -0.237 OA
ATOM     81  O   UNL A   1      43.982  36.936  28.260  1.00  0.00    -0.744 OA
ENDBRANCH  74  78
ENDBRANCH  57  71
BRANCH  58  82
ATOM     82  C   UNL A   1      36.479  32.108  30.710  1.00  0.00     0.023 A 
ATOM     83  C   UNL A   1      35.914  32.875  29.642  1.00  0.00     0.031 A 
ATOM     84  C   UNL A   1      35.776  32.218  31.936  1.00  0.00     0.131 A 
ATOM     85  C   UNL A   1      34.789  33.740  29.852  1.00  0.00     0.055 A 
ATOM     86  C   UNL A   1      34.668  33.062  32.135  1.00  0.00     0.041 A 
ATOM     87  F   UNL A   1      36.174  31.528  33.015  1.00  0.00    -0.206 F 
ATOM     88  C   UNL A   1      34.188  33.845  31.103  1.00  0.00     0.022 A 
BRANCH  85  89
ATOM     89  S   UNL A   1      34.000  34.784  28.560  1.00  0.00     0.124 S 
ATOM     90  O   UNL A   1      34.745  34.424  27.353  1.00  0.00    -0.237 OA
ATOM     91  O   UNL A   1      32.618  34.314  28.581  1.00  0.00    -0.237 OA
ATOM     92  O   UNL A   1      34.234  36.149  29.006  1.00  0.00    -0.744 OA
ENDBRANCH  85  89
ENDBRANCH  58  82
BRANCH  70  93
ATOM     93  C   UNL A   1      41.854  30.246  33.776  1.00  0.00     0.023 A 
ATOM     94  C   UNL A   1      42.513  30.626  34.966  1.00  0.00     0.031 A 
ATOM     95  C   UNL A   1      41.287  28.964  33.771  1.00  0.00     0.131 A 
ATOM     96  C   UNL A   1      42.741  29.709  36.004  1.00  0.00     0.055 A 
ATOM     97  C   UNL A   1      41.444  28.072  34.849  1.00  0.00     0.041 A 
ATOM     98  F   UNL A   1      40.621  28.496  32.710  1.00  0.00    -0.206 F 
ATOM     99  C   UNL A   1      42.214  28.423  35.949  1.00  0.00     0.022 A 
BRANCH  96 100
ATOM    100  S   UNL A   1      43.811  30.135  37.402  1.00  0.00     0.124 S 
ATOM    101  O   UNL A   1      42.912  30.899  38.262  1.00  0.00    -0.237 OA
ATOM    102  O   UNL A   1      44.193  28.819  37.909  1.00  0.00    -0.237 OA
ATOM    103  O   UNL A   1      44.893  30.904  36.795  1.00  0.00    -0.744 OA
ENDBRANCH  96 100
ENDBRANCH  70  93
ENDBRANCH  44  45
ENDBRANCH  37  39
ENDBRANCH  36  37
ENDBRANCH  35  36
ENDBRANCH  34  35
ENDBRANCH  33  34
ENDBRANCH   1  33
TORSDOF 23
ENDMDL
MODEL 3
REMARK VINA RESULT:     -11.6      3.019      9.461
REMARK SMILES CC1=C([C@H](NC(=O)[C@@H]2[C@H](C)c3cc(F)ccc3N2C)C(=O)OCCOCCOCCOC(=O)c2ccc(-c3c4nc(c(-c5cc(S(=O)(=O)[O-])ccc5F)c5ccc([nH]5)c(-c5cc(S(=O)(=O)[O-])ccc5F)c5nc(c(-c6cc(S(=O)(=O)[O-])ccc6F)c6ccc3[nH]6)C=C5)C=C4)cc2)[C@@H](C)N=N1
REMARK SMILES IDX 27 1 26 2 25 3 24 4 23 5 22 6 20 7 21 8 4 9 3 10 1 11 2 12
REMARK SMILES IDX 100 13 97 14 99 15 98 16 5 17 6 18 7 20 8 21 9 22 18 23
REMARK SMILES IDX 11 24 10 25 17 26 19 27 12 28 16 29 13 30 15 31 14 32 28 33
REMARK SMILES IDX 29 34 30 35 31 36 32 37 33 38 34 39 35 40 96 41 36 42 95 43
REMARK SMILES IDX 37 44 38 45 39 46 89 47 40 48 94 49 88 50 90 51 41 52 93 53
REMARK SMILES IDX 87 54 86 55 42 57 74 58 54 59 73 60 55 61 58 62 72 63 91 64
REMARK SMILES IDX 56 65 57 66 71 68 92 69 59 70 43 71 44 72 52 73 45 74 51 75
REMARK SMILES IDX 53 76 50 77 46 78 47 79 48 80 49 81 75 82 76 83 84 84 77 85
REMARK SMILES IDX 83 86 85 87 82 88 78 89 79 90 80 91 81 92 60 93 61 94 69 95
REMARK SMILES IDX 62 96 68 97 70 98 67 99 63 100 64 101 65 102 66 103
REMARK H PARENT 5 19 90 56 58 67
REMARK Flexibility Score: inf
ROOT
ATOM      1  C   UNL A   1      40.998  21.439  27.659  1.00  0.00     0.188 C 
ENDROOT
BRANCH   1   2
ATOM      2  C   UNL A   1      40.314  22.193  26.498  1.00  0.00     0.188 C 
BRANCH   2   3
ATOM      3  O   UNL A   1      38.897  22.123  26.521  1.00  0.00    -0.376 OA
BRANCH   3   4
ATOM      4  C   UNL A   1      38.309  21.750  25.293  1.00  0.00     0.202 C 
BRANCH   4   5
ATOM      5  C   UNL A   1      37.074  22.601  24.913  1.00  0.00     0.261 C 
BRANCH   5   6
ATOM      6  O   UNL A   1      35.918  21.911  24.355  1.00  0.00    -0.461 OA
BRANCH   6   7
ATOM      7  C   UNL A   1      35.069  22.758  23.730  1.00  0.00     0.333 C 
ATOM      8  O   UNL A   1      35.418  23.303  22.685  1.00  0.00    -0.249 OA
BRANCH   7   9
ATOM      9  C   UNL A   1      33.614  22.942  24.362  1.00  0.00     0.223 C 
BRANCH   9  10
ATOM     10  C   UNL A   1      33.299  21.534  24.708  1.00  0.00     0.012 C 
ATOM     11  C   UNL A   1      32.093  20.720  22.590  1.00  0.00     0.069 C 
ATOM     12  C   UNL A   1      32.620  20.619  23.991  1.00  0.00     0.064 C 
ATOM     13  N   UNL A   1      32.281  19.526  24.746  1.00  0.00    -0.160 NA
ATOM     14  C   UNL A   1      33.395  20.970  26.072  1.00  0.00     0.156 C 
ATOM     15  N   UNL A   1      32.671  19.679  25.938  1.00  0.00    -0.181 NA
ATOM     16  C   UNL A   1      32.706  21.823  27.130  1.00  0.00     0.040 C 
ENDBRANCH   9  10
BRANCH   9  17
ATOM     17  N   UNL A   1      32.493  23.655  23.669  1.00  0.00    -0.337 N 
ATOM     18  C   UNL A   1      31.833  24.878  23.695  1.00  0.00     0.244 C 
ATOM     19  H   UNL A   1      32.100  23.074  22.979  1.00  0.00     0.164 HD
ATOM     20  O   UNL A   1      31.129  25.046  22.685  1.00  0.00    -0.273 OA
BRANCH  18  21
ATOM     21  C   UNL A   1      31.849  26.013  24.831  1.00  0.00     0.178 C 
ATOM     22  C   UNL A   1      31.001  27.364  24.650  1.00  0.00     0.050 C 
ATOM     23  N   UNL A   1      33.199  26.534  25.095  1.00  0.00    -0.362 N 
ATOM     24  C   UNL A   1      31.813  28.354  25.472  1.00  0.00    -0.016 A 
ATOM     25  C   UNL A   1      30.912  27.946  23.241  1.00  0.00     0.015 C 
ATOM     26  C   UNL A   1      33.054  27.802  25.716  1.00  0.00     0.041 A 
ATOM     27  C   UNL A   1      34.139  26.612  24.028  1.00  0.00     0.144 C 
ATOM     28  C   UNL A   1      31.559  29.671  25.859  1.00  0.00     0.045 A 
ATOM     29  C   UNL A   1      34.034  28.533  26.401  1.00  0.00     0.029 A 
ATOM     30  C   UNL A   1      32.523  30.372  26.598  1.00  0.00     0.123 A 
ATOM     31  C   UNL A   1      33.752  29.804  26.894  1.00  0.00     0.041 A 
ATOM     32  F   UNL A   1      32.276  31.622  27.010  1.00  0.00    -0.207 F 
ENDBRANCH  18  21
ENDBRANCH   9  17
ENDBRANCH   7   9
ENDBRANCH   6   7
ENDBRANCH   5   6
ENDBRANCH   4   5
ENDBRANCH   3   4
ENDBRANCH   2   3
ENDBRANCH   1   2
BRANCH   1  33
ATOM     33  O   UNL A   1      42.018  20.503  27.363  1.00  0.00    -0.376 OA
BRANCH  33  34
ATOM     34  C   UNL A   1      41.815  19.711  26.201  1.00  0.00     0.202 C 
BRANCH  34  35
ATOM     35  C   UNL A   1      43.058  19.123  25.487  1.00  0.00     0.261 C 
BRANCH  35  36
ATOM     36  O   UNL A   1      44.290  19.864  25.691  1.00  0.00    -0.460 OA
BRANCH  36  37
ATOM     37  C   UNL A   1      44.656  20.755  24.708  1.00  0.00     0.338 C 
ATOM     38  O   UNL A   1      44.633  20.533  23.536  1.00  0.00    -0.246 OA
BRANCH  37  39
ATOM     39  C   UNL A   1      44.724  22.156  25.300  1.00  0.00     0.060 A 
ATOM     40  C   UNL A   1      45.643  22.628  26.249  1.00  0.00     0.016 A 
ATOM     41  C   UNL A   1      43.640  22.969  25.017  1.00  0.00     0.016 A 
ATOM     42  C   UNL A   1      45.354  23.772  27.064  1.00  0.00     0.010 A 
ATOM     43  C   UNL A   1      43.442  24.151  25.752  1.00  0.00     0.010 A 
ATOM     44  C   UNL A   1      44.174  24.512  26.907  1.00  0.00    -0.014 A 
BRANCH  44  45
ATOM     45  C   UNL A   1      43.920  25.849  27.614  1.00  0.00     0.031 A 
ATOM     46  C   UNL A   1      45.065  26.722  27.345  1.00  0.00     0.074 A 
ATOM     47  C   UNL A   1      42.914  26.478  28.317  1.00  0.00     0.049 A 
ATOM     48  N   UNL A   1      46.037  26.899  28.172  1.00  0.00    -0.248 NA
ATOM     49  C   UNL A   1      45.280  27.256  25.996  1.00  0.00     0.031 C 
ATOM     50  C   UNL A   1      41.605  25.958  28.622  1.00  0.00     0.029 A 
ATOM     51  N   UNL A   1      42.751  27.785  28.805  1.00  0.00    -0.354 N 
ATOM     52  C   UNL A   1      46.842  27.813  27.531  1.00  0.00     0.074 A 
ATOM     53  C   UNL A   1      46.519  27.730  26.129  1.00  0.00     0.031 C 
ATOM     54  C   UNL A   1      40.702  26.912  28.947  1.00  0.00     0.029 A 
ATOM     55  C   UNL A   1      41.390  28.170  29.040  1.00  0.00     0.049 A 
ATOM     56  H   UNL A   1      43.511  28.389  28.972  1.00  0.00     0.167 HD
ATOM     57  C   UNL A   1      47.411  28.827  28.232  1.00  0.00     0.034 A 
ATOM     58  C   UNL A   1      40.842  29.377  29.389  1.00  0.00     0.034 A 
ATOM     59  C   UNL A   1      47.240  28.658  29.650  1.00  0.00     0.049 A 
ATOM     60  C   UNL A   1      41.877  29.951  30.294  1.00  0.00     0.074 A 
ATOM     61  C   UNL A   1      47.796  27.842  30.605  1.00  0.00     0.029 A 
ATOM     62  N   UNL A   1      46.073  29.163  30.171  1.00  0.00    -0.354 N 
ATOM     63  N   UNL A   1      42.232  29.407  31.432  1.00  0.00    -0.248 NA
ATOM     64  C   UNL A   1      42.760  31.007  29.817  1.00  0.00     0.031 C 
ATOM     65  C   UNL A   1      46.880  27.803  31.687  1.00  0.00     0.029 A 
ATOM     66  C   UNL A   1      45.794  28.638  31.415  1.00  0.00     0.049 A 
ATOM     67  H   UNL A   1      45.504  29.822  29.710  1.00  0.00     0.167 HD
ATOM     68  C   UNL A   1      43.574  29.697  31.548  1.00  0.00     0.074 A 
ATOM     69  C   UNL A   1      43.789  30.826  30.651  1.00  0.00     0.031 C 
ATOM     70  C   UNL A   1      44.473  28.790  32.039  1.00  0.00     0.034 A 
BRANCH  57  71
ATOM     71  C   UNL A   1      47.772  30.143  27.623  1.00  0.00     0.023 A 
ATOM     72  C   UNL A   1      46.808  31.099  27.257  1.00  0.00     0.031 A 
ATOM     73  C   UNL A   1      49.113  30.545  27.545  1.00  0.00     0.131 A 
ATOM     74  C   UNL A   1      47.169  32.349  26.756  1.00  0.00     0.055 A 
ATOM     75  C   UNL A   1      49.478  31.826  27.123  1.00  0.00     0.041 A 
ATOM     76  F   UNL A   1      50.102  29.711  27.904  1.00  0.00    -0.206 F 
ATOM     77  C   UNL A   1      48.504  32.733  26.708  1.00  0.00     0.022 A 
BRANCH  74  78
ATOM     78  S   UNL A   1      45.890  33.473  26.136  1.00  0.00     0.124 S 
ATOM     79  O   UNL A   1      45.027  32.562  25.393  1.00  0.00    -0.237 OA
ATOM     80  O   UNL A   1      45.337  34.009  27.377  1.00  0.00    -0.237 OA
ATOM     81  O   UNL A   1      46.642  34.433  25.331  1.00  0.00    -0.744 OA
ENDBRANCH  74  78
ENDBRANCH  57  71
BRANCH  58  82
ATOM     82  C   UNL A   1      39.499  30.091  29.175  1.00  0.00     0.023 A 
ATOM     83  C   UNL A   1      38.835  30.921  30.133  1.00  0.00     0.031 A 
ATOM     84  C   UNL A   1      38.693  29.725  28.068  1.00  0.00     0.131 A 
ATOM     85  C   UNL A   1      37.449  31.260  29.999  1.00  0.00     0.055 A 
ATOM     86  C   UNL A   1      37.333  30.067  27.938  1.00  0.00     0.041 A 
ATOM     87  F   UNL A   1      39.194  28.974  27.077  1.00  0.00    -0.206 F 
ATOM     88  C   UNL A   1      36.700  30.811  28.915  1.00  0.00     0.022 A 
BRANCH  85  89
ATOM     89  S   UNL A   1      36.494  32.299  31.179  1.00  0.00     0.124 S 
ATOM     90  O   UNL A   1      37.032  31.892  32.478  1.00  0.00    -0.237 OA
ATOM     91  O   UNL A   1      36.858  33.652  30.769  1.00  0.00    -0.237 OA
ATOM     92  O   UNL A   1      35.109  31.903  30.971  1.00  0.00    -0.744 OA
ENDBRANCH  85  89
ENDBRANCH  58  82
BRANCH  70  93
ATOM     93  C   UNL A   1      44.080  27.759  33.093  1.00  0.00     0.023 A 
ATOM     94  C   UNL A   1      44.044  28.192  34.436  1.00  0.00     0.031 A 
ATOM     95  C   UNL A   1      43.910  26.382  32.887  1.00  0.00     0.131 A 
ATOM     96  C   UNL A   1      44.021  27.280  35.502  1.00  0.00     0.055 A 
ATOM     97  C   UNL A   1      43.802  25.474  33.957  1.00  0.00     0.041 A 
ATOM     98  F   UNL A   1      43.906  25.852  31.660  1.00  0.00    -0.206 F 
ATOM     99  C   UNL A   1      43.908  25.913  35.270  1.00  0.00     0.022 A 
BRANCH  96 100
ATOM    100  S   UNL A   1      44.239  27.841  37.210  1.00  0.00     0.124 S 
ATOM    101  O   UNL A   1      43.682  26.731  37.978  1.00  0.00    -0.237 OA
ATOM    102  O   UNL A   1      45.689  27.997  37.300  1.00  0.00    -0.237 OA
ATOM    103  O   UNL A   1      43.477  29.084  37.272  1.00  0.00    -0.744 OA
ENDBRANCH  96 100
ENDBRANCH  70  93
ENDBRANCH  44  45
ENDBRANCH  37  39
ENDBRANCH  36  37
ENDBRANCH  35  36
ENDBRANCH  34  35
ENDBRANCH  33  34
ENDBRANCH   1  33
TORSDOF 23
ENDMDL
