MODEL 1
REMARK VINA RESULT:     -11.2      0.000      0.000
REMARK SMILES CC1=C[C@@H](C)[C@H]2C(=O)N([C@H](Cc3ccccc3)C(=O)OCCOCCOCCOC(=O)c3ccc(-c4c5nc(c(-c6cc(S(=O)(=O)[O-])ccc6F)c6ccc([nH]6)c(-c6cc(S(=O)(=O)[O-])ccc6F)c6nc(c(-c7cc(S(=O)(=O)[O-])ccc7F)c7ccc4[nH]7)C=C6)C=C5)cc3)C(=O)[C@H]2C1
REMARK SMILES IDX 25 1 24 2 23 3 22 4 21 5 20 6 18 7 19 8 10 9 9 10 1 11 2 12
REMARK SMILES IDX 3 13 98 14 4 15 97 16 6 17 5 18 95 19 7 20 96 21 8 22 11 23
REMARK SMILES IDX 12 24 13 25 17 26 14 27 16 28 15 29 26 30 27 31 28 32 29 33
REMARK SMILES IDX 30 34 31 35 32 36 33 37 94 38 34 39 93 40 35 41 36 42 37 43
REMARK SMILES IDX 87 44 38 45 92 46 86 47 88 48 39 49 91 50 85 51 84 52 40 54
REMARK SMILES IDX 72 55 52 56 71 57 53 58 56 59 70 60 89 61 54 62 55 63 69 65
REMARK SMILES IDX 90 66 57 67 41 68 42 69 50 70 43 71 49 72 51 73 48 74 44 75
REMARK SMILES IDX 45 76 46 77 47 78 73 79 74 80 82 81 75 82 81 83 83 84 80 85
REMARK SMILES IDX 76 86 77 87 78 88 79 89 58 90 59 91 67 92 60 93 66 94 68 95
REMARK SMILES IDX 65 96 61 97 62 98 63 99 64 100
REMARK H PARENT 88 53 56 64
REMARK Flexibility Score: inf
ROOT
ATOM      1  C   UNL A   1      40.016  22.158  26.816  1.00  0.00     0.188 C 
ENDROOT
BRANCH   1   2
ATOM      2  C   UNL A   1      38.650  22.234  26.124  1.00  0.00     0.188 C 
BRANCH   2   3
ATOM      3  O   UNL A   1      38.134  23.513  25.767  1.00  0.00    -0.376 OA
BRANCH   3   4
ATOM      4  C   UNL A   1      36.801  23.609  25.281  1.00  0.00     0.202 C 
BRANCH   4   5
ATOM      5  C   UNL A   1      35.755  22.763  26.003  1.00  0.00     0.261 C 
BRANCH   5   6
ATOM      6  O   UNL A   1      34.499  23.448  26.170  1.00  0.00    -0.462 OA
BRANCH   6   7
ATOM      7  C   UNL A   1      33.368  22.698  26.094  1.00  0.00     0.329 C 
ATOM      8  O   UNL A   1      32.622  22.492  27.048  1.00  0.00    -0.250 OA
BRANCH   7   9
ATOM      9  C   UNL A   1      33.216  21.943  24.767  1.00  0.00     0.207 C 
BRANCH   9  10
ATOM     10  N   UNL A   1      32.672  22.982  23.884  1.00  0.00    -0.267 N 
ATOM     11  C   UNL A   1      29.955  28.052  23.789  1.00  0.00     0.039 C 
ATOM     12  C   UNL A   1      30.902  26.949  23.418  1.00  0.00    -0.076 C 
ATOM     13  C   UNL A   1      32.225  27.164  23.368  1.00  0.00    -0.024 C 
ATOM     14  C   UNL A   1      30.265  25.616  23.135  1.00  0.00     0.044 C 
ATOM     15  C   UNL A   1      33.254  26.104  23.104  1.00  0.00     0.022 C 
ATOM     16  C   UNL A   1      31.222  24.466  22.882  1.00  0.00     0.096 C 
ATOM     17  C   UNL A   1      32.648  24.832  22.470  1.00  0.00     0.098 C 
ATOM     18  C   UNL A   1      34.034  25.920  24.416  1.00  0.00     0.013 C 
ATOM     19  C   UNL A   1      31.443  23.548  24.053  1.00  0.00     0.234 C 
ATOM     20  C   UNL A   1      33.405  23.614  22.911  1.00  0.00     0.234 C 
ATOM     21  O   UNL A   1      30.660  23.326  24.963  1.00  0.00    -0.274 OA
ATOM     22  O   UNL A   1      34.532  23.338  22.531  1.00  0.00    -0.274 OA
ENDBRANCH   9  10
BRANCH   9  23
ATOM     23  C   UNL A   1      32.360  20.669  24.637  1.00  0.00     0.073 C 
BRANCH  23  24
ATOM     24  C   UNL A   1      32.974  19.340  24.247  1.00  0.00    -0.045 A 
ATOM     25  C   UNL A   1      34.210  18.891  24.733  1.00  0.00     0.004 A 
ATOM     26  C   UNL A   1      32.355  18.594  23.226  1.00  0.00     0.004 A 
ATOM     27  C   UNL A   1      34.780  17.705  24.244  1.00  0.00     0.000 A 
ATOM     28  C   UNL A   1      32.913  17.403  22.757  1.00  0.00     0.000 A 
ATOM     29  C   UNL A   1      34.122  16.953  23.272  1.00  0.00     0.000 A 
ENDBRANCH  23  24
ENDBRANCH   9  23
ENDBRANCH   7   9
ENDBRANCH   6   7
ENDBRANCH   5   6
ENDBRANCH   4   5
ENDBRANCH   3   4
ENDBRANCH   2   3
ENDBRANCH   1   2
BRANCH   1  30
ATOM     30  O   UNL A   1      40.413  20.847  27.187  1.00  0.00    -0.376 OA
BRANCH  30  31
ATOM     31  C   UNL A   1      40.425  19.919  26.111  1.00  0.00     0.202 C 
BRANCH  31  32
ATOM     32  C   UNL A   1      41.662  19.021  26.173  1.00  0.00     0.261 C 
BRANCH  32  33
ATOM     33  O   UNL A   1      42.571  19.213  25.069  1.00  0.00    -0.460 OA
BRANCH  33  34
ATOM     34  C   UNL A   1      43.779  19.730  25.375  1.00  0.00     0.338 C 
ATOM     35  O   UNL A   1      44.860  19.152  25.309  1.00  0.00    -0.246 OA
BRANCH  34  36
ATOM     36  C   UNL A   1      43.620  21.162  25.685  1.00  0.00     0.060 A 
ATOM     37  C   UNL A   1      43.355  22.070  24.654  1.00  0.00     0.016 A 
ATOM     38  C   UNL A   1      43.802  21.619  26.987  1.00  0.00     0.016 A 
ATOM     39  C   UNL A   1      43.335  23.444  24.899  1.00  0.00     0.010 A 
ATOM     40  C   UNL A   1      43.773  22.996  27.237  1.00  0.00     0.010 A 
ATOM     41  C   UNL A   1      43.578  23.920  26.190  1.00  0.00    -0.014 A 
BRANCH  41  42
ATOM     42  C   UNL A   1      43.798  25.367  26.446  1.00  0.00     0.031 A 
ATOM     43  C   UNL A   1      45.175  25.928  26.213  1.00  0.00     0.074 A 
ATOM     44  C   UNL A   1      42.810  26.168  26.886  1.00  0.00     0.049 A 
ATOM     45  N   UNL A   1      45.690  27.063  26.605  1.00  0.00    -0.248 NA
ATOM     46  C   UNL A   1      46.097  25.082  25.438  1.00  0.00     0.031 C 
ATOM     47  C   UNL A   1      41.411  25.777  27.050  1.00  0.00     0.029 A 
ATOM     48  N   UNL A   1      42.843  27.478  27.300  1.00  0.00    -0.354 N 
ATOM     49  C   UNL A   1      47.007  27.055  26.155  1.00  0.00     0.074 A 
ATOM     50  C   UNL A   1      47.213  25.795  25.473  1.00  0.00     0.031 C 
ATOM     51  C   UNL A   1      40.725  26.817  27.558  1.00  0.00     0.029 A 
ATOM     52  C   UNL A   1      41.648  27.917  27.824  1.00  0.00     0.049 A 
ATOM     53  H   UNL A   1      43.644  28.046  27.231  1.00  0.00     0.167 HD
ATOM     54  C   UNL A   1      47.956  28.013  26.303  1.00  0.00     0.034 A 
ATOM     55  C   UNL A   1      41.351  29.051  28.495  1.00  0.00     0.034 A 
ATOM     56  C   UNL A   1      47.727  29.264  26.983  1.00  0.00     0.049 A 
ATOM     57  C   UNL A   1      42.451  30.060  28.743  1.00  0.00     0.074 A 
ATOM     58  C   UNL A   1      48.623  30.291  27.229  1.00  0.00     0.029 A 
ATOM     59  N   UNL A   1      46.509  29.664  27.518  1.00  0.00    -0.354 N 
ATOM     60  N   UNL A   1      43.715  30.013  28.387  1.00  0.00    -0.248 NA
ATOM     61  C   UNL A   1      42.085  31.273  29.487  1.00  0.00     0.031 C 
ATOM     62  C   UNL A   1      47.961  31.284  27.960  1.00  0.00     0.029 A 
ATOM     63  C   UNL A   1      46.634  30.913  28.104  1.00  0.00     0.049 A 
ATOM     64  H   UNL A   1      45.678  29.136  27.487  1.00  0.00     0.167 HD
ATOM     65  C   UNL A   1      44.279  31.208  28.829  1.00  0.00     0.074 A 
ATOM     66  C   UNL A   1      43.218  31.958  29.465  1.00  0.00     0.031 C 
ATOM     67  C   UNL A   1      45.558  31.650  28.721  1.00  0.00     0.034 A 
BRANCH  54  68
ATOM     68  C   UNL A   1      49.336  27.715  25.773  1.00  0.00     0.023 A 
ATOM     69  C   UNL A   1      49.705  28.021  24.451  1.00  0.00     0.031 A 
ATOM     70  C   UNL A   1      50.296  27.106  26.601  1.00  0.00     0.131 A 
ATOM     71  C   UNL A   1      50.979  27.668  23.982  1.00  0.00     0.055 A 
ATOM     72  C   UNL A   1      51.586  26.826  26.151  1.00  0.00     0.041 A 
ATOM     73  F   UNL A   1      49.992  26.770  27.865  1.00  0.00    -0.206 F 
ATOM     74  C   UNL A   1      51.932  27.097  24.831  1.00  0.00     0.022 A 
BRANCH  71  75
ATOM     75  S   UNL A   1      51.342  27.863  22.216  1.00  0.00     0.124 S 
ATOM     76  O   UNL A   1      51.086  29.287  22.018  1.00  0.00    -0.237 OA
ATOM     77  O   UNL A   1      52.738  27.448  22.132  1.00  0.00    -0.237 OA
ATOM     78  O   UNL A   1      50.385  26.968  21.568  1.00  0.00    -0.744 OA
ENDBRANCH  71  75
ENDBRANCH  54  68
BRANCH  55  79
ATOM     79  C   UNL A   1      39.985  29.274  29.059  1.00  0.00     0.023 A 
ATOM     80  C   UNL A   1      39.734  29.127  30.433  1.00  0.00     0.031 A 
ATOM     81  C   UNL A   1      38.889  29.543  28.218  1.00  0.00     0.131 A 
ATOM     82  C   UNL A   1      38.416  29.183  30.915  1.00  0.00     0.055 A 
ATOM     83  C   UNL A   1      37.590  29.667  28.712  1.00  0.00     0.041 A 
ATOM     84  F   UNL A   1      39.064  29.682  26.894  1.00  0.00    -0.206 F 
ATOM     85  C   UNL A   1      37.345  29.467  30.067  1.00  0.00     0.022 A 
BRANCH  82  86
ATOM     86  S   UNL A   1      38.108  28.743  32.649  1.00  0.00     0.124 S 
ATOM     87  O   UNL A   1      39.222  29.398  33.323  1.00  0.00    -0.237 OA
ATOM     88  O   UNL A   1      36.789  29.322  32.877  1.00  0.00    -0.237 OA
ATOM     89  O   UNL A   1      38.154  27.282  32.642  1.00  0.00    -0.744 OA
ENDBRANCH  82  86
ENDBRANCH  55  79
BRANCH  67  90
ATOM     90  C   UNL A   1      45.852  33.039  29.235  1.00  0.00     0.023 A 
ATOM     91  C   UNL A   1      45.705  34.179  28.427  1.00  0.00     0.031 A 
ATOM     92  C   UNL A   1      46.301  33.217  30.557  1.00  0.00     0.131 A 
ATOM     93  C   UNL A   1      46.058  35.440  28.929  1.00  0.00     0.055 A 
ATOM     94  C   UNL A   1      46.594  34.480  31.070  1.00  0.00     0.041 A 
ATOM     95  F   UNL A   1      46.458  32.162  31.373  1.00  0.00    -0.206 F 
ATOM     96  C   UNL A   1      46.487  35.600  30.250  1.00  0.00     0.022 A 
BRANCH  93  97
ATOM     97  S   UNL A   1      46.039  36.864  27.805  1.00  0.00     0.124 S 
ATOM     98  O   UNL A   1      46.749  37.874  28.580  1.00  0.00    -0.237 OA
ATOM     99  O   UNL A   1      46.742  36.346  26.635  1.00  0.00    -0.237 OA
ATOM    100  O   UNL A   1      44.613  37.123  27.604  1.00  0.00    -0.744 OA
ENDBRANCH  93  97
ENDBRANCH  67  90
ENDBRANCH  41  42
ENDBRANCH  34  36
ENDBRANCH  33  34
ENDBRANCH  32  33
ENDBRANCH  31  32
ENDBRANCH  30  31
ENDBRANCH   1  30
TORSDOF 23
ENDMDL
MODEL 2
REMARK VINA RESULT:     -11.1      6.392     12.721
REMARK SMILES CC1=C[C@@H](C)[C@H]2C(=O)N([C@H](Cc3ccccc3)C(=O)OCCOCCOCCOC(=O)c3ccc(-c4c5nc(c(-c6cc(S(=O)(=O)[O-])ccc6F)c6ccc([nH]6)c(-c6cc(S(=O)(=O)[O-])ccc6F)c6nc(c(-c7cc(S(=O)(=O)[O-])ccc7F)c7ccc4[nH]7)C=C6)C=C5)cc3)C(=O)[C@H]2C1
REMARK SMILES IDX 25 1 24 2 23 3 22 4 21 5 20 6 18 7 19 8 10 9 9 10 1 11 2 12
REMARK SMILES IDX 3 13 98 14 4 15 97 16 6 17 5 18 95 19 7 20 96 21 8 22 11 23
REMARK SMILES IDX 12 24 13 25 17 26 14 27 16 28 15 29 26 30 27 31 28 32 29 33
REMARK SMILES IDX 30 34 31 35 32 36 33 37 94 38 34 39 93 40 35 41 36 42 37 43
REMARK SMILES IDX 87 44 38 45 92 46 86 47 88 48 39 49 91 50 85 51 84 52 40 54
REMARK SMILES IDX 72 55 52 56 71 57 53 58 56 59 70 60 89 61 54 62 55 63 69 65
REMARK SMILES IDX 90 66 57 67 41 68 42 69 50 70 43 71 49 72 51 73 48 74 44 75
REMARK SMILES IDX 45 76 46 77 47 78 73 79 74 80 82 81 75 82 81 83 83 84 80 85
REMARK SMILES IDX 76 86 77 87 78 88 79 89 58 90 59 91 67 92 60 93 66 94 68 95
REMARK SMILES IDX 65 96 61 97 62 98 63 99 64 100
REMARK H PARENT 88 53 56 64
REMARK Flexibility Score: inf
ROOT
ATOM      1  C   UNL A   1      34.277  33.383  29.275  1.00  0.00     0.188 C 
ENDROOT
BRANCH   1   2
ATOM      2  C   UNL A   1      34.633  32.662  27.969  1.00  0.00     0.188 C 
BRANCH   2   3
ATOM      3  O   UNL A   1      33.969  31.441  27.659  1.00  0.00    -0.376 OA
BRANCH   3   4
ATOM      4  C   UNL A   1      34.747  30.290  27.354  1.00  0.00     0.202 C 
BRANCH   4   5
ATOM      5  C   UNL A   1      34.030  29.168  26.604  1.00  0.00     0.261 C 
BRANCH   5   6
ATOM      6  O   UNL A   1      33.067  29.659  25.651  1.00  0.00    -0.462 OA
BRANCH   6   7
ATOM      7  C   UNL A   1      32.977  29.000  24.467  1.00  0.00     0.329 C 
ATOM      8  O   UNL A   1      33.548  29.361  23.440  1.00  0.00    -0.250 OA
BRANCH   7   9
ATOM      9  C   UNL A   1      31.923  27.885  24.460  1.00  0.00     0.207 C 
BRANCH   9  10
ATOM     10  N   UNL A   1      32.747  26.683  24.281  1.00  0.00    -0.267 N 
ATOM     11  C   UNL A   1      33.313  21.163  25.800  1.00  0.00     0.039 C 
ATOM     12  C   UNL A   1      33.326  22.407  24.960  1.00  0.00    -0.076 C 
ATOM     13  C   UNL A   1      32.627  22.474  23.817  1.00  0.00    -0.024 C 
ATOM     14  C   UNL A   1      34.146  23.546  25.501  1.00  0.00     0.044 C 
ATOM     15  C   UNL A   1      32.500  23.701  22.963  1.00  0.00     0.022 C 
ATOM     16  C   UNL A   1      34.065  24.846  24.724  1.00  0.00     0.096 C 
ATOM     17  C   UNL A   1      33.584  24.757  23.276  1.00  0.00     0.098 C 
ATOM     18  C   UNL A   1      31.036  24.157  23.074  1.00  0.00     0.013 C 
ATOM     19  C   UNL A   1      33.150  25.886  25.311  1.00  0.00     0.234 C 
ATOM     20  C   UNL A   1      33.045  26.141  23.057  1.00  0.00     0.234 C 
ATOM     21  O   UNL A   1      32.853  26.013  26.488  1.00  0.00    -0.274 OA
ATOM     22  O   UNL A   1      32.816  26.616  21.956  1.00  0.00    -0.274 OA
ENDBRANCH   9  10
BRANCH   9  23
ATOM     23  C   UNL A   1      30.760  27.856  23.450  1.00  0.00     0.073 C 
BRANCH  23  24
ATOM     24  C   UNL A   1      29.755  28.988  23.367  1.00  0.00    -0.045 A 
ATOM     25  C   UNL A   1      30.015  30.283  23.836  1.00  0.00     0.004 A 
ATOM     26  C   UNL A   1      28.445  28.686  22.949  1.00  0.00     0.004 A 
ATOM     27  C   UNL A   1      29.004  31.255  23.838  1.00  0.00     0.000 A 
ATOM     28  C   UNL A   1      27.446  29.661  22.931  1.00  0.00     0.000 A 
ATOM     29  C   UNL A   1      27.727  30.950  23.368  1.00  0.00     0.000 A 
ENDBRANCH  23  24
ENDBRANCH   9  23
ENDBRANCH   7   9
ENDBRANCH   6   7
ENDBRANCH   5   6
ENDBRANCH   4   5
ENDBRANCH   3   4
ENDBRANCH   2   3
ENDBRANCH   1   2
BRANCH   1  30
ATOM     30  O   UNL A   1      33.125  34.207  29.195  1.00  0.00    -0.376 OA
BRANCH  30  31
ATOM     31  C   UNL A   1      33.412  35.592  29.067  1.00  0.00     0.202 C 
BRANCH  31  32
ATOM     32  C   UNL A   1      32.381  36.440  29.814  1.00  0.00     0.261 C 
BRANCH  32  33
ATOM     33  O   UNL A   1      32.908  37.091  30.989  1.00  0.00    -0.460 OA
BRANCH  33  34
ATOM     34  C   UNL A   1      32.688  36.466  32.164  1.00  0.00     0.338 C 
ATOM     35  O   UNL A   1      31.726  36.629  32.909  1.00  0.00    -0.246 OA
BRANCH  34  36
ATOM     36  C   UNL A   1      33.730  35.443  32.363  1.00  0.00     0.060 A 
ATOM     37  C   UNL A   1      33.389  34.203  32.915  1.00  0.00     0.016 A 
ATOM     38  C   UNL A   1      35.059  35.733  32.069  1.00  0.00     0.016 A 
ATOM     39  C   UNL A   1      34.375  33.269  33.239  1.00  0.00     0.010 A 
ATOM     40  C   UNL A   1      36.048  34.796  32.384  1.00  0.00     0.010 A 
ATOM     41  C   UNL A   1      35.718  33.574  33.007  1.00  0.00    -0.014 A 
BRANCH  41  42
ATOM     42  C   UNL A   1      36.804  32.717  33.549  1.00  0.00     0.031 A 
ATOM     43  C   UNL A   1      37.411  33.092  34.874  1.00  0.00     0.074 A 
ATOM     44  C   UNL A   1      37.256  31.638  32.882  1.00  0.00     0.049 A 
ATOM     45  N   UNL A   1      38.522  32.684  35.428  1.00  0.00    -0.248 NA
ATOM     46  C   UNL A   1      36.659  34.070  35.677  1.00  0.00     0.031 C 
ATOM     47  C   UNL A   1      36.687  31.105  31.645  1.00  0.00     0.029 A 
ATOM     48  N   UNL A   1      38.321  30.810  33.145  1.00  0.00    -0.354 N 
ATOM     49  C   UNL A   1      38.622  33.380  36.629  1.00  0.00     0.074 A 
ATOM     50  C   UNL A   1      37.464  34.245  36.714  1.00  0.00     0.031 C 
ATOM     51  C   UNL A   1      37.428  30.057  31.241  1.00  0.00     0.029 A 
ATOM     52  C   UNL A   1      38.562  29.893  32.147  1.00  0.00     0.049 A 
ATOM     53  H   UNL A   1      38.860  30.868  33.967  1.00  0.00     0.167 HD
ATOM     54  C   UNL A   1      39.595  33.304  37.571  1.00  0.00     0.034 A 
ATOM     55  C   UNL A   1      39.608  29.061  31.957  1.00  0.00     0.034 A 
ATOM     56  C   UNL A   1      40.739  32.430  37.467  1.00  0.00     0.049 A 
ATOM     57  C   UNL A   1      40.737  29.068  32.965  1.00  0.00     0.074 A 
ATOM     58  C   UNL A   1      41.806  32.297  38.338  1.00  0.00     0.029 A 
ATOM     59  N   UNL A   1      40.957  31.531  36.431  1.00  0.00    -0.354 N 
ATOM     60  N   UNL A   1      40.868  29.785  34.059  1.00  0.00    -0.248 NA
ATOM     61  C   UNL A   1      41.860  28.155  32.713  1.00  0.00     0.031 C 
ATOM     62  C   UNL A   1      42.696  31.360  37.801  1.00  0.00     0.029 A 
ATOM     63  C   UNL A   1      42.147  30.851  36.635  1.00  0.00     0.049 A 
ATOM     64  H   UNL A   1      40.355  31.396  35.664  1.00  0.00     0.167 HD
ATOM     65  C   UNL A   1      42.067  29.378  34.640  1.00  0.00     0.074 A 
ATOM     66  C   UNL A   1      42.613  28.346  33.785  1.00  0.00     0.031 C 
ATOM     67  C   UNL A   1      42.667  29.815  35.776  1.00  0.00     0.034 A 
BRANCH  54  68
ATOM     68  C   UNL A   1      39.492  34.229  38.757  1.00  0.00     0.023 A 
ATOM     69  C   UNL A   1      38.818  33.857  39.932  1.00  0.00     0.031 A 
ATOM     70  C   UNL A   1      40.071  35.510  38.706  1.00  0.00     0.131 A 
ATOM     71  C   UNL A   1      38.693  34.775  40.986  1.00  0.00     0.055 A 
ATOM     72  C   UNL A   1      40.007  36.391  39.787  1.00  0.00     0.041 A 
ATOM     73  F   UNL A   1      40.706  35.929  37.600  1.00  0.00    -0.206 F 
ATOM     74  C   UNL A   1      39.306  36.029  40.932  1.00  0.00     0.022 A 
BRANCH  71  75
ATOM     75  S   UNL A   1      37.622  34.350  42.388  1.00  0.00     0.124 S 
ATOM     76  O   UNL A   1      36.326  34.197  41.732  1.00  0.00    -0.237 OA
ATOM     77  O   UNL A   1      38.231  33.123  42.890  1.00  0.00    -0.237 OA
ATOM     78  O   UNL A   1      37.735  35.509  43.271  1.00  0.00    -0.744 OA
ENDBRANCH  71  75
ENDBRANCH  54  68
BRANCH  55  79
ATOM     79  C   UNL A   1      39.699  28.208  30.734  1.00  0.00     0.023 A 
ATOM     80  C   UNL A   1      40.468  28.605  29.628  1.00  0.00     0.031 A 
ATOM     81  C   UNL A   1      38.940  27.029  30.614  1.00  0.00     0.131 A 
ATOM     82  C   UNL A   1      40.410  27.870  28.432  1.00  0.00     0.055 A 
ATOM     83  C   UNL A   1      38.940  26.263  29.447  1.00  0.00     0.041 A 
ATOM     84  F   UNL A   1      38.175  26.605  31.634  1.00  0.00    -0.206 F 
ATOM     85  C   UNL A   1      39.664  26.694  28.340  1.00  0.00     0.022 A 
BRANCH  82  86
ATOM     86  S   UNL A   1      41.218  28.549  26.956  1.00  0.00     0.124 S 
ATOM     87  O   UNL A   1      40.138  29.325  26.358  1.00  0.00    -0.237 OA
ATOM     88  O   UNL A   1      42.313  29.317  27.539  1.00  0.00    -0.237 OA
ATOM     89  O   UNL A   1      41.619  27.359  26.210  1.00  0.00    -0.744 OA
ENDBRANCH  82  86
ENDBRANCH  55  79
BRANCH  67  90
ATOM     90  C   UNL A   1      43.939  29.118  36.195  1.00  0.00     0.023 A 
ATOM     91  C   UNL A   1      43.930  27.996  37.042  1.00  0.00     0.031 A 
ATOM     92  C   UNL A   1      45.182  29.597  35.744  1.00  0.00     0.131 A 
ATOM     93  C   UNL A   1      45.143  27.428  37.458  1.00  0.00     0.055 A 
ATOM     94  C   UNL A   1      46.383  28.991  36.113  1.00  0.00     0.041 A 
ATOM     95  F   UNL A   1      45.249  30.664  34.931  1.00  0.00    -0.206 F 
ATOM     96  C   UNL A   1      46.368  27.908  36.987  1.00  0.00     0.022 A 
BRANCH  93  97
ATOM     97  S   UNL A   1      45.105  26.105  38.700  1.00  0.00     0.124 S 
ATOM     98  O   UNL A   1      46.524  25.868  38.935  1.00  0.00    -0.237 OA
ATOM     99  O   UNL A   1      44.372  26.729  39.797  1.00  0.00    -0.237 OA
ATOM    100  O   UNL A   1      44.398  25.019  38.023  1.00  0.00    -0.744 OA
ENDBRANCH  93  97
ENDBRANCH  67  90
ENDBRANCH  41  42
ENDBRANCH  34  36
ENDBRANCH  33  34
ENDBRANCH  32  33
ENDBRANCH  31  32
ENDBRANCH  30  31
ENDBRANCH   1  30
TORSDOF 23
ENDMDL
MODEL 3
REMARK VINA RESULT:     -10.6      2.960      9.963
REMARK SMILES CC1=C[C@@H](C)[C@H]2C(=O)N([C@H](Cc3ccccc3)C(=O)OCCOCCOCCOC(=O)c3ccc(-c4c5nc(c(-c6cc(S(=O)(=O)[O-])ccc6F)c6ccc([nH]6)c(-c6cc(S(=O)(=O)[O-])ccc6F)c6nc(c(-c7cc(S(=O)(=O)[O-])ccc7F)c7ccc4[nH]7)C=C6)C=C5)cc3)C(=O)[C@H]2C1
REMARK SMILES IDX 25 1 24 2 23 3 22 4 21 5 20 6 18 7 19 8 10 9 9 10 1 11 2 12
REMARK SMILES IDX 3 13 98 14 4 15 97 16 6 17 5 18 95 19 7 20 96 21 8 22 11 23
REMARK SMILES IDX 12 24 13 25 17 26 14 27 16 28 15 29 26 30 27 31 28 32 29 33
REMARK SMILES IDX 30 34 31 35 32 36 33 37 94 38 34 39 93 40 35 41 36 42 37 43
REMARK SMILES IDX 87 44 38 45 92 46 86 47 88 48 39 49 91 50 85 51 84 52 40 54
REMARK SMILES IDX 72 55 52 56 71 57 53 58 56 59 70 60 89 61 54 62 55 63 69 65
REMARK SMILES IDX 90 66 57 67 41 68 42 69 50 70 43 71 49 72 51 73 48 74 44 75
REMARK SMILES IDX 45 76 46 77 47 78 73 79 74 80 82 81 75 82 81 83 83 84 80 85
REMARK SMILES IDX 76 86 77 87 78 88 79 89 58 90 59 91 67 92 60 93 66 94 68 95
REMARK SMILES IDX 65 96 61 97 62 98 63 99 64 100
REMARK H PARENT 88 53 56 64
REMARK Flexibility Score: inf
ROOT
ATOM      1  C   UNL A   1      34.725  32.168  29.153  1.00  0.00     0.188 C 
ENDROOT
BRANCH   1   2
ATOM      2  C   UNL A   1      34.267  32.317  27.697  1.00  0.00     0.188 C 
BRANCH   2   3
ATOM      3  O   UNL A   1      33.942  31.144  26.958  1.00  0.00    -0.376 OA
BRANCH   3   4
ATOM      4  C   UNL A   1      32.711  30.481  27.219  1.00  0.00     0.202 C 
BRANCH   4   5
ATOM      5  C   UNL A   1      32.647  29.001  26.846  1.00  0.00     0.261 C 
BRANCH   5   6
ATOM      6  O   UNL A   1      31.484  28.672  26.063  1.00  0.00    -0.462 OA
BRANCH   6   7
ATOM      7  C   UNL A   1      31.663  28.508  24.726  1.00  0.00     0.329 C 
ATOM      8  O   UNL A   1      32.659  28.895  24.120  1.00  0.00    -0.250 OA
BRANCH   7   9
ATOM      9  C   UNL A   1      30.418  27.990  23.995  1.00  0.00     0.207 C 
BRANCH   9  10
ATOM     10  N   UNL A   1      30.698  26.553  23.889  1.00  0.00    -0.267 N 
ATOM     11  C   UNL A   1      34.853  22.679  22.982  1.00  0.00     0.039 C 
ATOM     12  C   UNL A   1      33.621  23.325  23.545  1.00  0.00    -0.076 C 
ATOM     13  C   UNL A   1      33.486  23.516  24.866  1.00  0.00    -0.024 C 
ATOM     14  C   UNL A   1      32.592  23.748  22.534  1.00  0.00     0.044 C 
ATOM     15  C   UNL A   1      32.340  24.238  25.513  1.00  0.00     0.022 C 
ATOM     16  C   UNL A   1      31.401  24.513  23.083  1.00  0.00     0.096 C 
ATOM     17  C   UNL A   1      31.117  24.369  24.577  1.00  0.00     0.098 C 
ATOM     18  C   UNL A   1      32.917  25.543  26.085  1.00  0.00     0.013 C 
ATOM     19  C   UNL A   1      31.462  26.005  22.901  1.00  0.00     0.234 C 
ATOM     20  C   UNL A   1      30.374  25.641  24.861  1.00  0.00     0.234 C 
ATOM     21  O   UNL A   1      32.053  26.609  22.020  1.00  0.00    -0.274 OA
ATOM     22  O   UNL A   1      29.702  25.828  25.863  1.00  0.00    -0.274 OA
ENDBRANCH   9  10
BRANCH   9  23
ATOM     23  C   UNL A   1      29.990  28.526  22.616  1.00  0.00     0.073 C 
BRANCH  23  24
ATOM     24  C   UNL A   1      29.238  29.834  22.473  1.00  0.00    -0.045 A 
ATOM     25  C   UNL A   1      28.745  30.308  21.249  1.00  0.00     0.004 A 
ATOM     26  C   UNL A   1      29.174  30.691  23.588  1.00  0.00     0.004 A 
ATOM     27  C   UNL A   1      28.161  31.581  21.162  1.00  0.00     0.000 A 
ATOM     28  C   UNL A   1      28.573  31.949  23.504  1.00  0.00     0.000 A 
ATOM     29  C   UNL A   1      28.058  32.391  22.292  1.00  0.00     0.000 A 
ENDBRANCH  23  24
ENDBRANCH   9  23
ENDBRANCH   7   9
ENDBRANCH   6   7
ENDBRANCH   5   6
ENDBRANCH   4   5
ENDBRANCH   3   4
ENDBRANCH   2   3
ENDBRANCH   1   2
BRANCH   1  30
ATOM     30  O   UNL A   1      34.031  32.996  30.074  1.00  0.00    -0.376 OA
BRANCH  30  31
ATOM     31  C   UNL A   1      34.872  33.640  31.020  1.00  0.00     0.202 C 
BRANCH  31  32
ATOM     32  C   UNL A   1      34.653  33.074  32.425  1.00  0.00     0.261 C 
BRANCH  32  33
ATOM     33  O   UNL A   1      35.287  31.796  32.639  1.00  0.00    -0.460 OA
BRANCH  33  34
ATOM     34  C   UNL A   1      36.493  31.824  33.244  1.00  0.00     0.338 C 
ATOM     35  O   UNL A   1      36.734  32.238  34.374  1.00  0.00    -0.246 OA
BRANCH  34  36
ATOM     36  C   UNL A   1      37.477  31.150  32.378  1.00  0.00     0.060 A 
ATOM     37  C   UNL A   1      38.650  30.629  32.935  1.00  0.00     0.016 A 
ATOM     38  C   UNL A   1      37.273  31.094  31.002  1.00  0.00     0.016 A 
ATOM     39  C   UNL A   1      39.658  30.109  32.120  1.00  0.00     0.010 A 
ATOM     40  C   UNL A   1      38.278  30.566  30.185  1.00  0.00     0.010 A 
ATOM     41  C   UNL A   1      39.493  30.105  30.734  1.00  0.00    -0.014 A 
BRANCH  41  42
ATOM     42  C   UNL A   1      40.625  29.783  29.826  1.00  0.00     0.031 A 
ATOM     43  C   UNL A   1      40.651  28.426  29.176  1.00  0.00     0.074 A 
ATOM     44  C   UNL A   1      41.616  30.663  29.589  1.00  0.00     0.049 A 
ATOM     45  N   UNL A   1      41.632  27.809  28.574  1.00  0.00    -0.248 NA
ATOM     46  C   UNL A   1      39.395  27.660  29.226  1.00  0.00     0.031 C 
ATOM     47  C   UNL A   1      41.658  32.044  30.068  1.00  0.00     0.029 A 
ATOM     48  N   UNL A   1      42.796  30.511  28.900  1.00  0.00    -0.354 N 
ATOM     49  C   UNL A   1      41.125  26.568  28.200  1.00  0.00     0.074 A 
ATOM     50  C   UNL A   1      39.752  26.518  28.659  1.00  0.00     0.031 C 
ATOM     51  C   UNL A   1      42.819  32.603  29.683  1.00  0.00     0.029 A 
ATOM     52  C   UNL A   1      43.632  31.601  28.998  1.00  0.00     0.049 A 
ATOM     53  H   UNL A   1      43.022  29.701  28.388  1.00  0.00     0.167 HD
ATOM     54  C   UNL A   1      41.752  25.563  27.540  1.00  0.00     0.034 A 
ATOM     55  C   UNL A   1      44.922  31.749  28.631  1.00  0.00     0.034 A 
ATOM     56  C   UNL A   1      43.120  25.637  27.088  1.00  0.00     0.049 A 
ATOM     57  C   UNL A   1      45.637  30.579  27.990  1.00  0.00     0.074 A 
ATOM     58  C   UNL A   1      43.871  24.669  26.445  1.00  0.00     0.029 A 
ATOM     59  N   UNL A   1      43.940  26.750  27.224  1.00  0.00    -0.354 N 
ATOM     60  N   UNL A   1      45.178  29.379  27.712  1.00  0.00    -0.248 NA
ATOM     61  C   UNL A   1      47.043  30.781  27.618  1.00  0.00     0.031 C 
ATOM     62  C   UNL A   1      45.159  25.176  26.243  1.00  0.00     0.029 A 
ATOM     63  C   UNL A   1      45.191  26.487  26.690  1.00  0.00     0.049 A 
ATOM     64  H   UNL A   1      43.672  27.601  27.639  1.00  0.00     0.167 HD
ATOM     65  C   UNL A   1      46.230  28.703  27.096  1.00  0.00     0.074 A 
ATOM     66  C   UNL A   1      47.338  29.631  27.032  1.00  0.00     0.031 C 
ATOM     67  C   UNL A   1      46.279  27.432  26.624  1.00  0.00     0.034 A 
BRANCH  54  68
ATOM     68  C   UNL A   1      40.982  24.285  27.322  1.00  0.00     0.023 A 
ATOM     69  C   UNL A   1      39.804  24.249  26.556  1.00  0.00     0.031 A 
ATOM     70  C   UNL A   1      41.430  23.084  27.901  1.00  0.00     0.131 A 
ATOM     71  C   UNL A   1      39.087  23.049  26.434  1.00  0.00     0.055 A 
ATOM     72  C   UNL A   1      40.752  21.878  27.713  1.00  0.00     0.041 A 
ATOM     73  F   UNL A   1      42.534  23.063  28.663  1.00  0.00    -0.206 F 
ATOM     74  C   UNL A   1      39.567  21.857  26.985  1.00  0.00     0.022 A 
BRANCH  71  75
ATOM     75  S   UNL A   1      37.458  23.086  25.637  1.00  0.00     0.124 S 
ATOM     76  O   UNL A   1      37.778  23.675  24.340  1.00  0.00    -0.237 OA
ATOM     77  O   UNL A   1      37.081  21.677  25.623  1.00  0.00    -0.237 OA
ATOM     78  O   UNL A   1      36.662  23.935  26.522  1.00  0.00    -0.744 OA
ENDBRANCH  71  75
ENDBRANCH  54  68
BRANCH  55  79
ATOM     79  C   UNL A   1      45.664  33.013  28.925  1.00  0.00     0.023 A 
ATOM     80  C   UNL A   1      45.854  33.990  27.935  1.00  0.00     0.031 A 
ATOM     81  C   UNL A   1      46.280  33.217  30.174  1.00  0.00     0.131 A 
ATOM     82  C   UNL A   1      46.689  35.091  28.187  1.00  0.00     0.055 A 
ATOM     83  C   UNL A   1      47.052  34.348  30.442  1.00  0.00     0.041 A 
ATOM     84  F   UNL A   1      46.145  32.311  31.156  1.00  0.00    -0.206 F 
ATOM     85  C   UNL A   1      47.277  35.284  29.438  1.00  0.00     0.022 A 
BRANCH  82  86
ATOM     86  S   UNL A   1      47.106  36.196  26.809  1.00  0.00     0.124 S 
ATOM     87  O   UNL A   1      47.109  37.499  27.465  1.00  0.00    -0.237 OA
ATOM     88  O   UNL A   1      48.407  35.684  26.395  1.00  0.00    -0.237 OA
ATOM     89  O   UNL A   1      46.019  35.978  25.858  1.00  0.00    -0.744 OA
ENDBRANCH  82  86
ENDBRANCH  55  79
BRANCH  67  90
ATOM     90  C   UNL A   1      47.550  27.004  25.929  1.00  0.00     0.023 A 
ATOM     91  C   UNL A   1      48.582  26.337  26.609  1.00  0.00     0.031 A 
ATOM     92  C   UNL A   1      47.729  27.284  24.562  1.00  0.00     0.131 A 
ATOM     93  C   UNL A   1      49.772  26.024  25.935  1.00  0.00     0.055 A 
ATOM     94  C   UNL A   1      48.890  26.917  23.883  1.00  0.00     0.041 A 
ATOM     95  F   UNL A   1      46.773  27.918  23.864  1.00  0.00    -0.206 F 
ATOM     96  C   UNL A   1      49.926  26.295  24.573  1.00  0.00     0.022 A 
BRANCH  93  97
ATOM     97  S   UNL A   1      51.157  25.337  26.885  1.00  0.00     0.124 S 
ATOM     98  O   UNL A   1      50.483  24.387  27.762  1.00  0.00    -0.237 OA
ATOM     99  O   UNL A   1      51.993  24.755  25.839  1.00  0.00    -0.237 OA
ATOM    100  O   UNL A   1      51.728  26.505  27.554  1.00  0.00    -0.744 OA
ENDBRANCH  93  97
ENDBRANCH  67  90
ENDBRANCH  41  42
ENDBRANCH  34  36
ENDBRANCH  33  34
ENDBRANCH  32  33
ENDBRANCH  31  32
ENDBRANCH  30  31
ENDBRANCH   1  30
TORSDOF 23
ENDMDL
