MODEL 1
REMARK VINA RESULT:     -10.3      0.000      0.000
REMARK SMILES COc1ccc2c(c1)c(CC(=O)OCCOCCOCCOC(=O)c1ccc(-c3c4nc(c(-c5cc(S(=O)(=O)[O-])ccc5F)c5ccc([nH]5)c(-c5cc(S(=O)(=O)[O-])ccc5F)c5nc(c(-c6cc(S(=O)(=O)[O-])ccc6F)c6ccc3[nH]6)C=C5)C=C4)cc1)c(C)n2Cc1ccc(Br)cc1
REMARK SMILES IDX 17 1 16 2 15 3 14 4 13 5 11 6 12 7 10 8 9 9 3 10 4 11 8 12
REMARK SMILES IDX 5 13 7 14 6 15 90 16 88 17 89 18 2 19 1 20 91 21 92 22 93 23
REMARK SMILES IDX 98 24 94 25 97 26 95 27 96 28 18 29 19 30 20 31 21 32 22 33
REMARK SMILES IDX 23 34 24 35 25 36 26 37 87 38 27 39 86 40 28 41 29 42 30 43
REMARK SMILES IDX 80 44 31 45 85 46 79 47 81 48 32 49 84 50 78 51 77 52 33 54
REMARK SMILES IDX 65 55 45 56 64 57 46 58 49 59 63 60 82 61 47 62 48 63 62 65
REMARK SMILES IDX 83 66 50 67 34 68 35 69 43 70 36 71 42 72 44 73 41 74 37 75
REMARK SMILES IDX 38 76 39 77 40 78 66 79 67 80 75 81 68 82 74 83 76 84 73 85
REMARK SMILES IDX 69 86 70 87 71 88 72 89 51 90 52 91 60 92 53 93 59 94 61 95
REMARK SMILES IDX 58 96 54 97 55 98 56 99 57 100
REMARK H PARENT 81 53 49 64
REMARK Flexibility Score: inf
ROOT
ATOM      1  C   UNL A   1      34.802  22.053  24.492  1.00  0.00     0.188 C 
ENDROOT
BRANCH   1   2
ATOM      2  O   UNL A   1      34.131  21.908  25.728  1.00  0.00    -0.376 OA
BRANCH   2   3
ATOM      3  C   UNL A   1      33.786  23.052  26.488  1.00  0.00     0.202 C 
BRANCH   3   4
ATOM      4  C   UNL A   1      32.434  23.025  27.208  1.00  0.00     0.261 C 
BRANCH   4   5
ATOM      5  O   UNL A   1      31.740  24.300  27.194  1.00  0.00    -0.463 OA
BRANCH   5   6
ATOM      6  C   UNL A   1      30.892  24.449  26.147  1.00  0.00     0.310 C 
ATOM      7  O   UNL A   1      30.421  23.460  25.580  1.00  0.00    -0.252 OA
BRANCH   6   8
ATOM      8  C   UNL A   1      30.355  25.836  25.821  1.00  0.00     0.160 C 
BRANCH   8   9
ATOM      9  C   UNL A   1      31.114  27.077  25.458  1.00  0.00    -0.008 A 
ATOM     10  C   UNL A   1      33.314  27.112  22.275  1.00  0.00     0.119 A 
ATOM     11  C   UNL A   1      33.950  28.314  22.526  1.00  0.00     0.048 A 
ATOM     12  C   UNL A   1      32.305  26.657  23.134  1.00  0.00     0.057 A 
ATOM     13  C   UNL A   1      33.622  29.056  23.667  1.00  0.00     0.031 A 
ATOM     14  C   UNL A   1      31.966  27.349  24.316  1.00  0.00     0.007 A 
ATOM     15  C   UNL A   1      32.661  28.540  24.562  1.00  0.00     0.049 A 
ATOM     16  N   UNL A   1      32.217  28.994  25.786  1.00  0.00    -0.340 N 
ATOM     17  C   UNL A   1      31.542  27.981  26.424  1.00  0.00     0.020 A 
ATOM     18  C   UNL A   1      31.422  27.875  27.910  1.00  0.00     0.065 C 
BRANCH  10  19
ATOM     19  O   UNL A   1      33.588  26.359  21.163  1.00  0.00    -0.497 OA
ATOM     20  C   UNL A   1      32.758  25.197  21.059  1.00  0.00     0.278 C 
ENDBRANCH  10  19
BRANCH  16  21
ATOM     21  C   UNL A   1      32.358  30.348  26.311  1.00  0.00     0.157 C 
BRANCH  21  22
ATOM     22  C   UNL A   1      33.630  30.385  27.141  1.00  0.00    -0.028 A 
ATOM     23  C   UNL A   1      34.094  31.600  27.673  1.00  0.00     0.007 A 
ATOM     24  C   UNL A   1      34.464  29.259  27.198  1.00  0.00     0.007 A 
ATOM     25  C   UNL A   1      35.394  31.713  28.163  1.00  0.00     0.016 A 
ATOM     26  C   UNL A   1      35.752  29.361  27.727  1.00  0.00     0.016 A 
ATOM     27  C   UNL A   1      36.218  30.593  28.182  1.00  0.00     0.017 A 
ATOM     28  Br  UNL A   1      37.997  30.754  28.800  1.00  0.00    -0.051 Br
ENDBRANCH  21  22
ENDBRANCH  16  21
ENDBRANCH   8   9
ENDBRANCH   6   8
ENDBRANCH   5   6
ENDBRANCH   4   5
ENDBRANCH   3   4
ENDBRANCH   2   3
ENDBRANCH   1   2
BRANCH   1  29
ATOM     29  C   UNL A   1      36.056  22.919  24.350  1.00  0.00     0.188 C 
BRANCH  29  30
ATOM     30  O   UNL A   1      37.343  22.345  24.356  1.00  0.00    -0.376 OA
BRANCH  30  31
ATOM     31  C   UNL A   1      37.696  21.615  25.516  1.00  0.00     0.202 C 
BRANCH  31  32
ATOM     32  C   UNL A   1      39.106  21.880  26.080  1.00  0.00     0.261 C 
BRANCH  32  33
ATOM     33  O   UNL A   1      39.287  23.279  26.423  1.00  0.00    -0.460 OA
BRANCH  33  34
ATOM     34  C   UNL A   1      40.544  23.616  26.843  1.00  0.00     0.338 C 
ATOM     35  O   UNL A   1      41.575  23.322  26.270  1.00  0.00    -0.246 OA
BRANCH  34  36
ATOM     36  C   UNL A   1      40.436  24.711  27.865  1.00  0.00     0.060 A 
ATOM     37  C   UNL A   1      39.278  25.437  28.163  1.00  0.00     0.016 A 
ATOM     38  C   UNL A   1      41.652  25.168  28.370  1.00  0.00     0.016 A 
ATOM     39  C   UNL A   1      39.363  26.650  28.894  1.00  0.00     0.010 A 
ATOM     40  C   UNL A   1      41.746  26.402  29.017  1.00  0.00     0.010 A 
ATOM     41  C   UNL A   1      40.607  27.172  29.282  1.00  0.00    -0.014 A 
BRANCH  41  42
ATOM     42  C   UNL A   1      40.809  28.334  30.175  1.00  0.00     0.031 A 
ATOM     43  C   UNL A   1      41.915  29.206  29.781  1.00  0.00     0.074 A 
ATOM     44  C   UNL A   1      40.158  28.757  31.281  1.00  0.00     0.049 A 
ATOM     45  N   UNL A   1      43.064  29.150  30.361  1.00  0.00    -0.248 NA
ATOM     46  C   UNL A   1      41.834  30.108  28.642  1.00  0.00     0.031 C 
ATOM     47  C   UNL A   1      39.226  28.006  32.076  1.00  0.00     0.029 A 
ATOM     48  N   UNL A   1      40.185  29.973  31.935  1.00  0.00    -0.354 N 
ATOM     49  C   UNL A   1      43.826  30.144  29.792  1.00  0.00     0.074 A 
ATOM     50  C   UNL A   1      43.081  30.588  28.632  1.00  0.00     0.031 C 
ATOM     51  C   UNL A   1      38.586  28.809  32.955  1.00  0.00     0.029 A 
ATOM     52  C   UNL A   1      39.164  30.144  32.871  1.00  0.00     0.049 A 
ATOM     53  H   UNL A   1      40.866  30.661  31.756  1.00  0.00     0.167 HD
ATOM     54  C   UNL A   1      44.924  30.621  30.440  1.00  0.00     0.034 A 
ATOM     55  C   UNL A   1      39.068  30.973  33.943  1.00  0.00     0.034 A 
ATOM     56  C   UNL A   1      45.246  29.824  31.604  1.00  0.00     0.049 A 
ATOM     57  C   UNL A   1      40.439  31.172  34.458  1.00  0.00     0.074 A 
ATOM     58  C   UNL A   1      45.622  28.511  31.803  1.00  0.00     0.029 A 
ATOM     59  N   UNL A   1      44.841  30.287  32.836  1.00  0.00    -0.354 N 
ATOM     60  N   UNL A   1      41.115  30.260  35.102  1.00  0.00    -0.248 NA
ATOM     61  C   UNL A   1      41.230  32.254  33.898  1.00  0.00     0.031 C 
ATOM     62  C   UNL A   1      45.028  28.126  33.039  1.00  0.00     0.029 A 
ATOM     63  C   UNL A   1      44.349  29.229  33.563  1.00  0.00     0.049 A 
ATOM     64  H   UNL A   1      44.896  31.220  33.144  1.00  0.00     0.167 HD
ATOM     65  C   UNL A   1      42.407  30.379  34.610  1.00  0.00     0.074 A 
ATOM     66  C   UNL A   1      42.440  31.696  33.978  1.00  0.00     0.031 C 
ATOM     67  C   UNL A   1      43.257  29.310  34.528  1.00  0.00     0.034 A 
BRANCH  54  68
ATOM     68  C   UNL A   1      45.554  31.949  30.157  1.00  0.00     0.023 A 
ATOM     69  C   UNL A   1      46.650  32.101  29.292  1.00  0.00     0.031 A 
ATOM     70  C   UNL A   1      44.970  33.135  30.638  1.00  0.00     0.131 A 
ATOM     71  C   UNL A   1      47.171  33.361  28.985  1.00  0.00     0.055 A 
ATOM     72  C   UNL A   1      45.443  34.399  30.273  1.00  0.00     0.041 A 
ATOM     73  F   UNL A   1      43.899  33.102  31.446  1.00  0.00    -0.206 F 
ATOM     74  C   UNL A   1      46.558  34.518  29.452  1.00  0.00     0.022 A 
BRANCH  71  75
ATOM     75  S   UNL A   1      48.677  33.500  27.987  1.00  0.00     0.124 S 
ATOM     76  O   UNL A   1      49.246  34.749  28.479  1.00  0.00    -0.237 OA
ATOM     77  O   UNL A   1      49.396  32.283  28.358  1.00  0.00    -0.237 OA
ATOM     78  O   UNL A   1      48.177  33.525  26.615  1.00  0.00    -0.744 OA
ENDBRANCH  71  75
ENDBRANCH  54  68
BRANCH  55  79
ATOM     79  C   UNL A   1      37.978  31.977  34.095  1.00  0.00     0.023 A 
ATOM     80  C   UNL A   1      37.183  32.376  33.001  1.00  0.00     0.031 A 
ATOM     81  C   UNL A   1      37.756  32.635  35.317  1.00  0.00     0.131 A 
ATOM     82  C   UNL A   1      36.223  33.393  33.141  1.00  0.00     0.055 A 
ATOM     83  C   UNL A   1      36.795  33.647  35.458  1.00  0.00     0.041 A 
ATOM     84  F   UNL A   1      38.478  32.316  36.403  1.00  0.00    -0.206 F 
ATOM     85  C   UNL A   1      36.023  34.031  34.366  1.00  0.00     0.022 A 
BRANCH  82  86
ATOM     86  S   UNL A   1      35.201  33.915  31.731  1.00  0.00     0.124 S 
ATOM     87  O   UNL A   1      36.170  33.942  30.637  1.00  0.00    -0.237 OA
ATOM     88  O   UNL A   1      34.209  32.849  31.666  1.00  0.00    -0.237 OA
ATOM     89  O   UNL A   1      34.701  35.226  32.130  1.00  0.00    -0.744 OA
ENDBRANCH  82  86
ENDBRANCH  55  79
BRANCH  67  90
ATOM     90  C   UNL A   1      42.919  28.007  35.248  1.00  0.00     0.023 A 
ATOM     91  C   UNL A   1      43.610  27.710  36.438  1.00  0.00     0.031 A 
ATOM     92  C   UNL A   1      42.168  26.963  34.681  1.00  0.00     0.131 A 
ATOM     93  C   UNL A   1      43.609  26.407  36.961  1.00  0.00     0.055 A 
ATOM     94  C   UNL A   1      42.126  25.675  35.228  1.00  0.00     0.041 A 
ATOM     95  F   UNL A   1      41.507  27.128  33.536  1.00  0.00    -0.206 F 
ATOM     96  C   UNL A   1      42.871  25.383  36.362  1.00  0.00     0.022 A 
BRANCH  93  97
ATOM     97  S   UNL A   1      44.688  25.965  38.347  1.00  0.00     0.124 S 
ATOM     98  O   UNL A   1      44.595  24.507  38.360  1.00  0.00    -0.237 OA
ATOM     99  O   UNL A   1      45.978  26.504  37.920  1.00  0.00    -0.237 OA
ATOM    100  O   UNL A   1      44.086  26.637  39.494  1.00  0.00    -0.744 OA
ENDBRANCH  93  97
ENDBRANCH  67  90
ENDBRANCH  41  42
ENDBRANCH  34  36
ENDBRANCH  33  34
ENDBRANCH  32  33
ENDBRANCH  31  32
ENDBRANCH  30  31
ENDBRANCH  29  30
ENDBRANCH   1  29
TORSDOF 24
ENDMDL
MODEL 2
REMARK VINA RESULT:      -9.5      5.407      8.185
REMARK SMILES COc1ccc2c(c1)c(CC(=O)OCCOCCOCCOC(=O)c1ccc(-c3c4nc(c(-c5cc(S(=O)(=O)[O-])ccc5F)c5ccc([nH]5)c(-c5cc(S(=O)(=O)[O-])ccc5F)c5nc(c(-c6cc(S(=O)(=O)[O-])ccc6F)c6ccc3[nH]6)C=C5)C=C4)cc1)c(C)n2Cc1ccc(Br)cc1
REMARK SMILES IDX 17 1 16 2 15 3 14 4 13 5 11 6 12 7 10 8 9 9 3 10 4 11 8 12
REMARK SMILES IDX 5 13 7 14 6 15 90 16 88 17 89 18 2 19 1 20 91 21 92 22 93 23
REMARK SMILES IDX 98 24 94 25 97 26 95 27 96 28 18 29 19 30 20 31 21 32 22 33
REMARK SMILES IDX 23 34 24 35 25 36 26 37 87 38 27 39 86 40 28 41 29 42 30 43
REMARK SMILES IDX 80 44 31 45 85 46 79 47 81 48 32 49 84 50 78 51 77 52 33 54
REMARK SMILES IDX 65 55 45 56 64 57 46 58 49 59 63 60 82 61 47 62 48 63 62 65
REMARK SMILES IDX 83 66 50 67 34 68 35 69 43 70 36 71 42 72 44 73 41 74 37 75
REMARK SMILES IDX 38 76 39 77 40 78 66 79 67 80 75 81 68 82 74 83 76 84 73 85
REMARK SMILES IDX 69 86 70 87 71 88 72 89 51 90 52 91 60 92 53 93 59 94 61 95
REMARK SMILES IDX 58 96 54 97 55 98 56 99 57 100
REMARK H PARENT 81 53 49 64
REMARK Flexibility Score: inf
ROOT
ATOM      1  C   UNL A   1      41.053  25.076  28.197  1.00  0.00     0.188 C 
ENDROOT
BRANCH   1   2
ATOM      2  O   UNL A   1      39.691  24.793  28.450  1.00  0.00    -0.376 OA
BRANCH   2   3
ATOM      3  C   UNL A   1      38.777  24.681  27.375  1.00  0.00     0.202 C 
BRANCH   3   4
ATOM      4  C   UNL A   1      39.160  23.737  26.232  1.00  0.00     0.261 C 
BRANCH   4   5
ATOM      5  O   UNL A   1      39.194  22.337  26.616  1.00  0.00    -0.463 OA
BRANCH   5   6
ATOM      6  C   UNL A   1      38.615  21.509  25.713  1.00  0.00     0.310 C 
ATOM      7  O   UNL A   1      38.985  20.336  25.616  1.00  0.00    -0.252 OA
BRANCH   6   8
ATOM      8  C   UNL A   1      37.362  21.970  24.983  1.00  0.00     0.160 C 
BRANCH   8   9
ATOM      9  C   UNL A   1      35.932  21.889  25.426  1.00  0.00    -0.008 A 
ATOM     10  C   UNL A   1      33.805  18.801  24.473  1.00  0.00     0.119 A 
ATOM     11  C   UNL A   1      32.583  19.310  24.875  1.00  0.00     0.048 A 
ATOM     12  C   UNL A   1      34.978  19.536  24.687  1.00  0.00     0.057 A 
ATOM     13  C   UNL A   1      32.510  20.583  25.453  1.00  0.00     0.031 A 
ATOM     14  C   UNL A   1      34.952  20.838  25.230  1.00  0.00     0.007 A 
ATOM     15  C   UNL A   1      33.694  21.340  25.585  1.00  0.00     0.049 A 
ATOM     16  N   UNL A   1      33.908  22.631  26.020  1.00  0.00    -0.340 N 
ATOM     17  C   UNL A   1      35.167  23.031  25.641  1.00  0.00     0.020 A 
ATOM     18  C   UNL A   1      35.547  24.458  25.411  1.00  0.00     0.065 C 
BRANCH  10  19
ATOM     19  O   UNL A   1      33.929  17.553  23.918  1.00  0.00    -0.497 OA
ATOM     20  C   UNL A   1      33.215  17.418  22.686  1.00  0.00     0.278 C 
ENDBRANCH  10  19
BRANCH  16  21
ATOM     21  C   UNL A   1      32.994  23.438  26.822  1.00  0.00     0.157 C 
BRANCH  21  22
ATOM     22  C   UNL A   1      32.111  24.216  25.862  1.00  0.00    -0.028 A 
ATOM     23  C   UNL A   1      32.255  24.049  24.474  1.00  0.00     0.007 A 
ATOM     24  C   UNL A   1      31.306  25.261  26.337  1.00  0.00     0.007 A 
ATOM     25  C   UNL A   1      31.689  24.960  23.584  1.00  0.00     0.016 A 
ATOM     26  C   UNL A   1      30.702  26.149  25.445  1.00  0.00     0.016 A 
ATOM     27  C   UNL A   1      30.918  26.009  24.076  1.00  0.00     0.017 A 
ATOM     28  Br  UNL A   1      30.189  27.274  22.876  1.00  0.00    -0.051 Br
ENDBRANCH  21  22
ENDBRANCH  16  21
ENDBRANCH   8   9
ENDBRANCH   6   8
ENDBRANCH   5   6
ENDBRANCH   4   5
ENDBRANCH   3   4
ENDBRANCH   2   3
ENDBRANCH   1   2
BRANCH   1  29
ATOM     29  C   UNL A   1      42.148  24.026  28.397  1.00  0.00     0.188 C 
BRANCH  29  30
ATOM     30  O   UNL A   1      42.434  23.072  27.399  1.00  0.00    -0.376 OA
BRANCH  30  31
ATOM     31  C   UNL A   1      42.331  21.714  27.786  1.00  0.00     0.202 C 
BRANCH  31  32
ATOM     32  C   UNL A   1      42.397  20.679  26.646  1.00  0.00     0.261 C 
BRANCH  32  33
ATOM     33  O   UNL A   1      42.681  21.311  25.370  1.00  0.00    -0.460 OA
BRANCH  33  34
ATOM     34  C   UNL A   1      43.919  21.046  24.853  1.00  0.00     0.338 C 
ATOM     35  O   UNL A   1      44.167  20.175  24.042  1.00  0.00    -0.246 OA
BRANCH  34  36
ATOM     36  C   UNL A   1      44.820  22.217  25.127  1.00  0.00     0.060 A 
ATOM     37  C   UNL A   1      45.902  22.223  26.012  1.00  0.00     0.016 A 
ATOM     38  C   UNL A   1      44.374  23.435  24.617  1.00  0.00     0.016 A 
ATOM     39  C   UNL A   1      46.471  23.452  26.437  1.00  0.00     0.010 A 
ATOM     40  C   UNL A   1      44.879  24.645  25.096  1.00  0.00     0.010 A 
ATOM     41  C   UNL A   1      45.928  24.678  26.022  1.00  0.00    -0.014 A 
BRANCH  41  42
ATOM     42  C   UNL A   1      46.527  26.009  26.269  1.00  0.00     0.031 A 
ATOM     43  C   UNL A   1      47.693  26.303  25.438  1.00  0.00     0.074 A 
ATOM     44  C   UNL A   1      46.194  27.017  27.105  1.00  0.00     0.049 A 
ATOM     45  N   UNL A   1      48.895  26.194  25.891  1.00  0.00    -0.248 NA
ATOM     46  C   UNL A   1      47.587  26.624  24.022  1.00  0.00     0.031 C 
ATOM     47  C   UNL A   1      45.293  26.950  28.224  1.00  0.00     0.029 A 
ATOM     48  N   UNL A   1      46.590  28.339  27.128  1.00  0.00    -0.354 N 
ATOM     49  C   UNL A   1      49.723  26.612  24.875  1.00  0.00     0.074 A 
ATOM     50  C   UNL A   1      48.881  26.704  23.700  1.00  0.00     0.031 C 
ATOM     51  C   UNL A   1      45.007  28.189  28.685  1.00  0.00     0.029 A 
ATOM     52  C   UNL A   1      45.819  29.155  27.957  1.00  0.00     0.049 A 
ATOM     53  H   UNL A   1      47.351  28.678  26.604  1.00  0.00     0.167 HD
ATOM     54  C   UNL A   1      50.997  27.007  25.149  1.00  0.00     0.034 A 
ATOM     55  C   UNL A   1      46.096  30.352  28.537  1.00  0.00     0.034 A 
ATOM     56  C   UNL A   1      51.361  26.723  26.521  1.00  0.00     0.049 A 
ATOM     57  C   UNL A   1      47.550  30.378  28.799  1.00  0.00     0.074 A 
ATOM     58  C   UNL A   1      51.492  25.570  27.267  1.00  0.00     0.029 A 
ATOM     59  N   UNL A   1      51.297  27.753  27.432  1.00  0.00    -0.354 N 
ATOM     60  N   UNL A   1      48.134  29.680  29.735  1.00  0.00    -0.248 NA
ATOM     61  C   UNL A   1      48.426  30.867  27.749  1.00  0.00     0.031 C 
ATOM     62  C   UNL A   1      51.074  25.918  28.584  1.00  0.00     0.029 A 
ATOM     63  C   UNL A   1      50.744  27.275  28.597  1.00  0.00     0.049 A 
ATOM     64  H   UNL A   1      51.598  28.678  27.275  1.00  0.00     0.167 HD
ATOM     65  C   UNL A   1      49.308  29.232  29.147  1.00  0.00     0.074 A 
ATOM     66  C   UNL A   1      49.490  30.096  27.982  1.00  0.00     0.031 C 
ATOM     67  C   UNL A   1      49.892  28.045  29.498  1.00  0.00     0.034 A 
BRANCH  54  68
ATOM     68  C   UNL A   1      51.820  27.869  24.244  1.00  0.00     0.023 A 
ATOM     69  C   UNL A   1      51.821  29.272  24.325  1.00  0.00     0.031 A 
ATOM     70  C   UNL A   1      52.753  27.296  23.361  1.00  0.00     0.131 A 
ATOM     71  C   UNL A   1      52.656  30.051  23.520  1.00  0.00     0.055 A 
ATOM     72  C   UNL A   1      53.641  28.071  22.609  1.00  0.00     0.041 A 
ATOM     73  F   UNL A   1      52.855  25.964  23.231  1.00  0.00    -0.206 F 
ATOM     74  C   UNL A   1      53.587  29.458  22.676  1.00  0.00     0.022 A 
BRANCH  71  75
ATOM     75  S   UNL A   1      52.516  31.858  23.550  1.00  0.00     0.124 S 
ATOM     76  O   UNL A   1      51.487  32.060  24.563  1.00  0.00    -0.237 OA
ATOM     77  O   UNL A   1      53.869  32.257  23.927  1.00  0.00    -0.237 OA
ATOM     78  O   UNL A   1      52.135  32.193  22.180  1.00  0.00    -0.744 OA
ENDBRANCH  71  75
ENDBRANCH  54  68
BRANCH  55  79
ATOM     79  C   UNL A   1      45.282  31.576  28.296  1.00  0.00     0.023 A 
ATOM     80  C   UNL A   1      45.103  32.101  26.999  1.00  0.00     0.031 A 
ATOM     81  C   UNL A   1      44.733  32.310  29.362  1.00  0.00     0.131 A 
ATOM     82  C   UNL A   1      44.411  33.309  26.800  1.00  0.00     0.055 A 
ATOM     83  C   UNL A   1      44.039  33.513  29.162  1.00  0.00     0.041 A 
ATOM     84  F   UNL A   1      44.868  31.879  30.626  1.00  0.00    -0.206 F 
ATOM     85  C   UNL A   1      43.877  34.019  27.876  1.00  0.00     0.022 A 
BRANCH  82  86
ATOM     86  S   UNL A   1      44.184  33.992  25.131  1.00  0.00     0.124 S 
ATOM     87  O   UNL A   1      43.730  32.826  24.375  1.00  0.00    -0.237 OA
ATOM     88  O   UNL A   1      43.178  35.022  25.361  1.00  0.00    -0.237 OA
ATOM     89  O   UNL A   1      45.513  34.470  24.766  1.00  0.00    -0.744 OA
ENDBRANCH  82  86
ENDBRANCH  55  79
BRANCH  67  90
ATOM     90  C   UNL A   1      49.436  27.311  30.756  1.00  0.00     0.023 A 
ATOM     91  C   UNL A   1      48.102  26.862  30.813  1.00  0.00     0.031 A 
ATOM     92  C   UNL A   1      50.161  27.282  31.960  1.00  0.00     0.131 A 
ATOM     93  C   UNL A   1      47.522  26.496  32.039  1.00  0.00     0.055 A 
ATOM     94  C   UNL A   1      49.598  26.871  33.175  1.00  0.00     0.041 A 
ATOM     95  F   UNL A   1      51.417  27.721  32.023  1.00  0.00    -0.206 F 
ATOM     96  C   UNL A   1      48.262  26.499  33.224  1.00  0.00     0.022 A 
BRANCH  93  97
ATOM     97  S   UNL A   1      45.747  26.152  32.157  1.00  0.00     0.124 S 
ATOM     98  O   UNL A   1      45.162  27.479  31.979  1.00  0.00    -0.237 OA
ATOM     99  O   UNL A   1      45.538  25.224  31.047  1.00  0.00    -0.237 OA
ATOM    100  O   UNL A   1      45.586  25.574  33.487  1.00  0.00    -0.744 OA
ENDBRANCH  93  97
ENDBRANCH  67  90
ENDBRANCH  41  42
ENDBRANCH  34  36
ENDBRANCH  33  34
ENDBRANCH  32  33
ENDBRANCH  31  32
ENDBRANCH  30  31
ENDBRANCH  29  30
ENDBRANCH   1  29
TORSDOF 24
ENDMDL
MODEL 3
REMARK VINA RESULT:      -9.4      4.153      9.984
REMARK SMILES COc1ccc2c(c1)c(CC(=O)OCCOCCOCCOC(=O)c1ccc(-c3c4nc(c(-c5cc(S(=O)(=O)[O-])ccc5F)c5ccc([nH]5)c(-c5cc(S(=O)(=O)[O-])ccc5F)c5nc(c(-c6cc(S(=O)(=O)[O-])ccc6F)c6ccc3[nH]6)C=C5)C=C4)cc1)c(C)n2Cc1ccc(Br)cc1
REMARK SMILES IDX 17 1 16 2 15 3 14 4 13 5 11 6 12 7 10 8 9 9 3 10 4 11 8 12
REMARK SMILES IDX 5 13 7 14 6 15 90 16 88 17 89 18 2 19 1 20 91 21 92 22 93 23
REMARK SMILES IDX 98 24 94 25 97 26 95 27 96 28 18 29 19 30 20 31 21 32 22 33
REMARK SMILES IDX 23 34 24 35 25 36 26 37 87 38 27 39 86 40 28 41 29 42 30 43
REMARK SMILES IDX 80 44 31 45 85 46 79 47 81 48 32 49 84 50 78 51 77 52 33 54
REMARK SMILES IDX 65 55 45 56 64 57 46 58 49 59 63 60 82 61 47 62 48 63 62 65
REMARK SMILES IDX 83 66 50 67 34 68 35 69 43 70 36 71 42 72 44 73 41 74 37 75
REMARK SMILES IDX 38 76 39 77 40 78 66 79 67 80 75 81 68 82 74 83 76 84 73 85
REMARK SMILES IDX 69 86 70 87 71 88 72 89 51 90 52 91 60 92 53 93 59 94 61 95
REMARK SMILES IDX 58 96 54 97 55 98 56 99 57 100
REMARK H PARENT 81 53 49 64
REMARK Flexibility Score: inf
ROOT
ATOM      1  C   UNL A   1      33.696  30.324  27.260  1.00  0.00     0.188 C 
ENDROOT
BRANCH   1   2
ATOM      2  O   UNL A   1      33.398  30.293  25.878  1.00  0.00    -0.376 OA
BRANCH   2   3
ATOM      3  C   UNL A   1      33.291  29.054  25.202  1.00  0.00     0.202 C 
BRANCH   3   4
ATOM      4  C   UNL A   1      33.288  27.789  26.065  1.00  0.00     0.261 C 
BRANCH   4   5
ATOM      5  O   UNL A   1      32.504  26.702  25.508  1.00  0.00    -0.463 OA
BRANCH   5   6
ATOM      6  C   UNL A   1      31.700  26.089  26.411  1.00  0.00     0.310 C 
ATOM      7  O   UNL A   1      30.991  26.756  27.168  1.00  0.00    -0.252 OA
BRANCH   6   8
ATOM      8  C   UNL A   1      31.514  24.580  26.332  1.00  0.00     0.160 C 
BRANCH   8   9
ATOM      9  C   UNL A   1      32.235  23.588  25.469  1.00  0.00    -0.008 A 
ATOM     10  C   UNL A   1      36.058  23.139  25.854  1.00  0.00     0.119 A 
ATOM     11  C   UNL A   1      36.248  22.354  24.731  1.00  0.00     0.048 A 
ATOM     12  C   UNL A   1      34.767  23.527  26.231  1.00  0.00     0.057 A 
ATOM     13  C   UNL A   1      35.153  21.988  23.940  1.00  0.00     0.031 A 
ATOM     14  C   UNL A   1      33.636  23.216  25.446  1.00  0.00     0.007 A 
ATOM     15  C   UNL A   1      33.870  22.458  24.292  1.00  0.00     0.049 A 
ATOM     16  N   UNL A   1      32.649  22.340  23.661  1.00  0.00    -0.340 N 
ATOM     17  C   UNL A   1      31.773  23.250  24.202  1.00  0.00     0.020 A 
ATOM     18  C   UNL A   1      30.608  23.818  23.457  1.00  0.00     0.065 C 
BRANCH  10  19
ATOM     19  O   UNL A   1      37.096  23.509  26.670  1.00  0.00    -0.497 OA
ATOM     20  C   UNL A   1      38.246  23.953  25.942  1.00  0.00     0.278 C 
ENDBRANCH  10  19
BRANCH  16  21
ATOM     21  C   UNL A   1      32.294  21.362  22.637  1.00  0.00     0.157 C 
BRANCH  21  22
ATOM     22  C   UNL A   1      32.296  19.993  23.295  1.00  0.00    -0.028 A 
ATOM     23  C   UNL A   1      32.373  19.879  24.694  1.00  0.00     0.007 A 
ATOM     24  C   UNL A   1      32.445  18.838  22.514  1.00  0.00     0.007 A 
ATOM     25  C   UNL A   1      32.686  18.660  25.294  1.00  0.00     0.016 A 
ATOM     26  C   UNL A   1      32.717  17.608  23.116  1.00  0.00     0.016 A 
ATOM     27  C   UNL A   1      32.861  17.532  24.500  1.00  0.00     0.017 A 
ATOM     28  Br  UNL A   1      33.333  15.888  25.305  1.00  0.00    -0.051 Br
ENDBRANCH  21  22
ENDBRANCH  16  21
ENDBRANCH   8   9
ENDBRANCH   6   8
ENDBRANCH   5   6
ENDBRANCH   4   5
ENDBRANCH   3   4
ENDBRANCH   2   3
ENDBRANCH   1   2
BRANCH   1  29
ATOM     29  C   UNL A   1      34.551  31.433  27.878  1.00  0.00     0.188 C 
BRANCH  29  30
ATOM     30  O   UNL A   1      34.524  32.745  27.364  1.00  0.00    -0.376 OA
BRANCH  30  31
ATOM     31  C   UNL A   1      34.081  33.755  28.252  1.00  0.00     0.202 C 
BRANCH  31  32
ATOM     32  C   UNL A   1      34.455  33.564  29.735  1.00  0.00     0.261 C 
BRANCH  32  33
ATOM     33  O   UNL A   1      33.501  34.220  30.611  1.00  0.00    -0.460 OA
BRANCH  33  34
ATOM     34  C   UNL A   1      34.054  34.955  31.623  1.00  0.00     0.338 C 
ATOM     35  O   UNL A   1      33.539  35.925  32.145  1.00  0.00    -0.246 OA
BRANCH  34  36
ATOM     36  C   UNL A   1      35.171  34.165  32.243  1.00  0.00     0.060 A 
ATOM     37  C   UNL A   1      35.095  32.829  32.650  1.00  0.00     0.016 A 
ATOM     38  C   UNL A   1      36.277  34.915  32.637  1.00  0.00     0.016 A 
ATOM     39  C   UNL A   1      36.085  32.286  33.510  1.00  0.00     0.010 A 
ATOM     40  C   UNL A   1      37.205  34.408  33.548  1.00  0.00     0.010 A 
ATOM     41  C   UNL A   1      37.122  33.089  34.010  1.00  0.00    -0.014 A 
BRANCH  41  42
ATOM     42  C   UNL A   1      38.289  32.602  34.779  1.00  0.00     0.031 A 
ATOM     43  C   UNL A   1      38.242  32.924  36.205  1.00  0.00     0.074 A 
ATOM     44  C   UNL A   1      39.388  31.900  34.421  1.00  0.00     0.049 A 
ATOM     45  N   UNL A   1      38.913  33.906  36.702  1.00  0.00    -0.248 NA
ATOM     46  C   UNL A   1      37.357  32.238  37.135  1.00  0.00     0.031 C 
ATOM     47  C   UNL A   1      39.869  31.670  33.086  1.00  0.00     0.029 A 
ATOM     48  N   UNL A   1      40.318  31.227  35.187  1.00  0.00    -0.354 N 
ATOM     49  C   UNL A   1      38.690  33.870  38.059  1.00  0.00     0.074 A 
ATOM     50  C   UNL A   1      37.600  32.934  38.249  1.00  0.00     0.031 C 
ATOM     51  C   UNL A   1      40.843  30.732  33.082  1.00  0.00     0.029 A 
ATOM     52  C   UNL A   1      41.151  30.375  34.461  1.00  0.00     0.049 A 
ATOM     53  H   UNL A   1      40.388  31.338  36.163  1.00  0.00     0.167 HD
ATOM     54  C   UNL A   1      39.550  34.492  38.910  1.00  0.00     0.034 A 
ATOM     55  C   UNL A   1      42.376  29.866  34.752  1.00  0.00     0.034 A 
ATOM     56  C   UNL A   1      40.512  35.307  38.198  1.00  0.00     0.049 A 
ATOM     57  C   UNL A   1      43.070  30.864  35.591  1.00  0.00     0.074 A 
ATOM     58  C   UNL A   1      40.423  36.414  37.380  1.00  0.00     0.029 A 
ATOM     59  N   UNL A   1      41.768  34.785  37.986  1.00  0.00    -0.354 N 
ATOM     60  N   UNL A   1      43.540  31.995  35.140  1.00  0.00    -0.248 NA
ATOM     61  C   UNL A   1      42.881  30.799  37.030  1.00  0.00     0.031 C 
ATOM     62  C   UNL A   1      41.455  36.257  36.411  1.00  0.00     0.029 A 
ATOM     63  C   UNL A   1      42.156  35.084  36.701  1.00  0.00     0.049 A 
ATOM     64  H   UNL A   1      42.300  34.282  38.645  1.00  0.00     0.167 HD
ATOM     65  C   UNL A   1      43.236  32.914  36.134  1.00  0.00     0.074 A 
ATOM     66  C   UNL A   1      42.952  32.101  37.314  1.00  0.00     0.031 C 
ATOM     67  C   UNL A   1      42.988  34.231  35.857  1.00  0.00     0.034 A 
BRANCH  54  68
ATOM     68  C   UNL A   1      39.671  34.167  40.366  1.00  0.00     0.023 A 
ATOM     69  C   UNL A   1      40.117  32.919  40.832  1.00  0.00     0.031 A 
ATOM     70  C   UNL A   1      39.480  35.164  41.341  1.00  0.00     0.131 A 
ATOM     71  C   UNL A   1      40.293  32.668  42.195  1.00  0.00     0.055 A 
ATOM     72  C   UNL A   1      39.727  34.936  42.698  1.00  0.00     0.041 A 
ATOM     73  F   UNL A   1      39.083  36.400  40.999  1.00  0.00    -0.206 F 
ATOM     74  C   UNL A   1      40.124  33.678  43.134  1.00  0.00     0.022 A 
BRANCH  71  75
ATOM     75  S   UNL A   1      40.724  31.000  42.760  1.00  0.00     0.124 S 
ATOM     76  O   UNL A   1      40.752  31.174  44.208  1.00  0.00    -0.237 OA
ATOM     77  O   UNL A   1      39.613  30.210  42.236  1.00  0.00    -0.237 OA
ATOM     78  O   UNL A   1      42.013  30.747  42.124  1.00  0.00    -0.744 OA
ENDBRANCH  71  75
ENDBRANCH  54  68
BRANCH  55  79
ATOM     79  C   UNL A   1      42.650  28.403  34.817  1.00  0.00     0.023 A 
ATOM     80  C   UNL A   1      43.526  27.773  33.909  1.00  0.00     0.031 A 
ATOM     81  C   UNL A   1      41.976  27.574  35.730  1.00  0.00     0.131 A 
ATOM     82  C   UNL A   1      43.700  26.379  33.925  1.00  0.00     0.055 A 
ATOM     83  C   UNL A   1      42.153  26.183  35.748  1.00  0.00     0.041 A 
ATOM     84  F   UNL A   1      41.119  28.098  36.622  1.00  0.00    -0.206 F 
ATOM     85  C   UNL A   1      43.018  25.578  34.841  1.00  0.00     0.022 A 
BRANCH  82  86
ATOM     86  S   UNL A   1      44.824  25.563  32.751  1.00  0.00     0.124 S 
ATOM     87  O   UNL A   1      44.287  24.205  32.698  1.00  0.00    -0.237 OA
ATOM     88  O   UNL A   1      44.634  26.361  31.547  1.00  0.00    -0.237 OA
ATOM     89  O   UNL A   1      46.132  25.672  33.388  1.00  0.00    -0.744 OA
ENDBRANCH  82  86
ENDBRANCH  55  79
BRANCH  67  90
ATOM     90  C   UNL A   1      43.326  34.801  34.481  1.00  0.00     0.023 A 
ATOM     91  C   UNL A   1      42.470  34.489  33.407  1.00  0.00     0.031 A 
ATOM     92  C   UNL A   1      44.560  35.388  34.151  1.00  0.00     0.131 A 
ATOM     93  C   UNL A   1      42.888  34.679  32.080  1.00  0.00     0.055 A 
ATOM     94  C   UNL A   1      44.958  35.624  32.829  1.00  0.00     0.041 A 
ATOM     95  F   UNL A   1      45.458  35.687  35.088  1.00  0.00    -0.206 F 
ATOM     96  C   UNL A   1      44.130  35.245  31.783  1.00  0.00     0.022 A 
BRANCH  93  97
ATOM     97  S   UNL A   1      41.895  34.057  30.699  1.00  0.00     0.124 S 
ATOM     98  O   UNL A   1      42.430  34.810  29.568  1.00  0.00    -0.237 OA
ATOM     99  O   UNL A   1      42.214  32.630  30.706  1.00  0.00    -0.237 OA
ATOM    100  O   UNL A   1      40.523  34.385  31.073  1.00  0.00    -0.744 OA
ENDBRANCH  93  97
ENDBRANCH  67  90
ENDBRANCH  41  42
ENDBRANCH  34  36
ENDBRANCH  33  34
ENDBRANCH  32  33
ENDBRANCH  31  32
ENDBRANCH  30  31
ENDBRANCH  29  30
ENDBRANCH   1  29
TORSDOF 24
ENDMDL
