MODEL 1
REMARK VINA RESULT:     -11.1      0.000      0.000
REMARK SMILES O=C(CNC(=O)[C@H]1CC[C@@H](Cn2cnc3ccccc3c2=O)CC1)OCCOCCOCCOC(=O)c1ccc(-c2c3nc(c(-c4cc(S(=O)(=O)[O-])ccc4F)c4ccc([nH]4)c(-c4cc(S(=O)(=O)[O-])ccc4F)c4nc(c(-c5cc(S(=O)(=O)[O-])ccc5F)c5ccc2[nH]5)C=C4)C=C3)cc1
REMARK SMILES IDX 29 1 28 2 27 3 26 4 25 5 2 6 1 7 3 8 4 9 5 10 6 12 7 13
REMARK SMILES IDX 24 14 8 15 23 16 9 17 10 18 11 19 12 20 13 21 21 22 14 23
REMARK SMILES IDX 20 24 22 25 15 26 19 27 16 28 18 29 17 30 30 31 31 32 32 33
REMARK SMILES IDX 33 34 34 35 35 36 36 37 37 38 38 39 99 40 39 41 98 42 40 43
REMARK SMILES IDX 41 44 42 45 92 46 43 47 97 48 91 49 93 50 44 51 96 52 90 53
REMARK SMILES IDX 89 54 45 56 77 57 57 58 76 59 58 60 61 61 75 62 94 63 59 64
REMARK SMILES IDX 60 65 74 67 95 68 62 69 46 70 47 71 55 72 48 73 54 74 56 75
REMARK SMILES IDX 53 76 49 77 50 78 51 79 52 80 78 81 79 82 87 83 80 84 86 85
REMARK SMILES IDX 88 86 85 87 81 88 82 89 83 90 84 91 63 92 64 93 72 94 65 95
REMARK SMILES IDX 71 96 73 97 70 98 66 99 67 100 68 101 69 102
REMARK H PARENT 4 11 93 55 61 66
REMARK Flexibility Score: inf
ROOT
ATOM      1  C   UNL A   1      33.359  29.360  26.361  1.00  0.00     0.188 C 
ENDROOT
BRANCH   1   2
ATOM      2  O   UNL A   1      32.869  28.122  26.857  1.00  0.00    -0.376 OA
BRANCH   2   3
ATOM      3  C   UNL A   1      31.612  27.692  26.358  1.00  0.00     0.202 C 
BRANCH   3   4
ATOM      4  C   UNL A   1      31.257  28.548  25.141  1.00  0.00     0.261 C 
BRANCH   4   5
ATOM      5  O   UNL A   1      30.554  27.807  24.119  1.00  0.00    -0.462 OA
BRANCH   5   6
ATOM      6  C   UNL A   1      30.748  28.079  22.801  1.00  0.00     0.325 C 
ATOM      7  O   UNL A   1      29.799  28.451  22.112  1.00  0.00    -0.250 OA
BRANCH   6   8
ATOM      8  C   UNL A   1      32.158  27.917  22.210  1.00  0.00     0.238 C 
BRANCH   8   9
ATOM      9  N   UNL A   1      32.377  26.693  21.455  1.00  0.00    -0.345 N 
ATOM     10  C   UNL A   1      33.083  25.560  21.654  1.00  0.00     0.223 C 
ATOM     11  H   UNL A   1      31.896  26.689  20.595  1.00  0.00     0.164 HD
ATOM     12  O   UNL A   1      33.025  24.736  20.730  1.00  0.00    -0.275 OA
BRANCH  10  13
ATOM     13  C   UNL A   1      33.897  25.205  22.897  1.00  0.00     0.078 C 
ATOM     14  C   UNL A   1      33.298  25.508  24.266  1.00  0.00     0.014 C 
ATOM     15  C   UNL A   1      34.444  23.783  22.849  1.00  0.00     0.014 C 
ATOM     16  C   UNL A   1      34.324  25.300  25.387  1.00  0.00     0.006 C 
ATOM     17  C   UNL A   1      35.489  23.581  23.954  1.00  0.00     0.006 C 
ATOM     18  C   UNL A   1      34.961  23.898  25.363  1.00  0.00     0.009 C 
BRANCH  18  19
ATOM     19  C   UNL A   1      33.977  22.840  25.899  1.00  0.00     0.130 C 
BRANCH  19  20
ATOM     20  N   UNL A   1      34.217  21.508  25.357  1.00  0.00    -0.298 N 
ATOM     21  C   UNL A   1      35.461  20.935  25.463  1.00  0.00     0.203 A 
ATOM     22  C   UNL A   1      33.145  20.795  24.832  1.00  0.00     0.261 A 
ATOM     23  N   UNL A   1      35.759  19.732  25.111  1.00  0.00    -0.238 NA
ATOM     24  C   UNL A   1      33.444  19.438  24.349  1.00  0.00     0.066 A 
ATOM     25  O   UNL A   1      31.995  21.226  24.803  1.00  0.00    -0.269 OA
ATOM     26  C   UNL A   1      34.732  18.943  24.562  1.00  0.00     0.077 A 
ATOM     27  C   UNL A   1      32.450  18.650  23.767  1.00  0.00     0.016 A 
ATOM     28  C   UNL A   1      34.995  17.612  24.235  1.00  0.00     0.029 A 
ATOM     29  C   UNL A   1      32.724  17.323  23.448  1.00  0.00     0.001 A 
ATOM     30  C   UNL A   1      33.993  16.801  23.692  1.00  0.00     0.002 A 
ENDBRANCH  19  20
ENDBRANCH  18  19
ENDBRANCH  10  13
ENDBRANCH   8   9
ENDBRANCH   6   8
ENDBRANCH   5   6
ENDBRANCH   4   5
ENDBRANCH   3   4
ENDBRANCH   2   3
ENDBRANCH   1   2
BRANCH   1  31
ATOM     31  C   UNL A   1      33.062  30.594  27.214  1.00  0.00     0.188 C 
BRANCH  31  32
ATOM     32  O   UNL A   1      31.859  31.301  26.936  1.00  0.00    -0.376 OA
BRANCH  32  33
ATOM     33  C   UNL A   1      31.901  32.725  26.975  1.00  0.00     0.202 C 
BRANCH  33  34
ATOM     34  C   UNL A   1      32.995  33.331  27.854  1.00  0.00     0.261 C 
BRANCH  34  35
ATOM     35  O   UNL A   1      32.806  34.752  28.004  1.00  0.00    -0.460 OA
BRANCH  35  36
ATOM     36  C   UNL A   1      33.499  35.357  29.000  1.00  0.00     0.338 C 
ATOM     37  O   UNL A   1      33.334  36.481  29.443  1.00  0.00    -0.246 OA
BRANCH  36  38
ATOM     38  C   UNL A   1      34.490  34.398  29.512  1.00  0.00     0.060 A 
ATOM     39  C   UNL A   1      35.757  34.385  28.946  1.00  0.00     0.016 A 
ATOM     40  C   UNL A   1      34.181  33.536  30.569  1.00  0.00     0.016 A 
ATOM     41  C   UNL A   1      36.698  33.468  29.414  1.00  0.00     0.010 A 
ATOM     42  C   UNL A   1      35.152  32.646  31.062  1.00  0.00     0.010 A 
ATOM     43  C   UNL A   1      36.430  32.594  30.491  1.00  0.00    -0.014 A 
BRANCH  43  44
ATOM     44  C   UNL A   1      37.549  31.750  31.034  1.00  0.00     0.031 A 
ATOM     45  C   UNL A   1      38.229  30.654  30.244  1.00  0.00     0.074 A 
ATOM     46  C   UNL A   1      38.023  32.043  32.265  1.00  0.00     0.049 A 
ATOM     47  N   UNL A   1      39.298  29.961  30.563  1.00  0.00    -0.248 NA
ATOM     48  C   UNL A   1      37.660  30.285  28.941  1.00  0.00     0.031 C 
ATOM     49  C   UNL A   1      37.439  33.044  33.160  1.00  0.00     0.029 A 
ATOM     50  N   UNL A   1      39.119  31.586  32.960  1.00  0.00    -0.354 N 
ATOM     51  C   UNL A   1      39.543  29.099  29.497  1.00  0.00     0.074 A 
ATOM     52  C   UNL A   1      38.474  29.312  28.545  1.00  0.00     0.031 C 
ATOM     53  C   UNL A   1      38.239  33.211  34.218  1.00  0.00     0.029 A 
ATOM     54  C   UNL A   1      39.335  32.250  34.148  1.00  0.00     0.049 A 
ATOM     55  H   UNL A   1      39.694  30.853  32.639  1.00  0.00     0.167 HD
ATOM     56  C   UNL A   1      40.585  28.249  29.310  1.00  0.00     0.034 A 
ATOM     57  C   UNL A   1      40.288  32.114  35.093  1.00  0.00     0.034 A 
ATOM     58  C   UNL A   1      41.672  28.066  30.246  1.00  0.00     0.049 A 
ATOM     59  C   UNL A   1      41.381  31.101  34.892  1.00  0.00     0.074 A 
ATOM     60  C   UNL A   1      42.782  27.249  30.105  1.00  0.00     0.029 A 
ATOM     61  N   UNL A   1      41.797  28.688  31.479  1.00  0.00    -0.354 N 
ATOM     62  N   UNL A   1      41.626  30.349  33.847  1.00  0.00    -0.248 NA
ATOM     63  C   UNL A   1      42.330  30.915  35.999  1.00  0.00     0.031 C 
ATOM     64  C   UNL A   1      43.530  27.309  31.279  1.00  0.00     0.029 A 
ATOM     65  C   UNL A   1      42.946  28.242  32.119  1.00  0.00     0.049 A 
ATOM     66  H   UNL A   1      41.165  29.347  31.846  1.00  0.00     0.167 HD
ATOM     67  C   UNL A   1      42.766  29.616  34.162  1.00  0.00     0.074 A 
ATOM     68  C   UNL A   1      43.185  30.044  35.480  1.00  0.00     0.031 C 
ATOM     69  C   UNL A   1      43.395  28.669  33.423  1.00  0.00     0.034 A 
BRANCH  56  70
ATOM     70  C   UNL A   1      40.666  27.445  28.031  1.00  0.00     0.023 A 
ATOM     71  C   UNL A   1      40.420  26.058  28.057  1.00  0.00     0.031 A 
ATOM     72  C   UNL A   1      41.197  28.003  26.855  1.00  0.00     0.131 A 
ATOM     73  C   UNL A   1      40.759  25.267  26.951  1.00  0.00     0.055 A 
ATOM     74  C   UNL A   1      41.490  27.217  25.739  1.00  0.00     0.041 A 
ATOM     75  F   UNL A   1      41.467  29.317  26.786  1.00  0.00    -0.206 F 
ATOM     76  C   UNL A   1      41.288  25.840  25.790  1.00  0.00     0.022 A 
BRANCH  73  77
ATOM     77  S   UNL A   1      40.626  23.458  27.015  1.00  0.00     0.124 S 
ATOM     78  O   UNL A   1      41.486  23.055  25.904  1.00  0.00    -0.237 OA
ATOM     79  O   UNL A   1      41.146  23.159  28.347  1.00  0.00    -0.237 OA
ATOM     80  O   UNL A   1      39.203  23.203  26.821  1.00  0.00    -0.744 OA
ENDBRANCH  73  77
ENDBRANCH  56  70
BRANCH  57  81
ATOM     81  C   UNL A   1      40.245  32.989  36.304  1.00  0.00     0.023 A 
ATOM     82  C   UNL A   1      39.609  32.557  37.481  1.00  0.00     0.031 A 
ATOM     83  C   UNL A   1      40.745  34.301  36.270  1.00  0.00     0.131 A 
ATOM     84  C   UNL A   1      39.399  33.455  38.533  1.00  0.00     0.055 A 
ATOM     85  C   UNL A   1      40.620  35.165  37.360  1.00  0.00     0.041 A 
ATOM     86  F   UNL A   1      41.355  34.767  35.168  1.00  0.00    -0.206 F 
ATOM     87  C   UNL A   1      39.922  34.751  38.491  1.00  0.00     0.022 A 
BRANCH  84  88
ATOM     88  S   UNL A   1      38.302  33.023  39.912  1.00  0.00     0.124 S 
ATOM     89  O   UNL A   1      38.028  34.327  40.506  1.00  0.00    -0.237 OA
ATOM     90  O   UNL A   1      37.180  32.397  39.214  1.00  0.00    -0.237 OA
ATOM     91  O   UNL A   1      39.108  32.116  40.722  1.00  0.00    -0.744 OA
ENDBRANCH  84  88
ENDBRANCH  57  81
BRANCH  69  92
ATOM     92  C   UNL A   1      44.640  28.015  33.982  1.00  0.00     0.023 A 
ATOM     93  C   UNL A   1      44.530  26.866  34.790  1.00  0.00     0.031 A 
ATOM     94  C   UNL A   1      45.911  28.597  33.834  1.00  0.00     0.131 A 
ATOM     95  C   UNL A   1      45.655  26.365  35.454  1.00  0.00     0.055 A 
ATOM     96  C   UNL A   1      47.043  28.056  34.450  1.00  0.00     0.041 A 
ATOM     97  F   UNL A   1      46.075  29.699  33.085  1.00  0.00    -0.206 F 
ATOM     98  C   UNL A   1      46.915  26.946  35.278  1.00  0.00     0.022 A 
BRANCH  95  99
ATOM     99  S   UNL A   1      45.512  25.005  36.646  1.00  0.00     0.124 S 
ATOM    100  O   UNL A   1      44.065  24.902  36.816  1.00  0.00    -0.237 OA
ATOM    101  O   UNL A   1      46.135  23.898  35.925  1.00  0.00    -0.237 OA
ATOM    102  O   UNL A   1      46.243  25.482  37.815  1.00  0.00    -0.744 OA
ENDBRANCH  95  99
ENDBRANCH  69  92
ENDBRANCH  43  44
ENDBRANCH  36  38
ENDBRANCH  35  36
ENDBRANCH  34  35
ENDBRANCH  33  34
ENDBRANCH  32  33
ENDBRANCH  31  32
ENDBRANCH   1  31
TORSDOF 24
ENDMDL
MODEL 2
REMARK VINA RESULT:     -10.9      2.683      3.853
REMARK SMILES O=C(CNC(=O)[C@H]1CC[C@@H](Cn2cnc3ccccc3c2=O)CC1)OCCOCCOCCOC(=O)c1ccc(-c2c3nc(c(-c4cc(S(=O)(=O)[O-])ccc4F)c4ccc([nH]4)c(-c4cc(S(=O)(=O)[O-])ccc4F)c4nc(c(-c5cc(S(=O)(=O)[O-])ccc5F)c5ccc2[nH]5)C=C4)C=C3)cc1
REMARK SMILES IDX 29 1 28 2 27 3 26 4 25 5 2 6 1 7 3 8 4 9 5 10 6 12 7 13
REMARK SMILES IDX 24 14 8 15 23 16 9 17 10 18 11 19 12 20 13 21 21 22 14 23
REMARK SMILES IDX 20 24 22 25 15 26 19 27 16 28 18 29 17 30 30 31 31 32 32 33
REMARK SMILES IDX 33 34 34 35 35 36 36 37 37 38 38 39 99 40 39 41 98 42 40 43
REMARK SMILES IDX 41 44 42 45 92 46 43 47 97 48 91 49 93 50 44 51 96 52 90 53
REMARK SMILES IDX 89 54 45 56 77 57 57 58 76 59 58 60 61 61 75 62 94 63 59 64
REMARK SMILES IDX 60 65 74 67 95 68 62 69 46 70 47 71 55 72 48 73 54 74 56 75
REMARK SMILES IDX 53 76 49 77 50 78 51 79 52 80 78 81 79 82 87 83 80 84 86 85
REMARK SMILES IDX 88 86 85 87 81 88 82 89 83 90 84 91 63 92 64 93 72 94 65 95
REMARK SMILES IDX 71 96 73 97 70 98 66 99 67 100 68 101 69 102
REMARK H PARENT 4 11 93 55 61 66
REMARK Flexibility Score: inf
ROOT
ATOM      1  C   UNL A   1      35.652  32.550  29.109  1.00  0.00     0.188 C 
ENDROOT
BRANCH   1   2
ATOM      2  O   UNL A   1      35.641  31.685  27.982  1.00  0.00    -0.376 OA
BRANCH   2   3
ATOM      3  C   UNL A   1      34.383  31.141  27.612  1.00  0.00     0.202 C 
BRANCH   3   4
ATOM      4  C   UNL A   1      34.583  29.670  27.241  1.00  0.00     0.261 C 
BRANCH   4   5
ATOM      5  O   UNL A   1      33.841  29.283  26.063  1.00  0.00    -0.462 OA
BRANCH   5   6
ATOM      6  C   UNL A   1      32.901  28.303  26.121  1.00  0.00     0.325 C 
ATOM      7  O   UNL A   1      33.229  27.164  26.450  1.00  0.00    -0.250 OA
BRANCH   6   8
ATOM      8  C   UNL A   1      31.442  28.652  25.777  1.00  0.00     0.238 C 
BRANCH   8   9
ATOM      9  N   UNL A   1      31.200  28.996  24.384  1.00  0.00    -0.345 N 
ATOM     10  C   UNL A   1      31.193  28.315  23.219  1.00  0.00     0.223 C 
ATOM     11  H   UNL A   1      30.993  29.951  24.262  1.00  0.00     0.164 HD
ATOM     12  O   UNL A   1      30.955  28.998  22.214  1.00  0.00    -0.275 OA
BRANCH  10  13
ATOM     13  C   UNL A   1      31.416  26.814  23.045  1.00  0.00     0.078 C 
ATOM     14  C   UNL A   1      32.835  26.272  23.170  1.00  0.00     0.014 C 
ATOM     15  C   UNL A   1      30.445  25.980  23.874  1.00  0.00     0.014 C 
ATOM     16  C   UNL A   1      32.915  24.799  22.751  1.00  0.00     0.006 C 
ATOM     17  C   UNL A   1      30.504  24.510  23.438  1.00  0.00     0.006 C 
ATOM     18  C   UNL A   1      31.916  23.906  23.511  1.00  0.00     0.009 C 
BRANCH  18  19
ATOM     19  C   UNL A   1      32.398  23.649  24.952  1.00  0.00     0.130 C 
BRANCH  19  20
ATOM     20  N   UNL A   1      33.493  22.688  25.027  1.00  0.00    -0.298 N 
ATOM     21  C   UNL A   1      33.263  21.360  24.763  1.00  0.00     0.203 A 
ATOM     22  C   UNL A   1      34.780  23.157  25.265  1.00  0.00     0.261 A 
ATOM     23  N   UNL A   1      34.169  20.446  24.702  1.00  0.00    -0.238 NA
ATOM     24  C   UNL A   1      35.846  22.143  25.277  1.00  0.00     0.066 A 
ATOM     25  O   UNL A   1      35.051  24.346  25.412  1.00  0.00    -0.269 OA
ATOM     26  C   UNL A   1      35.500  20.834  24.938  1.00  0.00     0.077 A 
ATOM     27  C   UNL A   1      37.169  22.499  25.545  1.00  0.00     0.016 A 
ATOM     28  C   UNL A   1      36.519  19.888  24.811  1.00  0.00     0.029 A 
ATOM     29  C   UNL A   1      38.176  21.547  25.413  1.00  0.00     0.001 A 
ATOM     30  C   UNL A   1      37.853  20.246  25.035  1.00  0.00     0.002 A 
ENDBRANCH  19  20
ENDBRANCH  18  19
ENDBRANCH  10  13
ENDBRANCH   8   9
ENDBRANCH   6   8
ENDBRANCH   5   6
ENDBRANCH   4   5
ENDBRANCH   3   4
ENDBRANCH   2   3
ENDBRANCH   1   2
BRANCH   1  31
ATOM     31  C   UNL A   1      34.442  33.474  29.262  1.00  0.00     0.188 C 
BRANCH  31  32
ATOM     32  O   UNL A   1      34.690  34.875  29.256  1.00  0.00    -0.376 OA
BRANCH  32  33
ATOM     33  C   UNL A   1      33.639  35.733  28.820  1.00  0.00     0.202 C 
BRANCH  33  34
ATOM     34  C   UNL A   1      32.594  36.089  29.877  1.00  0.00     0.261 C 
BRANCH  34  35
ATOM     35  O   UNL A   1      33.201  36.771  30.992  1.00  0.00    -0.460 OA
BRANCH  35  36
ATOM     36  C   UNL A   1      32.916  36.291  32.228  1.00  0.00     0.338 C 
ATOM     37  O   UNL A   1      31.943  36.548  32.917  1.00  0.00    -0.246 OA
BRANCH  36  38
ATOM     38  C   UNL A   1      33.977  35.347  32.606  1.00  0.00     0.060 A 
ATOM     39  C   UNL A   1      35.300  35.738  32.453  1.00  0.00     0.016 A 
ATOM     40  C   UNL A   1      33.671  34.090  33.139  1.00  0.00     0.016 A 
ATOM     41  C   UNL A   1      36.315  34.843  32.793  1.00  0.00     0.010 A 
ATOM     42  C   UNL A   1      34.702  33.213  33.519  1.00  0.00     0.010 A 
ATOM     43  C   UNL A   1      36.045  33.573  33.351  1.00  0.00    -0.014 A 
BRANCH  43  44
ATOM     44  C   UNL A   1      37.196  32.735  33.834  1.00  0.00     0.031 A 
ATOM     45  C   UNL A   1      37.775  31.578  33.050  1.00  0.00     0.074 A 
ATOM     46  C   UNL A   1      37.794  33.089  34.993  1.00  0.00     0.049 A 
ATOM     47  N   UNL A   1      38.858  30.880  33.306  1.00  0.00    -0.248 NA
ATOM     48  C   UNL A   1      37.074  31.147  31.833  1.00  0.00     0.031 C 
ATOM     49  C   UNL A   1      37.319  34.155  35.877  1.00  0.00     0.029 A 
ATOM     50  N   UNL A   1      38.944  32.648  35.605  1.00  0.00    -0.354 N 
ATOM     51  C   UNL A   1      38.982  29.951  32.277  1.00  0.00     0.074 A 
ATOM     52  C   UNL A   1      37.828  30.133  31.421  1.00  0.00     0.031 C 
ATOM     53  C   UNL A   1      38.221  34.365  36.840  1.00  0.00     0.029 A 
ATOM     54  C   UNL A   1      39.288  33.376  36.723  1.00  0.00     0.049 A 
ATOM     55  H   UNL A   1      39.471  31.883  35.276  1.00  0.00     0.167 HD
ATOM     56  C   UNL A   1      39.984  29.067  32.042  1.00  0.00     0.034 A 
ATOM     57  C   UNL A   1      40.326  33.273  37.579  1.00  0.00     0.034 A 
ATOM     58  C   UNL A   1      41.154  28.913  32.877  1.00  0.00     0.049 A 
ATOM     59  C   UNL A   1      41.376  32.224  37.336  1.00  0.00     0.074 A 
ATOM     60  C   UNL A   1      42.230  28.062  32.680  1.00  0.00     0.029 A 
ATOM     61  N   UNL A   1      41.411  29.603  34.053  1.00  0.00    -0.354 N 
ATOM     62  N   UNL A   1      41.503  31.405  36.320  1.00  0.00    -0.248 NA
ATOM     63  C   UNL A   1      42.425  32.081  38.354  1.00  0.00     0.031 C 
ATOM     64  C   UNL A   1      43.090  28.174  33.771  1.00  0.00     0.029 A 
ATOM     65  C   UNL A   1      42.609  29.168  34.605  1.00  0.00     0.049 A 
ATOM     66  H   UNL A   1      40.830  30.298  34.438  1.00  0.00     0.167 HD
ATOM     67  C   UNL A   1      42.655  30.666  36.567  1.00  0.00     0.074 A 
ATOM     68  C   UNL A   1      43.209  31.160  37.809  1.00  0.00     0.031 C 
ATOM     69  C   UNL A   1      43.191  29.661  35.831  1.00  0.00     0.034 A 
BRANCH  56  70
ATOM     70  C   UNL A   1      39.925  28.187  30.813  1.00  0.00     0.023 A 
ATOM     71  C   UNL A   1      40.604  28.572  29.640  1.00  0.00     0.031 A 
ATOM     72  C   UNL A   1      39.030  27.105  30.737  1.00  0.00     0.131 A 
ATOM     73  C   UNL A   1      40.335  27.919  28.430  1.00  0.00     0.055 A 
ATOM     74  C   UNL A   1      38.800  26.427  29.537  1.00  0.00     0.041 A 
ATOM     75  F   UNL A   1      38.344  26.710  31.822  1.00  0.00    -0.206 F 
ATOM     76  C   UNL A   1      39.440  26.845  28.373  1.00  0.00     0.022 A 
BRANCH  73  77
ATOM     77  S   UNL A   1      41.051  28.503  26.868  1.00  0.00     0.124 S 
ATOM     78  O   UNL A   1      39.962  29.309  26.320  1.00  0.00    -0.237 OA
ATOM     79  O   UNL A   1      42.215  29.257  27.327  1.00  0.00    -0.237 OA
ATOM     80  O   UNL A   1      41.343  27.276  26.135  1.00  0.00    -0.744 OA
ENDBRANCH  73  77
ENDBRANCH  56  70
BRANCH  57  81
ATOM     81  C   UNL A   1      40.419  34.219  38.732  1.00  0.00     0.023 A 
ATOM     82  C   UNL A   1      41.091  35.448  38.601  1.00  0.00     0.031 A 
ATOM     83  C   UNL A   1      39.931  33.869  40.002  1.00  0.00     0.131 A 
ATOM     84  C   UNL A   1      41.346  36.230  39.733  1.00  0.00     0.055 A 
ATOM     85  C   UNL A   1      40.102  34.699  41.111  1.00  0.00     0.041 A 
ATOM     86  F   UNL A   1      39.288  32.705  40.183  1.00  0.00    -0.206 F 
ATOM     87  C   UNL A   1      40.834  35.876  40.985  1.00  0.00     0.022 A 
BRANCH  84  88
ATOM     88  S   UNL A   1      42.486  37.639  39.644  1.00  0.00     0.124 S 
ATOM     89  O   UNL A   1      41.587  38.772  39.834  1.00  0.00    -0.237 OA
ATOM     90  O   UNL A   1      43.393  37.357  40.754  1.00  0.00    -0.237 OA
ATOM     91  O   UNL A   1      43.079  37.519  38.316  1.00  0.00    -0.744 OA
ENDBRANCH  84  88
ENDBRANCH  57  81
BRANCH  69  92
ATOM     92  C   UNL A   1      44.473  29.011  36.305  1.00  0.00     0.023 A 
ATOM     93  C   UNL A   1      44.422  27.931  37.207  1.00  0.00     0.031 A 
ATOM     94  C   UNL A   1      45.735  29.539  35.980  1.00  0.00     0.131 A 
ATOM     95  C   UNL A   1      45.600  27.445  37.788  1.00  0.00     0.055 A 
ATOM     96  C   UNL A   1      46.913  29.011  36.514  1.00  0.00     0.041 A 
ATOM     97  F   UNL A   1      45.844  30.576  35.134  1.00  0.00    -0.206 F 
ATOM     98  C   UNL A   1      46.847  27.970  37.435  1.00  0.00     0.022 A 
BRANCH  95  99
ATOM     99  S   UNL A   1      45.553  26.184  39.091  1.00  0.00     0.124 S 
ATOM    100  O   UNL A   1      45.500  24.948  38.314  1.00  0.00    -0.237 OA
ATOM    101  O   UNL A   1      46.809  26.423  39.796  1.00  0.00    -0.237 OA
ATOM    102  O   UNL A   1      44.342  26.498  39.841  1.00  0.00    -0.744 OA
ENDBRANCH  95  99
ENDBRANCH  69  92
ENDBRANCH  43  44
ENDBRANCH  36  38
ENDBRANCH  35  36
ENDBRANCH  34  35
ENDBRANCH  33  34
ENDBRANCH  32  33
ENDBRANCH  31  32
ENDBRANCH   1  31
TORSDOF 24
ENDMDL
MODEL 3
REMARK VINA RESULT:     -10.6      4.498      5.377
REMARK SMILES O=C(CNC(=O)[C@H]1CC[C@@H](Cn2cnc3ccccc3c2=O)CC1)OCCOCCOCCOC(=O)c1ccc(-c2c3nc(c(-c4cc(S(=O)(=O)[O-])ccc4F)c4ccc([nH]4)c(-c4cc(S(=O)(=O)[O-])ccc4F)c4nc(c(-c5cc(S(=O)(=O)[O-])ccc5F)c5ccc2[nH]5)C=C4)C=C3)cc1
REMARK SMILES IDX 29 1 28 2 27 3 26 4 25 5 2 6 1 7 3 8 4 9 5 10 6 12 7 13
REMARK SMILES IDX 24 14 8 15 23 16 9 17 10 18 11 19 12 20 13 21 21 22 14 23
REMARK SMILES IDX 20 24 22 25 15 26 19 27 16 28 18 29 17 30 30 31 31 32 32 33
REMARK SMILES IDX 33 34 34 35 35 36 36 37 37 38 38 39 99 40 39 41 98 42 40 43
REMARK SMILES IDX 41 44 42 45 92 46 43 47 97 48 91 49 93 50 44 51 96 52 90 53
REMARK SMILES IDX 89 54 45 56 77 57 57 58 76 59 58 60 61 61 75 62 94 63 59 64
REMARK SMILES IDX 60 65 74 67 95 68 62 69 46 70 47 71 55 72 48 73 54 74 56 75
REMARK SMILES IDX 53 76 49 77 50 78 51 79 52 80 78 81 79 82 87 83 80 84 86 85
REMARK SMILES IDX 88 86 85 87 81 88 82 89 83 90 84 91 63 92 64 93 72 94 65 95
REMARK SMILES IDX 71 96 73 97 70 98 66 99 67 100 68 101 69 102
REMARK H PARENT 4 11 93 55 61 66
REMARK Flexibility Score: inf
ROOT
ATOM      1  C   UNL A   1      34.346  33.815  28.648  1.00  0.00     0.188 C 
ENDROOT
BRANCH   1   2
ATOM      2  O   UNL A   1      33.997  32.623  27.959  1.00  0.00    -0.376 OA
BRANCH   2   3
ATOM      3  C   UNL A   1      34.988  31.608  27.906  1.00  0.00     0.202 C 
BRANCH   3   4
ATOM      4  C   UNL A   1      34.370  30.361  27.272  1.00  0.00     0.261 C 
BRANCH   4   5
ATOM      5  O   UNL A   1      33.166  30.649  26.525  1.00  0.00    -0.462 OA
BRANCH   5   6
ATOM      6  C   UNL A   1      32.728  29.805  25.555  1.00  0.00     0.325 C 
ATOM      7  O   UNL A   1      33.543  29.166  24.890  1.00  0.00    -0.250 OA
BRANCH   6   8
ATOM      8  C   UNL A   1      31.214  29.667  25.319  1.00  0.00     0.238 C 
BRANCH   8   9
ATOM      9  N   UNL A   1      30.823  29.400  23.943  1.00  0.00    -0.345 N 
ATOM     10  C   UNL A   1      30.505  28.294  23.237  1.00  0.00     0.223 C 
ATOM     11  H   UNL A   1      30.782  30.218  23.397  1.00  0.00     0.164 HD
ATOM     12  O   UNL A   1      30.243  28.492  22.043  1.00  0.00    -0.275 OA
BRANCH  10  13
ATOM     13  C   UNL A   1      30.413  26.869  23.778  1.00  0.00     0.078 C 
ATOM     14  C   UNL A   1      30.876  25.723  22.885  1.00  0.00     0.014 C 
ATOM     15  C   UNL A   1      31.006  26.736  25.177  1.00  0.00     0.014 C 
ATOM     16  C   UNL A   1      30.512  24.359  23.484  1.00  0.00     0.006 C 
ATOM     17  C   UNL A   1      30.621  25.383  25.788  1.00  0.00     0.006 C 
ATOM     18  C   UNL A   1      31.032  24.180  24.923  1.00  0.00     0.009 C 
BRANCH  18  19
ATOM     19  C   UNL A   1      32.550  23.914  24.927  1.00  0.00     0.130 C 
BRANCH  19  20
ATOM     20  N   UNL A   1      32.882  22.494  24.954  1.00  0.00    -0.298 N 
ATOM     21  C   UNL A   1      31.884  21.552  24.910  1.00  0.00     0.203 A 
ATOM     22  C   UNL A   1      34.221  22.119  24.920  1.00  0.00     0.261 A 
ATOM     23  N   UNL A   1      32.065  20.279  24.829  1.00  0.00    -0.238 NA
ATOM     24  C   UNL A   1      34.487  20.672  24.897  1.00  0.00     0.066 A 
ATOM     25  O   UNL A   1      35.148  22.923  24.862  1.00  0.00    -0.269 OA
ATOM     26  C   UNL A   1      33.391  19.812  24.796  1.00  0.00     0.077 A 
ATOM     27  C   UNL A   1      35.795  20.185  24.901  1.00  0.00     0.016 A 
ATOM     28  C   UNL A   1      33.631  18.447  24.636  1.00  0.00     0.029 A 
ATOM     29  C   UNL A   1      36.020  18.821  24.739  1.00  0.00     0.001 A 
ATOM     30  C   UNL A   1      34.939  17.954  24.595  1.00  0.00     0.002 A 
ENDBRANCH  19  20
ENDBRANCH  18  19
ENDBRANCH  10  13
ENDBRANCH   8   9
ENDBRANCH   6   8
ENDBRANCH   5   6
ENDBRANCH   4   5
ENDBRANCH   3   4
ENDBRANCH   2   3
ENDBRANCH   1   2
BRANCH   1  31
ATOM     31  C   UNL A   1      33.253  34.880  28.750  1.00  0.00     0.188 C 
BRANCH  31  32
ATOM     32  O   UNL A   1      32.527  34.950  29.972  1.00  0.00    -0.376 OA
BRANCH  32  33
ATOM     33  C   UNL A   1      32.837  36.014  30.868  1.00  0.00     0.202 C 
BRANCH  33  34
ATOM     34  C   UNL A   1      32.763  35.669  32.355  1.00  0.00     0.261 C 
BRANCH  34  35
ATOM     35  O   UNL A   1      34.007  35.106  32.816  1.00  0.00    -0.460 OA
BRANCH  35  36
ATOM     36  C   UNL A   1      34.053  33.758  32.949  1.00  0.00     0.338 C 
ATOM     37  O   UNL A   1      33.135  33.009  33.238  1.00  0.00    -0.246 OA
BRANCH  36  38
ATOM     38  C   UNL A   1      35.421  33.317  32.639  1.00  0.00     0.060 A 
ATOM     39  C   UNL A   1      36.085  33.909  31.574  1.00  0.00     0.016 A 
ATOM     40  C   UNL A   1      36.060  32.344  33.416  1.00  0.00     0.016 A 
ATOM     41  C   UNL A   1      37.377  33.486  31.261  1.00  0.00     0.010 A 
ATOM     42  C   UNL A   1      37.379  31.958  33.118  1.00  0.00     0.010 A 
ATOM     43  C   UNL A   1      38.063  32.520  32.033  1.00  0.00    -0.014 A 
BRANCH  43  44
ATOM     44  C   UNL A   1      39.505  32.236  31.722  1.00  0.00     0.031 A 
ATOM     45  C   UNL A   1      39.963  31.091  30.846  1.00  0.00     0.074 A 
ATOM     46  C   UNL A   1      40.435  33.101  32.187  1.00  0.00     0.049 A 
ATOM     47  N   UNL A   1      41.171  30.840  30.396  1.00  0.00    -0.248 NA
ATOM     48  C   UNL A   1      38.960  30.110  30.410  1.00  0.00     0.031 C 
ATOM     49  C   UNL A   1      40.146  34.225  33.079  1.00  0.00     0.029 A 
ATOM     50  N   UNL A   1      41.783  33.218  31.943  1.00  0.00    -0.354 N 
ATOM     51  C   UNL A   1      41.070  29.696  29.609  1.00  0.00     0.074 A 
ATOM     52  C   UNL A   1      39.691  29.264  29.691  1.00  0.00     0.031 C 
ATOM     53  C   UNL A   1      41.242  34.978  33.209  1.00  0.00     0.029 A 
ATOM     54  C   UNL A   1      42.351  34.337  32.510  1.00  0.00     0.049 A 
ATOM     55  H   UNL A   1      42.295  32.562  31.413  1.00  0.00     0.167 HD
ATOM     56  C   UNL A   1      42.023  29.094  28.855  1.00  0.00     0.034 A 
ATOM     57  C   UNL A   1      43.615  34.809  32.496  1.00  0.00     0.034 A 
ATOM     58  C   UNL A   1      43.391  29.549  28.744  1.00  0.00     0.049 A 
ATOM     59  C   UNL A   1      44.666  34.068  31.718  1.00  0.00     0.074 A 
ATOM     60  C   UNL A   1      44.404  29.009  27.967  1.00  0.00     0.029 A 
ATOM     61  N   UNL A   1      43.945  30.630  29.414  1.00  0.00    -0.354 N 
ATOM     62  N   UNL A   1      44.529  33.029  30.930  1.00  0.00    -0.248 NA
ATOM     63  C   UNL A   1      46.047  34.560  31.823  1.00  0.00     0.031 C 
ATOM     64  C   UNL A   1      45.583  29.705  28.229  1.00  0.00     0.029 A 
ATOM     65  C   UNL A   1      45.291  30.745  29.093  1.00  0.00     0.049 A 
ATOM     66  H   UNL A   1      43.456  31.226  30.027  1.00  0.00     0.167 HD
ATOM     67  C   UNL A   1      45.800  32.757  30.432  1.00  0.00     0.074 A 
ATOM     68  C   UNL A   1      46.685  33.763  30.977  1.00  0.00     0.031 C 
ATOM     69  C   UNL A   1      46.189  31.753  29.607  1.00  0.00     0.034 A 
BRANCH  56  70
ATOM     70  C   UNL A   1      41.660  27.878  28.031  1.00  0.00     0.023 A 
ATOM     71  C   UNL A   1      41.996  26.590  28.494  1.00  0.00     0.031 A 
ATOM     72  C   UNL A   1      41.192  28.008  26.711  1.00  0.00     0.131 A 
ATOM     73  C   UNL A   1      41.915  25.492  27.626  1.00  0.00     0.055 A 
ATOM     74  C   UNL A   1      41.070  26.903  25.865  1.00  0.00     0.041 A 
ATOM     75  F   UNL A   1      40.876  29.215  26.216  1.00  0.00    -0.206 F 
ATOM     76  C   UNL A   1      41.450  25.641  26.315  1.00  0.00     0.022 A 
BRANCH  73  77
ATOM     77  S   UNL A   1      42.511  23.853  28.128  1.00  0.00     0.124 S 
ATOM     78  O   UNL A   1      41.271  23.082  28.168  1.00  0.00    -0.237 OA
ATOM     79  O   UNL A   1      43.423  23.512  27.040  1.00  0.00    -0.237 OA
ATOM     80  O   UNL A   1      43.136  24.089  29.425  1.00  0.00    -0.744 OA
ENDBRANCH  73  77
ENDBRANCH  56  70
BRANCH  57  81
ATOM     81  C   UNL A   1      43.932  36.069  33.236  1.00  0.00     0.023 A 
ATOM     82  C   UNL A   1      44.215  36.042  34.613  1.00  0.00     0.031 A 
ATOM     83  C   UNL A   1      43.856  37.321  32.604  1.00  0.00     0.131 A 
ATOM     84  C   UNL A   1      44.310  37.239  35.331  1.00  0.00     0.055 A 
ATOM     85  C   UNL A   1      44.049  38.513  33.306  1.00  0.00     0.041 A 
ATOM     86  F   UNL A   1      43.582  37.404  31.293  1.00  0.00    -0.206 F 
ATOM     87  C   UNL A   1      44.253  38.476  34.683  1.00  0.00     0.022 A 
BRANCH  84  88
ATOM     88  S   UNL A   1      44.344  37.227  37.145  1.00  0.00     0.124 S 
ATOM     89  O   UNL A   1      44.029  38.615  37.466  1.00  0.00    -0.237 OA
ATOM     90  O   UNL A   1      43.300  36.253  37.456  1.00  0.00    -0.237 OA
ATOM     91  O   UNL A   1      45.703  36.798  37.462  1.00  0.00    -0.744 OA
ENDBRANCH  84  88
ENDBRANCH  57  81
BRANCH  69  92
ATOM     92  C   UNL A   1      47.641  31.672  29.191  1.00  0.00     0.023 A 
ATOM     93  C   UNL A   1      48.128  32.509  28.167  1.00  0.00     0.031 A 
ATOM     94  C   UNL A   1      48.503  30.685  29.700  1.00  0.00     0.131 A 
ATOM     95  C   UNL A   1      49.417  32.315  27.655  1.00  0.00     0.055 A 
ATOM     96  C   UNL A   1      49.810  30.535  29.227  1.00  0.00     0.041 A 
ATOM     97  F   UNL A   1      48.090  29.852  30.668  1.00  0.00    -0.206 F 
ATOM     98  C   UNL A   1      50.266  31.341  28.189  1.00  0.00     0.022 A 
BRANCH  95  99
ATOM     99  S   UNL A   1      50.004  33.250  26.215  1.00  0.00     0.124 S 
ATOM    100  O   UNL A   1      48.758  33.522  25.502  1.00  0.00    -0.237 OA
ATOM    101  O   UNL A   1      50.631  34.411  26.839  1.00  0.00    -0.237 OA
ATOM    102  O   UNL A   1      50.915  32.328  25.545  1.00  0.00    -0.744 OA
ENDBRANCH  95  99
ENDBRANCH  69  92
ENDBRANCH  43  44
ENDBRANCH  36  38
ENDBRANCH  35  36
ENDBRANCH  34  35
ENDBRANCH  33  34
ENDBRANCH  32  33
ENDBRANCH  31  32
ENDBRANCH   1  31
TORSDOF 24
ENDMDL
