MODEL 1
REMARK VINA RESULT:     -10.6      0.000      0.000
REMARK SMILES O=C(OCCOCCOCCOC(=O)[C@@H]1C=C[C@@H](NC(=O)[C@@H]2CCSC2)C1)c1ccc(-c2c3nc(c(-c4cc(S(=O)(=O)[O-])ccc4F)c4ccc([nH]4)c(-c4cc(S(=O)(=O)[O-])ccc4F)c4nc(c(-c5cc(S(=O)(=O)[O-])ccc5F)c5ccc2[nH]5)C=C4)C=C3)cc1
REMARK SMILES IDX 7 1 6 2 5 3 4 4 3 5 2 6 1 7 28 8 29 9 90 10 30 11 89 12
REMARK SMILES IDX 31 13 32 14 33 15 83 16 34 17 88 18 82 19 84 20 35 21 87 22
REMARK SMILES IDX 81 23 80 24 36 26 68 27 48 28 67 29 49 30 52 31 66 32 85 33
REMARK SMILES IDX 50 34 51 35 65 37 86 38 53 39 37 40 38 41 46 42 39 43 45 44
REMARK SMILES IDX 47 45 44 46 40 47 41 48 42 49 43 50 69 51 70 52 78 53 71 54
REMARK SMILES IDX 77 55 79 56 76 57 72 58 73 59 74 60 75 61 54 62 55 63 63 64
REMARK SMILES IDX 56 65 62 66 64 67 61 68 57 69 58 70 59 71 60 72 8 73 9 74
REMARK SMILES IDX 10 75 11 76 12 77 13 78 14 79 15 80 16 81 27 82 17 83 18 84
REMARK SMILES IDX 19 85 20 86 21 88 22 89 23 90 26 91 24 92 25 93
REMARK H PARENT 84 25 52 36 19 87
REMARK Flexibility Score: inf
ROOT
ATOM      1  C   UNL A   1      36.978  22.480  23.583  1.00  0.00     0.188 C 
ENDROOT
BRANCH   1   2
ATOM      2  O   UNL A   1      37.158  21.175  24.127  1.00  0.00    -0.376 OA
BRANCH   2   3
ATOM      3  C   UNL A   1      37.960  21.098  25.297  1.00  0.00     0.202 C 
BRANCH   3   4
ATOM      4  C   UNL A   1      38.680  19.770  25.625  1.00  0.00     0.261 C 
BRANCH   4   5
ATOM      5  O   UNL A   1      40.130  19.691  25.514  1.00  0.00    -0.460 OA
BRANCH   5   6
ATOM      6  C   UNL A   1      41.184  20.042  26.296  1.00  0.00     0.338 C 
ATOM      7  O   UNL A   1      41.930  19.156  26.709  1.00  0.00    -0.246 OA
BRANCH   6   8
ATOM      8  C   UNL A   1      41.404  21.429  26.791  1.00  0.00     0.060 A 
ATOM      9  C   UNL A   1      41.079  22.526  26.035  1.00  0.00     0.016 A 
ATOM     10  C   UNL A   1      41.966  21.672  28.065  1.00  0.00     0.016 A 
ATOM     11  C   UNL A   1      41.157  23.793  26.578  1.00  0.00     0.010 A 
ATOM     12  C   UNL A   1      42.013  22.976  28.627  1.00  0.00     0.010 A 
ATOM     13  C   UNL A   1      41.505  24.059  27.914  1.00  0.00    -0.014 A 
BRANCH  13  14
ATOM     14  C   UNL A   1      41.604  25.522  28.309  1.00  0.00     0.031 A 
ATOM     15  C   UNL A   1      43.063  26.085  27.839  1.00  0.00     0.074 A 
ATOM     16  C   UNL A   1      40.461  26.379  28.797  1.00  0.00     0.049 A 
ATOM     17  N   UNL A   1      43.563  27.299  27.894  1.00  0.00    -0.248 NA
ATOM     18  C   UNL A   1      43.989  25.135  27.181  1.00  0.00     0.031 C 
ATOM     19  C   UNL A   1      39.220  25.904  28.946  1.00  0.00     0.029 A 
ATOM     20  N   UNL A   1      40.340  28.320  29.008  1.00  0.00    -0.354 N 
ATOM     21  C   UNL A   1      44.796  27.271  27.248  1.00  0.00     0.074 A 
ATOM     22  C   UNL A   1      44.998  25.911  26.815  1.00  0.00     0.031 C 
ATOM     23  C   UNL A   1      39.057  26.882  29.740  1.00  0.00     0.029 A 
ATOM     24  C   UNL A   1      39.615  28.836  29.812  1.00  0.00     0.049 A 
ATOM     25  H   UNL A   1      40.896  28.895  28.433  1.00  0.00     0.167 HD
ATOM     26  C   UNL A   1      45.678  28.279  27.030  1.00  0.00     0.034 A 
ATOM     27  C   UNL A   1      39.511  30.063  30.506  1.00  0.00     0.034 A 
ATOM     28  C   UNL A   1      45.493  29.634  27.495  1.00  0.00     0.049 A 
ATOM     29  C   UNL A   1      40.613  31.033  30.226  1.00  0.00     0.074 A 
ATOM     30  C   UNL A   1      46.372  30.697  27.365  1.00  0.00     0.029 A 
ATOM     31  N   UNL A   1      44.389  30.117  28.196  1.00  0.00    -0.354 N 
ATOM     32  N   UNL A   1      41.740  30.811  29.592  1.00  0.00    -0.248 NA
ATOM     33  C   UNL A   1      40.435  32.390  30.738  1.00  0.00     0.031 C 
ATOM     34  C   UNL A   1      45.865  31.776  28.087  1.00  0.00     0.029 A 
ATOM     35  C   UNL A   1      44.601  31.445  28.550  1.00  0.00     0.049 A 
ATOM     36  H   UNL A   1      43.582  29.596  28.410  1.00  0.00     0.167 HD
ATOM     37  C   UNL A   1      42.424  32.014  29.645  1.00  0.00     0.074 A 
ATOM     38  C   UNL A   1      41.533  32.968  30.284  1.00  0.00     0.031 C 
ATOM     39  C   UNL A   1      43.681  32.315  29.241  1.00  0.00     0.034 A 
BRANCH  26  40
ATOM     40  C   UNL A   1      46.999  27.920  26.369  1.00  0.00     0.023 A 
ATOM     41  C   UNL A   1      47.244  28.092  24.993  1.00  0.00     0.031 A 
ATOM     42  C   UNL A   1      48.022  27.340  27.146  1.00  0.00     0.131 A 
ATOM     43  C   UNL A   1      48.438  27.606  24.430  1.00  0.00     0.055 A 
ATOM     44  C   UNL A   1      49.244  26.950  26.596  1.00  0.00     0.041 A 
ATOM     45  F   UNL A   1      47.841  27.125  28.458  1.00  0.00    -0.206 F 
ATOM     46  C   UNL A   1      49.450  27.063  25.226  1.00  0.00     0.022 A 
BRANCH  43  47
ATOM     47  S   UNL A   1      48.571  27.489  22.620  1.00  0.00     0.124 S 
ATOM     48  O   UNL A   1      48.471  26.046  22.409  1.00  0.00    -0.237 OA
ATOM     49  O   UNL A   1      47.436  28.282  22.167  1.00  0.00    -0.237 OA
ATOM     50  O   UNL A   1      49.887  28.059  22.336  1.00  0.00    -0.744 OA
ENDBRANCH  43  47
ENDBRANCH  26  40
BRANCH  27  51
ATOM     51  C   UNL A   1      38.338  30.510  31.429  1.00  0.00     0.023 A 
ATOM     52  C   UNL A   1      38.649  30.606  32.806  1.00  0.00     0.031 A 
ATOM     53  C   UNL A   1      37.198  31.231  30.987  1.00  0.00     0.131 A 
ATOM     54  C   UNL A   1      37.941  31.485  33.644  1.00  0.00     0.055 A 
ATOM     55  C   UNL A   1      36.554  32.169  31.812  1.00  0.00     0.041 A 
ATOM     56  F   UNL A   1      36.794  31.195  29.708  1.00  0.00    -0.206 F 
ATOM     57  C   UNL A   1      36.941  32.316  33.139  1.00  0.00     0.022 A 
BRANCH  54  58
ATOM     58  S   UNL A   1      38.348  31.533  35.407  1.00  0.00     0.124 S 
ATOM     59  O   UNL A   1      39.648  32.198  35.398  1.00  0.00    -0.237 OA
ATOM     60  O   UNL A   1      37.244  32.301  35.971  1.00  0.00    -0.237 OA
ATOM     61  O   UNL A   1      38.382  30.121  35.783  1.00  0.00    -0.744 OA
ENDBRANCH  54  58
ENDBRANCH  27  51
BRANCH  39  62
ATOM     62  C   UNL A   1      44.117  33.728  29.529  1.00  0.00     0.023 A 
ATOM     63  C   UNL A   1      43.934  34.744  28.576  1.00  0.00     0.031 A 
ATOM     64  C   UNL A   1      44.781  34.040  30.725  1.00  0.00     0.131 A 
ATOM     65  C   UNL A   1      44.490  36.006  28.798  1.00  0.00     0.055 A 
ATOM     66  C   UNL A   1      45.246  35.329  30.982  1.00  0.00     0.041 A 
ATOM     67  F   UNL A   1      45.000  33.096  31.655  1.00  0.00    -0.206 F 
ATOM     68  C   UNL A   1      45.119  36.316  30.007  1.00  0.00     0.022 A 
BRANCH  65  69
ATOM     69  S   UNL A   1      44.519  37.180  27.419  1.00  0.00     0.124 S 
ATOM     70  O   UNL A   1      45.716  36.760  26.697  1.00  0.00    -0.237 OA
ATOM     71  O   UNL A   1      43.248  36.914  26.754  1.00  0.00    -0.237 OA
ATOM     72  O   UNL A   1      44.615  38.480  28.080  1.00  0.00    -0.744 OA
ENDBRANCH  65  69
ENDBRANCH  39  62
ENDBRANCH  13  14
ENDBRANCH   6   8
ENDBRANCH   5   6
ENDBRANCH   4   5
ENDBRANCH   3   4
ENDBRANCH   2   3
ENDBRANCH   1   2
BRANCH   1  73
ATOM     73  C   UNL A   1      36.618  23.579  24.580  1.00  0.00     0.188 C 
BRANCH  73  74
ATOM     74  O   UNL A   1      35.306  24.135  24.528  1.00  0.00    -0.376 OA
BRANCH  74  75
ATOM     75  C   UNL A   1      34.645  24.435  25.753  1.00  0.00     0.202 C 
BRANCH  75  76
ATOM     76  C   UNL A   1      34.469  23.308  26.770  1.00  0.00     0.261 C 
BRANCH  76  77
ATOM     77  O   UNL A   1      33.225  22.658  26.625  1.00  0.00    -0.463 OA
BRANCH  77  78
ATOM     78  C   UNL A   1      33.223  21.524  25.874  1.00  0.00     0.312 C 
ATOM     79  O   UNL A   1      34.134  20.712  25.787  1.00  0.00    -0.252 OA
BRANCH  78  80
ATOM     80  C   UNL A   1      31.932  21.467  25.092  1.00  0.00     0.124 C 
ATOM     81  C   UNL A   1      32.379  20.786  23.849  1.00  0.00    -0.014 C 
ATOM     82  C   UNL A   1      31.423  22.841  24.573  1.00  0.00     0.048 C 
ATOM     83  C   UNL A   1      32.683  21.686  22.903  1.00  0.00    -0.006 C 
ATOM     84  C   UNL A   1      32.191  23.102  23.195  1.00  0.00     0.106 C 
BRANCH  84  85
ATOM     85  N   UNL A   1      32.522  24.171  21.972  1.00  0.00    -0.350 N 
ATOM     86  C   UNL A   1      32.797  25.611  21.611  1.00  0.00     0.224 C 
ATOM     87  H   UNL A   1      32.550  23.653  21.135  1.00  0.00     0.164 HD
ATOM     88  O   UNL A   1      33.077  25.704  20.393  1.00  0.00    -0.275 OA
BRANCH  86  89
ATOM     89  C   UNL A   1      32.783  27.282  22.522  1.00  0.00     0.089 C 
ATOM     90  C   UNL A   1      33.919  28.182  24.269  1.00  0.00     0.025 C 
ATOM     91  C   UNL A   1      30.984  26.592  23.414  1.00  0.00     0.083 C 
ATOM     92  C   UNL A   1      33.011  27.634  26.156  1.00  0.00     0.070 C 
ATOM     93  S   UNL A   1      30.714  26.377  25.874  1.00  0.00    -0.161 SA
ENDBRANCH  86  89
ENDBRANCH  84  85
ENDBRANCH  78  80
ENDBRANCH  77  78
ENDBRANCH  76  77
ENDBRANCH  75  76
ENDBRANCH  74  75
ENDBRANCH  73  74
ENDBRANCH   1  73
TORSDOF 22
ENDMDL
MODEL 2
REMARK VINA RESULT:     -10.6      4.620     10.716
REMARK SMILES O=C(OCCOCCOCCOC(=O)[C@@H]1C=C[C@@H](NC(=O)[C@@H]2CCSC2)C1)c1ccc(-c2c3nc(c(-c4cc(S(=O)(=O)[O-])ccc4F)c4ccc([nH]4)c(-c4cc(S(=O)(=O)[O-])ccc4F)c4nc(c(-c5cc(S(=O)(=O)[O-])ccc5F)c5ccc2[nH]5)C=C4)C=C3)cc1
REMARK SMILES IDX 7 1 6 2 5 3 4 4 3 5 2 6 1 7 28 8 29 9 90 10 30 11 89 12
REMARK SMILES IDX 31 13 32 14 33 15 83 16 34 17 88 18 82 19 84 20 35 21 87 22
REMARK SMILES IDX 81 23 80 24 36 26 68 27 48 28 67 29 49 30 52 31 66 32 85 33
REMARK SMILES IDX 50 34 51 35 65 37 86 38 53 39 37 40 38 41 46 42 39 43 45 44
REMARK SMILES IDX 47 45 44 46 40 47 41 48 42 49 43 50 69 51 70 52 78 53 71 54
REMARK SMILES IDX 77 55 79 56 76 57 72 58 73 59 74 60 75 61 54 62 55 63 63 64
REMARK SMILES IDX 56 65 62 66 64 67 61 68 57 69 58 70 59 71 60 72 8 73 9 74
REMARK SMILES IDX 10 75 11 76 12 77 13 78 14 79 15 80 16 81 27 82 17 83 18 84
REMARK SMILES IDX 19 85 20 86 21 88 22 89 23 90 26 91 24 92 25 93
REMARK H PARENT 84 25 52 36 19 87
REMARK Flexibility Score: inf
ROOT
ATOM      1  C   UNL A   1      32.144  28.742  25.620  1.00  0.00     0.188 C 
ENDROOT
BRANCH   1   2
ATOM      2  O   UNL A   1      32.684  30.057  25.724  1.00  0.00    -0.376 OA
BRANCH   2   3
ATOM      3  C   UNL A   1      32.244  30.821  26.838  1.00  0.00     0.202 C 
BRANCH   3   4
ATOM      4  C   UNL A   1      31.789  32.281  26.612  1.00  0.00     0.261 C 
BRANCH   4   5
ATOM      5  O   UNL A   1      31.968  33.262  27.674  1.00  0.00    -0.460 OA
BRANCH   5   6
ATOM      6  C   UNL A   1      33.010  33.978  28.170  1.00  0.00     0.338 C 
ATOM      7  O   UNL A   1      32.944  35.206  28.145  1.00  0.00    -0.246 OA
BRANCH   6   8
ATOM      8  C   UNL A   1      34.287  33.355  28.616  1.00  0.00     0.060 A 
ATOM      9  C   UNL A   1      34.307  32.257  29.437  1.00  0.00     0.016 A 
ATOM     10  C   UNL A   1      35.537  33.877  28.212  1.00  0.00     0.016 A 
ATOM     11  C   UNL A   1      35.497  31.615  29.712  1.00  0.00     0.010 A 
ATOM     12  C   UNL A   1      36.754  33.192  28.473  1.00  0.00     0.010 A 
ATOM     13  C   UNL A   1      36.736  31.976  29.152  1.00  0.00    -0.014 A 
BRANCH  13  14
ATOM     14  C   UNL A   1      37.947  31.194  29.629  1.00  0.00     0.031 A 
ATOM     15  C   UNL A   1      38.262  31.621  31.172  1.00  0.00     0.074 A 
ATOM     16  C   UNL A   1      38.579  30.029  28.906  1.00  0.00     0.049 A 
ATOM     17  N   UNL A   1      39.154  31.157  32.018  1.00  0.00    -0.248 NA
ATOM     18  C   UNL A   1      37.394  32.648  31.794  1.00  0.00     0.031 C 
ATOM     19  C   UNL A   1      38.124  29.578  27.733  1.00  0.00     0.029 A 
ATOM     20  N   UNL A   1      39.891  28.719  29.531  1.00  0.00    -0.354 N 
ATOM     21  C   UNL A   1      38.925  31.772  33.245  1.00  0.00     0.074 A 
ATOM     22  C   UNL A   1      37.816  32.671  33.049  1.00  0.00     0.031 C 
ATOM     23  C   UNL A   1      39.284  29.083  27.595  1.00  0.00     0.029 A 
ATOM     24  C   UNL A   1      40.652  28.166  28.787  1.00  0.00     0.049 A 
ATOM     25  H   UNL A   1      39.929  28.506  30.492  1.00  0.00     0.167 HD
ATOM     26  C   UNL A   1      39.571  31.605  34.428  1.00  0.00     0.034 A 
ATOM     27  C   UNL A   1      41.902  27.509  28.853  1.00  0.00     0.034 A 
ATOM     28  C   UNL A   1      40.706  30.731  34.616  1.00  0.00     0.049 A 
ATOM     29  C   UNL A   1      42.528  27.491  30.209  1.00  0.00     0.074 A 
ATOM     30  C   UNL A   1      41.451  30.555  35.770  1.00  0.00     0.029 A 
ATOM     31  N   UNL A   1      41.283  29.915  33.644  1.00  0.00    -0.354 N 
ATOM     32  N   UNL A   1      42.166  28.171  31.272  1.00  0.00    -0.248 NA
ATOM     33  C   UNL A   1      43.701  26.637  30.378  1.00  0.00     0.031 C 
ATOM     34  C   UNL A   1      42.541  29.740  35.468  1.00  0.00     0.029 A 
ATOM     35  C   UNL A   1      42.406  29.284  34.167  1.00  0.00     0.049 A 
ATOM     36  H   UNL A   1      40.946  29.803  32.726  1.00  0.00     0.167 HD
ATOM     37  C   UNL A   1      43.092  27.834  32.246  1.00  0.00     0.074 A 
ATOM     38  C   UNL A   1      43.955  26.821  31.661  1.00  0.00     0.031 C 
ATOM     39  C   UNL A   1      43.252  28.326  33.497  1.00  0.00     0.034 A 
BRANCH  26  40
ATOM     40  C   UNL A   1      39.149  32.495  35.585  1.00  0.00     0.023 A 
ATOM     41  C   UNL A   1      39.546  33.841  35.706  1.00  0.00     0.031 A 
ATOM     42  C   UNL A   1      38.365  31.951  36.621  1.00  0.00     0.131 A 
ATOM     43  C   UNL A   1      39.233  34.559  36.875  1.00  0.00     0.055 A 
ATOM     44  C   UNL A   1      37.975  32.700  37.732  1.00  0.00     0.041 A 
ATOM     45  F   UNL A   1      37.976  30.667  36.579  1.00  0.00    -0.206 F 
ATOM     46  C   UNL A   1      38.428  34.007  37.875  1.00  0.00     0.022 A 
BRANCH  43  47
ATOM     47  S   UNL A   1      40.068  36.145  37.181  1.00  0.00     0.124 S 
ATOM     48  O   UNL A   1      41.399  35.703  37.593  1.00  0.00    -0.237 OA
ATOM     49  O   UNL A   1      39.986  36.803  35.884  1.00  0.00    -0.237 OA
ATOM     50  O   UNL A   1      39.269  36.753  38.243  1.00  0.00    -0.744 OA
ENDBRANCH  43  47
ENDBRANCH  26  40
BRANCH  27  51
ATOM     51  C   UNL A   1      42.610  26.745  27.693  1.00  0.00     0.023 A 
ATOM     52  C   UNL A   1      42.319  25.362  27.607  1.00  0.00     0.031 A 
ATOM     53  C   UNL A   1      43.116  27.358  26.517  1.00  0.00     0.131 A 
ATOM     54  C   UNL A   1      42.396  24.687  26.378  1.00  0.00     0.055 A 
ATOM     55  C   UNL A   1      43.107  26.695  25.279  1.00  0.00     0.041 A 
ATOM     56  F   UNL A   1      43.450  28.657  26.489  1.00  0.00    -0.206 F 
ATOM     57  C   UNL A   1      42.723  25.361  25.202  1.00  0.00     0.022 A 
BRANCH  54  58
ATOM     58  S   UNL A   1      42.059  22.909  26.333  1.00  0.00     0.124 S 
ATOM     59  O   UNL A   1      40.604  22.875  26.445  1.00  0.00    -0.237 OA
ATOM     60  O   UNL A   1      42.606  22.511  25.041  1.00  0.00    -0.237 OA
ATOM     61  O   UNL A   1      42.778  22.400  27.500  1.00  0.00    -0.744 OA
ENDBRANCH  54  58
ENDBRANCH  27  51
BRANCH  39  62
ATOM     62  C   UNL A   1      44.428  27.764  34.252  1.00  0.00     0.023 A 
ATOM     63  C   UNL A   1      44.341  26.514  34.888  1.00  0.00     0.031 A 
ATOM     64  C   UNL A   1      45.607  28.511  34.397  1.00  0.00     0.131 A 
ATOM     65  C   UNL A   1      45.383  26.088  35.716  1.00  0.00     0.055 A 
ATOM     66  C   UNL A   1      46.682  28.033  35.144  1.00  0.00     0.041 A 
ATOM     67  F   UNL A   1      45.726  29.721  33.827  1.00  0.00    -0.206 F 
ATOM     68  C   UNL A   1      46.566  26.823  35.824  1.00  0.00     0.022 A 
BRANCH  65  69
ATOM     69  S   UNL A   1      45.099  24.641  36.768  1.00  0.00     0.124 S 
ATOM     70  O   UNL A   1      43.820  24.153  36.261  1.00  0.00    -0.237 OA
ATOM     71  O   UNL A   1      46.259  23.807  36.475  1.00  0.00    -0.237 OA
ATOM     72  O   UNL A   1      45.060  25.203  38.116  1.00  0.00    -0.744 OA
ENDBRANCH  65  69
ENDBRANCH  39  62
ENDBRANCH  13  14
ENDBRANCH   6   8
ENDBRANCH   5   6
ENDBRANCH   4   5
ENDBRANCH   3   4
ENDBRANCH   2   3
ENDBRANCH   1   2
BRANCH   1  73
ATOM     73  C   UNL A   1      32.332  28.045  24.276  1.00  0.00     0.188 C 
BRANCH  73  74
ATOM     74  O   UNL A   1      33.520  27.284  24.070  1.00  0.00    -0.376 OA
BRANCH  74  75
ATOM     75  C   UNL A   1      33.483  25.882  24.316  1.00  0.00     0.202 C 
BRANCH  75  76
ATOM     76  C   UNL A   1      34.426  24.987  23.513  1.00  0.00     0.261 C 
BRANCH  76  77
ATOM     77  O   UNL A   1      34.787  23.827  24.231  1.00  0.00    -0.463 OA
BRANCH  77  78
ATOM     78  C   UNL A   1      36.035  23.341  23.999  1.00  0.00     0.312 C 
ATOM     79  O   UNL A   1      36.619  23.325  22.924  1.00  0.00    -0.252 OA
BRANCH  78  80
ATOM     80  C   UNL A   1      36.564  22.742  25.281  1.00  0.00     0.124 C 
ATOM     81  C   UNL A   1      37.716  21.952  24.775  1.00  0.00    -0.014 C 
ATOM     82  C   UNL A   1      35.651  21.658  25.920  1.00  0.00     0.048 C 
ATOM     83  C   UNL A   1      37.356  20.678  24.561  1.00  0.00    -0.006 C 
ATOM     84  C   UNL A   1      36.018  20.287  25.184  1.00  0.00     0.106 C 
BRANCH  84  85
ATOM     85  N   UNL A   1      35.639  18.688  24.959  1.00  0.00    -0.350 N 
ATOM     86  C   UNL A   1      34.657  17.709  24.362  1.00  0.00     0.224 C 
ATOM     87  H   UNL A   1      36.346  18.160  25.394  1.00  0.00     0.164 HD
ATOM     88  O   UNL A   1      35.077  16.536  24.505  1.00  0.00    -0.275 OA
BRANCH  86  89
ATOM     89  C   UNL A   1      32.961  17.814  23.505  1.00  0.00     0.089 C 
ATOM     90  C   UNL A   1      32.193  18.631  21.531  1.00  0.00     0.025 C 
ATOM     91  C   UNL A   1      32.552  19.384  24.874  1.00  0.00     0.083 C 
ATOM     92  C   UNL A   1      31.772  20.749  21.674  1.00  0.00     0.070 C 
ATOM     93  S   UNL A   1      31.958  21.679  24.131  1.00  0.00    -0.161 SA
ENDBRANCH  86  89
ENDBRANCH  84  85
ENDBRANCH  78  80
ENDBRANCH  77  78
ENDBRANCH  76  77
ENDBRANCH  75  76
ENDBRANCH  74  75
ENDBRANCH  73  74
ENDBRANCH   1  73
TORSDOF 22
ENDMDL
MODEL 3
REMARK VINA RESULT:     -10.4      2.032      2.290
REMARK SMILES O=C(OCCOCCOCCOC(=O)[C@@H]1C=C[C@@H](NC(=O)[C@@H]2CCSC2)C1)c1ccc(-c2c3nc(c(-c4cc(S(=O)(=O)[O-])ccc4F)c4ccc([nH]4)c(-c4cc(S(=O)(=O)[O-])ccc4F)c4nc(c(-c5cc(S(=O)(=O)[O-])ccc5F)c5ccc2[nH]5)C=C4)C=C3)cc1
REMARK SMILES IDX 7 1 6 2 5 3 4 4 3 5 2 6 1 7 28 8 29 9 90 10 30 11 89 12
REMARK SMILES IDX 31 13 32 14 33 15 83 16 34 17 88 18 82 19 84 20 35 21 87 22
REMARK SMILES IDX 81 23 80 24 36 26 68 27 48 28 67 29 49 30 52 31 66 32 85 33
REMARK SMILES IDX 50 34 51 35 65 37 86 38 53 39 37 40 38 41 46 42 39 43 45 44
REMARK SMILES IDX 47 45 44 46 40 47 41 48 42 49 43 50 69 51 70 52 78 53 71 54
REMARK SMILES IDX 77 55 79 56 76 57 72 58 73 59 74 60 75 61 54 62 55 63 63 64
REMARK SMILES IDX 56 65 62 66 64 67 61 68 57 69 58 70 59 71 60 72 8 73 9 74
REMARK SMILES IDX 10 75 11 76 12 77 13 78 14 79 15 80 16 81 27 82 17 83 18 84
REMARK SMILES IDX 19 85 20 86 21 88 22 89 23 90 26 91 24 92 25 93
REMARK H PARENT 84 25 52 36 19 87
REMARK Flexibility Score: inf
ROOT
ATOM      1  C   UNL A   1      36.729  22.451  23.690  1.00  0.00     0.188 C 
ENDROOT
BRANCH   1   2
ATOM      2  O   UNL A   1      37.054  21.129  24.110  1.00  0.00    -0.376 OA
BRANCH   2   3
ATOM      3  C   UNL A   1      37.956  21.031  25.204  1.00  0.00     0.202 C 
BRANCH   3   4
ATOM      4  C   UNL A   1      38.626  19.671  25.504  1.00  0.00     0.261 C 
BRANCH   4   5
ATOM      5  O   UNL A   1      40.075  19.548  25.419  1.00  0.00    -0.460 OA
BRANCH   5   6
ATOM      6  C   UNL A   1      41.123  19.832  26.236  1.00  0.00     0.338 C 
ATOM      7  O   UNL A   1      41.770  18.897  26.706  1.00  0.00    -0.246 OA
BRANCH   6   8
ATOM      8  C   UNL A   1      41.443  21.209  26.701  1.00  0.00     0.060 A 
ATOM      9  C   UNL A   1      41.298  22.300  25.883  1.00  0.00     0.016 A 
ATOM     10  C   UNL A   1      41.918  21.448  28.011  1.00  0.00     0.016 A 
ATOM     11  C   UNL A   1      41.462  23.574  26.387  1.00  0.00     0.010 A 
ATOM     12  C   UNL A   1      42.053  22.764  28.531  1.00  0.00     0.010 A 
ATOM     13  C   UNL A   1      41.722  23.861  27.740  1.00  0.00    -0.014 A 
BRANCH  13  14
ATOM     14  C   UNL A   1      41.938  25.322  28.092  1.00  0.00     0.031 A 
ATOM     15  C   UNL A   1      43.430  25.757  27.590  1.00  0.00     0.074 A 
ATOM     16  C   UNL A   1      40.872  26.278  28.568  1.00  0.00     0.049 A 
ATOM     17  N   UNL A   1      44.023  26.929  27.605  1.00  0.00    -0.248 NA
ATOM     18  C   UNL A   1      44.271  24.721  26.949  1.00  0.00     0.031 C 
ATOM     19  C   UNL A   1      39.600  25.905  28.745  1.00  0.00     0.029 A 
ATOM     20  N   UNL A   1      40.904  28.227  28.726  1.00  0.00    -0.354 N 
ATOM     21  C   UNL A   1      45.241  26.788  26.947  1.00  0.00     0.074 A 
ATOM     22  C   UNL A   1      45.332  25.406  26.550  1.00  0.00     0.031 C 
ATOM     23  C   UNL A   1      39.524  26.913  29.512  1.00  0.00     0.029 A 
ATOM     24  C   UNL A   1      40.231  28.819  29.523  1.00  0.00     0.049 A 
ATOM     25  H   UNL A   1      41.495  28.742  28.129  1.00  0.00     0.167 HD
ATOM     26  C   UNL A   1      46.196  27.719  26.690  1.00  0.00     0.034 A 
ATOM     27  C   UNL A   1      40.232  30.069  30.184  1.00  0.00     0.034 A 
ATOM     28  C   UNL A   1      46.122  29.097  27.119  1.00  0.00     0.049 A 
ATOM     29  C   UNL A   1      41.401  30.943  29.864  1.00  0.00     0.074 A 
ATOM     30  C   UNL A   1      47.079  30.084  26.949  1.00  0.00     0.029 A 
ATOM     31  N   UNL A   1      45.068  29.683  27.819  1.00  0.00    -0.354 N 
ATOM     32  N   UNL A   1      42.500  30.617  29.224  1.00  0.00    -0.248 NA
ATOM     33  C   UNL A   1      41.336  32.323  30.340  1.00  0.00     0.031 C 
ATOM     34  C   UNL A   1      46.666  31.218  27.646  1.00  0.00     0.029 A 
ATOM     35  C   UNL A   1      45.387  30.999  28.133  1.00  0.00     0.049 A 
ATOM     36  H   UNL A   1      44.226  29.232  28.056  1.00  0.00     0.167 HD
ATOM     37  C   UNL A   1      43.275  31.765  29.236  1.00  0.00     0.074 A 
ATOM     38  C   UNL A   1      42.469  32.802  29.858  1.00  0.00     0.031 C 
ATOM     39  C   UNL A   1      44.546  31.957  28.809  1.00  0.00     0.034 A 
BRANCH  26  40
ATOM     40  C   UNL A   1      47.476  27.241  26.025  1.00  0.00     0.023 A 
ATOM     41  C   UNL A   1      48.572  26.726  26.743  1.00  0.00     0.031 A 
ATOM     42  C   UNL A   1      47.610  27.356  24.627  1.00  0.00     0.131 A 
ATOM     43  C   UNL A   1      49.774  26.436  26.072  1.00  0.00     0.055 A 
ATOM     44  C   UNL A   1      48.772  26.974  23.956  1.00  0.00     0.041 A 
ATOM     45  F   UNL A   1      46.611  27.864  23.887  1.00  0.00    -0.206 F 
ATOM     46  C   UNL A   1      49.871  26.530  24.682  1.00  0.00     0.022 A 
BRANCH  43  47
ATOM     47  S   UNL A   1      51.278  26.144  27.052  1.00  0.00     0.124 S 
ATOM     48  O   UNL A   1      50.773  26.282  28.416  1.00  0.00    -0.237 OA
ATOM     49  O   UNL A   1      51.666  24.800  26.645  1.00  0.00    -0.237 OA
ATOM     50  O   UNL A   1      52.179  27.212  26.622  1.00  0.00    -0.744 OA
ENDBRANCH  43  47
ENDBRANCH  26  40
BRANCH  27  51
ATOM     51  C   UNL A   1      39.109  30.631  31.107  1.00  0.00     0.023 A 
ATOM     52  C   UNL A   1      38.238  31.570  30.504  1.00  0.00     0.031 A 
ATOM     53  C   UNL A   1      38.629  29.983  32.274  1.00  0.00     0.131 A 
ATOM     54  C   UNL A   1      36.921  31.729  30.967  1.00  0.00     0.055 A 
ATOM     55  C   UNL A   1      37.286  30.087  32.675  1.00  0.00     0.041 A 
ATOM     56  F   UNL A   1      39.377  29.093  32.944  1.00  0.00    -0.206 F 
ATOM     57  C   UNL A   1      36.420  30.944  32.005  1.00  0.00     0.022 A 
BRANCH  54  58
ATOM     58  S   UNL A   1      35.864  32.977  30.190  1.00  0.00     0.124 S 
ATOM     59  O   UNL A   1      34.734  32.172  29.733  1.00  0.00    -0.237 OA
ATOM     60  O   UNL A   1      35.589  33.894  31.290  1.00  0.00    -0.237 OA
ATOM     61  O   UNL A   1      36.707  33.515  29.124  1.00  0.00    -0.744 OA
ENDBRANCH  54  58
ENDBRANCH  27  51
BRANCH  39  62
ATOM     62  C   UNL A   1      45.093  33.338  29.053  1.00  0.00     0.023 A 
ATOM     63  C   UNL A   1      45.150  34.281  28.013  1.00  0.00     0.031 A 
ATOM     64  C   UNL A   1      45.626  33.685  30.304  1.00  0.00     0.131 A 
ATOM     65  C   UNL A   1      45.808  35.497  28.219  1.00  0.00     0.055 A 
ATOM     66  C   UNL A   1      46.193  34.938  30.529  1.00  0.00     0.041 A 
ATOM     67  F   UNL A   1      45.616  32.808  31.320  1.00  0.00    -0.206 F 
ATOM     68  C   UNL A   1      46.303  35.845  29.478  1.00  0.00     0.022 A 
BRANCH  65  69
ATOM     69  S   UNL A   1      46.145  36.538  26.776  1.00  0.00     0.124 S 
ATOM     70  O   UNL A   1      47.522  36.956  27.027  1.00  0.00    -0.237 OA
ATOM     71  O   UNL A   1      45.955  35.610  25.667  1.00  0.00    -0.237 OA
ATOM     72  O   UNL A   1      45.145  37.598  26.880  1.00  0.00    -0.744 OA
ENDBRANCH  65  69
ENDBRANCH  39  62
ENDBRANCH  13  14
ENDBRANCH   6   8
ENDBRANCH   5   6
ENDBRANCH   4   5
ENDBRANCH   3   4
ENDBRANCH   2   3
ENDBRANCH   1   2
BRANCH   1  73
ATOM     73  C   UNL A   1      36.391  23.444  24.799  1.00  0.00     0.188 C 
BRANCH  73  74
ATOM     74  O   UNL A   1      35.086  24.017  24.819  1.00  0.00    -0.376 OA
BRANCH  74  75
ATOM     75  C   UNL A   1      34.460  24.243  26.077  1.00  0.00     0.202 C 
BRANCH  75  76
ATOM     76  C   UNL A   1      34.295  23.052  27.022  1.00  0.00     0.261 C 
BRANCH  76  77
ATOM     77  O   UNL A   1      33.119  22.323  26.747  1.00  0.00    -0.463 OA
BRANCH  77  78
ATOM     78  C   UNL A   1      33.229  21.331  25.824  1.00  0.00     0.312 C 
ATOM     79  O   UNL A   1      34.216  20.638  25.619  1.00  0.00    -0.252 OA
BRANCH  78  80
ATOM     80  C   UNL A   1      31.948  21.272  25.025  1.00  0.00     0.124 C 
ATOM     81  C   UNL A   1      32.418  20.620  23.776  1.00  0.00    -0.014 C 
ATOM     82  C   UNL A   1      31.428  22.650  24.526  1.00  0.00     0.048 C 
ATOM     83  C   UNL A   1      32.721  21.540  22.849  1.00  0.00    -0.006 C 
ATOM     84  C   UNL A   1      32.209  22.945  23.162  1.00  0.00     0.106 C 
BRANCH  84  85
ATOM     85  N   UNL A   1      32.542  24.039  21.962  1.00  0.00    -0.350 N 
ATOM     86  C   UNL A   1      32.793  25.490  21.629  1.00  0.00     0.224 C 
ATOM     87  H   UNL A   1      32.598  23.535  21.119  1.00  0.00     0.164 HD
ATOM     88  O   UNL A   1      33.095  25.608  20.418  1.00  0.00    -0.275 OA
BRANCH  86  89
ATOM     89  C   UNL A   1      32.723  27.146  22.565  1.00  0.00     0.089 C 
ATOM     90  C   UNL A   1      33.760  28.021  24.385  1.00  0.00     0.025 C 
ATOM     91  C   UNL A   1      30.881  26.437  23.347  1.00  0.00     0.083 C 
ATOM     92  C   UNL A   1      32.754  27.440  26.211  1.00  0.00     0.070 C 
ATOM     93  S   UNL A   1      30.480  26.180  25.786  1.00  0.00    -0.161 SA
ENDBRANCH  86  89
ENDBRANCH  84  85
ENDBRANCH  78  80
ENDBRANCH  77  78
ENDBRANCH  76  77
ENDBRANCH  75  76
ENDBRANCH  74  75
ENDBRANCH  73  74
ENDBRANCH   1  73
TORSDOF 22
ENDMDL
