MODEL 1
REMARK VINA RESULT:      -9.4      0.000      0.000
REMARK SMILES COc1cc2c(CC(=O)OCCOCCOCCOC(=O)c3ccc(-c4c5nc(c(-c6cc(S(=O)(=O)[O-])ccc6F)c6ccc([nH]6)c(-c6cc(S(=O)(=O)[O-])ccc6F)c6nc(c(-c7cc(S(=O)(=O)[O-])ccc7F)c7ccc4[nH]7)C=C6)C=C5)cc3)c(C)n(C(=O)c3ccc(Cl)cc3)c2cc1Cl
REMARK SMILES IDX 14 1 13 2 12 3 11 4 10 5 8 6 9 7 7 8 6 9 3 10 4 11 99 12
REMARK SMILES IDX 5 13 98 14 100 15 97 16 85 17 87 18 86 19 2 20 1 21 88 22
REMARK SMILES IDX 89 23 90 24 91 25 96 26 92 27 95 28 93 29 94 30 15 31 16 32
REMARK SMILES IDX 17 33 18 34 19 35 20 36 21 37 22 38 23 39 84 40 24 41 83 42
REMARK SMILES IDX 25 43 26 44 27 45 77 46 28 47 82 48 76 49 78 50 29 51 81 52
REMARK SMILES IDX 75 53 74 54 30 56 62 57 42 58 61 59 43 60 46 61 60 62 79 63
REMARK SMILES IDX 44 64 45 65 59 67 80 68 47 69 31 70 32 71 40 72 33 73 39 74
REMARK SMILES IDX 41 75 38 76 34 77 35 78 36 79 37 80 63 81 64 82 72 83 65 84
REMARK SMILES IDX 71 85 73 86 70 87 66 88 67 89 68 90 69 91 48 92 49 93 57 94
REMARK SMILES IDX 50 95 56 96 58 97 55 98 51 99 52 100 53 101 54 102
REMARK H PARENT 78 55 46 66
REMARK Flexibility Score: inf
ROOT
ATOM      1  C   UNL A   1      33.687  35.567  32.028  1.00  0.00     0.188 C 
ENDROOT
BRANCH   1   2
ATOM      2  O   UNL A   1      33.557  34.169  32.124  1.00  0.00    -0.376 OA
BRANCH   2   3
ATOM      3  C   UNL A   1      34.435  33.452  32.966  1.00  0.00     0.202 C 
BRANCH   3   4
ATOM      4  C   UNL A   1      35.163  32.230  32.390  1.00  0.00     0.261 C 
BRANCH   4   5
ATOM      5  O   UNL A   1      36.621  32.273  32.470  1.00  0.00    -0.463 OA
BRANCH   5   6
ATOM      6  C   UNL A   1      37.082  33.521  32.701  1.00  0.00     0.310 C 
ATOM      7  O   UNL A   1      37.339  34.253  31.744  1.00  0.00    -0.252 OA
BRANCH   6   8
ATOM      8  C   UNL A   1      37.195  34.075  34.118  1.00  0.00     0.160 C 
BRANCH   8   9
ATOM      9  C   UNL A   1      38.433  34.346  34.944  1.00  0.00    -0.008 A 
ATOM     10  C   UNL A   1      41.859  34.736  33.089  1.00  0.00     0.138 A 
ATOM     11  C   UNL A   1      40.465  34.802  33.288  1.00  0.00     0.058 A 
ATOM     12  C   UNL A   1      42.650  34.396  34.166  1.00  0.00     0.085 A 
ATOM     13  C   UNL A   1      39.803  34.526  34.507  1.00  0.00     0.008 A 
ATOM     14  C   UNL A   1      42.045  34.120  35.400  1.00  0.00     0.051 A 
ATOM     15  Cl  UNL A   1      44.377  34.433  34.132  1.00  0.00    -0.080 Cl
ATOM     16  C   UNL A   1      40.639  34.250  35.583  1.00  0.00     0.058 A 
ATOM     17  C   UNL A   1      38.518  34.019  36.296  1.00  0.00     0.028 A 
ATOM     18  N   UNL A   1      39.822  34.243  36.723  1.00  0.00    -0.280 N 
ATOM     19  C   UNL A   1      37.430  33.452  37.154  1.00  0.00     0.065 C 
BRANCH  10  20
ATOM     20  O   UNL A   1      42.287  35.129  31.848  1.00  0.00    -0.495 OA
ATOM     21  C   UNL A   1      43.473  35.926  31.782  1.00  0.00     0.278 C 
ENDBRANCH  10  20
BRANCH  18  22
ATOM     22  C   UNL A   1      40.265  34.524  38.041  1.00  0.00     0.262 C 
ATOM     23  O   UNL A   1      40.443  33.611  38.846  1.00  0.00    -0.268 OA
BRANCH  22  24
ATOM     24  C   UNL A   1      40.374  35.899  38.540  1.00  0.00     0.040 A 
ATOM     25  C   UNL A   1      41.631  36.348  38.971  1.00  0.00     0.015 A 
ATOM     26  C   UNL A   1      39.210  36.630  38.795  1.00  0.00     0.015 A 
ATOM     27  C   UNL A   1      41.714  37.515  39.725  1.00  0.00     0.021 A 
ATOM     28  C   UNL A   1      39.303  37.794  39.560  1.00  0.00     0.021 A 
ATOM     29  C   UNL A   1      40.549  38.221  40.032  1.00  0.00     0.041 A 
ATOM     30  Cl  UNL A   1      40.645  39.604  41.052  1.00  0.00    -0.084 Cl
ENDBRANCH  22  24
ENDBRANCH  18  22
ENDBRANCH   8   9
ENDBRANCH   6   8
ENDBRANCH   5   6
ENDBRANCH   4   5
ENDBRANCH   3   4
ENDBRANCH   2   3
ENDBRANCH   1   2
BRANCH   1  31
ATOM     31  C   UNL A   1      32.791  36.368  31.074  1.00  0.00     0.188 C 
BRANCH  31  32
ATOM     32  O   UNL A   1      33.220  36.653  29.765  1.00  0.00    -0.376 OA
BRANCH  32  33
ATOM     33  C   UNL A   1      33.344  35.530  28.908  1.00  0.00     0.202 C 
BRANCH  33  34
ATOM     34  C   UNL A   1      34.773  35.139  28.438  1.00  0.00     0.261 C 
BRANCH  34  35
ATOM     35  O   UNL A   1      35.277  33.927  29.083  1.00  0.00    -0.460 OA
BRANCH  35  36
ATOM     36  C   UNL A   1      34.844  32.723  28.594  1.00  0.00     0.338 C 
ATOM     37  O   UNL A   1      33.791  32.565  27.996  1.00  0.00    -0.246 OA
BRANCH  36  38
ATOM     38  C   UNL A   1      35.976  31.717  28.551  1.00  0.00     0.060 A 
ATOM     39  C   UNL A   1      35.863  30.337  28.385  1.00  0.00     0.016 A 
ATOM     40  C   UNL A   1      37.252  32.216  28.822  1.00  0.00     0.016 A 
ATOM     41  C   UNL A   1      36.983  29.493  28.647  1.00  0.00     0.010 A 
ATOM     42  C   UNL A   1      38.336  31.386  29.155  1.00  0.00     0.010 A 
ATOM     43  C   UNL A   1      38.214  29.998  29.131  1.00  0.00    -0.014 A 
BRANCH  43  44
ATOM     44  C   UNL A   1      39.461  29.174  29.182  1.00  0.00     0.031 A 
ATOM     45  C   UNL A   1      39.709  28.745  30.565  1.00  0.00     0.074 A 
ATOM     46  C   UNL A   1      40.328  28.627  28.288  1.00  0.00     0.049 A 
ATOM     47  N   UNL A   1      40.339  29.456  31.433  1.00  0.00    -0.248 NA
ATOM     48  C   UNL A   1      39.044  27.556  31.101  1.00  0.00     0.031 C 
ATOM     49  C   UNL A   1      40.287  28.634  26.850  1.00  0.00     0.029 A 
ATOM     50  N   UNL A   1      41.480  27.893  28.495  1.00  0.00    -0.354 N 
ATOM     51  C   UNL A   1      40.401  28.668  32.561  1.00  0.00     0.074 A 
ATOM     52  C   UNL A   1      39.360  27.680  32.393  1.00  0.00     0.031 C 
ATOM     53  C   UNL A   1      41.165  27.782  26.288  1.00  0.00     0.029 A 
ATOM     54  C   UNL A   1      42.021  27.310  27.346  1.00  0.00     0.049 A 
ATOM     55  H   UNL A   1      41.889  27.790  29.386  1.00  0.00     0.167 HD
ATOM     56  C   UNL A   1      41.495  28.728  33.373  1.00  0.00     0.034 A 
ATOM     57  C   UNL A   1      43.185  26.641  27.143  1.00  0.00     0.034 A 
ATOM     58  C   UNL A   1      42.387  29.797  32.959  1.00  0.00     0.049 A 
ATOM     59  C   UNL A   1      44.121  27.036  28.211  1.00  0.00     0.074 A 
ATOM     60  C   UNL A   1      42.231  31.151  32.720  1.00  0.00     0.029 A 
ATOM     61  N   UNL A   1      43.550  29.443  32.311  1.00  0.00    -0.354 N 
ATOM     62  N   UNL A   1      44.684  28.211  28.278  1.00  0.00    -0.248 NA
ATOM     63  C   UNL A   1      44.042  26.299  29.457  1.00  0.00     0.031 C 
ATOM     64  C   UNL A   1      43.021  31.422  31.567  1.00  0.00     0.029 A 
ATOM     65  C   UNL A   1      43.702  30.255  31.216  1.00  0.00     0.049 A 
ATOM     66  H   UNL A   1      44.168  28.728  32.587  1.00  0.00     0.167 HD
ATOM     67  C   UNL A   1      44.540  28.565  29.609  1.00  0.00     0.074 A 
ATOM     68  C   UNL A   1      44.245  27.310  30.303  1.00  0.00     0.031 C 
ATOM     69  C   UNL A   1      44.378  29.866  29.990  1.00  0.00     0.034 A 
BRANCH  56  70
ATOM     70  C   UNL A   1      41.932  27.607  34.280  1.00  0.00     0.023 A 
ATOM     71  C   UNL A   1      42.740  26.538  33.858  1.00  0.00     0.031 A 
ATOM     72  C   UNL A   1      41.681  27.675  35.663  1.00  0.00     0.131 A 
ATOM     73  C   UNL A   1      43.241  25.589  34.754  1.00  0.00     0.055 A 
ATOM     74  C   UNL A   1      42.242  26.772  36.572  1.00  0.00     0.041 A 
ATOM     75  F   UNL A   1      40.926  28.656  36.182  1.00  0.00    -0.206 F 
ATOM     76  C   UNL A   1      43.026  25.717  36.119  1.00  0.00     0.022 A 
BRANCH  73  77
ATOM     77  S   UNL A   1      44.194  24.176  34.134  1.00  0.00     0.124 S 
ATOM     78  O   UNL A   1      44.141  24.385  32.692  1.00  0.00    -0.237 OA
ATOM     79  O   UNL A   1      45.494  24.400  34.762  1.00  0.00    -0.237 OA
ATOM     80  O   UNL A   1      43.458  23.018  34.635  1.00  0.00    -0.744 OA
ENDBRANCH  73  77
ENDBRANCH  56  70
BRANCH  57  81
ATOM     81  C   UNL A   1      43.398  25.466  26.263  1.00  0.00     0.023 A 
ATOM     82  C   UNL A   1      42.634  24.301  26.465  1.00  0.00     0.031 A 
ATOM     83  C   UNL A   1      44.531  25.351  25.437  1.00  0.00     0.131 A 
ATOM     84  C   UNL A   1      43.050  23.070  25.940  1.00  0.00     0.055 A 
ATOM     85  C   UNL A   1      44.931  24.124  24.890  1.00  0.00     0.041 A 
ATOM     86  F   UNL A   1      45.316  26.414  25.202  1.00  0.00    -0.206 F 
ATOM     87  C   UNL A   1      44.201  22.970  25.159  1.00  0.00     0.022 A 
BRANCH  84  88
ATOM     88  S   UNL A   1      42.137  21.558  26.356  1.00  0.00     0.124 S 
ATOM     89  O   UNL A   1      40.756  21.926  26.050  1.00  0.00    -0.237 OA
ATOM     90  O   UNL A   1      42.744  20.587  25.452  1.00  0.00    -0.237 OA
ATOM     91  O   UNL A   1      42.422  21.369  27.776  1.00  0.00    -0.744 OA
ENDBRANCH  84  88
ENDBRANCH  57  81
BRANCH  69  92
ATOM     92  C   UNL A   1      44.698  30.993  29.025  1.00  0.00     0.023 A 
ATOM     93  C   UNL A   1      45.907  31.678  29.255  1.00  0.00     0.031 A 
ATOM     94  C   UNL A   1      43.814  31.549  28.080  1.00  0.00     0.131 A 
ATOM     95  C   UNL A   1      46.178  32.895  28.620  1.00  0.00     0.055 A 
ATOM     96  C   UNL A   1      44.123  32.730  27.389  1.00  0.00     0.041 A 
ATOM     97  F   UNL A   1      42.598  31.028  27.856  1.00  0.00    -0.206 F 
ATOM     98  C   UNL A   1      45.298  33.422  27.674  1.00  0.00     0.022 A 
BRANCH  95  99
ATOM     99  S   UNL A   1      47.590  33.901  29.153  1.00  0.00     0.124 S 
ATOM    100  O   UNL A   1      48.634  32.896  29.330  1.00  0.00    -0.237 OA
ATOM    101  O   UNL A   1      47.777  34.806  28.021  1.00  0.00    -0.237 OA
ATOM    102  O   UNL A   1      47.125  34.541  30.380  1.00  0.00    -0.744 OA
ENDBRANCH  95  99
ENDBRANCH  69  92
ENDBRANCH  43  44
ENDBRANCH  36  38
ENDBRANCH  35  36
ENDBRANCH  34  35
ENDBRANCH  33  34
ENDBRANCH  32  33
ENDBRANCH  31  32
ENDBRANCH   1  31
TORSDOF 24
ENDMDL
MODEL 2
REMARK VINA RESULT:      -9.1      5.345     11.348
REMARK SMILES COc1cc2c(CC(=O)OCCOCCOCCOC(=O)c3ccc(-c4c5nc(c(-c6cc(S(=O)(=O)[O-])ccc6F)c6ccc([nH]6)c(-c6cc(S(=O)(=O)[O-])ccc6F)c6nc(c(-c7cc(S(=O)(=O)[O-])ccc7F)c7ccc4[nH]7)C=C6)C=C5)cc3)c(C)n(C(=O)c3ccc(Cl)cc3)c2cc1Cl
REMARK SMILES IDX 14 1 13 2 12 3 11 4 10 5 8 6 9 7 7 8 6 9 3 10 4 11 99 12
REMARK SMILES IDX 5 13 98 14 100 15 97 16 85 17 87 18 86 19 2 20 1 21 88 22
REMARK SMILES IDX 89 23 90 24 91 25 96 26 92 27 95 28 93 29 94 30 15 31 16 32
REMARK SMILES IDX 17 33 18 34 19 35 20 36 21 37 22 38 23 39 84 40 24 41 83 42
REMARK SMILES IDX 25 43 26 44 27 45 77 46 28 47 82 48 76 49 78 50 29 51 81 52
REMARK SMILES IDX 75 53 74 54 30 56 62 57 42 58 61 59 43 60 46 61 60 62 79 63
REMARK SMILES IDX 44 64 45 65 59 67 80 68 47 69 31 70 32 71 40 72 33 73 39 74
REMARK SMILES IDX 41 75 38 76 34 77 35 78 36 79 37 80 63 81 64 82 72 83 65 84
REMARK SMILES IDX 71 85 73 86 70 87 66 88 67 89 68 90 69 91 48 92 49 93 57 94
REMARK SMILES IDX 50 95 56 96 58 97 55 98 51 99 52 100 53 101 54 102
REMARK H PARENT 78 55 46 66
REMARK Flexibility Score: inf
ROOT
ATOM      1  C   UNL A   1      34.471  32.725  28.286  1.00  0.00     0.188 C 
ENDROOT
BRANCH   1   2
ATOM      2  O   UNL A   1      34.283  31.333  28.183  1.00  0.00    -0.376 OA
BRANCH   2   3
ATOM      3  C   UNL A   1      33.716  30.799  27.006  1.00  0.00     0.202 C 
BRANCH   3   4
ATOM      4  C   UNL A   1      32.496  29.876  27.136  1.00  0.00     0.261 C 
BRANCH   4   5
ATOM      5  O   UNL A   1      32.786  28.509  27.563  1.00  0.00    -0.463 OA
BRANCH   5   6
ATOM      6  C   UNL A   1      32.087  27.596  26.855  1.00  0.00     0.310 C 
ATOM      7  O   UNL A   1      31.210  27.981  26.080  1.00  0.00    -0.252 OA
BRANCH   6   8
ATOM      8  C   UNL A   1      32.428  26.111  26.921  1.00  0.00     0.160 C 
BRANCH   8   9
ATOM      9  C   UNL A   1      32.720  25.145  25.794  1.00  0.00    -0.008 A 
ATOM     10  C   UNL A   1      33.162  26.582  22.178  1.00  0.00     0.138 A 
ATOM     11  C   UNL A   1      33.206  26.550  23.587  1.00  0.00     0.058 A 
ATOM     12  C   UNL A   1      32.836  25.419  21.516  1.00  0.00     0.085 A 
ATOM     13  C   UNL A   1      32.921  25.418  24.384  1.00  0.00     0.008 A 
ATOM     14  C   UNL A   1      32.553  24.264  22.258  1.00  0.00     0.051 A 
ATOM     15  Cl  UNL A   1      32.901  25.249  19.797  1.00  0.00    -0.080 Cl
ATOM     16  C   UNL A   1      32.660  24.249  23.678  1.00  0.00     0.058 A 
ATOM     17  C   UNL A   1      32.396  23.792  25.864  1.00  0.00     0.028 A 
ATOM     18  N   UNL A   1      32.641  23.214  24.624  1.00  0.00    -0.280 N 
ATOM     19  C   UNL A   1      31.813  23.066  27.037  1.00  0.00     0.065 C 
BRANCH  10  20
ATOM     20  O   UNL A   1      33.560  27.766  21.613  1.00  0.00    -0.495 OA
ATOM     21  C   UNL A   1      33.980  28.810  22.496  1.00  0.00     0.278 C 
ENDBRANCH  10  20
BRANCH  18  22
ATOM     22  C   UNL A   1      32.932  21.853  24.344  1.00  0.00     0.262 C 
ATOM     23  O   UNL A   1      32.070  21.119  23.864  1.00  0.00    -0.268 OA
BRANCH  22  24
ATOM     24  C   UNL A   1      34.197  21.236  24.756  1.00  0.00     0.040 A 
ATOM     25  C   UNL A   1      35.324  22.062  24.882  1.00  0.00     0.015 A 
ATOM     26  C   UNL A   1      34.305  19.843  24.776  1.00  0.00     0.015 A 
ATOM     27  C   UNL A   1      36.587  21.480  24.966  1.00  0.00     0.021 A 
ATOM     28  C   UNL A   1      35.576  19.270  24.851  1.00  0.00     0.021 A 
ATOM     29  C   UNL A   1      36.708  20.089  24.930  1.00  0.00     0.041 A 
ATOM     30  Cl  UNL A   1      38.276  19.379  24.928  1.00  0.00    -0.084 Cl
ENDBRANCH  22  24
ENDBRANCH  18  22
ENDBRANCH   8   9
ENDBRANCH   6   8
ENDBRANCH   5   6
ENDBRANCH   4   5
ENDBRANCH   3   4
ENDBRANCH   2   3
ENDBRANCH   1   2
BRANCH   1  31
ATOM     31  C   UNL A   1      34.284  33.438  29.631  1.00  0.00     0.188 C 
BRANCH  31  32
ATOM     32  O   UNL A   1      33.247  34.373  29.803  1.00  0.00    -0.376 OA
BRANCH  32  33
ATOM     33  C   UNL A   1      33.548  35.463  30.657  1.00  0.00     0.202 C 
BRANCH  33  34
ATOM     34  C   UNL A   1      33.140  35.340  32.152  1.00  0.00     0.261 C 
BRANCH  34  35
ATOM     35  O   UNL A   1      33.752  34.193  32.821  1.00  0.00    -0.460 OA
BRANCH  35  36
ATOM     36  C   UNL A   1      34.887  34.421  33.555  1.00  0.00     0.338 C 
ATOM     37  O   UNL A   1      34.889  34.810  34.712  1.00  0.00    -0.246 OA
BRANCH  36  38
ATOM     38  C   UNL A   1      36.093  33.781  32.898  1.00  0.00     0.060 A 
ATOM     39  C   UNL A   1      36.705  32.581  33.260  1.00  0.00     0.016 A 
ATOM     40  C   UNL A   1      36.722  34.531  31.901  1.00  0.00     0.016 A 
ATOM     41  C   UNL A   1      37.991  32.249  32.738  1.00  0.00     0.010 A 
ATOM     42  C   UNL A   1      38.019  34.248  31.442  1.00  0.00     0.010 A 
ATOM     43  C   UNL A   1      38.713  33.126  31.893  1.00  0.00    -0.014 A 
BRANCH  43  44
ATOM     44  C   UNL A   1      39.939  32.703  31.148  1.00  0.00     0.031 A 
ATOM     45  C   UNL A   1      39.691  31.413  30.489  1.00  0.00     0.074 A 
ATOM     46  C   UNL A   1      41.143  33.245  30.824  1.00  0.00     0.049 A 
ATOM     47  N   UNL A   1      39.846  30.273  31.066  1.00  0.00    -0.248 NA
ATOM     48  C   UNL A   1      39.026  31.364  29.186  1.00  0.00     0.031 C 
ATOM     49  C   UNL A   1      41.655  34.564  31.090  1.00  0.00     0.029 A 
ATOM     50  N   UNL A   1      42.210  32.706  30.134  1.00  0.00    -0.354 N 
ATOM     51  C   UNL A   1      39.570  29.341  30.091  1.00  0.00     0.074 A 
ATOM     52  C   UNL A   1      38.805  30.050  29.091  1.00  0.00     0.031 C 
ATOM     53  C   UNL A   1      42.780  34.846  30.408  1.00  0.00     0.029 A 
ATOM     54  C   UNL A   1      43.218  33.615  29.802  1.00  0.00     0.049 A 
ATOM     55  H   UNL A   1      42.257  31.751  29.894  1.00  0.00     0.167 HD
ATOM     56  C   UNL A   1      40.253  28.161  30.066  1.00  0.00     0.034 A 
ATOM     57  C   UNL A   1      44.445  33.431  29.251  1.00  0.00     0.034 A 
ATOM     58  C   UNL A   1      41.093  28.026  31.243  1.00  0.00     0.049 A 
ATOM     59  C   UNL A   1      44.844  32.035  29.499  1.00  0.00     0.074 A 
ATOM     60  C   UNL A   1      40.872  28.109  32.606  1.00  0.00     0.029 A 
ATOM     61  N   UNL A   1      42.451  28.200  31.082  1.00  0.00    -0.354 N 
ATOM     62  N   UNL A   1      45.186  31.580  30.673  1.00  0.00    -0.248 NA
ATOM     63  C   UNL A   1      44.388  31.043  28.544  1.00  0.00     0.031 C 
ATOM     64  C   UNL A   1      42.003  28.800  33.129  1.00  0.00     0.029 A 
ATOM     65  C   UNL A   1      42.906  29.015  32.087  1.00  0.00     0.049 A 
ATOM     66  H   UNL A   1      43.000  27.808  30.366  1.00  0.00     0.167 HD
ATOM     67  C   UNL A   1      44.501  30.381  30.770  1.00  0.00     0.074 A 
ATOM     68  C   UNL A   1      44.123  30.050  29.395  1.00  0.00     0.031 C 
ATOM     69  C   UNL A   1      44.043  29.912  31.968  1.00  0.00     0.034 A 
BRANCH  56  70
ATOM     70  C   UNL A   1      40.447  27.327  28.826  1.00  0.00     0.023 A 
ATOM     71  C   UNL A   1      41.450  27.573  27.875  1.00  0.00     0.031 A 
ATOM     72  C   UNL A   1      39.718  26.136  28.651  1.00  0.00     0.131 A 
ATOM     73  C   UNL A   1      41.692  26.701  26.808  1.00  0.00     0.055 A 
ATOM     74  C   UNL A   1      40.006  25.223  27.630  1.00  0.00     0.041 A 
ATOM     75  F   UNL A   1      38.738  25.793  29.502  1.00  0.00    -0.206 F 
ATOM     76  C   UNL A   1      40.996  25.505  26.697  1.00  0.00     0.022 A 
BRANCH  73  77
ATOM     77  S   UNL A   1      42.933  27.127  25.556  1.00  0.00     0.124 S 
ATOM     78  O   UNL A   1      42.231  28.129  24.764  1.00  0.00    -0.237 OA
ATOM     79  O   UNL A   1      44.028  27.623  26.385  1.00  0.00    -0.237 OA
ATOM     80  O   UNL A   1      43.195  25.856  24.884  1.00  0.00    -0.744 OA
ENDBRANCH  73  77
ENDBRANCH  56  70
BRANCH  57  81
ATOM     81  C   UNL A   1      45.125  34.313  28.270  1.00  0.00     0.023 A 
ATOM     82  C   UNL A   1      46.440  34.747  28.524  1.00  0.00     0.031 A 
ATOM     83  C   UNL A   1      44.417  34.980  27.254  1.00  0.00     0.131 A 
ATOM     84  C   UNL A   1      46.971  35.857  27.853  1.00  0.00     0.055 A 
ATOM     85  C   UNL A   1      44.960  36.073  26.564  1.00  0.00     0.041 A 
ATOM     86  F   UNL A   1      43.156  34.630  26.957  1.00  0.00    -0.206 F 
ATOM     87  C   UNL A   1      46.236  36.531  26.879  1.00  0.00     0.022 A 
BRANCH  84  88
ATOM     88  S   UNL A   1      48.604  36.496  28.319  1.00  0.00     0.124 S 
ATOM     89  O   UNL A   1      49.452  36.029  27.224  1.00  0.00    -0.237 OA
ATOM     90  O   UNL A   1      48.360  37.933  28.357  1.00  0.00    -0.237 OA
ATOM     91  O   UNL A   1      48.862  35.860  29.608  1.00  0.00    -0.744 OA
ENDBRANCH  84  88
ENDBRANCH  57  81
BRANCH  69  92
ATOM     92  C   UNL A   1      44.563  30.497  33.268  1.00  0.00     0.023 A 
ATOM     93  C   UNL A   1      45.557  29.747  33.929  1.00  0.00     0.031 A 
ATOM     94  C   UNL A   1      44.001  31.578  33.972  1.00  0.00     0.131 A 
ATOM     95  C   UNL A   1      45.912  30.027  35.252  1.00  0.00     0.055 A 
ATOM     96  C   UNL A   1      44.415  31.904  35.273  1.00  0.00     0.041 A 
ATOM     97  F   UNL A   1      42.985  32.296  33.473  1.00  0.00    -0.206 F 
ATOM     98  C   UNL A   1      45.356  31.114  35.928  1.00  0.00     0.022 A 
BRANCH  95  99
ATOM     99  S   UNL A   1      46.964  28.872  36.174  1.00  0.00     0.124 S 
ATOM    100  O   UNL A   1      46.035  27.788  36.480  1.00  0.00    -0.237 OA
ATOM    101  O   UNL A   1      48.004  28.548  35.200  1.00  0.00    -0.237 OA
ATOM    102  O   UNL A   1      47.419  29.648  37.324  1.00  0.00    -0.744 OA
ENDBRANCH  95  99
ENDBRANCH  69  92
ENDBRANCH  43  44
ENDBRANCH  36  38
ENDBRANCH  35  36
ENDBRANCH  34  35
ENDBRANCH  33  34
ENDBRANCH  32  33
ENDBRANCH  31  32
ENDBRANCH   1  31
TORSDOF 24
ENDMDL
MODEL 3
REMARK VINA RESULT:      -9.0      1.398      3.057
REMARK SMILES COc1cc2c(CC(=O)OCCOCCOCCOC(=O)c3ccc(-c4c5nc(c(-c6cc(S(=O)(=O)[O-])ccc6F)c6ccc([nH]6)c(-c6cc(S(=O)(=O)[O-])ccc6F)c6nc(c(-c7cc(S(=O)(=O)[O-])ccc7F)c7ccc4[nH]7)C=C6)C=C5)cc3)c(C)n(C(=O)c3ccc(Cl)cc3)c2cc1Cl
REMARK SMILES IDX 14 1 13 2 12 3 11 4 10 5 8 6 9 7 7 8 6 9 3 10 4 11 99 12
REMARK SMILES IDX 5 13 98 14 100 15 97 16 85 17 87 18 86 19 2 20 1 21 88 22
REMARK SMILES IDX 89 23 90 24 91 25 96 26 92 27 95 28 93 29 94 30 15 31 16 32
REMARK SMILES IDX 17 33 18 34 19 35 20 36 21 37 22 38 23 39 84 40 24 41 83 42
REMARK SMILES IDX 25 43 26 44 27 45 77 46 28 47 82 48 76 49 78 50 29 51 81 52
REMARK SMILES IDX 75 53 74 54 30 56 62 57 42 58 61 59 43 60 46 61 60 62 79 63
REMARK SMILES IDX 44 64 45 65 59 67 80 68 47 69 31 70 32 71 40 72 33 73 39 74
REMARK SMILES IDX 41 75 38 76 34 77 35 78 36 79 37 80 63 81 64 82 72 83 65 84
REMARK SMILES IDX 71 85 73 86 70 87 66 88 67 89 68 90 69 91 48 92 49 93 57 94
REMARK SMILES IDX 50 95 56 96 58 97 55 98 51 99 52 100 53 101 54 102
REMARK H PARENT 78 55 46 66
REMARK Flexibility Score: inf
ROOT
ATOM      1  C   UNL A   1      33.747  35.480  32.277  1.00  0.00     0.188 C 
ENDROOT
BRANCH   1   2
ATOM      2  O   UNL A   1      33.639  34.078  32.360  1.00  0.00    -0.376 OA
BRANCH   2   3
ATOM      3  C   UNL A   1      34.535  33.365  33.185  1.00  0.00     0.202 C 
BRANCH   3   4
ATOM      4  C   UNL A   1      35.322  32.199  32.572  1.00  0.00     0.261 C 
BRANCH   4   5
ATOM      5  O   UNL A   1      36.768  32.243  32.771  1.00  0.00    -0.463 OA
BRANCH   5   6
ATOM      6  C   UNL A   1      37.247  33.505  32.750  1.00  0.00     0.310 C 
ATOM      7  O   UNL A   1      37.241  34.131  31.688  1.00  0.00    -0.252 OA
BRANCH   6   8
ATOM      8  C   UNL A   1      37.699  34.204  34.027  1.00  0.00     0.160 C 
BRANCH   8   9
ATOM      9  C   UNL A   1      38.949  33.981  34.851  1.00  0.00    -0.008 A 
ATOM     10  C   UNL A   1      38.637  34.032  38.754  1.00  0.00     0.138 A 
ATOM     11  C   UNL A   1      38.249  33.830  37.413  1.00  0.00     0.058 A 
ATOM     12  C   UNL A   1      39.953  34.358  39.003  1.00  0.00     0.085 A 
ATOM     13  C   UNL A   1      39.101  33.955  36.292  1.00  0.00     0.008 A 
ATOM     14  C   UNL A   1      40.842  34.487  37.927  1.00  0.00     0.051 A 
ATOM     15  Cl  UNL A   1      40.623  34.475  40.591  1.00  0.00    -0.080 Cl
ATOM     16  C   UNL A   1      40.433  34.222  36.589  1.00  0.00     0.058 A 
ATOM     17  C   UNL A   1      40.228  34.213  34.350  1.00  0.00     0.028 A 
ATOM     18  N   UNL A   1      41.141  34.072  35.388  1.00  0.00    -0.280 N 
ATOM     19  C   UNL A   1      40.587  34.617  32.953  1.00  0.00     0.065 C 
BRANCH  10  20
ATOM     20  O   UNL A   1      37.665  33.773  39.685  1.00  0.00    -0.495 OA
ATOM     21  C   UNL A   1      37.760  32.544  40.411  1.00  0.00     0.278 C 
ENDBRANCH  10  20
BRANCH  18  22
ATOM     22  C   UNL A   1      42.515  33.732  35.293  1.00  0.00     0.262 C 
ATOM     23  O   UNL A   1      43.207  34.188  34.384  1.00  0.00    -0.268 OA
BRANCH  22  24
ATOM     24  C   UNL A   1      43.120  32.717  36.162  1.00  0.00     0.040 A 
ATOM     25  C   UNL A   1      44.327  33.032  36.803  1.00  0.00     0.015 A 
ATOM     26  C   UNL A   1      42.621  31.412  36.141  1.00  0.00     0.015 A 
ATOM     27  C   UNL A   1      45.079  32.009  37.376  1.00  0.00     0.021 A 
ATOM     28  C   UNL A   1      43.386  30.393  36.712  1.00  0.00     0.021 A 
ATOM     29  C   UNL A   1      44.614  30.693  37.311  1.00  0.00     0.041 A 
ATOM     30  Cl  UNL A   1      45.595  29.421  37.928  1.00  0.00    -0.084 Cl
ENDBRANCH  22  24
ENDBRANCH  18  22
ENDBRANCH   8   9
ENDBRANCH   6   8
ENDBRANCH   5   6
ENDBRANCH   4   5
ENDBRANCH   3   4
ENDBRANCH   2   3
ENDBRANCH   1   2
BRANCH   1  31
ATOM     31  C   UNL A   1      32.798  36.281  31.377  1.00  0.00     0.188 C 
BRANCH  31  32
ATOM     32  O   UNL A   1      33.198  36.664  30.083  1.00  0.00    -0.376 OA
BRANCH  32  33
ATOM     33  C   UNL A   1      33.281  35.611  29.137  1.00  0.00     0.202 C 
BRANCH  33  34
ATOM     34  C   UNL A   1      34.698  35.168  28.677  1.00  0.00     0.261 C 
BRANCH  34  35
ATOM     35  O   UNL A   1      35.098  33.870  29.220  1.00  0.00    -0.460 OA
BRANCH  35  36
ATOM     36  C   UNL A   1      34.723  32.751  28.524  1.00  0.00     0.338 C 
ATOM     37  O   UNL A   1      33.747  32.693  27.792  1.00  0.00    -0.246 OA
BRANCH  36  38
ATOM     38  C   UNL A   1      35.852  31.741  28.474  1.00  0.00     0.060 A 
ATOM     39  C   UNL A   1      35.734  30.364  28.290  1.00  0.00     0.016 A 
ATOM     40  C   UNL A   1      37.129  32.231  28.758  1.00  0.00     0.016 A 
ATOM     41  C   UNL A   1      36.849  29.512  28.547  1.00  0.00     0.010 A 
ATOM     42  C   UNL A   1      38.208  31.393  29.087  1.00  0.00     0.010 A 
ATOM     43  C   UNL A   1      38.080  30.006  29.044  1.00  0.00    -0.014 A 
BRANCH  43  44
ATOM     44  C   UNL A   1      39.323  29.176  29.091  1.00  0.00     0.031 A 
ATOM     45  C   UNL A   1      39.614  28.807  30.483  1.00  0.00     0.074 A 
ATOM     46  C   UNL A   1      40.158  28.583  28.196  1.00  0.00     0.049 A 
ATOM     47  N   UNL A   1      40.276  29.552  31.297  1.00  0.00    -0.248 NA
ATOM     48  C   UNL A   1      38.961  27.649  31.094  1.00  0.00     0.031 C 
ATOM     49  C   UNL A   1      40.069  28.526  26.760  1.00  0.00     0.029 A 
ATOM     50  N   UNL A   1      41.311  27.851  28.397  1.00  0.00    -0.354 N 
ATOM     51  C   UNL A   1      40.371  28.815  32.457  1.00  0.00     0.074 A 
ATOM     52  C   UNL A   1      39.320  27.828  32.368  1.00  0.00     0.031 C 
ATOM     53  C   UNL A   1      40.923  27.644  26.209  1.00  0.00     0.029 A 
ATOM     54  C   UNL A   1      41.811  27.214  27.259  1.00  0.00     0.049 A 
ATOM     55  H   UNL A   1      41.749  27.785  29.278  1.00  0.00     0.167 HD
ATOM     56  C   UNL A   1      41.492  28.904  33.230  1.00  0.00     0.034 A 
ATOM     57  C   UNL A   1      42.964  26.528  27.049  1.00  0.00     0.034 A 
ATOM     58  C   UNL A   1      42.375  29.947  32.739  1.00  0.00     0.049 A 
ATOM     59  C   UNL A   1      43.937  26.964  28.066  1.00  0.00     0.074 A 
ATOM     60  C   UNL A   1      42.219  31.291  32.445  1.00  0.00     0.029 A 
ATOM     61  N   UNL A   1      43.515  29.557  32.070  1.00  0.00    -0.354 N 
ATOM     62  N   UNL A   1      44.508  28.136  28.062  1.00  0.00    -0.248 NA
ATOM     63  C   UNL A   1      43.895  26.284  29.346  1.00  0.00     0.031 C 
ATOM     64  C   UNL A   1      42.972  31.504  31.255  1.00  0.00     0.029 A 
ATOM     65  C   UNL A   1      43.635  30.318  30.935  1.00  0.00     0.049 A 
ATOM     66  H   UNL A   1      44.137  28.850  32.357  1.00  0.00     0.167 HD
ATOM     67  C   UNL A   1      44.410  28.551  29.379  1.00  0.00     0.074 A 
ATOM     68  C   UNL A   1      44.131  27.331  30.138  1.00  0.00     0.031 C 
ATOM     69  C   UNL A   1      44.267  29.869  29.707  1.00  0.00     0.034 A 
BRANCH  56  70
ATOM     70  C   UNL A   1      41.952  27.822  34.171  1.00  0.00     0.023 A 
ATOM     71  C   UNL A   1      42.924  26.865  33.837  1.00  0.00     0.031 A 
ATOM     72  C   UNL A   1      41.537  27.828  35.516  1.00  0.00     0.131 A 
ATOM     73  C   UNL A   1      43.429  25.961  34.777  1.00  0.00     0.055 A 
ATOM     74  C   UNL A   1      42.094  26.977  36.476  1.00  0.00     0.041 A 
ATOM     75  F   UNL A   1      40.616  28.702  35.952  1.00  0.00    -0.206 F 
ATOM     76  C   UNL A   1      43.044  26.032  36.109  1.00  0.00     0.022 A 
BRANCH  73  77
ATOM     77  S   UNL A   1      44.608  24.684  34.260  1.00  0.00     0.124 S 
ATOM     78  O   UNL A   1      45.637  25.474  33.595  1.00  0.00    -0.237 OA
ATOM     79  O   UNL A   1      44.985  24.096  35.542  1.00  0.00    -0.237 OA
ATOM     80  O   UNL A   1      43.816  23.814  33.392  1.00  0.00    -0.744 OA
ENDBRANCH  73  77
ENDBRANCH  56  70
BRANCH  57  81
ATOM     81  C   UNL A   1      43.142  25.313  26.216  1.00  0.00     0.023 A 
ATOM     82  C   UNL A   1      42.331  24.186  26.452  1.00  0.00     0.031 A 
ATOM     83  C   UNL A   1      44.278  25.125  25.408  1.00  0.00     0.131 A 
ATOM     84  C   UNL A   1      42.706  22.921  25.979  1.00  0.00     0.055 A 
ATOM     85  C   UNL A   1      44.637  23.864  24.912  1.00  0.00     0.041 A 
ATOM     86  F   UNL A   1      45.105  26.148  25.142  1.00  0.00    -0.206 F 
ATOM     87  C   UNL A   1      43.860  22.749  25.216  1.00  0.00     0.022 A 
BRANCH  84  88
ATOM     88  S   UNL A   1      41.733  21.462  26.440  1.00  0.00     0.124 S 
ATOM     89  O   UNL A   1      42.079  20.504  25.392  1.00  0.00    -0.237 OA
ATOM     90  O   UNL A   1      42.260  21.161  27.767  1.00  0.00    -0.237 OA
ATOM     91  O   UNL A   1      40.355  21.946  26.398  1.00  0.00    -0.744 OA
ENDBRANCH  84  88
ENDBRANCH  57  81
BRANCH  69  92
ATOM     92  C   UNL A   1      44.562  30.949  28.682  1.00  0.00     0.023 A 
ATOM     93  C   UNL A   1      45.561  31.878  29.033  1.00  0.00     0.031 A 
ATOM     94  C   UNL A   1      43.793  31.235  27.537  1.00  0.00     0.131 A 
ATOM     95  C   UNL A   1      45.728  33.066  28.312  1.00  0.00     0.055 A 
ATOM     96  C   UNL A   1      44.014  32.390  26.772  1.00  0.00     0.041 A 
ATOM     97  F   UNL A   1      42.757  30.466  27.171  1.00  0.00    -0.206 F 
ATOM     98  C   UNL A   1      44.968  33.323  27.171  1.00  0.00     0.022 A 
BRANCH  95  99
ATOM     99  S   UNL A   1      46.806  34.374  28.956  1.00  0.00     0.124 S 
ATOM    100  O   UNL A   1      47.484  34.836  27.748  1.00  0.00    -0.237 OA
ATOM    101  O   UNL A   1      45.849  35.315  29.535  1.00  0.00    -0.237 OA
ATOM    102  O   UNL A   1      47.655  33.687  29.925  1.00  0.00    -0.744 OA
ENDBRANCH  95  99
ENDBRANCH  69  92
ENDBRANCH  43  44
ENDBRANCH  36  38
ENDBRANCH  35  36
ENDBRANCH  34  35
ENDBRANCH  33  34
ENDBRANCH  32  33
ENDBRANCH  31  32
ENDBRANCH   1  31
TORSDOF 24
ENDMDL
