MODEL 1
REMARK VINA RESULT:     -11.3      0.000      0.000
REMARK SMILES C[C@H](CNC(=O)N1C[C@H]2CCCC[N@@H+]2C[C@@H]1C)C(=O)OCCOCCOCCOC(=O)c1ccc(-c2c3nc(c(-c4cc(S(=O)(=O)[O-])ccc4F)c4ccc([nH]4)c(-c4cc(S(=O)(=O)[O-])ccc4F)c4nc(c(-c5cc(S(=O)(=O)[O-])ccc5F)c5ccc2[nH]5)C=C4)C=C3)cc1
REMARK SMILES IDX 24 1 23 2 22 3 21 4 20 5 18 6 19 7 2 8 1 9 3 10 4 11 5 12
REMARK SMILES IDX 6 14 7 15 8 16 16 17 9 18 15 19 17 20 10 21 14 22 11 23
REMARK SMILES IDX 13 24 12 26 25 27 26 28 27 29 28 30 29 31 30 32 31 33 32 34
REMARK SMILES IDX 33 35 94 36 34 37 93 38 35 39 36 40 37 41 87 42 38 43 92 44
REMARK SMILES IDX 86 45 88 46 39 47 91 48 85 49 84 50 40 52 72 53 52 54 71 55
REMARK SMILES IDX 53 56 56 57 70 58 89 59 54 60 55 61 69 63 90 64 57 65 41 66
REMARK SMILES IDX 42 67 50 68 43 69 49 70 51 71 48 72 44 73 45 74 46 75 47 76
REMARK SMILES IDX 73 77 74 78 82 79 75 80 81 81 83 82 80 83 76 84 77 85 78 86
REMARK SMILES IDX 79 87 58 88 59 89 67 90 60 91 66 92 68 93 65 94 61 95 62 96
REMARK SMILES IDX 63 97 64 98
REMARK H PARENT 4 13 14 25 88 51 56 62
REMARK Flexibility Score: inf
ROOT
ATOM      1  C   UNL A   1      39.943  21.518  26.431  1.00  0.00     0.188 C 
ENDROOT
BRANCH   1   2
ATOM      2  O   UNL A   1      38.756  22.079  25.889  1.00  0.00    -0.376 OA
BRANCH   2   3
ATOM      3  C   UNL A   1      37.868  21.218  25.178  1.00  0.00     0.202 C 
BRANCH   3   4
ATOM      4  C   UNL A   1      36.382  21.181  25.585  1.00  0.00     0.261 C 
BRANCH   4   5
ATOM      5  O   UNL A   1      35.452  21.607  24.559  1.00  0.00    -0.463 OA
BRANCH   5   6
ATOM      6  C   UNL A   1      34.158  21.231  24.722  1.00  0.00     0.310 C 
ATOM      7  O   UNL A   1      33.773  20.531  25.654  1.00  0.00    -0.252 OA
BRANCH   6   8
ATOM      8  C   UNL A   1      33.173  21.824  23.702  1.00  0.00     0.115 C 
ATOM      9  C   UNL A   1      33.883  22.913  22.909  1.00  0.00     0.022 C 
BRANCH   8  10
ATOM     10  C   UNL A   1      31.766  22.217  24.201  1.00  0.00     0.132 C 
BRANCH  10  11
ATOM     11  N   UNL A   1      31.588  22.534  25.607  1.00  0.00    -0.337 N 
ATOM     12  C   UNL A   1      31.530  23.712  26.280  1.00  0.00     0.318 C 
ATOM     13  H   UNL A   1      31.490  21.743  26.184  1.00  0.00     0.165 HD
ATOM     14  O   UNL A   1      31.425  23.663  27.505  1.00  0.00    -0.249 OA
BRANCH  12  15
ATOM     15  N   UNL A   1      31.702  24.883  25.583  1.00  0.00    -0.311 N 
ATOM     16  C   UNL A   1      30.534  25.736  25.313  1.00  0.00     0.186 C 
ATOM     17  C   UNL A   1      32.926  25.669  25.836  1.00  0.00     0.139 C 
ATOM     18  C   UNL A   1      30.800  26.641  24.095  1.00  0.00     0.203 C 
ATOM     19  C   UNL A   1      33.134  26.811  24.796  1.00  0.00     0.287 C 
ATOM     20  C   UNL A   1      34.197  24.807  25.798  1.00  0.00     0.037 C 
ATOM     21  C   UNL A   1      29.574  27.495  23.743  1.00  0.00     0.067 C 
ATOM     22  N   UNL A   1      31.944  27.547  24.337  1.00  0.00    -0.329 N 
ATOM     23  C   UNL A   1      29.840  28.308  22.477  1.00  0.00     0.012 C 
ATOM     24  C   UNL A   1      32.275  28.294  23.105  1.00  0.00     0.262 C 
ATOM     25  H   UNL A   1      31.667  28.198  25.072  1.00  0.00     0.348 HD
ATOM     26  C   UNL A   1      31.105  29.144  22.621  1.00  0.00     0.062 C 
ENDBRANCH  12  15
ENDBRANCH  10  11
ENDBRANCH   8  10
ENDBRANCH   6   8
ENDBRANCH   5   6
ENDBRANCH   4   5
ENDBRANCH   3   4
ENDBRANCH   2   3
ENDBRANCH   1   2
BRANCH   1  27
ATOM     27  C   UNL A   1      40.250  20.047  26.130  1.00  0.00     0.188 C 
BRANCH  27  28
ATOM     28  O   UNL A   1      41.470  19.815  25.462  1.00  0.00    -0.376 OA
BRANCH  28  29
ATOM     29  C   UNL A   1      42.668  20.260  26.082  1.00  0.00     0.202 C 
BRANCH  29  30
ATOM     30  C   UNL A   1      43.511  21.362  25.402  1.00  0.00     0.261 C 
BRANCH  30  31
ATOM     31  O   UNL A   1      42.855  22.601  25.079  1.00  0.00    -0.460 OA
BRANCH  31  32
ATOM     32  C   UNL A   1      43.620  23.720  25.062  1.00  0.00     0.338 C 
ATOM     33  O   UNL A   1      44.510  23.974  24.261  1.00  0.00    -0.246 OA
BRANCH  32  34
ATOM     34  C   UNL A   1      42.989  24.711  25.970  1.00  0.00     0.060 A 
ATOM     35  C   UNL A   1      43.651  25.925  26.198  1.00  0.00     0.016 A 
ATOM     36  C   UNL A   1      41.744  24.481  26.553  1.00  0.00     0.016 A 
ATOM     37  C   UNL A   1      43.084  26.895  27.024  1.00  0.00     0.010 A 
ATOM     38  C   UNL A   1      41.195  25.442  27.415  1.00  0.00     0.010 A 
ATOM     39  C   UNL A   1      41.879  26.643  27.682  1.00  0.00    -0.014 A 
BRANCH  39  40
ATOM     40  C   UNL A   1      41.456  27.530  28.801  1.00  0.00     0.031 A 
ATOM     41  C   UNL A   1      42.235  27.464  30.089  1.00  0.00     0.074 A 
ATOM     42  C   UNL A   1      40.444  28.409  28.677  1.00  0.00     0.049 A 
ATOM     43  N   UNL A   1      42.000  28.043  31.238  1.00  0.00    -0.248 NA
ATOM     44  C   UNL A   1      43.443  26.626  30.073  1.00  0.00     0.031 C 
ATOM     45  C   UNL A   1      39.670  28.645  27.460  1.00  0.00     0.029 A 
ATOM     46  N   UNL A   1      39.888  29.267  29.598  1.00  0.00    -0.354 N 
ATOM     47  C   UNL A   1      43.013  27.617  32.090  1.00  0.00     0.074 A 
ATOM     48  C   UNL A   1      43.850  26.713  31.329  1.00  0.00     0.031 C 
ATOM     49  C   UNL A   1      38.727  29.568  27.716  1.00  0.00     0.029 A 
ATOM     50  C   UNL A   1      38.793  29.951  29.126  1.00  0.00     0.049 A 
ATOM     51  H   UNL A   1      40.242  29.380  30.510  1.00  0.00     0.167 HD
ATOM     52  C   UNL A   1      43.228  27.948  33.388  1.00  0.00     0.034 A 
ATOM     53  C   UNL A   1      37.918  30.757  29.767  1.00  0.00     0.034 A 
ATOM     54  C   UNL A   1      42.387  28.853  34.133  1.00  0.00     0.049 A 
ATOM     55  C   UNL A   1      38.111  31.030  31.242  1.00  0.00     0.074 A 
ATOM     56  C   UNL A   1      42.520  29.261  35.449  1.00  0.00     0.029 A 
ATOM     57  N   UNL A   1      41.253  29.480  33.637  1.00  0.00    -0.354 N 
ATOM     58  N   UNL A   1      39.057  30.600  32.047  1.00  0.00    -0.248 NA
ATOM     59  C   UNL A   1      37.122  31.899  31.894  1.00  0.00     0.031 C 
ATOM     60  C   UNL A   1      41.421  30.064  35.772  1.00  0.00     0.029 A 
ATOM     61  C   UNL A   1      40.655  30.240  34.631  1.00  0.00     0.049 A 
ATOM     62  H   UNL A   1      40.920  29.398  32.713  1.00  0.00     0.167 HD
ATOM     63  C   UNL A   1      38.793  31.178  33.289  1.00  0.00     0.074 A 
ATOM     64  C   UNL A   1      37.610  31.995  33.122  1.00  0.00     0.031 C 
ATOM     65  C   UNL A   1      39.469  31.049  34.459  1.00  0.00     0.034 A 
BRANCH  52  66
ATOM     66  C   UNL A   1      44.375  27.273  34.098  1.00  0.00     0.023 A 
ATOM     67  C   UNL A   1      44.290  25.951  34.570  1.00  0.00     0.031 A 
ATOM     68  C   UNL A   1      45.572  27.976  34.328  1.00  0.00     0.131 A 
ATOM     69  C   UNL A   1      45.351  25.401  35.304  1.00  0.00     0.055 A 
ATOM     70  C   UNL A   1      46.656  27.392  34.985  1.00  0.00     0.041 A 
ATOM     71  F   UNL A   1      45.703  29.251  33.928  1.00  0.00    -0.206 F 
ATOM     72  C   UNL A   1      46.544  26.101  35.489  1.00  0.00     0.022 A 
BRANCH  69  73
ATOM     73  S   UNL A   1      45.093  23.812  36.142  1.00  0.00     0.124 S 
ATOM     74  O   UNL A   1      46.298  23.080  35.763  1.00  0.00    -0.237 OA
ATOM     75  O   UNL A   1      44.997  24.206  37.542  1.00  0.00    -0.237 OA
ATOM     76  O   UNL A   1      43.856  23.309  35.548  1.00  0.00    -0.744 OA
ENDBRANCH  69  73
ENDBRANCH  52  66
BRANCH  53  77
ATOM     77  C   UNL A   1      36.734  31.317  29.048  1.00  0.00     0.023 A 
ATOM     78  C   UNL A   1      35.691  30.490  28.598  1.00  0.00     0.031 A 
ATOM     79  C   UNL A   1      36.663  32.688  28.736  1.00  0.00     0.131 A 
ATOM     80  C   UNL A   1      34.650  31.031  27.826  1.00  0.00     0.055 A 
ATOM     81  C   UNL A   1      35.595  33.232  28.021  1.00  0.00     0.041 A 
ATOM     82  F   UNL A   1      37.638  33.524  29.127  1.00  0.00    -0.206 F 
ATOM     83  C   UNL A   1      34.586  32.398  27.549  1.00  0.00     0.022 A 
BRANCH  80  84
ATOM     84  S   UNL A   1      33.429  29.903  27.100  1.00  0.00     0.124 S 
ATOM     85  O   UNL A   1      32.197  30.671  27.237  1.00  0.00    -0.237 OA
ATOM     86  O   UNL A   1      33.936  29.742  25.740  1.00  0.00    -0.237 OA
ATOM     87  O   UNL A   1      33.522  28.712  27.942  1.00  0.00    -0.744 OA
ENDBRANCH  80  84
ENDBRANCH  53  77
BRANCH  65  88
ATOM     88  C   UNL A   1      38.983  31.860  35.640  1.00  0.00     0.023 A 
ATOM     89  C   UNL A   1      38.298  31.274  36.718  1.00  0.00     0.031 A 
ATOM     90  C   UNL A   1      39.210  33.248  35.683  1.00  0.00     0.131 A 
ATOM     91  C   UNL A   1      37.812  32.079  37.760  1.00  0.00     0.055 A 
ATOM     92  C   UNL A   1      38.787  34.034  36.756  1.00  0.00     0.041 A 
ATOM     93  F   UNL A   1      39.856  33.867  34.681  1.00  0.00    -0.206 F 
ATOM     94  C   UNL A   1      38.069  33.451  37.796  1.00  0.00     0.022 A 
BRANCH  91  95
ATOM     95  S   UNL A   1      36.741  31.326  39.018  1.00  0.00     0.124 S 
ATOM     96  O   UNL A   1      35.598  32.235  39.025  1.00  0.00    -0.237 OA
ATOM     97  O   UNL A   1      36.497  29.998  38.464  1.00  0.00    -0.237 OA
ATOM     98  O   UNL A   1      37.562  31.352  40.227  1.00  0.00    -0.744 OA
ENDBRANCH  91  95
ENDBRANCH  65  88
ENDBRANCH  39  40
ENDBRANCH  32  34
ENDBRANCH  31  32
ENDBRANCH  30  31
ENDBRANCH  29  30
ENDBRANCH  28  29
ENDBRANCH  27  28
ENDBRANCH   1  27
TORSDOF 23
ENDMDL
MODEL 2
REMARK VINA RESULT:     -10.6      4.830      8.950
REMARK SMILES C[C@H](CNC(=O)N1C[C@H]2CCCC[N@@H+]2C[C@@H]1C)C(=O)OCCOCCOCCOC(=O)c1ccc(-c2c3nc(c(-c4cc(S(=O)(=O)[O-])ccc4F)c4ccc([nH]4)c(-c4cc(S(=O)(=O)[O-])ccc4F)c4nc(c(-c5cc(S(=O)(=O)[O-])ccc5F)c5ccc2[nH]5)C=C4)C=C3)cc1
REMARK SMILES IDX 24 1 23 2 22 3 21 4 20 5 18 6 19 7 2 8 1 9 3 10 4 11 5 12
REMARK SMILES IDX 6 14 7 15 8 16 16 17 9 18 15 19 17 20 10 21 14 22 11 23
REMARK SMILES IDX 13 24 12 26 25 27 26 28 27 29 28 30 29 31 30 32 31 33 32 34
REMARK SMILES IDX 33 35 94 36 34 37 93 38 35 39 36 40 37 41 87 42 38 43 92 44
REMARK SMILES IDX 86 45 88 46 39 47 91 48 85 49 84 50 40 52 72 53 52 54 71 55
REMARK SMILES IDX 53 56 56 57 70 58 89 59 54 60 55 61 69 63 90 64 57 65 41 66
REMARK SMILES IDX 42 67 50 68 43 69 49 70 51 71 48 72 44 73 45 74 46 75 47 76
REMARK SMILES IDX 73 77 74 78 82 79 75 80 81 81 83 82 80 83 76 84 77 85 78 86
REMARK SMILES IDX 79 87 58 88 59 89 67 90 60 91 66 92 68 93 65 94 61 95 62 96
REMARK SMILES IDX 63 97 64 98
REMARK H PARENT 4 13 14 25 88 51 56 62
REMARK Flexibility Score: inf
ROOT
ATOM      1  C   UNL A   1      33.516  19.071  24.957  1.00  0.00     0.188 C 
ENDROOT
BRANCH   1   2
ATOM      2  O   UNL A   1      32.665  19.514  23.909  1.00  0.00    -0.376 OA
BRANCH   2   3
ATOM      3  C   UNL A   1      32.275  20.885  23.893  1.00  0.00     0.202 C 
BRANCH   3   4
ATOM      4  C   UNL A   1      32.225  21.661  25.225  1.00  0.00     0.261 C 
BRANCH   4   5
ATOM      5  O   UNL A   1      30.898  21.854  25.775  1.00  0.00    -0.463 OA
BRANCH   5   6
ATOM      6  C   UNL A   1      30.635  23.077  26.302  1.00  0.00     0.310 C 
ATOM      7  O   UNL A   1      30.069  23.237  27.380  1.00  0.00    -0.252 OA
BRANCH   6   8
ATOM      8  C   UNL A   1      31.180  24.266  25.496  1.00  0.00     0.115 C 
ATOM      9  C   UNL A   1      31.543  25.388  26.461  1.00  0.00     0.022 C 
BRANCH   8  10
ATOM     10  C   UNL A   1      30.381  24.728  24.258  1.00  0.00     0.132 C 
BRANCH  10  11
ATOM     11  N   UNL A   1      31.103  25.030  23.035  1.00  0.00    -0.337 N 
ATOM     12  C   UNL A   1      31.808  26.118  22.633  1.00  0.00     0.318 C 
ATOM     13  H   UNL A   1      31.077  24.306  22.369  1.00  0.00     0.165 HD
ATOM     14  O   UNL A   1      32.273  26.107  21.493  1.00  0.00    -0.249 OA
BRANCH  12  15
ATOM     15  N   UNL A   1      31.873  27.210  23.464  1.00  0.00    -0.311 N 
ATOM     16  C   UNL A   1      33.164  27.580  24.064  1.00  0.00     0.186 C 
ATOM     17  C   UNL A   1      31.051  28.389  23.127  1.00  0.00     0.139 C 
ATOM     18  C   UNL A   1      32.944  28.410  25.343  1.00  0.00     0.203 C 
ATOM     19  C   UNL A   1      30.998  29.437  24.281  1.00  0.00     0.287 C 
ATOM     20  C   UNL A   1      29.594  28.020  22.807  1.00  0.00     0.037 C 
ATOM     21  C   UNL A   1      34.272  28.754  26.033  1.00  0.00     0.067 C 
ATOM     22  N   UNL A   1      32.232  29.673  25.050  1.00  0.00    -0.329 N 
ATOM     23  C   UNL A   1      34.011  29.494  27.344  1.00  0.00     0.012 C 
ATOM     24  C   UNL A   1      31.897  30.376  26.306  1.00  0.00     0.262 C 
ATOM     25  H   UNL A   1      32.855  30.250  24.486  1.00  0.00     0.348 HD
ATOM     26  C   UNL A   1      33.143  30.724  27.114  1.00  0.00     0.062 C 
ENDBRANCH  12  15
ENDBRANCH  10  11
ENDBRANCH   8  10
ENDBRANCH   6   8
ENDBRANCH   5   6
ENDBRANCH   4   5
ENDBRANCH   3   4
ENDBRANCH   2   3
ENDBRANCH   1   2
BRANCH   1  27
ATOM     27  C   UNL A   1      34.914  18.563  24.586  1.00  0.00     0.188 C 
BRANCH  27  28
ATOM     28  O   UNL A   1      35.964  19.471  24.830  1.00  0.00    -0.376 OA
BRANCH  28  29
ATOM     29  C   UNL A   1      35.644  20.724  25.416  1.00  0.00     0.202 C 
BRANCH  29  30
ATOM     30  C   UNL A   1      36.745  21.798  25.562  1.00  0.00     0.261 C 
BRANCH  30  31
ATOM     31  O   UNL A   1      38.040  21.508  25.005  1.00  0.00    -0.460 OA
BRANCH  31  32
ATOM     32  C   UNL A   1      39.008  21.108  25.865  1.00  0.00     0.338 C 
ATOM     33  O   UNL A   1      39.484  19.983  25.945  1.00  0.00    -0.246 OA
BRANCH  32  34
ATOM     34  C   UNL A   1      39.609  22.327  26.464  1.00  0.00     0.060 A 
ATOM     35  C   UNL A   1      39.173  23.579  26.010  1.00  0.00     0.016 A 
ATOM     36  C   UNL A   1      40.551  22.251  27.489  1.00  0.00     0.016 A 
ATOM     37  C   UNL A   1      39.692  24.751  26.561  1.00  0.00     0.010 A 
ATOM     38  C   UNL A   1      41.100  23.431  28.013  1.00  0.00     0.010 A 
ATOM     39  C   UNL A   1      40.697  24.690  27.528  1.00  0.00    -0.014 A 
BRANCH  39  40
ATOM     40  C   UNL A   1      41.467  25.919  27.863  1.00  0.00     0.031 A 
ATOM     41  C   UNL A   1      40.774  26.993  28.659  1.00  0.00     0.074 A 
ATOM     42  C   UNL A   1      42.761  26.071  27.522  1.00  0.00     0.049 A 
ATOM     43  N   UNL A   1      41.183  28.194  28.977  1.00  0.00    -0.248 NA
ATOM     44  C   UNL A   1      39.431  26.662  29.161  1.00  0.00     0.031 C 
ATOM     45  C   UNL A   1      43.580  25.074  26.836  1.00  0.00     0.029 A 
ATOM     46  N   UNL A   1      43.612  27.137  27.702  1.00  0.00    -0.354 N 
ATOM     47  C   UNL A   1      40.139  28.773  29.691  1.00  0.00     0.074 A 
ATOM     48  C   UNL A   1      39.070  27.798  29.738  1.00  0.00     0.031 C 
ATOM     49  C   UNL A   1      44.808  25.582  26.635  1.00  0.00     0.029 A 
ATOM     50  C   UNL A   1      44.850  26.960  27.127  1.00  0.00     0.049 A 
ATOM     51  H   UNL A   1      43.359  27.950  28.196  1.00  0.00     0.167 HD
ATOM     52  C   UNL A   1      40.077  30.004  30.257  1.00  0.00     0.034 A 
ATOM     53  C   UNL A   1      45.878  27.821  26.975  1.00  0.00     0.034 A 
ATOM     54  C   UNL A   1      41.151  30.965  30.206  1.00  0.00     0.049 A 
ATOM     55  C   UNL A   1      45.750  29.227  27.519  1.00  0.00     0.074 A 
ATOM     56  C   UNL A   1      41.194  32.236  30.751  1.00  0.00     0.029 A 
ATOM     57  N   UNL A   1      42.367  30.770  29.563  1.00  0.00    -0.354 N 
ATOM     58  N   UNL A   1      44.747  29.775  28.169  1.00  0.00    -0.248 NA
ATOM     59  C   UNL A   1      46.891  30.128  27.313  1.00  0.00     0.031 C 
ATOM     60  C   UNL A   1      42.396  32.840  30.366  1.00  0.00     0.029 A 
ATOM     61  C   UNL A   1      43.149  31.911  29.666  1.00  0.00     0.049 A 
ATOM     62  H   UNL A   1      42.635  29.942  29.102  1.00  0.00     0.167 HD
ATOM     63  C   UNL A   1      45.157  31.073  28.477  1.00  0.00     0.074 A 
ATOM     64  C   UNL A   1      46.499  31.219  27.955  1.00  0.00     0.031 C 
ATOM     65  C   UNL A   1      44.486  32.052  29.136  1.00  0.00     0.034 A 
BRANCH  52  66
ATOM     66  C   UNL A   1      38.779  30.403  30.916  1.00  0.00     0.023 A 
ATOM     67  C   UNL A   1      37.809  31.176  30.253  1.00  0.00     0.031 A 
ATOM     68  C   UNL A   1      38.518  30.018  32.244  1.00  0.00     0.131 A 
ATOM     69  C   UNL A   1      36.661  31.596  30.941  1.00  0.00     0.055 A 
ATOM     70  C   UNL A   1      37.333  30.368  32.893  1.00  0.00     0.041 A 
ATOM     71  F   UNL A   1      39.418  29.305  32.938  1.00  0.00    -0.206 F 
ATOM     72  C   UNL A   1      36.402  31.173  32.246  1.00  0.00     0.022 A 
BRANCH  69  73
ATOM     73  S   UNL A   1      35.583  32.825  30.155  1.00  0.00     0.124 S 
ATOM     74  O   UNL A   1      35.762  32.513  28.740  1.00  0.00    -0.237 OA
ATOM     75  O   UNL A   1      34.277  32.506  30.720  1.00  0.00    -0.237 OA
ATOM     76  O   UNL A   1      36.152  34.102  30.580  1.00  0.00    -0.744 OA
ENDBRANCH  69  73
ENDBRANCH  52  66
BRANCH  53  77
ATOM     77  C   UNL A   1      47.103  27.417  26.220  1.00  0.00     0.023 A 
ATOM     78  C   UNL A   1      47.276  27.759  24.869  1.00  0.00     0.031 A 
ATOM     79  C   UNL A   1      48.091  26.617  26.825  1.00  0.00     0.131 A 
ATOM     80  C   UNL A   1      48.383  27.266  24.157  1.00  0.00     0.055 A 
ATOM     81  C   UNL A   1      49.220  26.181  26.130  1.00  0.00     0.041 A 
ATOM     82  F   UNL A   1      47.972  26.247  28.110  1.00  0.00    -0.206 F 
ATOM     83  C   UNL A   1      49.364  26.495  24.783  1.00  0.00     0.022 A 
BRANCH  80  84
ATOM     84  S   UNL A   1      48.470  27.564  22.370  1.00  0.00     0.124 S 
ATOM     85  O   UNL A   1      47.232  28.296  22.131  1.00  0.00    -0.237 OA
ATOM     86  O   UNL A   1      49.704  28.335  22.252  1.00  0.00    -0.237 OA
ATOM     87  O   UNL A   1      48.523  26.219  21.802  1.00  0.00    -0.744 OA
ENDBRANCH  80  84
ENDBRANCH  53  77
BRANCH  65  88
ATOM     88  C   UNL A   1      45.218  33.351  29.387  1.00  0.00     0.023 A 
ATOM     89  C   UNL A   1      45.258  34.383  28.433  1.00  0.00     0.031 A 
ATOM     90  C   UNL A   1      45.889  33.559  30.606  1.00  0.00     0.131 A 
ATOM     91  C   UNL A   1      46.003  35.545  28.688  1.00  0.00     0.055 A 
ATOM     92  C   UNL A   1      46.569  34.746  30.884  1.00  0.00     0.041 A 
ATOM     93  F   UNL A   1      45.890  32.609  31.556  1.00  0.00    -0.206 F 
ATOM     94  C   UNL A   1      46.642  35.741  29.915  1.00  0.00     0.022 A 
BRANCH  91  95
ATOM     95  S   UNL A   1      46.220  36.754  27.352  1.00  0.00     0.124 S 
ATOM     96  O   UNL A   1      47.041  37.774  27.997  1.00  0.00    -0.237 OA
ATOM     97  O   UNL A   1      46.881  35.962  26.320  1.00  0.00    -0.237 OA
ATOM     98  O   UNL A   1      44.853  37.165  27.037  1.00  0.00    -0.744 OA
ENDBRANCH  91  95
ENDBRANCH  65  88
ENDBRANCH  39  40
ENDBRANCH  32  34
ENDBRANCH  31  32
ENDBRANCH  30  31
ENDBRANCH  29  30
ENDBRANCH  28  29
ENDBRANCH  27  28
ENDBRANCH   1  27
TORSDOF 23
ENDMDL
MODEL 3
REMARK VINA RESULT:     -10.4      4.786      9.028
REMARK SMILES C[C@H](CNC(=O)N1C[C@H]2CCCC[N@@H+]2C[C@@H]1C)C(=O)OCCOCCOCCOC(=O)c1ccc(-c2c3nc(c(-c4cc(S(=O)(=O)[O-])ccc4F)c4ccc([nH]4)c(-c4cc(S(=O)(=O)[O-])ccc4F)c4nc(c(-c5cc(S(=O)(=O)[O-])ccc5F)c5ccc2[nH]5)C=C4)C=C3)cc1
REMARK SMILES IDX 24 1 23 2 22 3 21 4 20 5 18 6 19 7 2 8 1 9 3 10 4 11 5 12
REMARK SMILES IDX 6 14 7 15 8 16 16 17 9 18 15 19 17 20 10 21 14 22 11 23
REMARK SMILES IDX 13 24 12 26 25 27 26 28 27 29 28 30 29 31 30 32 31 33 32 34
REMARK SMILES IDX 33 35 94 36 34 37 93 38 35 39 36 40 37 41 87 42 38 43 92 44
REMARK SMILES IDX 86 45 88 46 39 47 91 48 85 49 84 50 40 52 72 53 52 54 71 55
REMARK SMILES IDX 53 56 56 57 70 58 89 59 54 60 55 61 69 63 90 64 57 65 41 66
REMARK SMILES IDX 42 67 50 68 43 69 49 70 51 71 48 72 44 73 45 74 46 75 47 76
REMARK SMILES IDX 73 77 74 78 82 79 75 80 81 81 83 82 80 83 76 84 77 85 78 86
REMARK SMILES IDX 79 87 58 88 59 89 67 90 60 91 66 92 68 93 65 94 61 95 62 96
REMARK SMILES IDX 63 97 64 98
REMARK H PARENT 4 13 14 25 88 51 56 62
REMARK Flexibility Score: inf
ROOT
ATOM      1  C   UNL A   1      33.519  18.994  24.842  1.00  0.00     0.188 C 
ENDROOT
BRANCH   1   2
ATOM      2  O   UNL A   1      32.740  19.512  23.773  1.00  0.00    -0.376 OA
BRANCH   2   3
ATOM      3  C   UNL A   1      32.139  20.794  23.938  1.00  0.00     0.202 C 
BRANCH   3   4
ATOM      4  C   UNL A   1      32.074  21.410  25.350  1.00  0.00     0.261 C 
BRANCH   4   5
ATOM      5  O   UNL A   1      30.988  22.345  25.564  1.00  0.00    -0.463 OA
BRANCH   5   6
ATOM      6  C   UNL A   1      31.329  23.568  26.045  1.00  0.00     0.310 C 
ATOM      7  O   UNL A   1      30.972  23.981  27.145  1.00  0.00    -0.252 OA
BRANCH   6   8
ATOM      8  C   UNL A   1      32.283  24.377  25.153  1.00  0.00     0.115 C 
ATOM      9  C   UNL A   1      33.261  25.137  26.042  1.00  0.00     0.022 C 
BRANCH   8  10
ATOM     10  C   UNL A   1      31.667  25.224  24.018  1.00  0.00     0.132 C 
BRANCH  10  11
ATOM     11  N   UNL A   1      32.547  25.766  22.998  1.00  0.00    -0.337 N 
ATOM     12  C   UNL A   1      32.689  27.013  22.479  1.00  0.00     0.318 C 
ATOM     13  H   UNL A   1      33.159  25.102  22.607  1.00  0.00     0.165 HD
ATOM     14  O   UNL A   1      33.499  27.160  21.564  1.00  0.00    -0.249 OA
BRANCH  12  15
ATOM     15  N   UNL A   1      31.854  28.012  22.917  1.00  0.00    -0.311 N 
ATOM     16  C   UNL A   1      30.460  28.039  22.451  1.00  0.00     0.186 C 
ATOM     17  C   UNL A   1      31.988  28.464  24.316  1.00  0.00     0.139 C 
ATOM     18  C   UNL A   1      29.882  29.463  22.566  1.00  0.00     0.203 C 
ATOM     19  C   UNL A   1      31.192  29.773  24.605  1.00  0.00     0.287 C 
ATOM     20  C   UNL A   1      33.447  28.746  24.707  1.00  0.00     0.037 C 
ATOM     21  C   UNL A   1      28.449  29.540  22.021  1.00  0.00     0.067 C 
ATOM     22  N   UNL A   1      29.872  29.927  23.971  1.00  0.00    -0.329 N 
ATOM     23  C   UNL A   1      27.943  30.982  22.065  1.00  0.00     0.012 C 
ATOM     24  C   UNL A   1      29.460  31.346  24.038  1.00  0.00     0.262 C 
ATOM     25  H   UNL A   1      29.203  29.348  24.478  1.00  0.00     0.348 HD
ATOM     26  C   UNL A   1      28.061  31.560  23.469  1.00  0.00     0.062 C 
ENDBRANCH  12  15
ENDBRANCH  10  11
ENDBRANCH   8  10
ENDBRANCH   6   8
ENDBRANCH   5   6
ENDBRANCH   4   5
ENDBRANCH   3   4
ENDBRANCH   2   3
ENDBRANCH   1   2
BRANCH   1  27
ATOM     27  C   UNL A   1      34.911  18.441  24.520  1.00  0.00     0.188 C 
BRANCH  27  28
ATOM     28  O   UNL A   1      35.984  19.304  24.829  1.00  0.00    -0.376 OA
BRANCH  28  29
ATOM     29  C   UNL A   1      35.684  20.563  25.411  1.00  0.00     0.202 C 
BRANCH  29  30
ATOM     30  C   UNL A   1      36.718  21.708  25.322  1.00  0.00     0.261 C 
BRANCH  30  31
ATOM     31  O   UNL A   1      38.047  21.374  24.881  1.00  0.00    -0.460 OA
BRANCH  31  32
ATOM     32  C   UNL A   1      38.930  20.971  25.827  1.00  0.00     0.338 C 
ATOM     33  O   UNL A   1      39.352  19.832  25.982  1.00  0.00    -0.246 OA
BRANCH  32  34
ATOM     34  C   UNL A   1      39.533  22.187  26.428  1.00  0.00     0.060 A 
ATOM     35  C   UNL A   1      39.113  23.441  25.961  1.00  0.00     0.016 A 
ATOM     36  C   UNL A   1      40.459  22.109  27.466  1.00  0.00     0.016 A 
ATOM     37  C   UNL A   1      39.634  24.611  26.513  1.00  0.00     0.010 A 
ATOM     38  C   UNL A   1      41.011  23.287  27.992  1.00  0.00     0.010 A 
ATOM     39  C   UNL A   1      40.625  24.546  27.495  1.00  0.00    -0.014 A 
BRANCH  39  40
ATOM     40  C   UNL A   1      41.401  25.771  27.834  1.00  0.00     0.031 A 
ATOM     41  C   UNL A   1      40.708  26.852  28.623  1.00  0.00     0.074 A 
ATOM     42  C   UNL A   1      42.699  25.914  27.504  1.00  0.00     0.049 A 
ATOM     43  N   UNL A   1      41.123  28.050  28.942  1.00  0.00    -0.248 NA
ATOM     44  C   UNL A   1      39.359  26.531  29.113  1.00  0.00     0.031 C 
ATOM     45  C   UNL A   1      43.517  24.909  26.827  1.00  0.00     0.029 A 
ATOM     46  N   UNL A   1      43.556  26.974  27.689  1.00  0.00    -0.354 N 
ATOM     47  C   UNL A   1      40.077  28.637  29.646  1.00  0.00     0.074 A 
ATOM     48  C   UNL A   1      39.001  27.670  29.684  1.00  0.00     0.031 C 
ATOM     49  C   UNL A   1      44.750  25.409  26.636  1.00  0.00     0.029 A 
ATOM     50  C   UNL A   1      44.797  26.787  27.126  1.00  0.00     0.049 A 
ATOM     51  H   UNL A   1      43.304  27.790  28.180  1.00  0.00     0.167 HD
ATOM     52  C   UNL A   1      40.018  29.870  30.208  1.00  0.00     0.034 A 
ATOM     53  C   UNL A   1      45.833  27.641  26.982  1.00  0.00     0.034 A 
ATOM     54  C   UNL A   1      41.100  30.824  30.164  1.00  0.00     0.049 A 
ATOM     55  C   UNL A   1      45.709  29.049  27.522  1.00  0.00     0.074 A 
ATOM     56  C   UNL A   1      41.146  32.095  30.708  1.00  0.00     0.029 A 
ATOM     57  N   UNL A   1      42.319  30.619  29.533  1.00  0.00    -0.354 N 
ATOM     58  N   UNL A   1      44.705  29.605  28.162  1.00  0.00    -0.248 NA
ATOM     59  C   UNL A   1      46.859  29.941  27.323  1.00  0.00     0.031 C 
ATOM     60  C   UNL A   1      42.355  32.690  30.333  1.00  0.00     0.029 A 
ATOM     61  C   UNL A   1      43.108  31.755  29.641  1.00  0.00     0.049 A 
ATOM     62  H   UNL A   1      42.586  29.788  29.076  1.00  0.00     0.167 HD
ATOM     63  C   UNL A   1      45.120  30.901  28.471  1.00  0.00     0.074 A 
ATOM     64  C   UNL A   1      46.468  31.036  27.960  1.00  0.00     0.031 C 
ATOM     65  C   UNL A   1      44.451  31.886  29.123  1.00  0.00     0.034 A 
BRANCH  52  66
ATOM     66  C   UNL A   1      38.717  30.279  30.855  1.00  0.00     0.023 A 
ATOM     67  C   UNL A   1      37.695  30.925  30.137  1.00  0.00     0.031 A 
ATOM     68  C   UNL A   1      38.506  30.037  32.225  1.00  0.00     0.131 A 
ATOM     69  C   UNL A   1      36.543  31.365  30.806  1.00  0.00     0.055 A 
ATOM     70  C   UNL A   1      37.320  30.401  32.865  1.00  0.00     0.041 A 
ATOM     71  F   UNL A   1      39.457  29.451  32.969  1.00  0.00    -0.206 F 
ATOM     72  C   UNL A   1      36.336  31.082  32.158  1.00  0.00     0.022 A 
BRANCH  69  73
ATOM     73  S   UNL A   1      35.386  32.444  29.918  1.00  0.00     0.124 S 
ATOM     74  O   UNL A   1      35.062  31.631  28.749  1.00  0.00    -0.237 OA
ATOM     75  O   UNL A   1      34.314  32.624  30.890  1.00  0.00    -0.237 OA
ATOM     76  O   UNL A   1      36.179  33.638  29.635  1.00  0.00    -0.744 OA
ENDBRANCH  69  73
ENDBRANCH  52  66
BRANCH  53  77
ATOM     77  C   UNL A   1      47.061  27.227  26.238  1.00  0.00     0.023 A 
ATOM     78  C   UNL A   1      48.082  26.490  26.863  1.00  0.00     0.031 A 
ATOM     79  C   UNL A   1      47.264  27.625  24.904  1.00  0.00     0.131 A 
ATOM     80  C   UNL A   1      49.273  26.216  26.171  1.00  0.00     0.055 A 
ATOM     81  C   UNL A   1      48.424  27.297  24.200  1.00  0.00     0.041 A 
ATOM     82  F   UNL A   1      46.329  28.343  24.260  1.00  0.00    -0.206 F 
ATOM     83  C   UNL A   1      49.443  26.600  24.839  1.00  0.00     0.022 A 
BRANCH  80  84
ATOM     84  S   UNL A   1      50.642  25.437  27.070  1.00  0.00     0.124 S 
ATOM     85  O   UNL A   1      49.983  24.284  27.672  1.00  0.00    -0.237 OA
ATOM     86  O   UNL A   1      51.586  25.148  25.994  1.00  0.00    -0.237 OA
ATOM     87  O   UNL A   1      51.069  26.475  28.007  1.00  0.00    -0.744 OA
ENDBRANCH  80  84
ENDBRANCH  53  77
BRANCH  65  88
ATOM     88  C   UNL A   1      45.189  33.180  29.378  1.00  0.00     0.023 A 
ATOM     89  C   UNL A   1      45.030  34.307  28.552  1.00  0.00     0.031 A 
ATOM     90  C   UNL A   1      46.072  33.286  30.468  1.00  0.00     0.131 A 
ATOM     91  C   UNL A   1      45.785  35.466  28.793  1.00  0.00     0.055 A 
ATOM     92  C   UNL A   1      46.767  34.464  30.746  1.00  0.00     0.041 A 
ATOM     93  F   UNL A   1      46.269  32.243  31.291  1.00  0.00    -0.206 F 
ATOM     94  C   UNL A   1      46.637  35.558  29.896  1.00  0.00     0.022 A 
BRANCH  91  95
ATOM     95  S   UNL A   1      45.724  36.816  27.582  1.00  0.00     0.124 S 
ATOM     96  O   UNL A   1      44.495  36.513  26.854  1.00  0.00    -0.237 OA
ATOM     97  O   UNL A   1      45.684  37.998  28.436  1.00  0.00    -0.237 OA
ATOM     98  O   UNL A   1      46.957  36.647  26.817  1.00  0.00    -0.744 OA
ENDBRANCH  91  95
ENDBRANCH  65  88
ENDBRANCH  39  40
ENDBRANCH  32  34
ENDBRANCH  31  32
ENDBRANCH  30  31
ENDBRANCH  29  30
ENDBRANCH  28  29
ENDBRANCH  27  28
ENDBRANCH   1  27
TORSDOF 23
ENDMDL
