MODEL 1
REMARK VINA RESULT:     -11.3      0.000      0.000
REMARK SMILES Cc1cc(Cl)cc2c1O[C@H](C(F)(F)F)C(C(=O)OCCOCCOCCOC(=O)c1ccc(-c3c4nc(c(-c5cc(S(=O)(=O)[O-])ccc5F)c5ccc([nH]5)c(-c5cc(S(=O)(=O)[O-])ccc5F)c5nc(c(-c6cc(S(=O)(=O)[O-])ccc6F)c6ccc3[nH]6)C=C5)C=C4)cc1)=C2
REMARK SMILES IDX 23 1 22 2 21 3 20 4 19 5 18 6 16 7 17 8 15 9 1 10 2 11 3 12
REMARK SMILES IDX 8 13 4 14 7 15 9 16 5 17 6 18 93 19 10 20 11 21 12 22 13 23
REMARK SMILES IDX 14 24 24 25 25 26 26 27 27 28 28 29 29 30 30 31 31 32 92 33
REMARK SMILES IDX 32 34 91 35 33 36 34 37 35 38 85 39 36 40 90 41 84 42 86 43
REMARK SMILES IDX 37 44 89 45 83 46 82 47 38 49 70 50 50 51 69 52 51 53 54 54
REMARK SMILES IDX 68 55 87 56 52 57 53 58 67 60 88 61 55 62 39 63 40 64 48 65
REMARK SMILES IDX 41 66 47 67 49 68 46 69 42 70 43 71 44 72 45 73 71 74 72 75
REMARK SMILES IDX 80 76 73 77 79 78 81 79 78 80 74 81 75 82 76 83 77 84 56 85
REMARK SMILES IDX 57 86 65 87 58 88 64 89 66 90 63 91 59 92 60 93 61 94 62 95
REMARK H PARENT 86 48 54 59
REMARK Flexibility Score: inf
ROOT
ATOM      1  C   UNL A   1      32.462  29.448  24.671  1.00  0.00     0.188 C 
ENDROOT
BRANCH   1   2
ATOM      2  C   UNL A   1      32.472  27.905  24.733  1.00  0.00     0.188 C 
BRANCH   2   3
ATOM      3  O   UNL A   1      31.382  27.151  24.238  1.00  0.00    -0.376 OA
BRANCH   3   4
ATOM      4  C   UNL A   1      30.804  26.123  25.025  1.00  0.00     0.202 C 
BRANCH   4   5
ATOM      5  C   UNL A   1      31.583  25.507  26.186  1.00  0.00     0.261 C 
BRANCH   5   6
ATOM      6  O   UNL A   1      31.628  24.075  26.136  1.00  0.00    -0.460 OA
BRANCH   6   7
ATOM      7  C   UNL A   1      32.832  23.554  25.799  1.00  0.00     0.338 C 
ATOM      8  O   UNL A   1      33.928  23.979  26.125  1.00  0.00    -0.246 OA
BRANCH   7   9
ATOM      9  C   UNL A   1      32.636  22.302  25.046  1.00  0.00     0.087 C 
ATOM     10  C   UNL A   1      32.178  18.720  21.415  1.00  0.00     0.048 C 
ATOM     11  C   UNL A   1      32.422  18.725  22.898  1.00  0.00    -0.007 A 
ATOM     12  C   UNL A   1      32.641  17.514  23.571  1.00  0.00     0.027 A 
ATOM     13  C   UNL A   1      32.429  19.926  23.628  1.00  0.00     0.131 A 
ATOM     14  C   UNL A   1      32.875  17.506  24.945  1.00  0.00     0.042 A 
ATOM     15  C   UNL A   1      32.693  19.913  25.003  1.00  0.00     0.019 A 
ATOM     16  O   UNL A   1      32.170  21.072  22.928  1.00  0.00    -0.475 OA
ATOM     17  Cl  UNL A   1      33.151  16.014  25.751  1.00  0.00    -0.084 Cl
ATOM     18  C   UNL A   1      32.904  18.699  25.664  1.00  0.00     0.032 A 
ATOM     19  C   UNL A   1      32.805  21.165  25.732  1.00  0.00     0.027 C 
ATOM     20  C   UNL A   1      32.283  22.360  23.587  1.00  0.00     0.316 C 
BRANCH  20  21
ATOM     21  C   UNL A   1      33.260  23.225  22.779  1.00  0.00     0.430 C 
ATOM     22  F   UNL A   1      33.018  24.546  22.968  1.00  0.00    -0.167 F 
ATOM     23  F   UNL A   1      34.545  23.018  23.153  1.00  0.00    -0.167 F 
ATOM     24  F   UNL A   1      33.181  22.985  21.452  1.00  0.00    -0.167 F 
ENDBRANCH  20  21
ENDBRANCH   7   9
ENDBRANCH   6   7
ENDBRANCH   5   6
ENDBRANCH   4   5
ENDBRANCH   3   4
ENDBRANCH   2   3
ENDBRANCH   1   2
BRANCH   1  25
ATOM     25  O   UNL A   1      31.510  30.208  25.391  1.00  0.00    -0.376 OA
BRANCH  25  26
ATOM     26  C   UNL A   1      31.866  30.820  26.621  1.00  0.00     0.202 C 
BRANCH  26  27
ATOM     27  C   UNL A   1      31.669  32.317  26.883  1.00  0.00     0.261 C 
BRANCH  27  28
ATOM     28  O   UNL A   1      32.849  33.117  26.770  1.00  0.00    -0.460 OA
BRANCH  28  29
ATOM     29  C   UNL A   1      33.319  33.603  27.948  1.00  0.00     0.338 C 
ATOM     30  O   UNL A   1      32.769  34.401  28.686  1.00  0.00    -0.246 OA
BRANCH  29  31
ATOM     31  C   UNL A   1      34.546  32.874  28.312  1.00  0.00     0.060 A 
ATOM     32  C   UNL A   1      34.431  31.527  28.677  1.00  0.00     0.016 A 
ATOM     33  C   UNL A   1      35.783  33.519  28.336  1.00  0.00     0.016 A 
ATOM     34  C   UNL A   1      35.561  30.820  29.084  1.00  0.00     0.010 A 
ATOM     35  C   UNL A   1      36.909  32.817  28.772  1.00  0.00     0.010 A 
ATOM     36  C   UNL A   1      36.798  31.473  29.171  1.00  0.00    -0.014 A 
BRANCH  36  37
ATOM     37  C   UNL A   1      37.924  30.807  29.864  1.00  0.00     0.031 A 
ATOM     38  C   UNL A   1      38.194  31.169  31.299  1.00  0.00     0.074 A 
ATOM     39  C   UNL A   1      38.666  29.868  29.249  1.00  0.00     0.049 A 
ATOM     40  N   UNL A   1      39.143  30.753  32.095  1.00  0.00    -0.248 NA
ATOM     41  C   UNL A   1      37.262  32.127  31.918  1.00  0.00     0.031 C 
ATOM     42  C   UNL A   1      38.456  29.381  27.887  1.00  0.00     0.029 A 
ATOM     43  N   UNL A   1      39.746  29.151  29.699  1.00  0.00    -0.354 N 
ATOM     44  C   UNL A   1      38.913  31.381  33.313  1.00  0.00     0.074 A 
ATOM     45  C   UNL A   1      37.758  32.236  33.140  1.00  0.00     0.031 C 
ATOM     46  C   UNL A   1      39.377  28.440  27.614  1.00  0.00     0.029 A 
ATOM     47  C   UNL A   1      40.264  28.285  28.766  1.00  0.00     0.049 A 
ATOM     48  H   UNL A   1      40.115  29.248  30.607  1.00  0.00     0.167 HD
ATOM     49  C   UNL A   1      39.595  31.249  34.475  1.00  0.00     0.034 A 
ATOM     50  C   UNL A   1      41.343  27.478  28.831  1.00  0.00     0.034 A 
ATOM     51  C   UNL A   1      40.758  30.416  34.634  1.00  0.00     0.049 A 
ATOM     52  C   UNL A   1      42.170  27.451  30.095  1.00  0.00     0.074 A 
ATOM     53  C   UNL A   1      41.539  30.237  35.762  1.00  0.00     0.029 A 
ATOM     54  N   UNL A   1      41.310  29.627  33.636  1.00  0.00    -0.354 N 
ATOM     55  N   UNL A   1      41.972  28.089  31.225  1.00  0.00    -0.248 NA
ATOM     56  C   UNL A   1      43.371  26.603  30.087  1.00  0.00     0.031 C 
ATOM     57  C   UNL A   1      42.597  29.386  35.430  1.00  0.00     0.029 A 
ATOM     58  C   UNL A   1      42.438  28.981  34.113  1.00  0.00     0.049 A 
ATOM     59  H   UNL A   1      40.953  29.540  32.723  1.00  0.00     0.167 HD
ATOM     60  C   UNL A   1      43.009  27.699  32.069  1.00  0.00     0.074 A 
ATOM     61  C   UNL A   1      43.829  26.771  31.320  1.00  0.00     0.031 C 
ATOM     62  C   UNL A   1      43.254  28.069  33.351  1.00  0.00     0.034 A 
BRANCH  49  63
ATOM     63  C   UNL A   1      39.118  32.054  35.652  1.00  0.00     0.023 A 
ATOM     64  C   UNL A   1      38.392  31.460  36.698  1.00  0.00     0.031 A 
ATOM     65  C   UNL A   1      39.398  33.429  35.732  1.00  0.00     0.131 A 
ATOM     66  C   UNL A   1      37.936  32.248  37.763  1.00  0.00     0.055 A 
ATOM     67  C   UNL A   1      38.994  34.196  36.825  1.00  0.00     0.041 A 
ATOM     68  F   UNL A   1      40.069  34.048  34.748  1.00  0.00    -0.206 F 
ATOM     69  C   UNL A   1      38.253  33.607  37.847  1.00  0.00     0.022 A 
BRANCH  66  70
ATOM     70  S   UNL A   1      36.859  31.489  39.009  1.00  0.00     0.124 S 
ATOM     71  O   UNL A   1      37.686  31.581  40.208  1.00  0.00    -0.237 OA
ATOM     72  O   UNL A   1      35.681  32.348  38.977  1.00  0.00    -0.237 OA
ATOM     73  O   UNL A   1      36.654  30.133  38.502  1.00  0.00    -0.744 OA
ENDBRANCH  66  70
ENDBRANCH  49  63
BRANCH  50  74
ATOM     74  C   UNL A   1      41.737  26.651  27.657  1.00  0.00     0.023 A 
ATOM     75  C   UNL A   1      41.381  25.296  27.575  1.00  0.00     0.031 A 
ATOM     76  C   UNL A   1      42.513  27.195  26.618  1.00  0.00     0.131 A 
ATOM     77  C   UNL A   1      41.825  24.521  26.491  1.00  0.00     0.055 A 
ATOM     78  C   UNL A   1      42.918  26.431  25.523  1.00  0.00     0.041 A 
ATOM     79  F   UNL A   1      42.883  28.485  26.652  1.00  0.00    -0.206 F 
ATOM     80  C   UNL A   1      42.580  25.083  25.459  1.00  0.00     0.022 A 
BRANCH  77  81
ATOM     81  S   UNL A   1      41.437  22.749  26.470  1.00  0.00     0.124 S 
ATOM     82  O   UNL A   1      40.001  22.763  26.217  1.00  0.00    -0.237 OA
ATOM     83  O   UNL A   1      42.279  22.267  25.379  1.00  0.00    -0.237 OA
ATOM     84  O   UNL A   1      41.834  22.299  27.803  1.00  0.00    -0.744 OA
ENDBRANCH  77  81
ENDBRANCH  50  74
BRANCH  62  85
ATOM     85  C   UNL A   1      44.441  27.451  34.043  1.00  0.00     0.023 A 
ATOM     86  C   UNL A   1      44.325  26.257  34.773  1.00  0.00     0.031 A 
ATOM     87  C   UNL A   1      45.713  28.038  33.920  1.00  0.00     0.131 A 
ATOM     88  C   UNL A   1      45.462  25.698  35.376  1.00  0.00     0.055 A 
ATOM     89  C   UNL A   1      46.846  27.455  34.484  1.00  0.00     0.041 A 
ATOM     90  F   UNL A   1      45.875  29.177  33.227  1.00  0.00    -0.206 F 
ATOM     91  C   UNL A   1      46.724  26.279  35.221  1.00  0.00     0.022 A 
BRANCH  88  92
ATOM     92  S   UNL A   1      45.270  24.207  36.389  1.00  0.00     0.124 S 
ATOM     93  O   UNL A   1      44.424  23.372  35.541  1.00  0.00    -0.237 OA
ATOM     94  O   UNL A   1      46.648  23.756  36.554  1.00  0.00    -0.237 OA
ATOM     95  O   UNL A   1      44.631  24.700  37.608  1.00  0.00    -0.744 OA
ENDBRANCH  88  92
ENDBRANCH  62  85
ENDBRANCH  36  37
ENDBRANCH  29  31
ENDBRANCH  28  29
ENDBRANCH  27  28
ENDBRANCH  26  27
ENDBRANCH  25  26
ENDBRANCH   1  25
TORSDOF 21
ENDMDL
MODEL 2
REMARK VINA RESULT:     -10.7      2.578      3.182
REMARK SMILES Cc1cc(Cl)cc2c1O[C@H](C(F)(F)F)C(C(=O)OCCOCCOCCOC(=O)c1ccc(-c3c4nc(c(-c5cc(S(=O)(=O)[O-])ccc5F)c5ccc([nH]5)c(-c5cc(S(=O)(=O)[O-])ccc5F)c5nc(c(-c6cc(S(=O)(=O)[O-])ccc6F)c6ccc3[nH]6)C=C5)C=C4)cc1)=C2
REMARK SMILES IDX 23 1 22 2 21 3 20 4 19 5 18 6 16 7 17 8 15 9 1 10 2 11 3 12
REMARK SMILES IDX 8 13 4 14 7 15 9 16 5 17 6 18 93 19 10 20 11 21 12 22 13 23
REMARK SMILES IDX 14 24 24 25 25 26 26 27 27 28 28 29 29 30 30 31 31 32 92 33
REMARK SMILES IDX 32 34 91 35 33 36 34 37 35 38 85 39 36 40 90 41 84 42 86 43
REMARK SMILES IDX 37 44 89 45 83 46 82 47 38 49 70 50 50 51 69 52 51 53 54 54
REMARK SMILES IDX 68 55 87 56 52 57 53 58 67 60 88 61 55 62 39 63 40 64 48 65
REMARK SMILES IDX 41 66 47 67 49 68 46 69 42 70 43 71 44 72 45 73 71 74 72 75
REMARK SMILES IDX 80 76 73 77 79 78 81 79 78 80 74 81 75 82 76 83 77 84 56 85
REMARK SMILES IDX 57 86 65 87 58 88 64 89 66 90 63 91 59 92 60 93 61 94 62 95
REMARK H PARENT 86 48 54 59
REMARK Flexibility Score: inf
ROOT
ATOM      1  C   UNL A   1      32.397  28.975  27.250  1.00  0.00     0.188 C 
ENDROOT
BRANCH   1   2
ATOM      2  C   UNL A   1      31.395  27.887  27.693  1.00  0.00     0.188 C 
BRANCH   2   3
ATOM      3  O   UNL A   1      31.377  26.617  27.068  1.00  0.00    -0.376 OA
BRANCH   3   4
ATOM      4  C   UNL A   1      30.680  26.427  25.847  1.00  0.00     0.202 C 
BRANCH   4   5
ATOM      5  C   UNL A   1      31.388  26.644  24.511  1.00  0.00     0.261 C 
BRANCH   5   6
ATOM      6  O   UNL A   1      32.814  26.543  24.607  1.00  0.00    -0.460 OA
BRANCH   6   7
ATOM      7  C   UNL A   1      33.412  25.908  23.571  1.00  0.00     0.338 C 
ATOM      8  O   UNL A   1      33.622  26.363  22.459  1.00  0.00    -0.246 OA
BRANCH   7   9
ATOM      9  C   UNL A   1      33.884  24.582  24.010  1.00  0.00     0.087 C 
ATOM     10  C   UNL A   1      34.494  19.572  24.874  1.00  0.00     0.048 C 
ATOM     11  C   UNL A   1      35.369  20.791  24.946  1.00  0.00    -0.007 A 
ATOM     12  C   UNL A   1      36.725  20.654  25.275  1.00  0.00     0.027 A 
ATOM     13  C   UNL A   1      34.851  22.073  24.694  1.00  0.00     0.131 A 
ATOM     14  C   UNL A   1      37.549  21.777  25.339  1.00  0.00     0.042 A 
ATOM     15  C   UNL A   1      35.690  23.192  24.730  1.00  0.00     0.019 A 
ATOM     16  O   UNL A   1      33.513  22.150  24.417  1.00  0.00    -0.475 OA
ATOM     17  Cl  UNL A   1      39.211  21.590  25.734  1.00  0.00    -0.084 Cl
ATOM     18  C   UNL A   1      37.040  23.044  25.066  1.00  0.00     0.032 A 
ATOM     19  C   UNL A   1      35.172  24.499  24.364  1.00  0.00     0.027 C 
ATOM     20  C   UNL A   1      32.932  23.421  24.024  1.00  0.00     0.316 C 
BRANCH  20  21
ATOM     21  C   UNL A   1      32.224  23.224  22.675  1.00  0.00     0.430 C 
ATOM     22  F   UNL A   1      33.067  23.461  21.639  1.00  0.00    -0.167 F 
ATOM     23  F   UNL A   1      31.779  21.955  22.520  1.00  0.00    -0.167 F 
ATOM     24  F   UNL A   1      31.163  24.046  22.529  1.00  0.00    -0.167 F 
ENDBRANCH  20  21
ENDBRANCH   7   9
ENDBRANCH   6   7
ENDBRANCH   5   6
ENDBRANCH   4   5
ENDBRANCH   3   4
ENDBRANCH   2   3
ENDBRANCH   1   2
BRANCH   1  25
ATOM     25  O   UNL A   1      31.976  30.296  26.971  1.00  0.00    -0.376 OA
BRANCH  25  26
ATOM     26  C   UNL A   1      32.852  31.389  27.200  1.00  0.00     0.202 C 
BRANCH  26  27
ATOM     27  C   UNL A   1      32.354  32.834  27.306  1.00  0.00     0.261 C 
BRANCH  27  28
ATOM     28  O   UNL A   1      33.378  33.828  27.401  1.00  0.00    -0.460 OA
BRANCH  28  29
ATOM     29  C   UNL A   1      33.414  34.495  28.583  1.00  0.00     0.338 C 
ATOM     30  O   UNL A   1      32.605  35.307  28.993  1.00  0.00    -0.246 OA
BRANCH  29  31
ATOM     31  C   UNL A   1      34.506  33.951  29.408  1.00  0.00     0.060 A 
ATOM     32  C   UNL A   1      35.821  34.317  29.091  1.00  0.00     0.016 A 
ATOM     33  C   UNL A   1      34.243  33.060  30.450  1.00  0.00     0.016 A 
ATOM     34  C   UNL A   1      36.884  33.777  29.812  1.00  0.00     0.010 A 
ATOM     35  C   UNL A   1      35.312  32.498  31.152  1.00  0.00     0.010 A 
ATOM     36  C   UNL A   1      36.636  32.835  30.819  1.00  0.00    -0.014 A 
BRANCH  36  37
ATOM     37  C   UNL A   1      37.765  32.061  31.385  1.00  0.00     0.031 A 
ATOM     38  C   UNL A   1      38.250  32.412  32.765  1.00  0.00     0.074 A 
ATOM     39  C   UNL A   1      38.321  31.040  30.708  1.00  0.00     0.049 A 
ATOM     40  N   UNL A   1      39.243  31.907  33.448  1.00  0.00    -0.248 NA
ATOM     41  C   UNL A   1      37.509  33.473  33.468  1.00  0.00     0.031 C 
ATOM     42  C   UNL A   1      37.890  30.560  29.396  1.00  0.00     0.029 A 
ATOM     43  N   UNL A   1      39.367  30.217  31.040  1.00  0.00    -0.354 N 
ATOM     44  C   UNL A   1      39.235  32.573  34.668  1.00  0.00     0.074 A 
ATOM     45  C   UNL A   1      38.165  33.545  34.616  1.00  0.00     0.031 C 
ATOM     46  C   UNL A   1      38.666  29.522  29.037  1.00  0.00     0.029 A 
ATOM     47  C   UNL A   1      39.670  29.288  30.074  1.00  0.00     0.049 A 
ATOM     48  H   UNL A   1      39.856  30.286  31.893  1.00  0.00     0.167 HD
ATOM     49  C   UNL A   1      40.041  32.383  35.740  1.00  0.00     0.034 A 
ATOM     50  C   UNL A   1      40.658  28.370  30.026  1.00  0.00     0.034 A 
ATOM     51  C   UNL A   1      41.120  31.433  35.776  1.00  0.00     0.049 A 
ATOM     52  C   UNL A   1      41.630  28.272  31.178  1.00  0.00     0.074 A 
ATOM     53  C   UNL A   1      42.015  31.186  36.803  1.00  0.00     0.029 A 
ATOM     54  N   UNL A   1      41.457  30.576  34.739  1.00  0.00    -0.354 N 
ATOM     55  N   UNL A   1      41.644  28.943  32.306  1.00  0.00    -0.248 NA
ATOM     56  C   UNL A   1      42.725  27.299  31.045  1.00  0.00     0.031 C 
ATOM     57  C   UNL A   1      42.927  30.222  36.365  1.00  0.00     0.029 A 
ATOM     58  C   UNL A   1      42.562  29.819  35.089  1.00  0.00     0.049 A 
ATOM     59  H   UNL A   1      40.980  30.515  33.879  1.00  0.00     0.167 HD
ATOM     60  C   UNL A   1      42.733  28.455  33.025  1.00  0.00     0.074 A 
ATOM     61  C   UNL A   1      43.350  27.434  32.206  1.00  0.00     0.031 C 
ATOM     62  C   UNL A   1      43.175  28.814  34.257  1.00  0.00     0.034 A 
BRANCH  49  63
ATOM     63  C   UNL A   1      39.804  33.251  36.944  1.00  0.00     0.023 A 
ATOM     64  C   UNL A   1      39.061  32.788  38.043  1.00  0.00     0.031 A 
ATOM     65  C   UNL A   1      40.331  34.553  36.998  1.00  0.00     0.131 A 
ATOM     66  C   UNL A   1      38.833  33.636  39.136  1.00  0.00     0.055 A 
ATOM     67  C   UNL A   1      40.151  35.370  38.114  1.00  0.00     0.041 A 
ATOM     68  F   UNL A   1      41.028  35.049  35.964  1.00  0.00    -0.206 F 
ATOM     69  C   UNL A   1      39.394  34.916  39.189  1.00  0.00     0.022 A 
BRANCH  66  70
ATOM     70  S   UNL A   1      37.730  33.072  40.460  1.00  0.00     0.124 S 
ATOM     71  O   UNL A   1      37.768  34.208  41.377  1.00  0.00    -0.237 OA
ATOM     72  O   UNL A   1      36.470  32.860  39.758  1.00  0.00    -0.237 OA
ATOM     73  O   UNL A   1      38.380  31.859  40.952  1.00  0.00    -0.744 OA
ENDBRANCH  66  70
ENDBRANCH  49  63
BRANCH  50  74
ATOM     74  C   UNL A   1      40.812  27.490  28.835  1.00  0.00     0.023 A 
ATOM     75  C   UNL A   1      41.799  27.744  27.871  1.00  0.00     0.031 A 
ATOM     76  C   UNL A   1      39.945  26.403  28.623  1.00  0.00     0.131 A 
ATOM     77  C   UNL A   1      41.878  26.940  26.722  1.00  0.00     0.055 A 
ATOM     78  C   UNL A   1      40.053  25.582  27.500  1.00  0.00     0.041 A 
ATOM     79  F   UNL A   1      38.982  26.120  29.515  1.00  0.00    -0.206 F 
ATOM     80  C   UNL A   1      41.019  25.854  26.537  1.00  0.00     0.022 A 
BRANCH  77  81
ATOM     81  S   UNL A   1      43.095  27.361  25.445  1.00  0.00     0.124 S 
ATOM     82  O   UNL A   1      42.303  28.191  24.544  1.00  0.00    -0.237 OA
ATOM     83  O   UNL A   1      44.122  28.051  26.219  1.00  0.00    -0.237 OA
ATOM     84  O   UNL A   1      43.491  26.059  24.911  1.00  0.00    -0.744 OA
ENDBRANCH  77  81
ENDBRANCH  50  74
BRANCH  62  85
ATOM     85  C   UNL A   1      44.368  28.081  34.812  1.00  0.00     0.023 A 
ATOM     86  C   UNL A   1      45.671  28.582  34.665  1.00  0.00     0.031 A 
ATOM     87  C   UNL A   1      44.187  26.895  35.546  1.00  0.00     0.131 A 
ATOM     88  C   UNL A   1      46.752  27.885  35.226  1.00  0.00     0.055 A 
ATOM     89  C   UNL A   1      45.260  26.230  36.139  1.00  0.00     0.041 A 
ATOM     90  F   UNL A   1      42.960  26.380  35.720  1.00  0.00    -0.206 F 
ATOM     91  C   UNL A   1      46.553  26.722  35.976  1.00  0.00     0.022 A 
BRANCH  88  92
ATOM     92  S   UNL A   1      48.432  28.504  34.943  1.00  0.00     0.124 S 
ATOM     93  O   UNL A   1      48.179  29.856  34.457  1.00  0.00    -0.237 OA
ATOM     94  O   UNL A   1      49.033  28.406  36.269  1.00  0.00    -0.237 OA
ATOM     95  O   UNL A   1      48.977  27.580  33.949  1.00  0.00    -0.744 OA
ENDBRANCH  88  92
ENDBRANCH  62  85
ENDBRANCH  36  37
ENDBRANCH  29  31
ENDBRANCH  28  29
ENDBRANCH  27  28
ENDBRANCH  26  27
ENDBRANCH  25  26
ENDBRANCH   1  25
TORSDOF 21
ENDMDL
MODEL 3
REMARK VINA RESULT:     -10.7      1.616      1.857
REMARK SMILES Cc1cc(Cl)cc2c1O[C@H](C(F)(F)F)C(C(=O)OCCOCCOCCOC(=O)c1ccc(-c3c4nc(c(-c5cc(S(=O)(=O)[O-])ccc5F)c5ccc([nH]5)c(-c5cc(S(=O)(=O)[O-])ccc5F)c5nc(c(-c6cc(S(=O)(=O)[O-])ccc6F)c6ccc3[nH]6)C=C5)C=C4)cc1)=C2
REMARK SMILES IDX 23 1 22 2 21 3 20 4 19 5 18 6 16 7 17 8 15 9 1 10 2 11 3 12
REMARK SMILES IDX 8 13 4 14 7 15 9 16 5 17 6 18 93 19 10 20 11 21 12 22 13 23
REMARK SMILES IDX 14 24 24 25 25 26 26 27 27 28 28 29 29 30 30 31 31 32 92 33
REMARK SMILES IDX 32 34 91 35 33 36 34 37 35 38 85 39 36 40 90 41 84 42 86 43
REMARK SMILES IDX 37 44 89 45 83 46 82 47 38 49 70 50 50 51 69 52 51 53 54 54
REMARK SMILES IDX 68 55 87 56 52 57 53 58 67 60 88 61 55 62 39 63 40 64 48 65
REMARK SMILES IDX 41 66 47 67 49 68 46 69 42 70 43 71 44 72 45 73 71 74 72 75
REMARK SMILES IDX 80 76 73 77 79 78 81 79 78 80 74 81 75 82 76 83 77 84 56 85
REMARK SMILES IDX 57 86 65 87 58 88 64 89 66 90 63 91 59 92 60 93 61 94 62 95
REMARK H PARENT 86 48 54 59
REMARK Flexibility Score: inf
ROOT
ATOM      1  C   UNL A   1      32.706  29.550  26.969  1.00  0.00     0.188 C 
ENDROOT
BRANCH   1   2
ATOM      2  C   UNL A   1      32.114  29.133  25.606  1.00  0.00     0.188 C 
BRANCH   2   3
ATOM      3  O   UNL A   1      31.848  27.774  25.314  1.00  0.00    -0.376 OA
BRANCH   3   4
ATOM      4  C   UNL A   1      32.187  26.759  26.246  1.00  0.00     0.202 C 
BRANCH   4   5
ATOM      5  C   UNL A   1      33.266  25.730  25.910  1.00  0.00     0.261 C 
BRANCH   5   6
ATOM      6  O   UNL A   1      32.774  24.384  25.899  1.00  0.00    -0.460 OA
BRANCH   6   7
ATOM      7  C   UNL A   1      33.730  23.428  25.973  1.00  0.00     0.338 C 
ATOM      8  O   UNL A   1      34.761  23.474  26.624  1.00  0.00    -0.246 OA
BRANCH   7   9
ATOM      9  C   UNL A   1      33.299  22.237  25.217  1.00  0.00     0.087 C 
ATOM     10  C   UNL A   1      32.132  18.827  21.579  1.00  0.00     0.048 C 
ATOM     11  C   UNL A   1      32.405  18.775  23.056  1.00  0.00    -0.007 A 
ATOM     12  C   UNL A   1      32.420  17.539  23.717  1.00  0.00     0.027 A 
ATOM     13  C   UNL A   1      32.641  19.949  23.793  1.00  0.00     0.131 A 
ATOM     14  C   UNL A   1      32.678  17.477  25.086  1.00  0.00     0.042 A 
ATOM     15  C   UNL A   1      32.929  19.877  25.161  1.00  0.00     0.019 A 
ATOM     16  O   UNL A   1      32.575  21.129  23.104  1.00  0.00    -0.475 OA
ATOM     17  Cl  UNL A   1      32.702  15.952  25.878  1.00  0.00    -0.084 Cl
ATOM     18  C   UNL A   1      32.935  18.638  25.810  1.00  0.00     0.032 A 
ATOM     19  C   UNL A   1      33.277  21.082  25.893  1.00  0.00     0.027 C 
ATOM     20  C   UNL A   1      32.929  22.370  23.768  1.00  0.00     0.316 C 
BRANCH  20  21
ATOM     21  C   UNL A   1      34.027  23.056  22.941  1.00  0.00     0.430 C 
ATOM     22  F   UNL A   1      33.881  22.796  21.618  1.00  0.00    -0.167 F 
ATOM     23  F   UNL A   1      33.988  24.404  23.070  1.00  0.00    -0.167 F 
ATOM     24  F   UNL A   1      35.265  22.651  23.298  1.00  0.00    -0.167 F 
ENDBRANCH  20  21
ENDBRANCH   7   9
ENDBRANCH   6   7
ENDBRANCH   5   6
ENDBRANCH   4   5
ENDBRANCH   3   4
ENDBRANCH   2   3
ENDBRANCH   1   2
BRANCH   1  25
ATOM     25  O   UNL A   1      33.017  30.899  27.256  1.00  0.00    -0.376 OA
BRANCH  25  26
ATOM     26  C   UNL A   1      32.016  31.901  27.157  1.00  0.00     0.202 C 
BRANCH  26  27
ATOM     27  C   UNL A   1      32.348  33.396  27.129  1.00  0.00     0.261 C 
BRANCH  27  28
ATOM     28  O   UNL A   1      32.400  34.035  28.407  1.00  0.00    -0.460 OA
BRANCH  28  29
ATOM     29  C   UNL A   1      33.522  34.766  28.631  1.00  0.00     0.338 C 
ATOM     30  O   UNL A   1      33.608  35.980  28.693  1.00  0.00    -0.246 OA
BRANCH  29  31
ATOM     31  C   UNL A   1      34.627  33.857  28.980  1.00  0.00     0.060 A 
ATOM     32  C   UNL A   1      34.357  32.790  29.848  1.00  0.00     0.016 A 
ATOM     33  C   UNL A   1      35.917  34.075  28.495  1.00  0.00     0.016 A 
ATOM     34  C   UNL A   1      35.389  31.943  30.247  1.00  0.00     0.010 A 
ATOM     35  C   UNL A   1      36.955  33.243  28.919  1.00  0.00     0.010 A 
ATOM     36  C   UNL A   1      36.699  32.190  29.816  1.00  0.00    -0.014 A 
BRANCH  36  37
ATOM     37  C   UNL A   1      37.824  31.469  30.457  1.00  0.00     0.031 A 
ATOM     38  C   UNL A   1      38.169  31.810  31.881  1.00  0.00     0.074 A 
ATOM     39  C   UNL A   1      38.496  30.503  29.806  1.00  0.00     0.049 A 
ATOM     40  N   UNL A   1      39.131  31.347  32.634  1.00  0.00    -0.248 NA
ATOM     41  C   UNL A   1      37.307  32.804  32.543  1.00  0.00     0.031 C 
ATOM     42  C   UNL A   1      38.207  30.035  28.452  1.00  0.00     0.029 A 
ATOM     43  N   UNL A   1      39.561  29.736  30.207  1.00  0.00    -0.354 N 
ATOM     44  C   UNL A   1      38.981  31.976  33.864  1.00  0.00     0.074 A 
ATOM     45  C   UNL A   1      37.859  32.883  33.744  1.00  0.00     0.031 C 
ATOM     46  C   UNL A   1      39.074  29.056  28.136  1.00  0.00     0.029 A 
ATOM     47  C   UNL A   1      40.001  28.854  29.248  1.00  0.00     0.049 A 
ATOM     48  H   UNL A   1      39.972  29.810  31.099  1.00  0.00     0.167 HD
ATOM     49  C   UNL A   1      39.705  31.806  34.995  1.00  0.00     0.034 A 
ATOM     50  C   UNL A   1      41.044  27.999  29.263  1.00  0.00     0.034 A 
ATOM     51  C   UNL A   1      40.835  30.922  35.101  1.00  0.00     0.049 A 
ATOM     52  C   UNL A   1      41.922  27.927  30.491  1.00  0.00     0.074 A 
ATOM     53  C   UNL A   1      41.654  30.700  36.194  1.00  0.00     0.029 A 
ATOM     54  N   UNL A   1      41.309  30.116  34.076  1.00  0.00    -0.354 N 
ATOM     55  N   UNL A   1      41.800  28.566  31.632  1.00  0.00    -0.248 NA
ATOM     56  C   UNL A   1      43.082  27.027  30.429  1.00  0.00     0.031 C 
ATOM     57  C   UNL A   1      42.658  29.805  35.813  1.00  0.00     0.029 A 
ATOM     58  C   UNL A   1      42.426  29.417  34.502  1.00  0.00     0.049 A 
ATOM     59  H   UNL A   1      40.910  30.050  33.178  1.00  0.00     0.167 HD
ATOM     60  C   UNL A   1      42.853  28.125  32.429  1.00  0.00     0.074 A 
ATOM     61  C   UNL A   1      43.599  27.166  31.642  1.00  0.00     0.031 C 
ATOM     62  C   UNL A   1      43.168  28.475  33.701  1.00  0.00     0.034 A 
BRANCH  49  63
ATOM     63  C   UNL A   1      39.314  32.623  36.195  1.00  0.00     0.023 A 
ATOM     64  C   UNL A   1      39.903  33.873  36.451  1.00  0.00     0.031 A 
ATOM     65  C   UNL A   1      38.337  32.152  37.089  1.00  0.00     0.131 A 
ATOM     66  C   UNL A   1      39.538  34.593  37.596  1.00  0.00     0.055 A 
ATOM     67  C   UNL A   1      37.934  32.902  38.194  1.00  0.00     0.041 A 
ATOM     68  F   UNL A   1      37.761  30.954  36.901  1.00  0.00    -0.206 F 
ATOM     69  C   UNL A   1      38.539  34.127  38.457  1.00  0.00     0.022 A 
BRANCH  66  70
ATOM     70  S   UNL A   1      40.436  36.118  37.989  1.00  0.00     0.124 S 
ATOM     71  O   UNL A   1      41.104  35.752  39.236  1.00  0.00    -0.237 OA
ATOM     72  O   UNL A   1      41.301  36.288  36.827  1.00  0.00    -0.237 OA
ATOM     73  O   UNL A   1      39.375  37.114  38.126  1.00  0.00    -0.744 OA
ENDBRANCH  66  70
ENDBRANCH  49  63
BRANCH  50  74
ATOM     74  C   UNL A   1      41.351  27.164  28.070  1.00  0.00     0.023 A 
ATOM     75  C   UNL A   1      41.124  25.779  28.079  1.00  0.00     0.031 A 
ATOM     76  C   UNL A   1      41.917  27.734  26.916  1.00  0.00     0.131 A 
ATOM     77  C   UNL A   1      41.487  25.004  26.966  1.00  0.00     0.055 A 
ATOM     78  C   UNL A   1      42.239  26.965  25.796  1.00  0.00     0.041 A 
ATOM     79  F   UNL A   1      42.157  29.054  26.859  1.00  0.00    -0.206 F 
ATOM     80  C   UNL A   1      42.032  25.590  25.821  1.00  0.00     0.022 A 
BRANCH  77  81
ATOM     81  S   UNL A   1      41.279  23.204  27.052  1.00  0.00     0.124 S 
ATOM     82  O   UNL A   1      41.655  22.798  25.703  1.00  0.00    -0.237 OA
ATOM     83  O   UNL A   1      42.209  22.841  28.116  1.00  0.00    -0.237 OA
ATOM     84  O   UNL A   1      39.865  23.041  27.383  1.00  0.00    -0.744 OA
ENDBRANCH  77  81
ENDBRANCH  50  74
BRANCH  62  85
ATOM     85  C   UNL A   1      44.354  27.800  34.339  1.00  0.00     0.023 A 
ATOM     86  C   UNL A   1      44.219  26.598  35.052  1.00  0.00     0.031 A 
ATOM     87  C   UNL A   1      45.642  28.343  34.182  1.00  0.00     0.131 A 
ATOM     88  C   UNL A   1      45.355  25.986  35.603  1.00  0.00     0.055 A 
ATOM     89  C   UNL A   1      46.772  27.707  34.695  1.00  0.00     0.041 A 
ATOM     90  F   UNL A   1      45.822  29.487  33.504  1.00  0.00    -0.206 F 
ATOM     91  C   UNL A   1      46.631  26.523  35.414  1.00  0.00     0.022 A 
BRANCH  88  92
ATOM     92  S   UNL A   1      45.142  24.482  36.595  1.00  0.00     0.124 S 
ATOM     93  O   UNL A   1      44.605  23.546  35.613  1.00  0.00    -0.237 OA
ATOM     94  O   UNL A   1      46.499  24.213  37.057  1.00  0.00    -0.237 OA
ATOM     95  O   UNL A   1      44.203  24.890  37.640  1.00  0.00    -0.744 OA
ENDBRANCH  88  92
ENDBRANCH  62  85
ENDBRANCH  36  37
ENDBRANCH  29  31
ENDBRANCH  28  29
ENDBRANCH  27  28
ENDBRANCH  26  27
ENDBRANCH  25  26
ENDBRANCH   1  25
TORSDOF 21
ENDMDL
