MODEL 1
REMARK VINA RESULT:     -11.6      0.000      0.000
REMARK SMILES Cc1ccc(S(=O)(=O)n2cc(C(=O)C(=O)N[C@@H](Cc3c[nH]c4ccccc34)C(=O)OCCOCCOCCOC(=O)c3ccc(-c4c5nc(c(-c6cc(S(=O)(=O)[O-])ccc6F)c6ccc([nH]6)c(-c6cc(S(=O)(=O)[O-])ccc6F)c6nc(c(-c7cc(S(=O)(=O)[O-])ccc7F)c7ccc4[nH]7)C=C6)C=C5)cc3)c3ccccc32)cc1
REMARK SMILES IDX 34 1 33 2 32 3 31 4 30 5 28 6 29 7 17 8 16 9 14 10 15 11
REMARK SMILES IDX 12 13 13 14 11 15 9 16 10 17 110 18 105 19 109 20 106 21
REMARK SMILES IDX 108 22 107 23 6 24 7 25 8 26 5 27 1 28 2 29 3 30 112 31 4 32
REMARK SMILES IDX 111 33 18 34 19 35 20 36 27 37 21 38 22 39 26 40 23 42 25 43
REMARK SMILES IDX 24 44 35 45 36 46 37 47 38 48 39 49 40 50 41 51 42 52 43 53
REMARK SMILES IDX 104 54 44 55 103 56 45 57 46 58 47 59 97 60 48 61 102 62
REMARK SMILES IDX 96 63 98 64 49 65 101 66 95 67 94 68 50 70 82 71 62 72 81 73
REMARK SMILES IDX 63 74 66 75 80 76 99 77 64 78 65 79 79 81 100 82 67 83 51 84
REMARK SMILES IDX 52 85 60 86 53 87 59 88 61 89 58 90 54 91 55 92 56 93 57 94
REMARK SMILES IDX 83 95 84 96 92 97 85 98 91 99 93 100 90 101 86 102 87 103
REMARK SMILES IDX 88 104 89 105 68 106 69 107 77 108 70 109 76 110 78 111
REMARK SMILES IDX 75 112 71 113 72 114 73 115 74 116
REMARK H PARENT 16 12 21 41 98 69 66 80
REMARK Flexibility Score: inf
ROOT
ATOM      1  C   UNL A   1      37.815  28.675  29.407  1.00  0.00     0.188 C 
ENDROOT
BRANCH   1   2
ATOM      2  O   UNL A   1      37.472  28.912  28.072  1.00  0.00    -0.376 OA
BRANCH   2   3
ATOM      3  C   UNL A   1      36.291  29.632  27.945  1.00  0.00     0.202 C 
BRANCH   3   4
ATOM      4  C   UNL A   1      35.102  29.056  27.126  1.00  0.00     0.261 C 
BRANCH   4   5
ATOM      5  O   UNL A   1      33.546  28.324  27.677  1.00  0.00    -0.462 OA
BRANCH   5   6
ATOM      6  C   UNL A   1      32.162  27.955  27.290  1.00  0.00     0.329 C 
ATOM      7  O   UNL A   1      31.303  27.964  28.174  1.00  0.00    -0.250 OA
BRANCH   6   8
ATOM      8  C   UNL A   1      31.426  27.403  25.855  1.00  0.00     0.197 C 
BRANCH   8   9
ATOM      9  N   UNL A   1      30.047  27.229  25.310  1.00  0.00    -0.335 N 
ATOM     10  C   UNL A   1      29.646  26.563  24.195  1.00  0.00     0.293 C 
ATOM     11  O   UNL A   1      28.462  26.457  23.903  1.00  0.00    -0.265 OA
ATOM     12  H   UNL A   1      29.329  27.657  25.829  1.00  0.00     0.164 HD
BRANCH  10  13
ATOM     13  C   UNL A   1      30.749  25.900  23.382  1.00  0.00     0.252 C 
ATOM     14  O   UNL A   1      30.904  26.224  22.209  1.00  0.00    -0.283 OA
BRANCH  13  15
ATOM     15  C   UNL A   1      31.322  24.699  23.899  1.00  0.00     0.054 A 
ATOM     16  N   UNL A   1      31.715  22.557  24.133  1.00  0.00    -0.240 N 
ATOM     17  C   UNL A   1      30.786  23.536  24.444  1.00  0.00     0.117 A 
ATOM     18  C   UNL A   1      32.639  23.140  23.232  1.00  0.00     0.065 A 
ATOM     19  C   UNL A   1      32.672  24.462  23.634  1.00  0.00     0.012 A 
ATOM     20  C   UNL A   1      33.696  22.580  22.499  1.00  0.00     0.028 A 
ATOM     21  C   UNL A   1      33.811  25.248  23.432  1.00  0.00     0.011 A 
ATOM     22  C   UNL A   1      34.871  23.332  22.419  1.00  0.00     0.002 A 
ATOM     23  C   UNL A   1      34.940  24.638  22.901  1.00  0.00     0.001 A 
BRANCH  16  24
ATOM     24  S   UNL A   1      32.598  21.530  25.154  1.00  0.00     0.268 S 
ATOM     25  O   UNL A   1      31.938  20.246  24.949  1.00  0.00    -0.201 OA
ATOM     26  O   UNL A   1      32.449  22.283  26.399  1.00  0.00    -0.201 OA
BRANCH  24  27
ATOM     27  C   UNL A   1      34.242  21.043  25.352  1.00  0.00     0.088 A 
ATOM     28  C   UNL A   1      38.487  21.466  25.682  1.00  0.00     0.044 C 
ATOM     29  C   UNL A   1      37.013  21.231  25.613  1.00  0.00    -0.051 A 
ATOM     30  C   UNL A   1      36.236  22.280  26.060  1.00  0.00     0.005 A 
ATOM     31  C   UNL A   1      36.394  20.061  25.101  1.00  0.00     0.005 A 
ATOM     32  C   UNL A   1      34.882  22.158  25.963  1.00  0.00     0.022 A 
ATOM     33  C   UNL A   1      34.986  19.957  24.953  1.00  0.00     0.022 A 
ENDBRANCH  24  27
ENDBRANCH  16  24
ENDBRANCH  13  15
ENDBRANCH  10  13
ENDBRANCH   8   9
BRANCH   8  34
ATOM     34  C   UNL A   1      32.081  28.120  24.656  1.00  0.00     0.074 C 
BRANCH  34  35
ATOM     35  C   UNL A   1      31.387  29.401  24.527  1.00  0.00    -0.020 A 
ATOM     36  C   UNL A   1      31.717  30.706  25.719  1.00  0.00     0.087 A 
ATOM     37  C   UNL A   1      29.885  29.981  23.412  1.00  0.00     0.003 A 
ATOM     38  N   UNL A   1      30.409  32.059  25.464  1.00  0.00    -0.361 N 
ATOM     39  C   UNL A   1      29.301  31.577  24.064  1.00  0.00     0.046 A 
ATOM     40  C   UNL A   1      29.218  29.540  22.224  1.00  0.00     0.010 A 
ATOM     41  H   UNL A   1      30.333  32.887  25.993  1.00  0.00     0.166 HD
ATOM     42  C   UNL A   1      28.359  32.287  23.295  1.00  0.00     0.026 A 
ATOM     43  C   UNL A   1      28.196  30.348  21.665  1.00  0.00     0.001 A 
ATOM     44  C   UNL A   1      27.827  31.639  22.144  1.00  0.00     0.002 A 
ENDBRANCH  34  35
ENDBRANCH   8  34
ENDBRANCH   6   8
ENDBRANCH   5   6
ENDBRANCH   4   5
ENDBRANCH   3   4
ENDBRANCH   2   3
ENDBRANCH   1   2
BRANCH   1  45
ATOM     45  C   UNL A   1      38.967  27.729  29.667  1.00  0.00     0.188 C 
BRANCH  45  46
ATOM     46  O   UNL A   1      38.919  26.478  29.030  1.00  0.00    -0.376 OA
BRANCH  46  47
ATOM     47  C   UNL A   1      39.612  26.077  27.881  1.00  0.00     0.202 C 
BRANCH  47  48
ATOM     48  C   UNL A   1      40.986  25.666  28.281  1.00  0.00     0.261 C 
BRANCH  48  49
ATOM     49  O   UNL A   1      42.004  25.675  27.223  1.00  0.00    -0.460 OA
BRANCH  49  50
ATOM     50  C   UNL A   1      42.969  26.616  27.008  1.00  0.00     0.338 C 
ATOM     51  O   UNL A   1      43.937  26.379  26.287  1.00  0.00    -0.246 OA
BRANCH  50  52
ATOM     52  C   UNL A   1      42.792  27.983  27.606  1.00  0.00     0.060 A 
ATOM     53  C   UNL A   1      43.476  28.255  28.746  1.00  0.00     0.016 A 
ATOM     54  C   UNL A   1      41.866  28.961  27.242  1.00  0.00     0.016 A 
ATOM     55  C   UNL A   1      43.038  29.349  29.517  1.00  0.00     0.010 A 
ATOM     56  C   UNL A   1      41.283  29.860  28.238  1.00  0.00     0.010 A 
ATOM     57  C   UNL A   1      41.783  30.001  29.548  1.00  0.00    -0.014 A 
BRANCH  57  58
ATOM     58  C   UNL A   1      41.107  30.949  31.008  1.00  0.00     0.031 A 
ATOM     59  C   UNL A   1      40.259  33.026  30.813  1.00  0.00     0.074 A 
ATOM     60  C   UNL A   1      41.236  30.162  32.487  1.00  0.00     0.049 A 
ATOM     61  N   UNL A   1      40.109  34.063  31.756  1.00  0.00    -0.248 NA
ATOM     62  C   UNL A   1      39.642  33.999  29.583  1.00  0.00     0.031 C 
ATOM     63  C   UNL A   1      40.178  29.948  33.609  1.00  0.00     0.029 A 
ATOM     64  N   UNL A   1      42.233  29.375  33.272  1.00  0.00    -0.354 N 
ATOM     65  C   UNL A   1      38.858  34.549  31.565  1.00  0.00     0.074 A 
ATOM     66  C   UNL A   1      38.860  34.892  30.194  1.00  0.00     0.031 C 
ATOM     67  C   UNL A   1      40.698  29.455  34.770  1.00  0.00     0.029 A 
ATOM     68  C   UNL A   1      42.116  29.210  34.635  1.00  0.00     0.049 A 
ATOM     69  H   UNL A   1      42.995  28.964  32.803  1.00  0.00     0.167 HD
ATOM     70  C   UNL A   1      37.873  34.150  32.416  1.00  0.00     0.034 A 
ATOM     71  C   UNL A   1      43.134  29.251  35.575  1.00  0.00     0.034 A 
ATOM     72  C   UNL A   1      38.292  33.455  33.668  1.00  0.00     0.049 A 
ATOM     73  C   UNL A   1      42.828  30.550  36.319  1.00  0.00     0.074 A 
ATOM     74  C   UNL A   1      37.877  32.282  34.290  1.00  0.00     0.029 A 
ATOM     75  N   UNL A   1      39.384  33.895  34.422  1.00  0.00    -0.354 N 
ATOM     76  N   UNL A   1      42.031  31.446  35.790  1.00  0.00    -0.248 NA
ATOM     77  C   UNL A   1      43.234  30.906  37.679  1.00  0.00     0.031 C 
ATOM     78  C   UNL A   1      38.719  32.034  35.415  1.00  0.00     0.029 A 
ATOM     79  C   UNL A   1      39.681  33.029  35.476  1.00  0.00     0.049 A 
ATOM     80  H   UNL A   1      39.885  34.721  34.231  1.00  0.00     0.167 HD
ATOM     81  C   UNL A   1      41.682  32.370  36.717  1.00  0.00     0.074 A 
ATOM     82  C   UNL A   1      42.498  32.018  37.878  1.00  0.00     0.031 C 
ATOM     83  C   UNL A   1      40.740  33.329  36.453  1.00  0.00     0.034 A 
BRANCH  70  84
ATOM     84  C   UNL A   1      36.434  34.221  32.012  1.00  0.00     0.023 A 
ATOM     85  C   UNL A   1      35.721  35.290  32.552  1.00  0.00     0.031 A 
ATOM     86  C   UNL A   1      35.711  33.359  31.158  1.00  0.00     0.131 A 
ATOM     87  C   UNL A   1      34.412  35.553  32.166  1.00  0.00     0.055 A 
ATOM     88  C   UNL A   1      34.428  33.668  30.702  1.00  0.00     0.041 A 
ATOM     89  F   UNL A   1      36.176  32.166  30.761  1.00  0.00    -0.206 F 
ATOM     90  C   UNL A   1      33.777  34.790  31.191  1.00  0.00     0.022 A 
BRANCH  87  91
ATOM     91  S   UNL A   1      33.599  36.941  32.971  1.00  0.00     0.124 S 
ATOM     92  O   UNL A   1      32.213  36.741  32.559  1.00  0.00    -0.237 OA
ATOM     93  O   UNL A   1      33.897  36.697  34.378  1.00  0.00    -0.237 OA
ATOM     94  O   UNL A   1      34.267  38.098  32.384  1.00  0.00    -0.744 OA
ENDBRANCH  87  91
ENDBRANCH  70  84
BRANCH  71  95
ATOM     95  C   UNL A   1      44.558  28.712  35.291  1.00  0.00     0.023 A 
ATOM     96  C   UNL A   1      44.781  27.361  34.890  1.00  0.00     0.031 A 
ATOM     97  C   UNL A   1      45.649  29.570  35.087  1.00  0.00     0.131 A 
ATOM     98  C   UNL A   1      45.896  27.004  34.076  1.00  0.00     0.055 A 
ATOM     99  C   UNL A   1      46.640  29.268  34.126  1.00  0.00     0.041 A 
ATOM    100  F   UNL A   1      45.670  30.799  35.628  1.00  0.00    -0.206 F 
ATOM    101  C   UNL A   1      46.729  28.000  33.569  1.00  0.00     0.022 A 
BRANCH  98 102
ATOM    102  S   UNL A   1      46.149  25.281  33.456  1.00  0.00     0.124 S 
ATOM    103  O   UNL A   1      47.600  25.149  33.470  1.00  0.00    -0.237 OA
ATOM    104  O   UNL A   1      45.438  24.456  34.425  1.00  0.00    -0.237 OA
ATOM    105  O   UNL A   1      45.555  25.307  32.116  1.00  0.00    -0.744 OA
ENDBRANCH  98 102
ENDBRANCH  71  95
BRANCH  83 106
ATOM    106  C   UNL A   1      40.683  34.617  37.208  1.00  0.00     0.023 A 
ATOM    107  C   UNL A   1      41.773  35.487  37.253  1.00  0.00     0.031 A 
ATOM    108  C   UNL A   1      39.497  35.068  37.824  1.00  0.00     0.131 A 
ATOM    109  C   UNL A   1      41.719  36.652  38.017  1.00  0.00     0.055 A 
ATOM    110  C   UNL A   1      39.398  36.305  38.446  1.00  0.00     0.041 A 
ATOM    111  F   UNL A   1      38.372  34.342  37.850  1.00  0.00    -0.206 F 
ATOM    112  C   UNL A   1      40.528  37.090  38.586  1.00  0.00     0.022 A 
BRANCH 109 113
ATOM    113  S   UNL A   1      43.284  37.483  38.353  1.00  0.00     0.124 S 
ATOM    114  O   UNL A   1      44.117  36.372  38.806  1.00  0.00    -0.237 OA
ATOM    115  O   UNL A   1      43.632  38.042  37.051  1.00  0.00    -0.237 OA
ATOM    116  O   UNL A   1      42.933  38.460  39.381  1.00  0.00    -0.744 OA
ENDBRANCH 109 113
ENDBRANCH  83 106
ENDBRANCH  57  58
ENDBRANCH  50  52
ENDBRANCH  49  50
ENDBRANCH  48  49
ENDBRANCH  47  48
ENDBRANCH  46  47
ENDBRANCH  45  46
ENDBRANCH   1  45
TORSDOF 27
ENDMDL
MODEL 2
REMARK VINA RESULT:     -10.7      1.988      2.357
REMARK SMILES Cc1ccc(S(=O)(=O)n2cc(C(=O)C(=O)N[C@@H](Cc3c[nH]c4ccccc34)C(=O)OCCOCCOCCOC(=O)c3ccc(-c4c5nc(c(-c6cc(S(=O)(=O)[O-])ccc6F)c6ccc([nH]6)c(-c6cc(S(=O)(=O)[O-])ccc6F)c6nc(c(-c7cc(S(=O)(=O)[O-])ccc7F)c7ccc4[nH]7)C=C6)C=C5)cc3)c3ccccc32)cc1
REMARK SMILES IDX 34 1 33 2 32 3 31 4 30 5 28 6 29 7 17 8 16 9 14 10 15 11
REMARK SMILES IDX 12 13 13 14 11 15 9 16 10 17 110 18 105 19 109 20 106 21
REMARK SMILES IDX 108 22 107 23 6 24 7 25 8 26 5 27 1 28 2 29 3 30 112 31 4 32
REMARK SMILES IDX 111 33 18 34 19 35 20 36 27 37 21 38 22 39 26 40 23 42 25 43
REMARK SMILES IDX 24 44 35 45 36 46 37 47 38 48 39 49 40 50 41 51 42 52 43 53
REMARK SMILES IDX 104 54 44 55 103 56 45 57 46 58 47 59 97 60 48 61 102 62
REMARK SMILES IDX 96 63 98 64 49 65 101 66 95 67 94 68 50 70 82 71 62 72 81 73
REMARK SMILES IDX 63 74 66 75 80 76 99 77 64 78 65 79 79 81 100 82 67 83 51 84
REMARK SMILES IDX 52 85 60 86 53 87 59 88 61 89 58 90 54 91 55 92 56 93 57 94
REMARK SMILES IDX 83 95 84 96 92 97 85 98 91 99 93 100 90 101 86 102 87 103
REMARK SMILES IDX 88 104 89 105 68 106 69 107 77 108 70 109 76 110 78 111
REMARK SMILES IDX 75 112 71 113 72 114 73 115 74 116
REMARK H PARENT 16 12 21 41 98 69 66 80
REMARK Flexibility Score: inf
ROOT
ATOM      1  C   UNL A   1      38.567  28.729  29.605  1.00  0.00     0.188 C 
ENDROOT
BRANCH   1   2
ATOM      2  O   UNL A   1      37.950  29.012  28.383  1.00  0.00    -0.376 OA
BRANCH   2   3
ATOM      3  C   UNL A   1      36.659  29.499  28.537  1.00  0.00     0.202 C 
BRANCH   3   4
ATOM      4  C   UNL A   1      35.606  29.312  27.408  1.00  0.00     0.261 C 
BRANCH   4   5
ATOM      5  O   UNL A   1      33.818  29.078  27.503  1.00  0.00    -0.462 OA
BRANCH   5   6
ATOM      6  C   UNL A   1      32.684  28.172  27.193  1.00  0.00     0.329 C 
ATOM      7  O   UNL A   1      32.072  27.682  28.145  1.00  0.00    -0.250 OA
BRANCH   6   8
ATOM      8  C   UNL A   1      32.024  27.524  25.762  1.00  0.00     0.197 C 
BRANCH   8   9
ATOM      9  N   UNL A   1      30.684  27.132  25.235  1.00  0.00    -0.335 N 
ATOM     10  C   UNL A   1      30.380  26.305  24.200  1.00  0.00     0.293 C 
ATOM     11  O   UNL A   1      29.221  26.030  23.918  1.00  0.00    -0.265 OA
ATOM     12  H   UNL A   1      29.913  27.529  25.701  1.00  0.00     0.164 HD
BRANCH  10  13
ATOM     13  C   UNL A   1      31.565  25.688  23.470  1.00  0.00     0.252 C 
ATOM     14  O   UNL A   1      31.933  26.178  22.407  1.00  0.00    -0.283 OA
BRANCH  13  15
ATOM     15  C   UNL A   1      31.975  24.378  23.861  1.00  0.00     0.054 A 
ATOM     16  N   UNL A   1      32.486  22.256  23.677  1.00  0.00    -0.240 N 
ATOM     17  C   UNL A   1      31.401  23.115  23.737  1.00  0.00     0.117 A 
ATOM     18  C   UNL A   1      33.642  23.063  23.543  1.00  0.00     0.065 A 
ATOM     19  C   UNL A   1      33.305  24.205  24.244  1.00  0.00     0.012 A 
ATOM     20  C   UNL A   1      34.983  22.726  23.308  1.00  0.00     0.028 A 
ATOM     21  C   UNL A   1      34.290  24.995  24.848  1.00  0.00     0.011 A 
ATOM     22  C   UNL A   1      35.944  23.446  24.022  1.00  0.00     0.002 A 
ATOM     23  C   UNL A   1      35.604  24.549  24.803  1.00  0.00     0.001 A 
BRANCH  16  24
ATOM     24  S   UNL A   1      32.902  20.956  24.684  1.00  0.00     0.268 S 
ATOM     25  O   UNL A   1      31.613  20.316  24.915  1.00  0.00    -0.201 OA
ATOM     26  O   UNL A   1      33.587  21.708  25.735  1.00  0.00    -0.201 OA
BRANCH  24  27
ATOM     27  C   UNL A   1      33.958  19.593  24.625  1.00  0.00     0.088 A 
ATOM     28  C   UNL A   1      35.197  15.519  25.049  1.00  0.00     0.044 C 
ATOM     29  C   UNL A   1      34.839  16.955  24.837  1.00  0.00    -0.051 A 
ATOM     30  C   UNL A   1      33.511  17.184  24.542  1.00  0.00     0.005 A 
ATOM     31  C   UNL A   1      35.737  18.047  24.956  1.00  0.00     0.005 A 
ATOM     32  C   UNL A   1      33.103  18.477  24.402  1.00  0.00     0.022 A 
ATOM     33  C   UNL A   1      35.300  19.394  24.861  1.00  0.00     0.022 A 
ENDBRANCH  24  27
ENDBRANCH  16  24
ENDBRANCH  13  15
ENDBRANCH  10  13
ENDBRANCH   8   9
BRANCH   8  34
ATOM     34  C   UNL A   1      32.531  28.354  24.564  1.00  0.00     0.074 C 
BRANCH  34  35
ATOM     35  C   UNL A   1      31.640  29.510  24.471  1.00  0.00    -0.020 A 
ATOM     36  C   UNL A   1      31.806  30.849  25.659  1.00  0.00     0.087 A 
ATOM     37  C   UNL A   1      30.024  29.847  23.417  1.00  0.00     0.003 A 
ATOM     38  N   UNL A   1      30.292  31.979  25.463  1.00  0.00    -0.361 N 
ATOM     39  C   UNL A   1      29.221  31.330  24.102  1.00  0.00     0.046 A 
ATOM     40  C   UNL A   1      29.390  29.308  22.252  1.00  0.00     0.010 A 
ATOM     41  H   UNL A   1      30.106  32.783  26.000  1.00  0.00     0.166 HD
ATOM     42  C   UNL A   1      28.150  31.883  23.374  1.00  0.00     0.026 A 
ATOM     43  C   UNL A   1      28.232  29.945  21.738  1.00  0.00     0.001 A 
ATOM     44  C   UNL A   1      27.682  31.161  22.240  1.00  0.00     0.002 A 
ENDBRANCH  34  35
ENDBRANCH   8  34
ENDBRANCH   6   8
ENDBRANCH   5   6
ENDBRANCH   4   5
ENDBRANCH   3   4
ENDBRANCH   2   3
ENDBRANCH   1   2
BRANCH   1  45
ATOM     45  C   UNL A   1      39.497  27.537  29.652  1.00  0.00     0.188 C 
BRANCH  45  46
ATOM     46  O   UNL A   1      39.286  26.528  28.697  1.00  0.00    -0.376 OA
BRANCH  46  47
ATOM     47  C   UNL A   1      39.914  26.381  27.455  1.00  0.00     0.202 C 
BRANCH  47  48
ATOM     48  C   UNL A   1      41.300  25.886  27.686  1.00  0.00     0.261 C 
BRANCH  48  49
ATOM     49  O   UNL A   1      42.288  26.202  26.646  1.00  0.00    -0.460 OA
BRANCH  49  50
ATOM     50  C   UNL A   1      43.443  26.915  26.787  1.00  0.00     0.338 C 
ATOM     51  O   UNL A   1      44.470  26.583  26.198  1.00  0.00    -0.246 OA
BRANCH  50  52
ATOM     52  C   UNL A   1      43.423  28.166  27.620  1.00  0.00     0.060 A 
ATOM     53  C   UNL A   1      43.868  28.067  28.899  1.00  0.00     0.016 A 
ATOM     54  C   UNL A   1      42.832  29.390  27.308  1.00  0.00     0.016 A 
ATOM     55  C   UNL A   1      43.503  29.094  29.791  1.00  0.00     0.010 A 
ATOM     56  C   UNL A   1      42.237  30.230  28.347  1.00  0.00     0.010 A 
ATOM     57  C   UNL A   1      42.440  30.025  29.727  1.00  0.00    -0.014 A 
BRANCH  57  58
ATOM     58  C   UNL A   1      41.660  30.859  31.205  1.00  0.00     0.031 A 
ATOM     59  C   UNL A   1      40.635  32.859  31.062  1.00  0.00     0.074 A 
ATOM     60  C   UNL A   1      41.835  30.036  32.659  1.00  0.00     0.049 A 
ATOM     61  N   UNL A   1      40.379  33.847  32.035  1.00  0.00    -0.248 NA
ATOM     62  C   UNL A   1      39.954  33.817  29.853  1.00  0.00     0.031 C 
ATOM     63  C   UNL A   1      40.782  29.691  33.753  1.00  0.00     0.029 A 
ATOM     64  N   UNL A   1      42.884  29.313  33.436  1.00  0.00    -0.354 N 
ATOM     65  C   UNL A   1      39.094  34.227  31.837  1.00  0.00     0.074 A 
ATOM     66  C   UNL A   1      39.087  34.615  30.478  1.00  0.00     0.031 C 
ATOM     67  C   UNL A   1      41.324  29.206  34.907  1.00  0.00     0.029 A 
ATOM     68  C   UNL A   1      42.761  29.092  34.791  1.00  0.00     0.049 A 
ATOM     69  H   UNL A   1      43.687  28.987  32.968  1.00  0.00     0.167 HD
ATOM     70  C   UNL A   1      38.134  33.714  32.655  1.00  0.00     0.034 A 
ATOM     71  C   UNL A   1      43.756  29.190  35.750  1.00  0.00     0.034 A 
ATOM     72  C   UNL A   1      38.593  33.016  33.892  1.00  0.00     0.049 A 
ATOM     73  C   UNL A   1      43.324  30.430  36.531  1.00  0.00     0.074 A 
ATOM     74  C   UNL A   1      38.273  31.790  34.467  1.00  0.00     0.029 A 
ATOM     75  N   UNL A   1      39.630  33.524  34.680  1.00  0.00    -0.354 N 
ATOM     76  N   UNL A   1      42.460  31.271  36.016  1.00  0.00    -0.248 NA
ATOM     77  C   UNL A   1      43.676  30.773  37.909  1.00  0.00     0.031 C 
ATOM     78  C   UNL A   1      39.115  31.579  35.598  1.00  0.00     0.029 A 
ATOM     79  C   UNL A   1      39.985  32.652  35.711  1.00  0.00     0.049 A 
ATOM     80  H   UNL A   1      40.059  34.396  34.526  1.00  0.00     0.167 HD
ATOM     81  C   UNL A   1      42.016  32.128  36.966  1.00  0.00     0.074 A 
ATOM     82  C   UNL A   1      42.842  31.809  38.131  1.00  0.00     0.031 C 
ATOM     83  C   UNL A   1      40.998  33.009  36.717  1.00  0.00     0.034 A 
BRANCH  70  84
ATOM     84  C   UNL A   1      36.701  33.672  32.227  1.00  0.00     0.023 A 
ATOM     85  C   UNL A   1      35.936  34.770  32.619  1.00  0.00     0.031 A 
ATOM     86  C   UNL A   1      36.029  32.680  31.479  1.00  0.00     0.131 A 
ATOM     87  C   UNL A   1      34.625  34.927  32.185  1.00  0.00     0.055 A 
ATOM     88  C   UNL A   1      34.743  32.875  30.972  1.00  0.00     0.041 A 
ATOM     89  F   UNL A   1      36.550  31.468  31.242  1.00  0.00    -0.206 F 
ATOM     90  C   UNL A   1      34.039  34.021  31.306  1.00  0.00     0.022 A 
BRANCH  87  91
ATOM     91  S   UNL A   1      33.742  36.369  32.797  1.00  0.00     0.124 S 
ATOM     92  O   UNL A   1      32.361  35.895  32.768  1.00  0.00    -0.237 OA
ATOM     93  O   UNL A   1      34.334  36.554  34.117  1.00  0.00    -0.237 OA
ATOM     94  O   UNL A   1      34.072  37.398  31.816  1.00  0.00    -0.744 OA
ENDBRANCH  87  91
ENDBRANCH  70  84
BRANCH  71  95
ATOM     95  C   UNL A   1      45.226  28.787  35.476  1.00  0.00     0.023 A 
ATOM     96  C   UNL A   1      46.225  29.760  35.173  1.00  0.00     0.031 A 
ATOM     97  C   UNL A   1      45.727  27.525  35.828  1.00  0.00     0.131 A 
ATOM     98  C   UNL A   1      47.596  29.542  35.503  1.00  0.00     0.055 A 
ATOM     99  C   UNL A   1      47.038  27.379  36.336  1.00  0.00     0.041 A 
ATOM    100  F   UNL A   1      44.915  26.458  35.908  1.00  0.00    -0.206 F 
ATOM    101  C   UNL A   1      47.960  28.411  36.231  1.00  0.00     0.022 A 
BRANCH  98 102
ATOM    102  S   UNL A   1      48.891  30.829  35.216  1.00  0.00     0.124 S 
ATOM    103  O   UNL A   1      49.786  30.636  36.350  1.00  0.00    -0.237 OA
ATOM    104  O   UNL A   1      49.447  30.477  33.916  1.00  0.00    -0.237 OA
ATOM    105  O   UNL A   1      48.139  32.087  35.245  1.00  0.00    -0.744 OA
ENDBRANCH  98 102
ENDBRANCH  71  95
BRANCH  83 106
ATOM    106  C   UNL A   1      40.816  34.261  37.512  1.00  0.00     0.023 A 
ATOM    107  C   UNL A   1      40.422  34.227  38.850  1.00  0.00     0.031 A 
ATOM    108  C   UNL A   1      41.131  35.531  36.985  1.00  0.00     0.131 A 
ATOM    109  C   UNL A   1      40.195  35.409  39.553  1.00  0.00     0.055 A 
ATOM    110  C   UNL A   1      41.061  36.695  37.739  1.00  0.00     0.041 A 
ATOM    111  F   UNL A   1      41.531  35.712  35.720  1.00  0.00    -0.206 F 
ATOM    112  C   UNL A   1      40.547  36.645  39.022  1.00  0.00     0.022 A 
BRANCH 109 113
ATOM    113  S   UNL A   1      39.299  35.276  41.112  1.00  0.00     0.124 S 
ATOM    114  O   UNL A   1      37.926  35.088  40.648  1.00  0.00    -0.237 OA
ATOM    115  O   UNL A   1      39.919  34.111  41.735  1.00  0.00    -0.237 OA
ATOM    116  O   UNL A   1      39.568  36.553  41.766  1.00  0.00    -0.744 OA
ENDBRANCH 109 113
ENDBRANCH  83 106
ENDBRANCH  57  58
ENDBRANCH  50  52
ENDBRANCH  49  50
ENDBRANCH  48  49
ENDBRANCH  47  48
ENDBRANCH  46  47
ENDBRANCH  45  46
ENDBRANCH   1  45
TORSDOF 27
ENDMDL
MODEL 3
REMARK VINA RESULT:     -10.7      1.929      2.375
REMARK SMILES Cc1ccc(S(=O)(=O)n2cc(C(=O)C(=O)N[C@@H](Cc3c[nH]c4ccccc34)C(=O)OCCOCCOCCOC(=O)c3ccc(-c4c5nc(c(-c6cc(S(=O)(=O)[O-])ccc6F)c6ccc([nH]6)c(-c6cc(S(=O)(=O)[O-])ccc6F)c6nc(c(-c7cc(S(=O)(=O)[O-])ccc7F)c7ccc4[nH]7)C=C6)C=C5)cc3)c3ccccc32)cc1
REMARK SMILES IDX 34 1 33 2 32 3 31 4 30 5 28 6 29 7 17 8 16 9 14 10 15 11
REMARK SMILES IDX 12 13 13 14 11 15 9 16 10 17 110 18 105 19 109 20 106 21
REMARK SMILES IDX 108 22 107 23 6 24 7 25 8 26 5 27 1 28 2 29 3 30 112 31 4 32
REMARK SMILES IDX 111 33 18 34 19 35 20 36 27 37 21 38 22 39 26 40 23 42 25 43
REMARK SMILES IDX 24 44 35 45 36 46 37 47 38 48 39 49 40 50 41 51 42 52 43 53
REMARK SMILES IDX 104 54 44 55 103 56 45 57 46 58 47 59 97 60 48 61 102 62
REMARK SMILES IDX 96 63 98 64 49 65 101 66 95 67 94 68 50 70 82 71 62 72 81 73
REMARK SMILES IDX 63 74 66 75 80 76 99 77 64 78 65 79 79 81 100 82 67 83 51 84
REMARK SMILES IDX 52 85 60 86 53 87 59 88 61 89 58 90 54 91 55 92 56 93 57 94
REMARK SMILES IDX 83 95 84 96 92 97 85 98 91 99 93 100 90 101 86 102 87 103
REMARK SMILES IDX 88 104 89 105 68 106 69 107 77 108 70 109 76 110 78 111
REMARK SMILES IDX 75 112 71 113 72 114 73 115 74 116
REMARK H PARENT 16 12 21 41 98 69 66 80
REMARK Flexibility Score: inf
ROOT
ATOM      1  C   UNL A   1      38.193  28.273  29.538  1.00  0.00     0.188 C 
ENDROOT
BRANCH   1   2
ATOM      2  O   UNL A   1      37.575  28.430  28.294  1.00  0.00    -0.376 OA
BRANCH   2   3
ATOM      3  C   UNL A   1      36.501  29.310  28.341  1.00  0.00     0.202 C 
BRANCH   3   4
ATOM      4  C   UNL A   1      35.321  29.167  27.339  1.00  0.00     0.261 C 
BRANCH   4   5
ATOM      5  O   UNL A   1      33.552  28.954  27.637  1.00  0.00    -0.462 OA
BRANCH   5   6
ATOM      6  C   UNL A   1      32.345  28.154  27.313  1.00  0.00     0.329 C 
ATOM      7  O   UNL A   1      31.739  27.635  28.253  1.00  0.00    -0.250 OA
BRANCH   6   8
ATOM      8  C   UNL A   1      31.582  27.665  25.869  1.00  0.00     0.197 C 
BRANCH   8   9
ATOM      9  N   UNL A   1      30.195  27.544  25.332  1.00  0.00    -0.335 N 
ATOM     10  C   UNL A   1      29.753  26.840  24.257  1.00  0.00     0.293 C 
ATOM     11  O   UNL A   1      28.564  26.789  23.968  1.00  0.00    -0.265 OA
ATOM     12  H   UNL A   1      29.505  28.045  25.824  1.00  0.00     0.164 HD
BRANCH  10  13
ATOM     13  C   UNL A   1      30.812  26.065  23.486  1.00  0.00     0.252 C 
ATOM     14  O   UNL A   1      30.985  26.309  22.296  1.00  0.00    -0.283 OA
BRANCH  13  15
ATOM     15  C   UNL A   1      31.313  24.864  24.074  1.00  0.00     0.054 A 
ATOM     16  N   UNL A   1      31.319  22.816  24.849  1.00  0.00    -0.240 N 
ATOM     17  C   UNL A   1      30.935  24.105  25.178  1.00  0.00     0.117 A 
ATOM     18  C   UNL A   1      31.698  22.836  23.485  1.00  0.00     0.065 A 
ATOM     19  C   UNL A   1      32.216  24.107  23.327  1.00  0.00     0.012 A 
ATOM     20  C   UNL A   1      32.042  21.799  22.605  1.00  0.00     0.028 A 
ATOM     21  C   UNL A   1      33.193  24.371  22.360  1.00  0.00     0.011 A 
ATOM     22  C   UNL A   1      33.107  22.043  21.734  1.00  0.00     0.002 A 
ATOM     23  C   UNL A   1      33.695  23.302  21.630  1.00  0.00     0.001 A 
BRANCH  16  24
ATOM     24  S   UNL A   1      32.382  21.759  25.644  1.00  0.00     0.268 S 
ATOM     25  O   UNL A   1      31.776  20.458  25.387  1.00  0.00    -0.201 OA
ATOM     26  O   UNL A   1      32.347  22.376  26.970  1.00  0.00    -0.201 OA
BRANCH  24  27
ATOM     27  C   UNL A   1      34.062  21.373  25.593  1.00  0.00     0.088 A 
ATOM     28  C   UNL A   1      38.281  22.058  25.396  1.00  0.00     0.044 C 
ATOM     29  C   UNL A   1      36.827  21.729  25.503  1.00  0.00    -0.051 A 
ATOM     30  C   UNL A   1      36.058  22.695  26.118  1.00  0.00     0.005 A 
ATOM     31  C   UNL A   1      36.215  20.553  24.997  1.00  0.00     0.005 A 
ATOM     32  C   UNL A   1      34.712  22.489  26.190  1.00  0.00     0.022 A 
ATOM     33  C   UNL A   1      34.809  20.364  25.026  1.00  0.00     0.022 A 
ENDBRANCH  24  27
ENDBRANCH  16  24
ENDBRANCH  13  15
ENDBRANCH  10  13
ENDBRANCH   8   9
BRANCH   8  34
ATOM     34  C   UNL A   1      32.245  28.402  24.686  1.00  0.00     0.074 C 
BRANCH  34  35
ATOM     35  C   UNL A   1      31.484  29.638  24.507  1.00  0.00    -0.020 A 
ATOM     36  C   UNL A   1      31.620  30.944  25.735  1.00  0.00     0.087 A 
ATOM     37  C   UNL A   1      30.055  30.137  23.265  1.00  0.00     0.003 A 
ATOM     38  N   UNL A   1      30.256  32.214  25.374  1.00  0.00    -0.361 N 
ATOM     39  C   UNL A   1      29.312  31.683  23.875  1.00  0.00     0.046 A 
ATOM     40  C   UNL A   1      29.529  29.672  22.017  1.00  0.00     0.010 A 
ATOM     41  H   UNL A   1      30.078  33.027  25.901  1.00  0.00     0.166 HD
ATOM     42  C   UNL A   1      28.400  32.343  23.029  1.00  0.00     0.026 A 
ATOM     43  C   UNL A   1      28.511  30.422  21.375  1.00  0.00     0.001 A 
ATOM     44  C   UNL A   1      28.016  31.679  21.830  1.00  0.00     0.002 A 
ENDBRANCH  34  35
ENDBRANCH   8  34
ENDBRANCH   6   8
ENDBRANCH   5   6
ENDBRANCH   4   5
ENDBRANCH   3   4
ENDBRANCH   2   3
ENDBRANCH   1   2
BRANCH   1  45
ATOM     45  C   UNL A   1      39.171  27.127  29.684  1.00  0.00     0.188 C 
BRANCH  45  46
ATOM     46  O   UNL A   1      38.907  25.968  28.936  1.00  0.00    -0.376 OA
BRANCH  46  47
ATOM     47  C   UNL A   1      39.220  25.728  27.592  1.00  0.00     0.202 C 
BRANCH  47  48
ATOM     48  C   UNL A   1      40.680  25.452  27.491  1.00  0.00     0.261 C 
BRANCH  48  49
ATOM     49  O   UNL A   1      41.287  25.626  26.165  1.00  0.00    -0.460 OA
BRANCH  49  50
ATOM     50  C   UNL A   1      42.010  26.693  25.717  1.00  0.00     0.338 C 
ATOM     51  O   UNL A   1      42.659  26.627  24.674  1.00  0.00    -0.246 OA
BRANCH  50  52
ATOM     52  C   UNL A   1      41.943  27.985  26.482  1.00  0.00     0.060 A 
ATOM     53  C   UNL A   1      42.838  28.159  27.486  1.00  0.00     0.016 A 
ATOM     54  C   UNL A   1      40.953  28.966  26.415  1.00  0.00     0.016 A 
ATOM     55  C   UNL A   1      42.552  29.154  28.441  1.00  0.00     0.010 A 
ATOM     56  C   UNL A   1      40.572  29.738  27.597  1.00  0.00     0.010 A 
ATOM     57  C   UNL A   1      41.322  29.760  28.790  1.00  0.00    -0.014 A 
BRANCH  57  58
ATOM     58  C   UNL A   1      40.942  30.531  30.448  1.00  0.00     0.031 A 
ATOM     59  C   UNL A   1      40.248  32.662  30.658  1.00  0.00     0.074 A 
ATOM     60  C   UNL A   1      41.218  29.536  31.773  1.00  0.00     0.049 A 
ATOM     61  N   UNL A   1      40.320  33.563  31.741  1.00  0.00    -0.248 NA
ATOM     62  C   UNL A   1      39.542  33.836  29.676  1.00  0.00     0.031 C 
ATOM     63  C   UNL A   1      40.318  29.230  33.006  1.00  0.00     0.029 A 
ATOM     64  N   UNL A   1      42.249  28.586  32.286  1.00  0.00    -0.354 N 
ATOM     65  C   UNL A   1      39.099  34.146  31.810  1.00  0.00     0.074 A 
ATOM     66  C   UNL A   1      38.932  34.679  30.511  1.00  0.00     0.031 C 
ATOM     67  C   UNL A   1      40.956  28.547  33.999  1.00  0.00     0.029 A 
ATOM     68  C   UNL A   1      42.316  28.237  33.618  1.00  0.00     0.049 A 
ATOM     69  H   UNL A   1      42.900  28.200  31.656  1.00  0.00     0.167 HD
ATOM     70  C   UNL A   1      38.216  33.692  32.741  1.00  0.00     0.034 A 
ATOM     71  C   UNL A   1      43.458  28.082  34.388  1.00  0.00     0.034 A 
ATOM     72  C   UNL A   1      38.753  32.803  33.813  1.00  0.00     0.049 A 
ATOM     73  C   UNL A   1      43.368  29.278  35.334  1.00  0.00     0.074 A 
ATOM     74  C   UNL A   1      38.336  31.581  34.332  1.00  0.00     0.029 A 
ATOM     75  N   UNL A   1      39.973  33.064  34.441  1.00  0.00    -0.354 N 
ATOM     76  N   UNL A   1      42.580  30.288  35.054  1.00  0.00    -0.248 NA
ATOM     77  C   UNL A   1      43.993  29.413  36.650  1.00  0.00     0.031 C 
ATOM     78  C   UNL A   1      39.308  31.125  35.272  1.00  0.00     0.029 A 
ATOM     79  C   UNL A   1      40.347  32.040  35.315  1.00  0.00     0.049 A 
ATOM     80  H   UNL A   1      40.508  33.876  34.286  1.00  0.00     0.167 HD
ATOM     81  C   UNL A   1      42.444  31.091  36.137  1.00  0.00     0.074 A 
ATOM     82  C   UNL A   1      43.387  30.529  37.103  1.00  0.00     0.031 C 
ATOM     83  C   UNL A   1      41.556  32.133  36.148  1.00  0.00     0.034 A 
BRANCH  70  84
ATOM     84  C   UNL A   1      36.745  33.907  32.575  1.00  0.00     0.023 A 
ATOM     85  C   UNL A   1      36.273  33.778  31.269  1.00  0.00     0.031 A 
ATOM     86  C   UNL A   1      35.779  34.216  33.558  1.00  0.00     0.131 A 
ATOM     87  C   UNL A   1      34.913  33.827  30.986  1.00  0.00     0.055 A 
ATOM     88  C   UNL A   1      34.409  34.181  33.292  1.00  0.00     0.041 A 
ATOM     89  F   UNL A   1      36.100  34.611  34.798  1.00  0.00    -0.206 F 
ATOM     90  C   UNL A   1      33.967  33.960  31.997  1.00  0.00     0.022 A 
BRANCH  87  91
ATOM     91  S   UNL A   1      34.447  33.684  29.255  1.00  0.00     0.124 S 
ATOM     92  O   UNL A   1      33.113  34.276  29.266  1.00  0.00    -0.237 OA
ATOM     93  O   UNL A   1      35.492  34.456  28.591  1.00  0.00    -0.237 OA
ATOM     94  O   UNL A   1      34.492  32.244  29.021  1.00  0.00    -0.744 OA
ENDBRANCH  87  91
ENDBRANCH  70  84
BRANCH  71  95
ATOM     95  C   UNL A   1      44.777  27.502  33.821  1.00  0.00     0.023 A 
ATOM     96  C   UNL A   1      46.016  28.201  33.942  1.00  0.00     0.031 A 
ATOM     97  C   UNL A   1      44.901  26.150  33.466  1.00  0.00     0.131 A 
ATOM     98  C   UNL A   1      47.258  27.502  33.999  1.00  0.00     0.055 A 
ATOM     99  C   UNL A   1      46.096  25.440  33.719  1.00  0.00     0.041 A 
ATOM    100  F   UNL A   1      43.828  25.436  33.089  1.00  0.00    -0.206 F 
ATOM    101  C   UNL A   1      47.267  26.109  34.048  1.00  0.00     0.022 A 
BRANCH  98 102
ATOM    102  S   UNL A   1      48.866  28.377  34.262  1.00  0.00     0.124 S 
ATOM    103  O   UNL A   1      49.836  27.295  34.149  1.00  0.00    -0.237 OA
ATOM    104  O   UNL A   1      48.903  29.362  33.188  1.00  0.00    -0.237 OA
ATOM    105  O   UNL A   1      48.736  28.938  35.610  1.00  0.00    -0.744 OA
ENDBRANCH  98 102
ENDBRANCH  71  95
BRANCH  83 106
ATOM    106  C   UNL A   1      41.713  33.303  37.065  1.00  0.00     0.023 A 
ATOM    107  C   UNL A   1      40.759  33.604  38.037  1.00  0.00     0.031 A 
ATOM    108  C   UNL A   1      42.879  34.097  37.065  1.00  0.00     0.131 A 
ATOM    109  C   UNL A   1      40.895  34.738  38.838  1.00  0.00     0.055 A 
ATOM    110  C   UNL A   1      43.085  35.127  37.974  1.00  0.00     0.041 A 
ATOM    111  F   UNL A   1      43.881  33.915  36.195  1.00  0.00    -0.206 F 
ATOM    112  C   UNL A   1      42.069  35.483  38.841  1.00  0.00     0.022 A 
BRANCH 109 113
ATOM    113  S   UNL A   1      39.438  35.273  39.753  1.00  0.00     0.124 S 
ATOM    114  O   UNL A   1      39.079  36.501  39.047  1.00  0.00    -0.237 OA
ATOM    115  O   UNL A   1      38.521  34.152  39.574  1.00  0.00    -0.237 OA
ATOM    116  O   UNL A   1      39.942  35.459  41.111  1.00  0.00    -0.744 OA
ENDBRANCH 109 113
ENDBRANCH  83 106
ENDBRANCH  57  58
ENDBRANCH  50  52
ENDBRANCH  49  50
ENDBRANCH  48  49
ENDBRANCH  47  48
ENDBRANCH  46  47
ENDBRANCH  45  46
ENDBRANCH   1  45
TORSDOF 27
ENDMDL
