MODEL 1
REMARK VINA RESULT:      -8.4      0.000      0.000
REMARK SMILES C[C@@H](C(=O)OCCOCCOCCOC(=O)c1ccc(-c2c3nc(c(-c4cc(S(=O)(=O)[O-])ccc4F)c4ccc([nH]4)c(-c4cc(S(=O)(=O)[O-])ccc4F)c4nc(c(-c5cc(S(=O)(=O)[O-])ccc5F)c5ccc2[nH]5)C=C4)C=C3)cc1)[C@H](C)[S@](C)=O
REMARK SMILES IDX 10 1 9 2 8 3 7 4 6 5 5 6 3 7 4 8 2 9 1 10 80 11 81 12 82 13
REMARK SMILES IDX 84 14 83 15 11 16 12 17 13 18 14 19 15 20 16 21 17 22 18 23
REMARK SMILES IDX 79 24 19 25 78 26 20 27 21 28 22 29 72 30 23 31 77 32 71 33
REMARK SMILES IDX 73 34 24 35 76 36 70 37 69 38 25 40 57 41 37 42 56 43 38 44
REMARK SMILES IDX 41 45 55 46 74 47 39 48 40 49 54 51 75 52 42 53 26 54 27 55
REMARK SMILES IDX 35 56 28 57 34 58 36 59 33 60 29 61 30 62 31 63 32 64 58 65
REMARK SMILES IDX 59 66 67 67 60 68 66 69 68 70 65 71 61 72 62 73 63 74 64 75
REMARK SMILES IDX 43 76 44 77 52 78 45 79 51 80 53 81 50 82 46 83 47 84 48 85
REMARK SMILES IDX 49 86
REMARK H PARENT 73 39 41 50
REMARK Flexibility Score: inf
ROOT
ATOM      1  C   UNL A   1      31.524  27.605  26.365  1.00  0.00     0.188 C 
ENDROOT
BRANCH   1   2
ATOM      2  C   UNL A   1      32.203  26.677  25.342  1.00  0.00     0.188 C 
BRANCH   2   3
ATOM      3  O   UNL A   1      31.700  26.664  24.007  1.00  0.00    -0.376 OA
BRANCH   3   4
ATOM      4  C   UNL A   1      32.571  27.046  22.947  1.00  0.00     0.202 C 
BRANCH   4   5
ATOM      5  C   UNL A   1      32.899  25.993  21.883  1.00  0.00     0.261 C 
BRANCH   5   6
ATOM      6  O   UNL A   1      33.854  25.008  22.323  1.00  0.00    -0.463 OA
BRANCH   6   7
ATOM      7  C   UNL A   1      33.515  23.719  22.071  1.00  0.00     0.309 C 
ATOM      8  O   UNL A   1      33.375  23.251  20.946  1.00  0.00    -0.252 OA
BRANCH   7   9
ATOM      9  C   UNL A   1      33.357  22.862  23.327  1.00  0.00     0.111 C 
ATOM     10  C   UNL A   1      32.034  23.115  24.059  1.00  0.00     0.021 C 
BRANCH   9  11
ATOM     11  C   UNL A   1      34.616  22.737  24.237  1.00  0.00     0.090 C 
ATOM     12  C   UNL A   1      35.970  22.889  23.532  1.00  0.00     0.023 C 
BRANCH  11  13
ATOM     13  S   UNL A   1      34.632  21.181  25.234  1.00  0.00     0.022 S 
ATOM     14  O   UNL A   1      33.854  20.134  24.496  1.00  0.00    -0.260 OA
ATOM     15  C   UNL A   1      36.389  20.812  25.047  1.00  0.00     0.123 C 
ENDBRANCH  11  13
ENDBRANCH   9  11
ENDBRANCH   7   9
ENDBRANCH   6   7
ENDBRANCH   5   6
ENDBRANCH   4   5
ENDBRANCH   3   4
ENDBRANCH   2   3
ENDBRANCH   1   2
BRANCH   1  16
ATOM     16  O   UNL A   1      31.470  28.954  25.963  1.00  0.00    -0.376 OA
BRANCH  16  17
ATOM     17  C   UNL A   1      32.637  29.581  25.471  1.00  0.00     0.202 C 
BRANCH  17  18
ATOM     18  C   UNL A   1      33.949  29.678  26.271  1.00  0.00     0.261 C 
BRANCH  18  19
ATOM     19  O   UNL A   1      33.903  30.272  27.575  1.00  0.00    -0.460 OA
BRANCH  19  20
ATOM     20  C   UNL A   1      34.721  31.319  27.807  1.00  0.00     0.338 C 
ATOM     21  O   UNL A   1      34.462  32.504  27.624  1.00  0.00    -0.246 OA
BRANCH  20  22
ATOM     22  C   UNL A   1      35.934  30.816  28.483  1.00  0.00     0.060 A 
ATOM     23  C   UNL A   1      37.181  31.344  28.127  1.00  0.00     0.016 A 
ATOM     24  C   UNL A   1      35.842  29.818  29.456  1.00  0.00     0.016 A 
ATOM     25  C   UNL A   1      38.345  30.863  28.730  1.00  0.00     0.010 A 
ATOM     26  C   UNL A   1      37.013  29.319  30.040  1.00  0.00     0.010 A 
ATOM     27  C   UNL A   1      38.273  29.820  29.662  1.00  0.00    -0.014 A 
BRANCH  27  28
ATOM     28  C   UNL A   1      39.513  29.129  30.102  1.00  0.00     0.031 A 
ATOM     29  C   UNL A   1      40.230  29.651  31.318  1.00  0.00     0.074 A 
ATOM     30  C   UNL A   1      39.982  28.042  29.462  1.00  0.00     0.049 A 
ATOM     31  N   UNL A   1      41.380  29.295  31.829  1.00  0.00    -0.248 NA
ATOM     32  C   UNL A   1      39.547  30.722  32.059  1.00  0.00     0.031 C 
ATOM     33  C   UNL A   1      39.334  27.384  28.332  1.00  0.00     0.029 A 
ATOM     34  N   UNL A   1      41.122  27.304  29.674  1.00  0.00    -0.354 N 
ATOM     35  C   UNL A   1      41.566  30.106  32.943  1.00  0.00     0.074 A 
ATOM     36  C   UNL A   1      40.423  30.991  33.014  1.00  0.00     0.031 C 
ATOM     37  C   UNL A   1      40.094  26.346  27.939  1.00  0.00     0.029 A 
ATOM     38  C   UNL A   1      41.305  26.297  28.754  1.00  0.00     0.049 A 
ATOM     39  H   UNL A   1      41.748  27.478  30.413  1.00  0.00     0.167 HD
ATOM     40  C   UNL A   1      42.596  30.110  33.827  1.00  0.00     0.034 A 
ATOM     41  C   UNL A   1      42.348  25.459  28.569  1.00  0.00     0.034 A 
ATOM     42  C   UNL A   1      43.736  29.232  33.733  1.00  0.00     0.049 A 
ATOM     43  C   UNL A   1      43.540  25.560  29.493  1.00  0.00     0.074 A 
ATOM     44  C   UNL A   1      44.847  29.167  34.557  1.00  0.00     0.029 A 
ATOM     45  N   UNL A   1      43.919  28.268  32.749  1.00  0.00    -0.354 N 
ATOM     46  N   UNL A   1      43.730  26.359  30.519  1.00  0.00    -0.248 NA
ATOM     47  C   UNL A   1      44.659  24.644  29.233  1.00  0.00     0.031 C 
ATOM     48  C   UNL A   1      45.730  28.217  34.031  1.00  0.00     0.029 A 
ATOM     49  C   UNL A   1      45.136  27.627  32.926  1.00  0.00     0.049 A 
ATOM     50  H   UNL A   1      43.277  28.068  32.030  1.00  0.00     0.167 HD
ATOM     51  C   UNL A   1      44.977  26.020  31.041  1.00  0.00     0.074 A 
ATOM     52  C   UNL A   1      45.487  24.937  30.226  1.00  0.00     0.031 C 
ATOM     53  C   UNL A   1      45.639  26.553  32.100  1.00  0.00     0.034 A 
BRANCH  40  54
ATOM     54  C   UNL A   1      42.555  31.149  34.922  1.00  0.00     0.023 A 
ATOM     55  C   UNL A   1      43.065  32.447  34.736  1.00  0.00     0.031 A 
ATOM     56  C   UNL A   1      42.047  30.818  36.191  1.00  0.00     0.131 A 
ATOM     57  C   UNL A   1      43.129  33.335  35.821  1.00  0.00     0.055 A 
ATOM     58  C   UNL A   1      42.038  31.734  37.243  1.00  0.00     0.041 A 
ATOM     59  F   UNL A   1      41.570  29.587  36.436  1.00  0.00    -0.206 F 
ATOM     60  C   UNL A   1      42.596  32.997  37.066  1.00  0.00     0.022 A 
BRANCH  57  61
ATOM     61  S   UNL A   1      44.062  34.880  35.624  1.00  0.00     0.124 S 
ATOM     62  O   UNL A   1      44.365  35.221  37.011  1.00  0.00    -0.237 OA
ATOM     63  O   UNL A   1      45.194  34.462  34.806  1.00  0.00    -0.237 OA
ATOM     64  O   UNL A   1      43.110  35.772  34.964  1.00  0.00    -0.744 OA
ENDBRANCH  57  61
ENDBRANCH  40  54
BRANCH  41  65
ATOM     65  C   UNL A   1      42.355  24.500  27.426  1.00  0.00     0.023 A 
ATOM     66  C   UNL A   1      41.685  23.268  27.497  1.00  0.00     0.031 A 
ATOM     67  C   UNL A   1      43.096  24.778  26.262  1.00  0.00     0.131 A 
ATOM     68  C   UNL A   1      41.804  22.343  26.445  1.00  0.00     0.055 A 
ATOM     69  C   UNL A   1      43.165  23.880  25.196  1.00  0.00     0.041 A 
ATOM     70  F   UNL A   1      43.768  25.934  26.144  1.00  0.00    -0.206 F 
ATOM     71  C   UNL A   1      42.527  22.648  25.289  1.00  0.00     0.022 A 
BRANCH  68  72
ATOM     72  S   UNL A   1      41.073  20.694  26.645  1.00  0.00     0.124 S 
ATOM     73  O   UNL A   1      40.900  20.619  28.091  1.00  0.00    -0.237 OA
ATOM     74  O   UNL A   1      39.850  20.805  25.857  1.00  0.00    -0.237 OA
ATOM     75  O   UNL A   1      42.089  19.802  26.091  1.00  0.00    -0.744 OA
ENDBRANCH  68  72
ENDBRANCH  41  65
BRANCH  53  76
ATOM     76  C   UNL A   1      46.968  25.934  32.467  1.00  0.00     0.023 A 
ATOM     77  C   UNL A   1      48.155  26.259  31.787  1.00  0.00     0.031 A 
ATOM     78  C   UNL A   1      47.043  25.000  33.517  1.00  0.00     0.131 A 
ATOM     79  C   UNL A   1      49.356  25.617  32.129  1.00  0.00     0.055 A 
ATOM     80  C   UNL A   1      48.251  24.410  33.892  1.00  0.00     0.041 A 
ATOM     81  F   UNL A   1      45.942  24.651  34.200  1.00  0.00    -0.206 F 
ATOM     82  C   UNL A   1      49.414  24.708  33.190  1.00  0.00     0.022 A 
BRANCH  79  83
ATOM     83  S   UNL A   1      50.830  25.920  31.116  1.00  0.00     0.124 S 
ATOM     84  O   UNL A   1      50.390  25.473  29.799  1.00  0.00    -0.237 OA
ATOM     85  O   UNL A   1      51.024  27.358  31.269  1.00  0.00    -0.237 OA
ATOM     86  O   UNL A   1      51.855  25.088  31.743  1.00  0.00    -0.744 OA
ENDBRANCH  79  83
ENDBRANCH  53  76
ENDBRANCH  27  28
ENDBRANCH  20  22
ENDBRANCH  19  20
ENDBRANCH  18  19
ENDBRANCH  17  18
ENDBRANCH  16  17
ENDBRANCH   1  16
TORSDOF 22
ENDMDL
MODEL 2
REMARK VINA RESULT:      -8.3      1.598      1.977
REMARK SMILES C[C@@H](C(=O)OCCOCCOCCOC(=O)c1ccc(-c2c3nc(c(-c4cc(S(=O)(=O)[O-])ccc4F)c4ccc([nH]4)c(-c4cc(S(=O)(=O)[O-])ccc4F)c4nc(c(-c5cc(S(=O)(=O)[O-])ccc5F)c5ccc2[nH]5)C=C4)C=C3)cc1)[C@H](C)[S@](C)=O
REMARK SMILES IDX 10 1 9 2 8 3 7 4 6 5 5 6 3 7 4 8 2 9 1 10 80 11 81 12 82 13
REMARK SMILES IDX 84 14 83 15 11 16 12 17 13 18 14 19 15 20 16 21 17 22 18 23
REMARK SMILES IDX 79 24 19 25 78 26 20 27 21 28 22 29 72 30 23 31 77 32 71 33
REMARK SMILES IDX 73 34 24 35 76 36 70 37 69 38 25 40 57 41 37 42 56 43 38 44
REMARK SMILES IDX 41 45 55 46 74 47 39 48 40 49 54 51 75 52 42 53 26 54 27 55
REMARK SMILES IDX 35 56 28 57 34 58 36 59 33 60 29 61 30 62 31 63 32 64 58 65
REMARK SMILES IDX 59 66 67 67 60 68 66 69 68 70 65 71 61 72 62 73 63 74 64 75
REMARK SMILES IDX 43 76 44 77 52 78 45 79 51 80 53 81 50 82 46 83 47 84 48 85
REMARK SMILES IDX 49 86
REMARK H PARENT 73 39 41 50
REMARK Flexibility Score: inf
ROOT
ATOM      1  C   UNL A   1      31.305  27.424  26.556  1.00  0.00     0.188 C 
ENDROOT
BRANCH   1   2
ATOM      2  C   UNL A   1      31.616  26.157  25.739  1.00  0.00     0.188 C 
BRANCH   2   3
ATOM      3  O   UNL A   1      31.175  26.105  24.383  1.00  0.00    -0.376 OA
BRANCH   3   4
ATOM      4  C   UNL A   1      32.101  25.700  23.380  1.00  0.00     0.202 C 
BRANCH   4   5
ATOM      5  C   UNL A   1      32.007  24.259  22.868  1.00  0.00     0.261 C 
BRANCH   5   6
ATOM      6  O   UNL A   1      33.153  23.453  23.205  1.00  0.00    -0.463 OA
BRANCH   6   7
ATOM      7  C   UNL A   1      32.979  22.611  24.255  1.00  0.00     0.309 C 
ATOM      8  O   UNL A   1      31.921  22.473  24.859  1.00  0.00    -0.252 OA
BRANCH   7   9
ATOM      9  C   UNL A   1      34.223  21.797  24.609  1.00  0.00     0.111 C 
ATOM     10  C   UNL A   1      33.932  20.299  24.758  1.00  0.00     0.021 C 
BRANCH   9  11
ATOM     11  C   UNL A   1      35.162  22.410  25.691  1.00  0.00     0.090 C 
ATOM     12  C   UNL A   1      34.472  22.946  26.951  1.00  0.00     0.023 C 
BRANCH  11  13
ATOM     13  S   UNL A   1      36.277  23.721  25.016  1.00  0.00     0.022 S 
ATOM     14  O   UNL A   1      37.505  23.791  25.872  1.00  0.00    -0.260 OA
ATOM     15  C   UNL A   1      36.710  22.878  23.479  1.00  0.00     0.123 C 
ENDBRANCH  11  13
ENDBRANCH   9  11
ENDBRANCH   7   9
ENDBRANCH   6   7
ENDBRANCH   5   6
ENDBRANCH   4   5
ENDBRANCH   3   4
ENDBRANCH   2   3
ENDBRANCH   1   2
BRANCH   1  16
ATOM     16  O   UNL A   1      31.531  28.625  25.855  1.00  0.00    -0.376 OA
BRANCH  16  17
ATOM     17  C   UNL A   1      32.829  28.921  25.383  1.00  0.00     0.202 C 
BRANCH  17  18
ATOM     18  C   UNL A   1      34.034  29.166  26.310  1.00  0.00     0.261 C 
BRANCH  18  19
ATOM     19  O   UNL A   1      33.827  29.950  27.492  1.00  0.00    -0.460 OA
BRANCH  19  20
ATOM     20  C   UNL A   1      34.623  31.026  27.668  1.00  0.00     0.338 C 
ATOM     21  O   UNL A   1      34.330  32.196  27.446  1.00  0.00    -0.246 OA
BRANCH  20  22
ATOM     22  C   UNL A   1      35.861  30.579  28.338  1.00  0.00     0.060 A 
ATOM     23  C   UNL A   1      37.099  30.976  27.818  1.00  0.00     0.016 A 
ATOM     24  C   UNL A   1      35.801  29.761  29.468  1.00  0.00     0.016 A 
ATOM     25  C   UNL A   1      38.284  30.541  28.415  1.00  0.00     0.010 A 
ATOM     26  C   UNL A   1      36.991  29.305  30.050  1.00  0.00     0.010 A 
ATOM     27  C   UNL A   1      38.239  29.672  29.511  1.00  0.00    -0.014 A 
BRANCH  27  28
ATOM     28  C   UNL A   1      39.480  29.000  29.978  1.00  0.00     0.031 A 
ATOM     29  C   UNL A   1      40.185  29.558  31.184  1.00  0.00     0.074 A 
ATOM     30  C   UNL A   1      39.959  27.898  29.372  1.00  0.00     0.049 A 
ATOM     31  N   UNL A   1      41.334  29.222  31.712  1.00  0.00    -0.248 NA
ATOM     32  C   UNL A   1      39.492  30.646  31.891  1.00  0.00     0.031 C 
ATOM     33  C   UNL A   1      39.322  27.205  28.256  1.00  0.00     0.029 A 
ATOM     34  N   UNL A   1      41.101  27.171  29.611  1.00  0.00    -0.354 N 
ATOM     35  C   UNL A   1      41.508  30.066  32.805  1.00  0.00     0.074 A 
ATOM     36  C   UNL A   1      40.360  30.946  32.844  1.00  0.00     0.031 C 
ATOM     37  C   UNL A   1      40.089  26.161  27.897  1.00  0.00     0.029 A 
ATOM     38  C   UNL A   1      41.295  26.141  28.720  1.00  0.00     0.049 A 
ATOM     39  H   UNL A   1      41.720  27.369  30.350  1.00  0.00     0.167 HD
ATOM     40  C   UNL A   1      42.532  30.099  33.695  1.00  0.00     0.034 A 
ATOM     41  C   UNL A   1      42.343  25.304  28.566  1.00  0.00     0.034 A 
ATOM     42  C   UNL A   1      43.677  29.224  33.634  1.00  0.00     0.049 A 
ATOM     43  C   UNL A   1      43.529  25.436  29.495  1.00  0.00     0.074 A 
ATOM     44  C   UNL A   1      44.783  29.189  34.466  1.00  0.00     0.029 A 
ATOM     45  N   UNL A   1      43.871  28.234  32.677  1.00  0.00    -0.354 N 
ATOM     46  N   UNL A   1      43.707  26.264  30.500  1.00  0.00    -0.248 NA
ATOM     47  C   UNL A   1      44.654  24.520  29.268  1.00  0.00     0.031 C 
ATOM     48  C   UNL A   1      45.674  28.229  33.972  1.00  0.00     0.029 A 
ATOM     49  C   UNL A   1      45.091  27.605  32.880  1.00  0.00     0.049 A 
ATOM     50  H   UNL A   1      43.235  28.012  31.959  1.00  0.00     0.167 HD
ATOM     51  C   UNL A   1      44.953  25.946  31.039  1.00  0.00     0.074 A 
ATOM     52  C   UNL A   1      45.473  24.844  30.257  1.00  0.00     0.031 C 
ATOM     53  C   UNL A   1      45.604  26.512  32.087  1.00  0.00     0.034 A 
BRANCH  40  54
ATOM     54  C   UNL A   1      42.478  31.168  34.761  1.00  0.00     0.023 A 
ATOM     55  C   UNL A   1      43.039  32.442  34.566  1.00  0.00     0.031 A 
ATOM     56  C   UNL A   1      41.905  30.886  36.014  1.00  0.00     0.131 A 
ATOM     57  C   UNL A   1      43.086  33.357  35.629  1.00  0.00     0.055 A 
ATOM     58  C   UNL A   1      41.880  31.831  37.041  1.00  0.00     0.041 A 
ATOM     59  F   UNL A   1      41.376  29.679  36.269  1.00  0.00    -0.206 F 
ATOM     60  C   UNL A   1      42.488  33.069  36.858  1.00  0.00     0.022 A 
BRANCH  57  61
ATOM     61  S   UNL A   1      44.077  34.864  35.435  1.00  0.00     0.124 S 
ATOM     62  O   UNL A   1      44.511  35.113  36.808  1.00  0.00    -0.237 OA
ATOM     63  O   UNL A   1      45.115  34.442  34.503  1.00  0.00    -0.237 OA
ATOM     64  O   UNL A   1      43.122  35.837  34.907  1.00  0.00    -0.744 OA
ENDBRANCH  57  61
ENDBRANCH  40  54
BRANCH  41  65
ATOM     65  C   UNL A   1      42.363  24.313  27.450  1.00  0.00     0.023 A 
ATOM     66  C   UNL A   1      41.787  23.040  27.588  1.00  0.00     0.031 A 
ATOM     67  C   UNL A   1      43.025  24.607  26.243  1.00  0.00     0.131 A 
ATOM     68  C   UNL A   1      41.919  22.095  26.556  1.00  0.00     0.055 A 
ATOM     69  C   UNL A   1      43.105  23.685  25.199  1.00  0.00     0.041 A 
ATOM     70  F   UNL A   1      43.607  25.804  26.061  1.00  0.00    -0.206 F 
ATOM     71  C   UNL A   1      42.562  22.415  25.357  1.00  0.00     0.022 A 
BRANCH  68  72
ATOM     72  S   UNL A   1      41.318  20.406  26.836  1.00  0.00     0.124 S 
ATOM     73  O   UNL A   1      42.524  19.618  26.601  1.00  0.00    -0.237 OA
ATOM     74  O   UNL A   1      40.854  20.472  28.218  1.00  0.00    -0.237 OA
ATOM     75  O   UNL A   1      40.265  20.248  25.835  1.00  0.00    -0.744 OA
ENDBRANCH  68  72
ENDBRANCH  41  65
BRANCH  53  76
ATOM     76  C   UNL A   1      46.934  25.910  32.480  1.00  0.00     0.023 A 
ATOM     77  C   UNL A   1      47.045  24.953  33.505  1.00  0.00     0.031 A 
ATOM     78  C   UNL A   1      48.110  26.305  31.816  1.00  0.00     0.131 A 
ATOM     79  C   UNL A   1      48.309  24.463  33.871  1.00  0.00     0.055 A 
ATOM     80  C   UNL A   1      49.356  25.769  32.144  1.00  0.00     0.041 A 
ATOM     81  F   UNL A   1      48.064  27.216  30.831  1.00  0.00    -0.206 F 
ATOM     82  C   UNL A   1      49.463  24.852  33.184  1.00  0.00     0.022 A 
BRANCH  79  83
ATOM     83  S   UNL A   1      48.441  23.372  35.313  1.00  0.00     0.124 S 
ATOM     84  O   UNL A   1      49.871  23.417  35.599  1.00  0.00    -0.237 OA
ATOM     85  O   UNL A   1      47.575  24.031  36.285  1.00  0.00    -0.237 OA
ATOM     86  O   UNL A   1      47.948  22.087  34.819  1.00  0.00    -0.744 OA
ENDBRANCH  79  83
ENDBRANCH  53  76
ENDBRANCH  27  28
ENDBRANCH  20  22
ENDBRANCH  19  20
ENDBRANCH  18  19
ENDBRANCH  17  18
ENDBRANCH  16  17
ENDBRANCH   1  16
TORSDOF 22
ENDMDL
MODEL 3
REMARK VINA RESULT:      -8.3      4.426      6.212
REMARK SMILES C[C@@H](C(=O)OCCOCCOCCOC(=O)c1ccc(-c2c3nc(c(-c4cc(S(=O)(=O)[O-])ccc4F)c4ccc([nH]4)c(-c4cc(S(=O)(=O)[O-])ccc4F)c4nc(c(-c5cc(S(=O)(=O)[O-])ccc5F)c5ccc2[nH]5)C=C4)C=C3)cc1)[C@H](C)[S@](C)=O
REMARK SMILES IDX 10 1 9 2 8 3 7 4 6 5 5 6 3 7 4 8 2 9 1 10 80 11 81 12 82 13
REMARK SMILES IDX 84 14 83 15 11 16 12 17 13 18 14 19 15 20 16 21 17 22 18 23
REMARK SMILES IDX 79 24 19 25 78 26 20 27 21 28 22 29 72 30 23 31 77 32 71 33
REMARK SMILES IDX 73 34 24 35 76 36 70 37 69 38 25 40 57 41 37 42 56 43 38 44
REMARK SMILES IDX 41 45 55 46 74 47 39 48 40 49 54 51 75 52 42 53 26 54 27 55
REMARK SMILES IDX 35 56 28 57 34 58 36 59 33 60 29 61 30 62 31 63 32 64 58 65
REMARK SMILES IDX 59 66 67 67 60 68 66 69 68 70 65 71 61 72 62 73 63 74 64 75
REMARK SMILES IDX 43 76 44 77 52 78 45 79 51 80 53 81 50 82 46 83 47 84 48 85
REMARK SMILES IDX 49 86
REMARK H PARENT 73 39 41 50
REMARK Flexibility Score: inf
ROOT
ATOM      1  C   UNL A   1      35.096  32.329  29.208  1.00  0.00     0.188 C 
ENDROOT
BRANCH   1   2
ATOM      2  C   UNL A   1      34.683  31.731  27.851  1.00  0.00     0.188 C 
BRANCH   2   3
ATOM      3  O   UNL A   1      33.291  31.555  27.588  1.00  0.00    -0.376 OA
BRANCH   3   4
ATOM      4  C   UNL A   1      32.823  30.256  27.241  1.00  0.00     0.202 C 
BRANCH   4   5
ATOM      5  C   UNL A   1      33.263  29.679  25.891  1.00  0.00     0.261 C 
BRANCH   5   6
ATOM      6  O   UNL A   1      32.966  28.278  25.740  1.00  0.00    -0.463 OA
BRANCH   6   7
ATOM      7  C   UNL A   1      33.029  27.806  24.470  1.00  0.00     0.309 C 
ATOM      8  O   UNL A   1      33.841  28.188  23.632  1.00  0.00    -0.252 OA
BRANCH   7   9
ATOM      9  C   UNL A   1      32.013  26.706  24.165  1.00  0.00     0.111 C 
ATOM     10  C   UNL A   1      31.280  26.209  25.417  1.00  0.00     0.021 C 
BRANCH   9  11
ATOM     11  C   UNL A   1      32.477  25.597  23.173  1.00  0.00     0.090 C 
ATOM     12  C   UNL A   1      32.159  25.847  21.693  1.00  0.00     0.023 C 
BRANCH  11  13
ATOM     13  S   UNL A   1      31.871  23.914  23.640  1.00  0.00     0.022 S 
ATOM     14  O   UNL A   1      30.447  23.779  23.192  1.00  0.00    -0.260 OA
ATOM     15  C   UNL A   1      32.910  22.977  22.500  1.00  0.00     0.123 C 
ENDBRANCH  11  13
ENDBRANCH   9  11
ENDBRANCH   7   9
ENDBRANCH   6   7
ENDBRANCH   5   6
ENDBRANCH   4   5
ENDBRANCH   3   4
ENDBRANCH   2   3
ENDBRANCH   1   2
BRANCH   1  16
ATOM     16  O   UNL A   1      35.080  33.737  29.240  1.00  0.00    -0.376 OA
BRANCH  16  17
ATOM     17  C   UNL A   1      33.948  34.432  28.758  1.00  0.00     0.202 C 
BRANCH  17  18
ATOM     18  C   UNL A   1      33.196  35.497  29.576  1.00  0.00     0.261 C 
BRANCH  18  19
ATOM     19  O   UNL A   1      32.540  35.085  30.782  1.00  0.00    -0.460 OA
BRANCH  19  20
ATOM     20  C   UNL A   1      32.876  35.727  31.920  1.00  0.00     0.338 C 
ATOM     21  O   UNL A   1      32.275  36.663  32.436  1.00  0.00    -0.246 OA
BRANCH  20  22
ATOM     22  C   UNL A   1      34.004  35.005  32.541  1.00  0.00     0.060 A 
ATOM     23  C   UNL A   1      35.280  35.581  32.514  1.00  0.00     0.016 A 
ATOM     24  C   UNL A   1      33.807  33.758  33.137  1.00  0.00     0.016 A 
ATOM     25  C   UNL A   1      36.369  34.904  33.067  1.00  0.00     0.010 A 
ATOM     26  C   UNL A   1      34.905  33.069  33.668  1.00  0.00     0.010 A 
ATOM     27  C   UNL A   1      36.196  33.626  33.613  1.00  0.00    -0.014 A 
BRANCH  27  28
ATOM     28  C   UNL A   1      37.382  32.798  33.956  1.00  0.00     0.031 A 
ATOM     29  C   UNL A   1      38.141  33.122  35.215  1.00  0.00     0.074 A 
ATOM     30  C   UNL A   1      37.764  31.759  33.191  1.00  0.00     0.049 A 
ATOM     31  N   UNL A   1      39.262  32.624  35.667  1.00  0.00    -0.248 NA
ATOM     32  C   UNL A   1      37.544  34.150  36.081  1.00  0.00     0.031 C 
ATOM     33  C   UNL A   1      37.064  31.285  32.001  1.00  0.00     0.029 A 
ATOM     34  N   UNL A   1      38.845  30.918  33.303  1.00  0.00    -0.354 N 
ATOM     35  C   UNL A   1      39.514  33.286  36.865  1.00  0.00     0.074 A 
ATOM     36  C   UNL A   1      38.441  34.241  37.049  1.00  0.00     0.031 C 
ATOM     37  C   UNL A   1      37.740  30.245  31.483  1.00  0.00     0.029 A 
ATOM     38  C   UNL A   1      38.948  30.012  32.272  1.00  0.00     0.049 A 
ATOM     39  H   UNL A   1      39.485  30.959  34.050  1.00  0.00     0.167 HD
ATOM     40  C   UNL A   1      40.544  33.112  37.730  1.00  0.00     0.034 A 
ATOM     41  C   UNL A   1      39.923  29.125  31.981  1.00  0.00     0.034 A 
ATOM     42  C   UNL A   1      41.614  32.166  37.523  1.00  0.00     0.049 A 
ATOM     43  C   UNL A   1      41.122  29.029  32.895  1.00  0.00     0.074 A 
ATOM     44  C   UNL A   1      42.719  31.925  38.320  1.00  0.00     0.029 A 
ATOM     45  N   UNL A   1      41.718  31.310  36.434  1.00  0.00    -0.354 N 
ATOM     46  N   UNL A   1      41.376  29.688  34.003  1.00  0.00    -0.248 NA
ATOM     47  C   UNL A   1      42.168  28.067  32.519  1.00  0.00     0.031 C 
ATOM     48  C   UNL A   1      43.525  30.977  37.679  1.00  0.00     0.029 A 
ATOM     49  C   UNL A   1      42.884  30.563  36.522  1.00  0.00     0.049 A 
ATOM     50  H   UNL A   1      41.060  31.243  35.704  1.00  0.00     0.167 HD
ATOM     51  C   UNL A   1      42.596  29.199  34.468  1.00  0.00     0.074 A 
ATOM     52  C   UNL A   1      43.019  28.181  33.528  1.00  0.00     0.031 C 
ATOM     53  C   UNL A   1      43.300  29.556  35.572  1.00  0.00     0.034 A 
BRANCH  40  54
ATOM     54  C   UNL A   1      40.587  34.019  38.937  1.00  0.00     0.023 A 
ATOM     55  C   UNL A   1      39.918  33.700  40.132  1.00  0.00     0.031 A 
ATOM     56  C   UNL A   1      41.262  35.251  38.870  1.00  0.00     0.131 A 
ATOM     57  C   UNL A   1      39.872  34.633  41.179  1.00  0.00     0.055 A 
ATOM     58  C   UNL A   1      41.283  36.139  39.946  1.00  0.00     0.041 A 
ATOM     59  F   UNL A   1      41.898  35.622  37.748  1.00  0.00    -0.206 F 
ATOM     60  C   UNL A   1      40.570  35.840  41.104  1.00  0.00     0.022 A 
BRANCH  57  61
ATOM     61  S   UNL A   1      38.757  34.317  42.575  1.00  0.00     0.124 S 
ATOM     62  O   UNL A   1      39.653  34.491  43.716  1.00  0.00    -0.237 OA
ATOM     63  O   UNL A   1      37.735  35.343  42.402  1.00  0.00    -0.237 OA
ATOM     64  O   UNL A   1      38.307  32.944  42.351  1.00  0.00    -0.744 OA
ENDBRANCH  57  61
ENDBRANCH  40  54
BRANCH  41  65
ATOM     65  C   UNL A   1      39.853  28.304  30.736  1.00  0.00     0.023 A 
ATOM     66  C   UNL A   1      40.533  28.684  29.567  1.00  0.00     0.031 A 
ATOM     67  C   UNL A   1      39.042  27.155  30.680  1.00  0.00     0.131 A 
ATOM     68  C   UNL A   1      40.357  27.948  28.383  1.00  0.00     0.055 A 
ATOM     69  C   UNL A   1      38.915  26.395  29.516  1.00  0.00     0.041 A 
ATOM     70  F   UNL A   1      38.357  26.753  31.762  1.00  0.00    -0.206 F 
ATOM     71  C   UNL A   1      39.565  26.798  28.355  1.00  0.00     0.022 A 
BRANCH  68  72
ATOM     72  S   UNL A   1      41.109  28.566  26.851  1.00  0.00     0.124 S 
ATOM     73  O   UNL A   1      41.470  27.325  26.175  1.00  0.00    -0.237 OA
ATOM     74  O   UNL A   1      40.012  29.324  26.258  1.00  0.00    -0.237 OA
ATOM     75  O   UNL A   1      42.234  29.370  27.323  1.00  0.00    -0.744 OA
ENDBRANCH  68  72
ENDBRANCH  41  65
BRANCH  53  76
ATOM     76  C   UNL A   1      44.580  28.801  35.850  1.00  0.00     0.023 A 
ATOM     77  C   UNL A   1      44.597  27.619  36.612  1.00  0.00     0.031 A 
ATOM     78  C   UNL A   1      45.803  29.277  35.343  1.00  0.00     0.131 A 
ATOM     79  C   UNL A   1      45.817  26.982  36.889  1.00  0.00     0.055 A 
ATOM     80  C   UNL A   1      47.005  28.606  35.571  1.00  0.00     0.041 A 
ATOM     81  F   UNL A   1      45.847  30.401  34.611  1.00  0.00    -0.206 F 
ATOM     82  C   UNL A   1      47.019  27.459  36.358  1.00  0.00     0.022 A 
BRANCH  79  83
ATOM     83  S   UNL A   1      45.828  25.567  38.024  1.00  0.00     0.124 S 
ATOM     84  O   UNL A   1      46.906  25.922  38.941  1.00  0.00    -0.237 OA
ATOM     85  O   UNL A   1      44.480  25.601  38.581  1.00  0.00    -0.237 OA
ATOM     86  O   UNL A   1      46.107  24.428  37.150  1.00  0.00    -0.744 OA
ENDBRANCH  79  83
ENDBRANCH  53  76
ENDBRANCH  27  28
ENDBRANCH  20  22
ENDBRANCH  19  20
ENDBRANCH  18  19
ENDBRANCH  17  18
ENDBRANCH  16  17
ENDBRANCH   1  16
TORSDOF 22
ENDMDL
