MODEL 1
REMARK VINA RESULT:      -5.6      0.000      0.000
REMARK SMILES CCCN(CC(=O)OCCOCCOCCOC(=O)c1ccc(-c2c3nc(c(-c4cc(S(=O)(=O)[O-])ccc4F)c4ccc([nH]4)c(-c4cc(S(=O)(=O)[O-])ccc4F)c4nc(c(-c5cc(S(=O)(=O)[O-])ccc5F)c5ccc2[nH]5)C=C4)C=C3)cc1)C(=O)Cc1ccc(F)c(F)c1
REMARK SMILES IDX 12 1 11 2 10 3 9 4 8 5 6 6 7 7 5 8 4 9 3 10 2 11 1 12 83 13
REMARK SMILES IDX 84 14 85 15 86 16 87 17 93 18 88 19 91 20 89 21 92 22 90 23
REMARK SMILES IDX 13 24 14 25 15 26 16 27 17 28 18 29 19 30 20 31 21 32 82 33
REMARK SMILES IDX 22 34 81 35 23 36 24 37 25 38 75 39 26 40 80 41 74 42 76 43
REMARK SMILES IDX 27 44 79 45 73 46 72 47 28 49 60 50 40 51 59 52 41 53 44 54
REMARK SMILES IDX 58 55 77 56 42 57 43 58 57 60 78 61 45 62 29 63 30 64 38 65
REMARK SMILES IDX 31 66 37 67 39 68 36 69 32 70 33 71 34 72 35 73 61 74 62 75
REMARK SMILES IDX 70 76 63 77 69 78 71 79 68 80 64 81 65 82 66 83 67 84 46 85
REMARK SMILES IDX 47 86 55 87 48 88 54 89 56 90 53 91 49 92 50 93 51 94 52 95
REMARK H PARENT 76 48 44 59
REMARK Flexibility Score: inf
ROOT
ATOM      1  C   UNL A   1      45.580  40.469  31.385  1.00  0.00     0.188 C 
ENDROOT
BRANCH   1   2
ATOM      2  O   UNL A   1      46.315  40.321  32.598  1.00  0.00    -0.376 OA
BRANCH   2   3
ATOM      3  C   UNL A   1      46.393  39.014  33.148  1.00  0.00     0.202 C 
BRANCH   3   4
ATOM      4  C   UNL A   1      45.288  38.049  32.707  1.00  0.00     0.261 C 
BRANCH   4   5
ATOM      5  O   UNL A   1      44.132  38.048  33.577  1.00  0.00    -0.462 OA
BRANCH   5   6
ATOM      6  C   UNL A   1      43.602  36.820  33.822  1.00  0.00     0.325 C 
ATOM      7  O   UNL A   1      42.964  36.171  32.996  1.00  0.00    -0.250 OA
BRANCH   6   8
ATOM      8  C   UNL A   1      43.919  36.238  35.209  1.00  0.00     0.242 C 
BRANCH   8   9
ATOM      9  N   UNL A   1      43.951  34.783  35.445  1.00  0.00    -0.331 N 
BRANCH   9  10
ATOM     10  C   UNL A   1      45.245  34.111  35.276  1.00  0.00     0.120 C 
BRANCH  10  11
ATOM     11  C   UNL A   1      45.274  32.724  35.952  1.00  0.00     0.018 C 
ATOM     12  C   UNL A   1      46.461  32.487  36.883  1.00  0.00     0.006 C 
ENDBRANCH  10  11
ENDBRANCH   9  10
BRANCH   9  13
ATOM     13  C   UNL A   1      42.893  33.976  35.805  1.00  0.00     0.227 C 
ATOM     14  O   UNL A   1      42.593  33.867  37.004  1.00  0.00    -0.275 OA
BRANCH  13  15
ATOM     15  C   UNL A   1      42.038  33.201  34.826  1.00  0.00     0.135 C 
BRANCH  15  16
ATOM     16  C   UNL A   1      40.537  33.201  34.865  1.00  0.00    -0.036 A 
ATOM     17  C   UNL A   1      39.834  34.179  34.135  1.00  0.00     0.007 A 
ATOM     18  C   UNL A   1      39.816  32.200  35.530  1.00  0.00     0.046 A 
ATOM     19  C   UNL A   1      38.441  34.169  34.091  1.00  0.00     0.043 A 
ATOM     20  C   UNL A   1      38.423  32.203  35.482  1.00  0.00     0.159 A 
ATOM     21  C   UNL A   1      37.741  33.178  34.767  1.00  0.00     0.158 A 
ATOM     22  F   UNL A   1      37.747  31.256  36.146  1.00  0.00    -0.204 F 
ATOM     23  F   UNL A   1      36.403  33.175  34.726  1.00  0.00    -0.204 F 
ENDBRANCH  15  16
ENDBRANCH  13  15
ENDBRANCH   9  13
ENDBRANCH   8   9
ENDBRANCH   6   8
ENDBRANCH   5   6
ENDBRANCH   4   5
ENDBRANCH   3   4
ENDBRANCH   2   3
ENDBRANCH   1   2
BRANCH   1  24
ATOM     24  C   UNL A   1      45.475  41.870  30.765  1.00  0.00     0.188 C 
BRANCH  24  25
ATOM     25  O   UNL A   1      44.711  41.836  29.560  1.00  0.00    -0.376 OA
BRANCH  25  26
ATOM     26  C   UNL A   1      45.485  42.155  28.409  1.00  0.00     0.202 C 
BRANCH  26  27
ATOM     27  C   UNL A   1      44.596  42.082  27.165  1.00  0.00     0.261 C 
BRANCH  27  28
ATOM     28  O   UNL A   1      44.417  40.746  26.655  1.00  0.00    -0.460 OA
BRANCH  28  29
ATOM     29  C   UNL A   1      43.135  40.339  26.501  1.00  0.00     0.338 C 
ATOM     30  O   UNL A   1      42.291  40.877  25.809  1.00  0.00    -0.246 OA
BRANCH  29  31
ATOM     31  C   UNL A   1      42.936  39.050  27.211  1.00  0.00     0.060 A 
ATOM     32  C   UNL A   1      42.927  39.061  28.608  1.00  0.00     0.016 A 
ATOM     33  C   UNL A   1      42.800  37.835  26.531  1.00  0.00     0.016 A 
ATOM     34  C   UNL A   1      42.744  37.876  29.328  1.00  0.00     0.010 A 
ATOM     35  C   UNL A   1      42.673  36.637  27.254  1.00  0.00     0.010 A 
ATOM     36  C   UNL A   1      42.647  36.647  28.659  1.00  0.00    -0.014 A 
BRANCH  36  37
ATOM     37  C   UNL A   1      42.681  35.377  29.439  1.00  0.00     0.031 A 
ATOM     38  C   UNL A   1      41.396  34.623  29.656  1.00  0.00     0.074 A 
ATOM     39  C   UNL A   1      43.835  34.869  29.916  1.00  0.00     0.049 A 
ATOM     40  N   UNL A   1      41.178  33.530  30.340  1.00  0.00    -0.248 NA
ATOM     41  C   UNL A   1      40.199  35.182  29.012  1.00  0.00     0.031 C 
ATOM     42  C   UNL A   1      45.156  35.461  29.720  1.00  0.00     0.029 A 
ATOM     43  N   UNL A   1      44.084  33.734  30.652  1.00  0.00    -0.354 N 
ATOM     44  C   UNL A   1      39.816  33.273  30.222  1.00  0.00     0.074 A 
ATOM     45  C   UNL A   1      39.264  34.323  29.392  1.00  0.00     0.031 C 
ATOM     46  C   UNL A   1      46.078  34.668  30.295  1.00  0.00     0.029 A 
ATOM     47  C   UNL A   1      45.414  33.543  30.954  1.00  0.00     0.049 A 
ATOM     48  H   UNL A   1      43.375  33.112  30.935  1.00  0.00     0.167 HD
ATOM     49  C   UNL A   1      39.087  32.271  30.773  1.00  0.00     0.034 A 
ATOM     50  C   UNL A   1      46.022  32.593  31.700  1.00  0.00     0.034 A 
ATOM     51  C   UNL A   1      39.632  31.254  31.639  1.00  0.00     0.049 A 
ATOM     52  C   UNL A   1      45.171  31.536  32.378  1.00  0.00     0.074 A 
ATOM     53  C   UNL A   1      38.965  30.236  32.299  1.00  0.00     0.029 A 
ATOM     54  N   UNL A   1      40.972  31.133  31.980  1.00  0.00    -0.354 N 
ATOM     55  N   UNL A   1      43.874  31.339  32.299  1.00  0.00    -0.248 NA
ATOM     56  C   UNL A   1      45.864  30.591  33.267  1.00  0.00     0.031 C 
ATOM     57  C   UNL A   1      39.888  29.547  33.093  1.00  0.00     0.029 A 
ATOM     58  C   UNL A   1      41.146  30.081  32.865  1.00  0.00     0.049 A 
ATOM     59  H   UNL A   1      41.694  31.711  31.642  1.00  0.00     0.167 HD
ATOM     60  C   UNL A   1      43.605  30.242  33.117  1.00  0.00     0.074 A 
ATOM     61  C   UNL A   1      44.874  29.800  33.654  1.00  0.00     0.031 C 
ATOM     62  C   UNL A   1      42.415  29.657  33.409  1.00  0.00     0.034 A 
BRANCH  49  63
ATOM     63  C   UNL A   1      37.598  32.302  30.535  1.00  0.00     0.023 A 
ATOM     64  C   UNL A   1      36.756  33.207  31.204  1.00  0.00     0.031 A 
ATOM     65  C   UNL A   1      37.008  31.370  29.663  1.00  0.00     0.131 A 
ATOM     66  C   UNL A   1      35.365  33.114  31.042  1.00  0.00     0.055 A 
ATOM     67  C   UNL A   1      35.630  31.334  29.446  1.00  0.00     0.041 A 
ATOM     68  F   UNL A   1      37.761  30.464  29.019  1.00  0.00    -0.206 F 
ATOM     69  C   UNL A   1      34.799  32.200  30.150  1.00  0.00     0.022 A 
BRANCH  66  70
ATOM     70  S   UNL A   1      34.297  34.104  32.123  1.00  0.00     0.124 S 
ATOM     71  O   UNL A   1      33.298  34.600  31.177  1.00  0.00    -0.237 OA
ATOM     72  O   UNL A   1      33.827  33.120  33.091  1.00  0.00    -0.237 OA
ATOM     73  O   UNL A   1      35.199  35.124  32.656  1.00  0.00    -0.744 OA
ENDBRANCH  66  70
ENDBRANCH  49  63
BRANCH  50  74
ATOM     74  C   UNL A   1      47.502  32.612  31.931  1.00  0.00     0.023 A 
ATOM     75  C   UNL A   1      48.052  33.171  33.098  1.00  0.00     0.031 A 
ATOM     76  C   UNL A   1      48.395  32.169  30.937  1.00  0.00     0.131 A 
ATOM     77  C   UNL A   1      49.444  33.325  33.216  1.00  0.00     0.055 A 
ATOM     78  C   UNL A   1      49.780  32.258  31.091  1.00  0.00     0.041 A 
ATOM     79  F   UNL A   1      47.932  31.645  29.791  1.00  0.00    -0.206 F 
ATOM     80  C   UNL A   1      50.312  32.855  32.229  1.00  0.00     0.022 A 
BRANCH  77  81
ATOM     81  S   UNL A   1      50.105  34.271  34.619  1.00  0.00     0.124 S 
ATOM     82  O   UNL A   1      51.134  35.077  33.973  1.00  0.00    -0.237 OA
ATOM     83  O   UNL A   1      48.924  34.988  35.086  1.00  0.00    -0.237 OA
ATOM     84  O   UNL A   1      50.600  33.235  35.524  1.00  0.00    -0.744 OA
ENDBRANCH  77  81
ENDBRANCH  50  74
BRANCH  62  85
ATOM     85  C   UNL A   1      42.435  28.460  34.332  1.00  0.00     0.023 A 
ATOM     86  C   UNL A   1      43.077  27.260  33.977  1.00  0.00     0.031 A 
ATOM     87  C   UNL A   1      41.810  28.526  35.591  1.00  0.00     0.131 A 
ATOM     88  C   UNL A   1      43.040  26.160  34.849  1.00  0.00     0.055 A 
ATOM     89  C   UNL A   1      41.823  27.447  36.477  1.00  0.00     0.041 A 
ATOM     90  F   UNL A   1      41.182  29.646  35.984  1.00  0.00    -0.206 F 
ATOM     91  C   UNL A   1      42.432  26.252  36.103  1.00  0.00     0.022 A 
BRANCH  88  92
ATOM     92  S   UNL A   1      43.737  24.579  34.296  1.00  0.00     0.124 S 
ATOM     93  O   UNL A   1      44.979  24.510  35.059  1.00  0.00    -0.237 OA
ATOM     94  O   UNL A   1      42.699  23.628  34.679  1.00  0.00    -0.237 OA
ATOM     95  O   UNL A   1      43.906  24.763  32.855  1.00  0.00    -0.744 OA
ENDBRANCH  88  92
ENDBRANCH  62  85
ENDBRANCH  36  37
ENDBRANCH  29  31
ENDBRANCH  28  29
ENDBRANCH  27  28
ENDBRANCH  26  27
ENDBRANCH  25  26
ENDBRANCH  24  25
ENDBRANCH   1  24
TORSDOF 26
ENDMDL
MODEL 2
REMARK VINA RESULT:      -5.5      4.286      7.501
REMARK SMILES CCCN(CC(=O)OCCOCCOCCOC(=O)c1ccc(-c2c3nc(c(-c4cc(S(=O)(=O)[O-])ccc4F)c4ccc([nH]4)c(-c4cc(S(=O)(=O)[O-])ccc4F)c4nc(c(-c5cc(S(=O)(=O)[O-])ccc5F)c5ccc2[nH]5)C=C4)C=C3)cc1)C(=O)Cc1ccc(F)c(F)c1
REMARK SMILES IDX 12 1 11 2 10 3 9 4 8 5 6 6 7 7 5 8 4 9 3 10 2 11 1 12 83 13
REMARK SMILES IDX 84 14 85 15 86 16 87 17 93 18 88 19 91 20 89 21 92 22 90 23
REMARK SMILES IDX 13 24 14 25 15 26 16 27 17 28 18 29 19 30 20 31 21 32 82 33
REMARK SMILES IDX 22 34 81 35 23 36 24 37 25 38 75 39 26 40 80 41 74 42 76 43
REMARK SMILES IDX 27 44 79 45 73 46 72 47 28 49 60 50 40 51 59 52 41 53 44 54
REMARK SMILES IDX 58 55 77 56 42 57 43 58 57 60 78 61 45 62 29 63 30 64 38 65
REMARK SMILES IDX 31 66 37 67 39 68 36 69 32 70 33 71 34 72 35 73 61 74 62 75
REMARK SMILES IDX 70 76 63 77 69 78 71 79 68 80 64 81 65 82 66 83 67 84 46 85
REMARK SMILES IDX 47 86 55 87 48 88 54 89 56 90 53 91 49 92 50 93 51 94 52 95
REMARK H PARENT 76 48 44 59
REMARK Flexibility Score: inf
ROOT
ATOM      1  C   UNL A   1      46.045  31.031  26.913  1.00  0.00     0.188 C 
ENDROOT
BRANCH   1   2
ATOM      2  O   UNL A   1      45.066  30.179  27.505  1.00  0.00    -0.376 OA
BRANCH   2   3
ATOM      3  C   UNL A   1      44.886  28.900  26.916  1.00  0.00     0.202 C 
BRANCH   3   4
ATOM      4  C   UNL A   1      45.568  27.739  27.648  1.00  0.00     0.261 C 
BRANCH   4   5
ATOM      5  O   UNL A   1      44.822  27.248  28.787  1.00  0.00    -0.462 OA
BRANCH   5   6
ATOM      6  C   UNL A   1      43.955  26.237  28.511  1.00  0.00     0.325 C 
ATOM      7  O   UNL A   1      44.240  25.256  27.829  1.00  0.00    -0.250 OA
BRANCH   6   8
ATOM      8  C   UNL A   1      42.578  26.357  29.184  1.00  0.00     0.242 C 
BRANCH   8   9
ATOM      9  N   UNL A   1      41.578  27.338  28.723  1.00  0.00    -0.331 N 
BRANCH   9  10
ATOM     10  C   UNL A   1      41.336  27.410  27.277  1.00  0.00     0.120 C 
BRANCH  10  11
ATOM     11  C   UNL A   1      40.351  26.323  26.797  1.00  0.00     0.018 C 
ATOM     12  C   UNL A   1      39.614  25.585  27.912  1.00  0.00     0.006 C 
ENDBRANCH  10  11
ENDBRANCH   9  10
BRANCH   9  13
ATOM     13  C   UNL A   1      40.843  28.204  29.503  1.00  0.00     0.227 C 
ATOM     14  O   UNL A   1      40.416  27.818  30.602  1.00  0.00    -0.275 OA
BRANCH  13  15
ATOM     15  C   UNL A   1      40.517  29.631  29.120  1.00  0.00     0.135 C 
BRANCH  15  16
ATOM     16  C   UNL A   1      39.114  30.130  28.922  1.00  0.00    -0.036 A 
ATOM     17  C   UNL A   1      38.153  29.266  28.364  1.00  0.00     0.007 A 
ATOM     18  C   UNL A   1      38.714  31.399  29.362  1.00  0.00     0.046 A 
ATOM     19  C   UNL A   1      36.826  29.671  28.228  1.00  0.00     0.043 A 
ATOM     20  C   UNL A   1      37.385  31.795  29.217  1.00  0.00     0.159 A 
ATOM     21  C   UNL A   1      36.448  30.937  28.657  1.00  0.00     0.158 A 
ATOM     22  F   UNL A   1      37.024  33.021  29.617  1.00  0.00    -0.204 F 
ATOM     23  F   UNL A   1      35.174  31.323  28.521  1.00  0.00    -0.204 F 
ENDBRANCH  15  16
ENDBRANCH  13  15
ENDBRANCH   9  13
ENDBRANCH   8   9
ENDBRANCH   6   8
ENDBRANCH   5   6
ENDBRANCH   4   5
ENDBRANCH   3   4
ENDBRANCH   2   3
ENDBRANCH   1   2
BRANCH   1  24
ATOM     24  C   UNL A   1      45.621  32.447  26.496  1.00  0.00     0.188 C 
BRANCH  24  25
ATOM     25  O   UNL A   1      44.204  32.530  26.350  1.00  0.00    -0.376 OA
BRANCH  25  26
ATOM     26  C   UNL A   1      43.810  33.010  25.069  1.00  0.00     0.202 C 
BRANCH  26  27
ATOM     27  C   UNL A   1      43.980  34.530  25.022  1.00  0.00     0.261 C 
BRANCH  27  28
ATOM     28  O   UNL A   1      43.346  35.220  26.118  1.00  0.00    -0.460 OA
BRANCH  28  29
ATOM     29  C   UNL A   1      44.153  36.008  26.865  1.00  0.00     0.338 C 
ATOM     30  O   UNL A   1      44.943  36.831  26.441  1.00  0.00    -0.246 OA
BRANCH  29  31
ATOM     31  C   UNL A   1      43.842  35.814  28.304  1.00  0.00     0.060 A 
ATOM     32  C   UNL A   1      43.831  34.510  28.806  1.00  0.00     0.016 A 
ATOM     33  C   UNL A   1      43.523  36.879  29.152  1.00  0.00     0.016 A 
ATOM     34  C   UNL A   1      43.544  34.268  30.153  1.00  0.00     0.010 A 
ATOM     35  C   UNL A   1      43.179  36.633  30.492  1.00  0.00     0.010 A 
ATOM     36  C   UNL A   1      43.184  35.324  31.003  1.00  0.00    -0.014 A 
BRANCH  36  37
ATOM     37  C   UNL A   1      42.662  35.028  32.368  1.00  0.00     0.031 A 
ATOM     38  C   UNL A   1      41.219  34.628  32.522  1.00  0.00     0.074 A 
ATOM     39  C   UNL A   1      43.457  35.070  33.455  1.00  0.00     0.049 A 
ATOM     40  N   UNL A   1      40.538  34.374  33.610  1.00  0.00    -0.248 NA
ATOM     41  C   UNL A   1      40.445  34.497  31.280  1.00  0.00     0.031 C 
ATOM     42  C   UNL A   1      44.885  35.376  33.438  1.00  0.00     0.029 A 
ATOM     43  N   UNL A   1      43.181  34.841  34.783  1.00  0.00    -0.354 N 
ATOM     44  C   UNL A   1      39.249  34.066  33.188  1.00  0.00     0.074 A 
ATOM     45  C   UNL A   1      39.250  34.157  31.742  1.00  0.00     0.031 C 
ATOM     46  C   UNL A   1      45.366  35.287  34.692  1.00  0.00     0.029 A 
ATOM     47  C   UNL A   1      44.272  34.978  35.614  1.00  0.00     0.049 A 
ATOM     48  H   UNL A   1      42.285  34.600  35.111  1.00  0.00     0.167 HD
ATOM     49  C   UNL A   1      38.158  33.759  33.933  1.00  0.00     0.034 A 
ATOM     50  C   UNL A   1      44.372  34.895  36.959  1.00  0.00     0.034 A 
ATOM     51  C   UNL A   1      38.148  33.717  35.375  1.00  0.00     0.049 A 
ATOM     52  C   UNL A   1      43.118  34.640  37.774  1.00  0.00     0.074 A 
ATOM     53  C   UNL A   1      37.080  33.481  36.223  1.00  0.00     0.029 A 
ATOM     54  N   UNL A   1      39.255  33.929  36.185  1.00  0.00    -0.354 N 
ATOM     55  N   UNL A   1      41.894  34.403  37.360  1.00  0.00    -0.248 NA
ATOM     56  C   UNL A   1      43.257  34.668  39.239  1.00  0.00     0.031 C 
ATOM     57  C   UNL A   1      37.525  33.622  37.542  1.00  0.00     0.029 A 
ATOM     58  C   UNL A   1      38.889  33.864  37.521  1.00  0.00     0.049 A 
ATOM     59  H   UNL A   1      40.168  34.102  35.859  1.00  0.00     0.167 HD
ATOM     60  C   UNL A   1      41.126  34.243  38.514  1.00  0.00     0.074 A 
ATOM     61  C   UNL A   1      42.028  34.377  39.637  1.00  0.00     0.031 C 
ATOM     62  C   UNL A   1      39.793  34.016  38.636  1.00  0.00     0.034 A 
BRANCH  49  63
ATOM     63  C   UNL A   1      36.862  33.555  33.191  1.00  0.00     0.023 A 
ATOM     64  C   UNL A   1      35.980  34.618  32.927  1.00  0.00     0.031 A 
ATOM     65  C   UNL A   1      36.479  32.263  32.791  1.00  0.00     0.131 A 
ATOM     66  C   UNL A   1      34.730  34.356  32.344  1.00  0.00     0.055 A 
ATOM     67  C   UNL A   1      35.268  32.021  32.141  1.00  0.00     0.041 A 
ATOM     68  F   UNL A   1      37.269  31.207  33.043  1.00  0.00    -0.206 F 
ATOM     69  C   UNL A   1      34.379  33.070  31.927  1.00  0.00     0.022 A 
BRANCH  66  70
ATOM     70  S   UNL A   1      33.509  35.696  32.270  1.00  0.00     0.124 S 
ATOM     71  O   UNL A   1      32.265  34.976  32.532  1.00  0.00    -0.237 OA
ATOM     72  O   UNL A   1      33.962  36.595  33.326  1.00  0.00    -0.237 OA
ATOM     73  O   UNL A   1      33.648  36.212  30.910  1.00  0.00    -0.744 OA
ENDBRANCH  66  70
ENDBRANCH  49  63
BRANCH  50  74
ATOM     74  C   UNL A   1      45.675  35.128  37.659  1.00  0.00     0.023 A 
ATOM     75  C   UNL A   1      46.020  36.396  38.160  1.00  0.00     0.031 A 
ATOM     76  C   UNL A   1      46.644  34.110  37.742  1.00  0.00     0.131 A 
ATOM     77  C   UNL A   1      47.311  36.628  38.664  1.00  0.00     0.055 A 
ATOM     78  C   UNL A   1      47.901  34.327  38.310  1.00  0.00     0.041 A 
ATOM     79  F   UNL A   1      46.385  32.883  37.263  1.00  0.00    -0.206 F 
ATOM     80  C   UNL A   1      48.248  35.596  38.760  1.00  0.00     0.022 A 
BRANCH  77  81
ATOM     81  S   UNL A   1      47.801  38.329  39.071  1.00  0.00     0.124 S 
ATOM     82  O   UNL A   1      47.465  38.402  40.488  1.00  0.00    -0.237 OA
ATOM     83  O   UNL A   1      49.223  38.322  38.745  1.00  0.00    -0.237 OA
ATOM     84  O   UNL A   1      46.966  39.143  38.188  1.00  0.00    -0.744 OA
ENDBRANCH  77  81
ENDBRANCH  50  74
BRANCH  62  85
ATOM     85  C   UNL A   1      39.237  33.874  40.034  1.00  0.00     0.023 A 
ATOM     86  C   UNL A   1      39.315  32.663  40.745  1.00  0.00     0.031 A 
ATOM     87  C   UNL A   1      38.627  34.972  40.668  1.00  0.00     0.131 A 
ATOM     88  C   UNL A   1      38.752  32.565  42.028  1.00  0.00     0.055 A 
ATOM     89  C   UNL A   1      38.118  34.884  41.966  1.00  0.00     0.041 A 
ATOM     90  F   UNL A   1      38.525  36.154  40.039  1.00  0.00    -0.206 F 
ATOM     91  C   UNL A   1      38.169  33.672  42.648  1.00  0.00     0.022 A 
BRANCH  88  92
ATOM     92  S   UNL A   1      38.727  30.948  42.852  1.00  0.00     0.124 S 
ATOM     93  O   UNL A   1      38.465  31.318  44.239  1.00  0.00    -0.237 OA
ATOM     94  O   UNL A   1      37.642  30.260  42.160  1.00  0.00    -0.237 OA
ATOM     95  O   UNL A   1      40.063  30.411  42.596  1.00  0.00    -0.744 OA
ENDBRANCH  88  92
ENDBRANCH  62  85
ENDBRANCH  36  37
ENDBRANCH  29  31
ENDBRANCH  28  29
ENDBRANCH  27  28
ENDBRANCH  26  27
ENDBRANCH  25  26
ENDBRANCH  24  25
ENDBRANCH   1  24
TORSDOF 26
ENDMDL
MODEL 3
REMARK VINA RESULT:      -5.3      4.037      6.776
REMARK SMILES CCCN(CC(=O)OCCOCCOCCOC(=O)c1ccc(-c2c3nc(c(-c4cc(S(=O)(=O)[O-])ccc4F)c4ccc([nH]4)c(-c4cc(S(=O)(=O)[O-])ccc4F)c4nc(c(-c5cc(S(=O)(=O)[O-])ccc5F)c5ccc2[nH]5)C=C4)C=C3)cc1)C(=O)Cc1ccc(F)c(F)c1
REMARK SMILES IDX 12 1 11 2 10 3 9 4 8 5 6 6 7 7 5 8 4 9 3 10 2 11 1 12 83 13
REMARK SMILES IDX 84 14 85 15 86 16 87 17 93 18 88 19 91 20 89 21 92 22 90 23
REMARK SMILES IDX 13 24 14 25 15 26 16 27 17 28 18 29 19 30 20 31 21 32 82 33
REMARK SMILES IDX 22 34 81 35 23 36 24 37 25 38 75 39 26 40 80 41 74 42 76 43
REMARK SMILES IDX 27 44 79 45 73 46 72 47 28 49 60 50 40 51 59 52 41 53 44 54
REMARK SMILES IDX 58 55 77 56 42 57 43 58 57 60 78 61 45 62 29 63 30 64 38 65
REMARK SMILES IDX 31 66 37 67 39 68 36 69 32 70 33 71 34 72 35 73 61 74 62 75
REMARK SMILES IDX 70 76 63 77 69 78 71 79 68 80 64 81 65 82 66 83 67 84 46 85
REMARK SMILES IDX 47 86 55 87 48 88 54 89 56 90 53 91 49 92 50 93 51 94 52 95
REMARK H PARENT 76 48 44 59
REMARK Flexibility Score: inf
ROOT
ATOM      1  C   UNL A   1      44.454  38.548  33.003  1.00  0.00     0.188 C 
ENDROOT
BRANCH   1   2
ATOM      2  O   UNL A   1      44.169  37.531  33.962  1.00  0.00    -0.376 OA
BRANCH   2   3
ATOM      3  C   UNL A   1      42.836  37.043  34.007  1.00  0.00     0.202 C 
BRANCH   3   4
ATOM      4  C   UNL A   1      42.415  36.403  35.334  1.00  0.00     0.261 C 
BRANCH   4   5
ATOM      5  O   UNL A   1      41.471  35.317  35.184  1.00  0.00    -0.462 OA
BRANCH   5   6
ATOM      6  C   UNL A   1      40.220  35.577  35.652  1.00  0.00     0.325 C 
ATOM      7  O   UNL A   1      39.735  36.704  35.722  1.00  0.00    -0.250 OA
BRANCH   6   8
ATOM      8  C   UNL A   1      39.394  34.337  36.027  1.00  0.00     0.242 C 
BRANCH   8   9
ATOM      9  N   UNL A   1      39.085  33.288  35.038  1.00  0.00    -0.331 N 
BRANCH   9  10
ATOM     10  C   UNL A   1      37.697  32.810  34.989  1.00  0.00     0.120 C 
BRANCH  10  11
ATOM     11  C   UNL A   1      36.691  33.964  34.791  1.00  0.00     0.018 C 
ATOM     12  C   UNL A   1      36.469  34.380  33.339  1.00  0.00     0.006 C 
ENDBRANCH  10  11
ENDBRANCH   9  10
BRANCH   9  13
ATOM     13  C   UNL A   1      39.959  32.698  34.152  1.00  0.00     0.227 C 
ATOM     14  O   UNL A   1      40.868  31.975  34.586  1.00  0.00    -0.275 OA
BRANCH  13  15
ATOM     15  C   UNL A   1      39.889  32.859  32.649  1.00  0.00     0.135 C 
BRANCH  15  16
ATOM     16  C   UNL A   1      39.535  31.736  31.716  1.00  0.00    -0.036 A 
ATOM     17  C   UNL A   1      40.505  31.270  30.808  1.00  0.00     0.007 A 
ATOM     18  C   UNL A   1      38.299  31.079  31.788  1.00  0.00     0.046 A 
ATOM     19  C   UNL A   1      40.235  30.185  29.975  1.00  0.00     0.043 A 
ATOM     20  C   UNL A   1      38.039  29.999  30.947  1.00  0.00     0.159 A 
ATOM     21  C   UNL A   1      39.000  29.553  30.049  1.00  0.00     0.158 A 
ATOM     22  F   UNL A   1      36.843  29.399  31.008  1.00  0.00    -0.204 F 
ATOM     23  F   UNL A   1      38.744  28.515  29.244  1.00  0.00    -0.204 F 
ENDBRANCH  15  16
ENDBRANCH  13  15
ENDBRANCH   9  13
ENDBRANCH   8   9
ENDBRANCH   6   8
ENDBRANCH   5   6
ENDBRANCH   4   5
ENDBRANCH   3   4
ENDBRANCH   2   3
ENDBRANCH   1   2
BRANCH   1  24
ATOM     24  C   UNL A   1      43.378  39.605  32.723  1.00  0.00     0.188 C 
BRANCH  24  25
ATOM     25  O   UNL A   1      43.487  40.101  31.389  1.00  0.00    -0.376 OA
BRANCH  25  26
ATOM     26  C   UNL A   1      43.832  39.086  30.452  1.00  0.00     0.202 C 
BRANCH  26  27
ATOM     27  C   UNL A   1      43.154  39.383  29.113  1.00  0.00     0.261 C 
BRANCH  27  28
ATOM     28  O   UNL A   1      42.262  38.341  28.669  1.00  0.00    -0.460 OA
BRANCH  28  29
ATOM     29  C   UNL A   1      42.826  37.355  27.932  1.00  0.00     0.338 C 
ATOM     30  O   UNL A   1      43.195  37.446  26.776  1.00  0.00    -0.246 OA
BRANCH  29  31
ATOM     31  C   UNL A   1      43.050  36.163  28.789  1.00  0.00     0.060 A 
ATOM     32  C   UNL A   1      44.366  35.807  29.092  1.00  0.00     0.016 A 
ATOM     33  C   UNL A   1      41.997  35.373  29.262  1.00  0.00     0.016 A 
ATOM     34  C   UNL A   1      44.636  34.693  29.894  1.00  0.00     0.010 A 
ATOM     35  C   UNL A   1      42.269  34.221  30.020  1.00  0.00     0.010 A 
ATOM     36  C   UNL A   1      43.591  33.870  30.341  1.00  0.00    -0.014 A 
BRANCH  36  37
ATOM     37  C   UNL A   1      43.905  32.569  30.998  1.00  0.00     0.031 A 
ATOM     38  C   UNL A   1      44.140  31.358  30.134  1.00  0.00     0.074 A 
ATOM     39  C   UNL A   1      44.023  32.461  32.336  1.00  0.00     0.049 A 
ATOM     40  N   UNL A   1      44.377  30.121  30.484  1.00  0.00    -0.248 NA
ATOM     41  C   UNL A   1      44.103  31.579  28.682  1.00  0.00     0.031 C 
ATOM     42  C   UNL A   1      43.887  33.566  33.281  1.00  0.00     0.029 A 
ATOM     43  N   UNL A   1      44.298  31.373  33.131  1.00  0.00    -0.354 N 
ATOM     44  C   UNL A   1      44.504  29.408  29.297  1.00  0.00     0.074 A 
ATOM     45  C   UNL A   1      44.327  30.358  28.218  1.00  0.00     0.031 C 
ATOM     46  C   UNL A   1      44.109  33.104  34.526  1.00  0.00     0.029 A 
ATOM     47  C   UNL A   1      44.342  31.661  34.478  1.00  0.00     0.049 A 
ATOM     48  H   UNL A   1      44.451  30.470  32.770  1.00  0.00     0.167 HD
ATOM     49  C   UNL A   1      44.724  28.081  29.118  1.00  0.00     0.034 A 
ATOM     50  C   UNL A   1      44.517  30.852  35.547  1.00  0.00     0.034 A 
ATOM     51  C   UNL A   1      44.852  27.129  30.194  1.00  0.00     0.049 A 
ATOM     52  C   UNL A   1      44.670  29.360  35.322  1.00  0.00     0.074 A 
ATOM     53  C   UNL A   1      45.011  25.756  30.115  1.00  0.00     0.029 A 
ATOM     54  N   UNL A   1      44.821  27.446  31.545  1.00  0.00    -0.354 N 
ATOM     55  N   UNL A   1      44.735  28.694  34.191  1.00  0.00    -0.248 NA
ATOM     56  C   UNL A   1      44.747  28.509  36.520  1.00  0.00     0.031 C 
ATOM     57  C   UNL A   1      45.003  25.237  31.415  1.00  0.00     0.029 A 
ATOM     58  C   UNL A   1      44.923  26.293  32.308  1.00  0.00     0.049 A 
ATOM     59  H   UNL A   1      44.739  28.357  31.909  1.00  0.00     0.167 HD
ATOM     60  C   UNL A   1      44.873  27.352  34.547  1.00  0.00     0.074 A 
ATOM     61  C   UNL A   1      44.914  27.305  35.992  1.00  0.00     0.031 C 
ATOM     62  C   UNL A   1      44.947  26.254  33.751  1.00  0.00     0.034 A 
BRANCH  49  63
ATOM     63  C   UNL A   1      44.728  27.577  27.697  1.00  0.00     0.023 A 
ATOM     64  C   UNL A   1      45.878  27.637  26.889  1.00  0.00     0.031 A 
ATOM     65  C   UNL A   1      43.544  27.079  27.126  1.00  0.00     0.131 A 
ATOM     66  C   UNL A   1      45.798  27.271  25.536  1.00  0.00     0.055 A 
ATOM     67  C   UNL A   1      43.492  26.643  25.801  1.00  0.00     0.041 A 
ATOM     68  F   UNL A   1      42.410  27.026  27.842  1.00  0.00    -0.206 F 
ATOM     69  C   UNL A   1      44.620  26.752  24.994  1.00  0.00     0.022 A 
BRANCH  66  70
ATOM     70  S   UNL A   1      47.214  27.620  24.457  1.00  0.00     0.124 S 
ATOM     71  O   UNL A   1      46.631  28.560  23.502  1.00  0.00    -0.237 OA
ATOM     72  O   UNL A   1      48.191  28.175  25.387  1.00  0.00    -0.237 OA
ATOM     73  O   UNL A   1      47.553  26.310  23.903  1.00  0.00    -0.744 OA
ENDBRANCH  66  70
ENDBRANCH  49  63
BRANCH  50  74
ATOM     74  C   UNL A   1      44.482  31.390  36.944  1.00  0.00     0.023 A 
ATOM     75  C   UNL A   1      45.662  31.757  37.616  1.00  0.00     0.031 A 
ATOM     76  C   UNL A   1      43.277  31.445  37.669  1.00  0.00     0.131 A 
ATOM     77  C   UNL A   1      45.619  32.103  38.977  1.00  0.00     0.055 A 
ATOM     78  C   UNL A   1      43.230  31.859  39.002  1.00  0.00     0.041 A 
ATOM     79  F   UNL A   1      42.118  31.088  37.091  1.00  0.00    -0.206 F 
ATOM     80  C   UNL A   1      44.408  32.175  39.669  1.00  0.00     0.022 A 
BRANCH  77  81
ATOM     81  S   UNL A   1      47.183  32.329  39.874  1.00  0.00     0.124 S 
ATOM     82  O   UNL A   1      46.811  33.329  40.868  1.00  0.00    -0.237 OA
ATOM     83  O   UNL A   1      47.442  30.985  40.377  1.00  0.00    -0.237 OA
ATOM     84  O   UNL A   1      48.105  32.792  38.837  1.00  0.00    -0.744 OA
ENDBRANCH  77  81
ENDBRANCH  50  74
BRANCH  62  85
ATOM     85  C   UNL A   1      45.106  24.913  34.430  1.00  0.00     0.023 A 
ATOM     86  C   UNL A   1      46.372  24.379  34.731  1.00  0.00     0.031 A 
ATOM     87  C   UNL A   1      43.971  24.162  34.788  1.00  0.00     0.131 A 
ATOM     88  C   UNL A   1      46.475  23.113  35.329  1.00  0.00     0.055 A 
ATOM     89  C   UNL A   1      44.079  22.928  35.433  1.00  0.00     0.041 A 
ATOM     90  F   UNL A   1      42.737  24.622  34.527  1.00  0.00    -0.206 F 
ATOM     91  C   UNL A   1      45.336  22.392  35.696  1.00  0.00     0.022 A 
BRANCH  88  92
ATOM     92  S   UNL A   1      48.120  22.383  35.558  1.00  0.00     0.124 S 
ATOM     93  O   UNL A   1      47.805  20.970  35.736  1.00  0.00    -0.237 OA
ATOM     94  O   UNL A   1      48.795  22.734  34.313  1.00  0.00    -0.237 OA
ATOM     95  O   UNL A   1      48.633  23.058  36.750  1.00  0.00    -0.744 OA
ENDBRANCH  88  92
ENDBRANCH  62  85
ENDBRANCH  36  37
ENDBRANCH  29  31
ENDBRANCH  28  29
ENDBRANCH  27  28
ENDBRANCH  26  27
ENDBRANCH  25  26
ENDBRANCH  24  25
ENDBRANCH   1  24
TORSDOF 26
ENDMDL
