MODEL 1
REMARK VINA RESULT:      -9.7      0.000      0.000
REMARK SMILES O=C(OCCOCCOCCOC(=O)[C@@H]1C[C@@H]2CC(=O)[C@H]1C2)c1ccc(-c2c3nc(c(-c4cc(S(=O)(=O)[O-])ccc4F)c4ccc([nH]4)c(-c4cc(S(=O)(=O)[O-])ccc4F)c4nc(c(-c5cc(S(=O)(=O)[O-])ccc5F)c5ccc2[nH]5)C=C4)C=C3)cc1
REMARK SMILES IDX 6 1 5 2 4 3 3 4 2 5 1 6 23 7 24 8 85 9 25 10 84 11 26 12
REMARK SMILES IDX 27 13 28 14 78 15 29 16 83 17 77 18 79 19 30 20 82 21 76 22
REMARK SMILES IDX 75 23 31 25 63 26 43 27 62 28 44 29 47 30 61 31 80 32 45 33
REMARK SMILES IDX 46 34 60 36 81 37 48 38 32 39 33 40 41 41 34 42 40 43 42 44
REMARK SMILES IDX 39 45 35 46 36 47 37 48 38 49 64 50 65 51 73 52 66 53 72 54
REMARK SMILES IDX 74 55 71 56 67 57 68 58 69 59 70 60 49 61 50 62 58 63 51 64
REMARK SMILES IDX 57 65 59 66 56 67 52 68 53 69 54 70 55 71 7 72 8 73 9 74
REMARK SMILES IDX 10 75 11 76 12 77 13 78 14 79 15 80 16 81 21 82 17 83 19 84
REMARK SMILES IDX 22 85 18 86 20 87
REMARK H PARENT 79 24 47 35
REMARK Flexibility Score: inf
ROOT
ATOM      1  O   UNL A   1      34.459  22.294  25.883  1.00  0.00    -0.376 OA
ENDROOT
BRANCH   1   2
ATOM      2  C   UNL A   1      35.754  21.781  26.217  1.00  0.00     0.202 C 
BRANCH   2   3
ATOM      3  C   UNL A   1      36.362  20.732  25.265  1.00  0.00     0.261 C 
BRANCH   3   4
ATOM      4  O   UNL A   1      37.768  20.900  25.007  1.00  0.00    -0.460 OA
BRANCH   4   5
ATOM      5  C   UNL A   1      38.790  20.982  25.895  1.00  0.00     0.338 C 
ATOM      6  O   UNL A   1      39.224  19.941  26.388  1.00  0.00    -0.246 OA
BRANCH   5   7
ATOM      7  C   UNL A   1      39.400  22.271  26.334  1.00  0.00     0.060 A 
ATOM      8  C   UNL A   1      38.942  23.528  25.950  1.00  0.00     0.016 A 
ATOM      9  C   UNL A   1      40.446  22.212  27.271  1.00  0.00     0.016 A 
ATOM     10  C   UNL A   1      39.557  24.691  26.385  1.00  0.00     0.010 A 
ATOM     11  C   UNL A   1      41.036  23.383  27.763  1.00  0.00     0.010 A 
ATOM     12  C   UNL A   1      40.605  24.629  27.296  1.00  0.00    -0.014 A 
BRANCH  12  13
ATOM     13  C   UNL A   1      41.301  25.889  27.623  1.00  0.00     0.031 A 
ATOM     14  C   UNL A   1      40.593  26.885  28.477  1.00  0.00     0.074 A 
ATOM     15  C   UNL A   1      42.608  26.041  27.345  1.00  0.00     0.049 A 
ATOM     16  N   UNL A   1      40.992  28.064  28.858  1.00  0.00    -0.248 NA
ATOM     17  C   UNL A   1      39.275  26.486  28.993  1.00  0.00     0.031 C 
ATOM     18  C   UNL A   1      43.431  25.012  26.718  1.00  0.00     0.029 A 
ATOM     19  N   UNL A   1      43.492  27.054  27.610  1.00  0.00    -0.354 N 
ATOM     20  C   UNL A   1      39.962  28.568  29.634  1.00  0.00     0.074 A 
ATOM     21  C   UNL A   1      38.919  27.566  29.669  1.00  0.00     0.031 C 
ATOM     22  C   UNL A   1      44.708  25.417  26.732  1.00  0.00     0.029 A 
ATOM     23  C   UNL A   1      44.765  26.796  27.158  1.00  0.00     0.049 A 
ATOM     24  H   UNL A   1      43.241  27.884  28.075  1.00  0.00     0.167 HD
ATOM     25  C   UNL A   1      39.906  29.776  30.239  1.00  0.00     0.034 A 
ATOM     26  C   UNL A   1      45.841  27.590  27.012  1.00  0.00     0.034 A 
ATOM     27  C   UNL A   1      40.975  30.738  30.159  1.00  0.00     0.049 A 
ATOM     28  C   UNL A   1      45.691  28.994  27.507  1.00  0.00     0.074 A 
ATOM     29  C   UNL A   1      41.018  32.026  30.659  1.00  0.00     0.029 A 
ATOM     30  N   UNL A   1      42.195  30.515  29.524  1.00  0.00    -0.354 N 
ATOM     31  N   UNL A   1      44.666  29.521  28.138  1.00  0.00    -0.248 NA
ATOM     32  C   UNL A   1      46.808  29.911  27.279  1.00  0.00     0.031 C 
ATOM     33  C   UNL A   1      42.224  32.607  30.254  1.00  0.00     0.029 A 
ATOM     34  C   UNL A   1      42.976  31.658  29.577  1.00  0.00     0.049 A 
ATOM     35  H   UNL A   1      42.462  29.669  29.099  1.00  0.00     0.167 HD
ATOM     36  C   UNL A   1      45.023  30.831  28.404  1.00  0.00     0.074 A 
ATOM     37  C   UNL A   1      46.366  31.006  27.879  1.00  0.00     0.031 C 
ATOM     38  C   UNL A   1      44.308  31.799  29.031  1.00  0.00     0.034 A 
BRANCH  25  39
ATOM     39  C   UNL A   1      38.599  30.139  30.890  1.00  0.00     0.023 A 
ATOM     40  C   UNL A   1      37.574  30.808  30.200  1.00  0.00     0.031 A 
ATOM     41  C   UNL A   1      38.431  29.912  32.267  1.00  0.00     0.131 A 
ATOM     42  C   UNL A   1      36.465  31.300  30.908  1.00  0.00     0.055 A 
ATOM     43  C   UNL A   1      37.286  30.326  32.947  1.00  0.00     0.041 A 
ATOM     44  F   UNL A   1      39.398  29.318  32.985  1.00  0.00    -0.206 F 
ATOM     45  C   UNL A   1      36.302  31.040  32.271  1.00  0.00     0.022 A 
BRANCH  42  46
ATOM     46  S   UNL A   1      35.329  32.433  30.062  1.00  0.00     0.124 S 
ATOM     47  O   UNL A   1      34.925  31.636  28.905  1.00  0.00    -0.237 OA
ATOM     48  O   UNL A   1      34.299  32.662  31.069  1.00  0.00    -0.237 OA
ATOM     49  O   UNL A   1      36.166  33.590  29.750  1.00  0.00    -0.744 OA
ENDBRANCH  42  46
ENDBRANCH  25  39
BRANCH  26  50
ATOM     50  C   UNL A   1      47.050  27.133  26.252  1.00  0.00     0.023 A 
ATOM     51  C   UNL A   1      48.129  26.489  26.877  1.00  0.00     0.031 A 
ATOM     52  C   UNL A   1      47.168  27.399  24.870  1.00  0.00     0.131 A 
ATOM     53  C   UNL A   1      49.285  26.176  26.138  1.00  0.00     0.055 A 
ATOM     54  C   UNL A   1      48.292  27.030  24.128  1.00  0.00     0.041 A 
ATOM     55  F   UNL A   1      46.178  28.021  24.208  1.00  0.00    -0.206 F 
ATOM     56  C   UNL A   1      49.367  26.428  24.766  1.00  0.00     0.022 A 
BRANCH  53  57
ATOM     57  S   UNL A   1      50.741  25.540  27.018  1.00  0.00     0.124 S 
ATOM     58  O   UNL A   1      51.681  25.331  25.922  1.00  0.00    -0.237 OA
ATOM     59  O   UNL A   1      51.046  26.638  27.928  1.00  0.00    -0.237 OA
ATOM     60  O   UNL A   1      50.246  24.322  27.655  1.00  0.00    -0.744 OA
ENDBRANCH  53  57
ENDBRANCH  26  50
BRANCH  38  61
ATOM     61  C   UNL A   1      45.003  33.115  29.213  1.00  0.00     0.023 A 
ATOM     62  C   UNL A   1      45.848  33.353  30.309  1.00  0.00     0.031 A 
ATOM     63  C   UNL A   1      44.800  34.149  28.283  1.00  0.00     0.131 A 
ATOM     64  C   UNL A   1      46.417  34.620  30.479  1.00  0.00     0.055 A 
ATOM     65  C   UNL A   1      45.428  35.384  28.420  1.00  0.00     0.041 A 
ATOM     66  F   UNL A   1      43.991  33.969  27.227  1.00  0.00    -0.206 F 
ATOM     67  C   UNL A   1      46.232  35.629  29.530  1.00  0.00     0.022 A 
BRANCH  64  68
ATOM     68  S   UNL A   1      47.321  34.960  32.010  1.00  0.00     0.124 S 
ATOM     69  O   UNL A   1      48.415  35.801  31.534  1.00  0.00    -0.237 OA
ATOM     70  O   UNL A   1      46.314  35.627  32.829  1.00  0.00    -0.237 OA
ATOM     71  O   UNL A   1      47.715  33.631  32.476  1.00  0.00    -0.744 OA
ENDBRANCH  64  68
ENDBRANCH  38  61
ENDBRANCH  12  13
ENDBRANCH   5   7
ENDBRANCH   4   5
ENDBRANCH   3   4
ENDBRANCH   2   3
ENDBRANCH   1   2
BRANCH   1  72
ATOM     72  C   UNL A   1      34.446  23.642  25.411  1.00  0.00     0.188 C 
BRANCH  72  73
ATOM     73  C   UNL A   1      35.481  23.913  24.319  1.00  0.00     0.188 C 
BRANCH  73  74
ATOM     74  O   UNL A   1      35.191  23.441  23.006  1.00  0.00    -0.376 OA
BRANCH  74  75
ATOM     75  C   UNL A   1      33.826  23.197  22.682  1.00  0.00     0.202 C 
BRANCH  75  76
ATOM     76  C   UNL A   1      33.048  24.278  21.913  1.00  0.00     0.261 C 
BRANCH  76  77
ATOM     77  O   UNL A   1      32.473  25.303  22.731  1.00  0.00    -0.463 OA
BRANCH  77  78
ATOM     78  C   UNL A   1      33.069  26.521  22.612  1.00  0.00     0.309 C 
ATOM     79  O   UNL A   1      33.588  26.953  21.592  1.00  0.00    -0.252 OA
BRANCH  78  80
ATOM     80  C   UNL A   1      32.925  27.320  23.898  1.00  0.00     0.110 C 
ATOM     81  C   UNL A   1      32.247  26.474  25.009  1.00  0.00     0.020 C 
ATOM     82  C   UNL A   1      31.980  28.524  23.782  1.00  0.00     0.070 C 
ATOM     83  C   UNL A   1      30.914  27.199  25.246  1.00  0.00    -0.002 C 
ATOM     84  C   UNL A   1      30.752  28.020  23.070  1.00  0.00     0.137 C 
ATOM     85  C   UNL A   1      31.402  28.640  25.198  1.00  0.00     0.016 C 
ATOM     86  C   UNL A   1      29.984  27.120  24.006  1.00  0.00     0.079 C 
ATOM     87  O   UNL A   1      30.487  28.236  21.895  1.00  0.00    -0.299 OA
ENDBRANCH  78  80
ENDBRANCH  77  78
ENDBRANCH  76  77
ENDBRANCH  75  76
ENDBRANCH  74  75
ENDBRANCH  73  74
ENDBRANCH  72  73
ENDBRANCH   1  72
TORSDOF 20
ENDMDL
MODEL 2
REMARK VINA RESULT:      -9.4      4.662      7.377
REMARK SMILES O=C(OCCOCCOCCOC(=O)[C@@H]1C[C@@H]2CC(=O)[C@H]1C2)c1ccc(-c2c3nc(c(-c4cc(S(=O)(=O)[O-])ccc4F)c4ccc([nH]4)c(-c4cc(S(=O)(=O)[O-])ccc4F)c4nc(c(-c5cc(S(=O)(=O)[O-])ccc5F)c5ccc2[nH]5)C=C4)C=C3)cc1
REMARK SMILES IDX 6 1 5 2 4 3 3 4 2 5 1 6 23 7 24 8 85 9 25 10 84 11 26 12
REMARK SMILES IDX 27 13 28 14 78 15 29 16 83 17 77 18 79 19 30 20 82 21 76 22
REMARK SMILES IDX 75 23 31 25 63 26 43 27 62 28 44 29 47 30 61 31 80 32 45 33
REMARK SMILES IDX 46 34 60 36 81 37 48 38 32 39 33 40 41 41 34 42 40 43 42 44
REMARK SMILES IDX 39 45 35 46 36 47 37 48 38 49 64 50 65 51 73 52 66 53 72 54
REMARK SMILES IDX 74 55 71 56 67 57 68 58 69 59 70 60 49 61 50 62 58 63 51 64
REMARK SMILES IDX 57 65 59 66 56 67 52 68 53 69 54 70 55 71 7 72 8 73 9 74
REMARK SMILES IDX 10 75 11 76 12 77 13 78 14 79 15 80 16 81 21 82 17 83 19 84
REMARK SMILES IDX 22 85 18 86 20 87
REMARK H PARENT 79 24 47 35
REMARK Flexibility Score: inf
ROOT
ATOM      1  O   UNL A   1      31.160  28.756  25.104  1.00  0.00    -0.376 OA
ENDROOT
BRANCH   1   2
ATOM      2  C   UNL A   1      31.410  30.141  25.375  1.00  0.00     0.202 C 
BRANCH   2   3
ATOM      3  C   UNL A   1      32.648  30.478  26.229  1.00  0.00     0.261 C 
BRANCH   3   4
ATOM      4  O   UNL A   1      32.517  31.661  27.036  1.00  0.00    -0.460 OA
BRANCH   4   5
ATOM      5  C   UNL A   1      33.491  32.404  27.619  1.00  0.00     0.338 C 
ATOM      6  O   UNL A   1      33.348  33.626  27.666  1.00  0.00    -0.246 OA
BRANCH   5   7
ATOM      7  C   UNL A   1      34.746  31.825  28.180  1.00  0.00     0.060 A 
ATOM      8  C   UNL A   1      34.885  30.504  28.596  1.00  0.00     0.016 A 
ATOM      9  C   UNL A   1      35.889  32.643  28.203  1.00  0.00     0.016 A 
ATOM     10  C   UNL A   1      36.076  30.026  29.118  1.00  0.00     0.010 A 
ATOM     11  C   UNL A   1      37.114  32.154  28.673  1.00  0.00     0.010 A 
ATOM     12  C   UNL A   1      37.200  30.843  29.158  1.00  0.00    -0.014 A 
BRANCH  12  13
ATOM     13  C   UNL A   1      38.400  30.322  29.840  1.00  0.00     0.031 A 
ATOM     14  C   UNL A   1      38.645  30.733  31.251  1.00  0.00     0.074 A 
ATOM     15  C   UNL A   1      39.130  29.339  29.283  1.00  0.00     0.049 A 
ATOM     16  N   UNL A   1      39.644  30.430  32.028  1.00  0.00    -0.248 NA
ATOM     17  C   UNL A   1      37.611  31.571  31.878  1.00  0.00     0.031 C 
ATOM     18  C   UNL A   1      38.815  28.718  28.001  1.00  0.00     0.029 A 
ATOM     19  N   UNL A   1      40.218  28.636  29.731  1.00  0.00    -0.354 N 
ATOM     20  C   UNL A   1      39.382  31.067  33.230  1.00  0.00     0.074 A 
ATOM     21  C   UNL A   1      38.128  31.773  33.078  1.00  0.00     0.031 C 
ATOM     22  C   UNL A   1      39.634  27.674  27.816  1.00  0.00     0.029 A 
ATOM     23  C   UNL A   1      40.656  27.686  28.838  1.00  0.00     0.049 A 
ATOM     24  H   UNL A   1      40.644  28.796  30.603  1.00  0.00     0.167 HD
ATOM     25  C   UNL A   1      40.148  31.063  34.345  1.00  0.00     0.034 A 
ATOM     26  C   UNL A   1      41.789  26.962  28.785  1.00  0.00     0.034 A 
ATOM     27  C   UNL A   1      41.395  30.346  34.432  1.00  0.00     0.049 A 
ATOM     28  C   UNL A   1      42.726  27.128  29.940  1.00  0.00     0.074 A 
ATOM     29  C   UNL A   1      42.305  30.320  35.471  1.00  0.00     0.029 A 
ATOM     30  N   UNL A   1      41.912  29.533  33.426  1.00  0.00    -0.354 N 
ATOM     31  N   UNL A   1      42.541  27.830  31.034  1.00  0.00    -0.248 NA
ATOM     32  C   UNL A   1      44.010  26.429  29.869  1.00  0.00     0.031 C 
ATOM     33  C   UNL A   1      43.407  29.562  35.060  1.00  0.00     0.029 A 
ATOM     34  C   UNL A   1      43.151  29.040  33.801  1.00  0.00     0.049 A 
ATOM     35  H   UNL A   1      41.463  29.338  32.573  1.00  0.00     0.167 HD
ATOM     36  C   UNL A   1      43.678  27.640  31.799  1.00  0.00     0.074 A 
ATOM     37  C   UNL A   1      44.536  26.743  31.044  1.00  0.00     0.031 C 
ATOM     38  C   UNL A   1      43.984  28.156  33.016  1.00  0.00     0.034 A 
BRANCH  25  39
ATOM     39  C   UNL A   1      39.709  31.971  35.461  1.00  0.00     0.023 A 
ATOM     40  C   UNL A   1      38.980  31.506  36.569  1.00  0.00     0.031 A 
ATOM     41  C   UNL A   1      39.927  33.356  35.347  1.00  0.00     0.131 A 
ATOM     42  C   UNL A   1      38.424  32.426  37.472  1.00  0.00     0.055 A 
ATOM     43  C   UNL A   1      39.447  34.257  36.296  1.00  0.00     0.041 A 
ATOM     44  F   UNL A   1      40.578  33.859  34.286  1.00  0.00    -0.206 F 
ATOM     45  C   UNL A   1      38.676  33.796  37.358  1.00  0.00     0.022 A 
BRANCH  42  46
ATOM     46  S   UNL A   1      37.225  31.826  38.694  1.00  0.00     0.124 S 
ATOM     47  O   UNL A   1      37.028  30.445  38.260  1.00  0.00    -0.237 OA
ATOM     48  O   UNL A   1      37.939  32.004  39.953  1.00  0.00    -0.237 OA
ATOM     49  O   UNL A   1      36.071  32.702  38.502  1.00  0.00    -0.744 OA
ENDBRANCH  42  46
ENDBRANCH  25  39
BRANCH  26  50
ATOM     50  C   UNL A   1      42.153  26.172  27.564  1.00  0.00     0.023 A 
ATOM     51  C   UNL A   1      41.831  24.813  27.428  1.00  0.00     0.031 A 
ATOM     52  C   UNL A   1      42.900  26.767  26.523  1.00  0.00     0.131 A 
ATOM     53  C   UNL A   1      42.288  24.090  26.310  1.00  0.00     0.055 A 
ATOM     54  C   UNL A   1      43.297  26.061  25.386  1.00  0.00     0.041 A 
ATOM     55  F   UNL A   1      43.252  28.062  26.591  1.00  0.00    -0.206 F 
ATOM     56  C   UNL A   1      43.005  24.709  25.282  1.00  0.00     0.022 A 
BRANCH  53  57
ATOM     57  S   UNL A   1      42.038  22.292  26.268  1.00  0.00     0.124 S 
ATOM     58  O   UNL A   1      42.663  21.877  27.519  1.00  0.00    -0.237 OA
ATOM     59  O   UNL A   1      40.584  22.192  26.210  1.00  0.00    -0.237 OA
ATOM     60  O   UNL A   1      42.739  21.881  25.054  1.00  0.00    -0.744 OA
ENDBRANCH  53  57
ENDBRANCH  26  50
BRANCH  38  61
ATOM     61  C   UNL A   1      45.287  27.712  33.609  1.00  0.00     0.023 A 
ATOM     62  C   UNL A   1      45.372  26.566  34.417  1.00  0.00     0.031 A 
ATOM     63  C   UNL A   1      46.454  28.459  33.376  1.00  0.00     0.131 A 
ATOM     64  C   UNL A   1      46.594  26.230  35.011  1.00  0.00     0.055 A 
ATOM     65  C   UNL A   1      47.681  28.077  33.911  1.00  0.00     0.041 A 
ATOM     66  F   UNL A   1      46.415  29.568  32.620  1.00  0.00    -0.206 F 
ATOM     67  C   UNL A   1      47.754  26.964  34.744  1.00  0.00     0.022 A 
BRANCH  64  68
ATOM     68  S   UNL A   1      46.624  24.879  36.216  1.00  0.00     0.124 S 
ATOM     69  O   UNL A   1      46.215  25.559  37.441  1.00  0.00    -0.237 OA
ATOM     70  O   UNL A   1      45.658  23.938  35.657  1.00  0.00    -0.237 OA
ATOM     71  O   UNL A   1      48.014  24.427  36.188  1.00  0.00    -0.744 OA
ENDBRANCH  64  68
ENDBRANCH  38  61
ENDBRANCH  12  13
ENDBRANCH   5   7
ENDBRANCH   4   5
ENDBRANCH   3   4
ENDBRANCH   2   3
ENDBRANCH   1   2
BRANCH   1  72
ATOM     72  C   UNL A   1      32.077  27.847  25.713  1.00  0.00     0.188 C 
BRANCH  72  73
ATOM     73  C   UNL A   1      32.969  27.119  24.706  1.00  0.00     0.188 C 
BRANCH  73  74
ATOM     74  O   UNL A   1      32.429  26.869  23.410  1.00  0.00    -0.376 OA
BRANCH  74  75
ATOM     75  C   UNL A   1      32.137  25.518  23.069  1.00  0.00     0.202 C 
BRANCH  75  76
ATOM     76  C   UNL A   1      33.280  24.622  22.566  1.00  0.00     0.261 C 
BRANCH  76  77
ATOM     77  O   UNL A   1      33.764  23.670  23.520  1.00  0.00    -0.463 OA
BRANCH  77  78
ATOM     78  C   UNL A   1      32.815  22.821  24.002  1.00  0.00     0.309 C 
ATOM     79  O   UNL A   1      32.144  22.057  23.322  1.00  0.00    -0.252 OA
BRANCH  78  80
ATOM     80  C   UNL A   1      32.759  22.881  25.520  1.00  0.00     0.110 C 
ATOM     81  C   UNL A   1      33.852  23.827  26.084  1.00  0.00     0.020 C 
ATOM     82  C   UNL A   1      33.090  21.550  26.211  1.00  0.00     0.070 C 
ATOM     83  C   UNL A   1      34.776  22.879  26.863  1.00  0.00    -0.002 C 
ATOM     84  C   UNL A   1      34.325  21.025  25.525  1.00  0.00     0.137 C 
ATOM     85  C   UNL A   1      33.727  22.002  27.531  1.00  0.00     0.016 C 
ATOM     86  C   UNL A   1      35.502  21.878  25.927  1.00  0.00     0.079 C 
ATOM     87  O   UNL A   1      34.336  20.116  24.705  1.00  0.00    -0.299 OA
ENDBRANCH  78  80
ENDBRANCH  77  78
ENDBRANCH  76  77
ENDBRANCH  75  76
ENDBRANCH  74  75
ENDBRANCH  73  74
ENDBRANCH  72  73
ENDBRANCH   1  72
TORSDOF 20
ENDMDL
MODEL 3
REMARK VINA RESULT:      -9.4      2.236      2.785
REMARK SMILES O=C(OCCOCCOCCOC(=O)[C@@H]1C[C@@H]2CC(=O)[C@H]1C2)c1ccc(-c2c3nc(c(-c4cc(S(=O)(=O)[O-])ccc4F)c4ccc([nH]4)c(-c4cc(S(=O)(=O)[O-])ccc4F)c4nc(c(-c5cc(S(=O)(=O)[O-])ccc5F)c5ccc2[nH]5)C=C4)C=C3)cc1
REMARK SMILES IDX 6 1 5 2 4 3 3 4 2 5 1 6 23 7 24 8 85 9 25 10 84 11 26 12
REMARK SMILES IDX 27 13 28 14 78 15 29 16 83 17 77 18 79 19 30 20 82 21 76 22
REMARK SMILES IDX 75 23 31 25 63 26 43 27 62 28 44 29 47 30 61 31 80 32 45 33
REMARK SMILES IDX 46 34 60 36 81 37 48 38 32 39 33 40 41 41 34 42 40 43 42 44
REMARK SMILES IDX 39 45 35 46 36 47 37 48 38 49 64 50 65 51 73 52 66 53 72 54
REMARK SMILES IDX 74 55 71 56 67 57 68 58 69 59 70 60 49 61 50 62 58 63 51 64
REMARK SMILES IDX 57 65 59 66 56 67 52 68 53 69 54 70 55 71 7 72 8 73 9 74
REMARK SMILES IDX 10 75 11 76 12 77 13 78 14 79 15 80 16 81 21 82 17 83 19 84
REMARK SMILES IDX 22 85 18 86 20 87
REMARK H PARENT 79 24 47 35
REMARK Flexibility Score: inf
ROOT
ATOM      1  O   UNL A   1      34.472  22.230  23.985  1.00  0.00    -0.376 OA
ENDROOT
BRANCH   1   2
ATOM      2  C   UNL A   1      35.443  21.452  24.697  1.00  0.00     0.202 C 
BRANCH   2   3
ATOM      3  C   UNL A   1      36.487  22.222  25.529  1.00  0.00     0.261 C 
BRANCH   3   4
ATOM      4  O   UNL A   1      37.512  21.400  26.114  1.00  0.00    -0.460 OA
BRANCH   4   5
ATOM      5  C   UNL A   1      38.850  21.619  26.164  1.00  0.00     0.338 C 
ATOM      6  O   UNL A   1      39.608  20.694  25.870  1.00  0.00    -0.246 OA
BRANCH   5   7
ATOM      7  C   UNL A   1      39.459  22.913  26.590  1.00  0.00     0.060 A 
ATOM      8  C   UNL A   1      39.083  24.159  26.095  1.00  0.00     0.016 A 
ATOM      9  C   UNL A   1      40.409  22.878  27.624  1.00  0.00     0.016 A 
ATOM     10  C   UNL A   1      39.693  25.327  26.523  1.00  0.00     0.010 A 
ATOM     11  C   UNL A   1      40.990  24.058  28.107  1.00  0.00     0.010 A 
ATOM     12  C   UNL A   1      40.647  25.287  27.533  1.00  0.00    -0.014 A 
BRANCH  12  13
ATOM     13  C   UNL A   1      41.352  26.543  27.857  1.00  0.00     0.031 A 
ATOM     14  C   UNL A   1      40.650  27.546  28.707  1.00  0.00     0.074 A 
ATOM     15  C   UNL A   1      42.660  26.685  27.580  1.00  0.00     0.049 A 
ATOM     16  N   UNL A   1      41.057  28.724  29.084  1.00  0.00    -0.248 NA
ATOM     17  C   UNL A   1      39.328  27.158  29.223  1.00  0.00     0.031 C 
ATOM     18  C   UNL A   1      43.476  25.649  26.956  1.00  0.00     0.029 A 
ATOM     19  N   UNL A   1      43.550  27.693  27.842  1.00  0.00    -0.354 N 
ATOM     20  C   UNL A   1      40.029  29.238  29.857  1.00  0.00     0.074 A 
ATOM     21  C   UNL A   1      38.980  28.243  29.895  1.00  0.00     0.031 C 
ATOM     22  C   UNL A   1      44.756  26.044  26.971  1.00  0.00     0.029 A 
ATOM     23  C   UNL A   1      44.822  27.424  27.392  1.00  0.00     0.049 A 
ATOM     24  H   UNL A   1      43.305  28.526  28.304  1.00  0.00     0.167 HD
ATOM     25  C   UNL A   1      39.981  30.449  30.459  1.00  0.00     0.034 A 
ATOM     26  C   UNL A   1      45.904  28.211  27.245  1.00  0.00     0.034 A 
ATOM     27  C   UNL A   1      41.057  31.403  30.377  1.00  0.00     0.049 A 
ATOM     28  C   UNL A   1      45.763  29.618  27.735  1.00  0.00     0.074 A 
ATOM     29  C   UNL A   1      41.109  32.691  30.872  1.00  0.00     0.029 A 
ATOM     30  N   UNL A   1      42.276  31.169  29.744  1.00  0.00    -0.354 N 
ATOM     31  N   UNL A   1      44.742  30.154  28.363  1.00  0.00    -0.248 NA
ATOM     32  C   UNL A   1      46.886  30.526  27.504  1.00  0.00     0.031 C 
ATOM     33  C   UNL A   1      42.319  33.263  30.466  1.00  0.00     0.029 A 
ATOM     34  C   UNL A   1      43.065  32.307  29.793  1.00  0.00     0.049 A 
ATOM     35  H   UNL A   1      42.538  30.320  29.321  1.00  0.00     0.167 HD
ATOM     36  C   UNL A   1      45.107  31.462  28.625  1.00  0.00     0.074 A 
ATOM     37  C   UNL A   1      46.452  31.626  28.100  1.00  0.00     0.031 C 
ATOM     38  C   UNL A   1      44.398  32.437  29.248  1.00  0.00     0.034 A 
BRANCH  25  39
ATOM     39  C   UNL A   1      38.676  30.822  31.107  1.00  0.00     0.023 A 
ATOM     40  C   UNL A   1      37.685  31.559  30.436  1.00  0.00     0.031 A 
ATOM     41  C   UNL A   1      38.477  30.532  32.468  1.00  0.00     0.131 A 
ATOM     42  C   UNL A   1      36.582  32.053  31.151  1.00  0.00     0.055 A 
ATOM     43  C   UNL A   1      37.336  30.951  33.151  1.00  0.00     0.041 A 
ATOM     44  F   UNL A   1      39.412  29.871  33.170  1.00  0.00    -0.206 F 
ATOM     45  C   UNL A   1      36.387  31.730  32.497  1.00  0.00     0.022 A 
BRANCH  42  46
ATOM     46  S   UNL A   1      35.498  33.264  30.346  1.00  0.00     0.124 S 
ATOM     47  O   UNL A   1      35.263  34.215  31.431  1.00  0.00    -0.237 OA
ATOM     48  O   UNL A   1      36.322  33.746  29.244  1.00  0.00    -0.237 OA
ATOM     49  O   UNL A   1      34.331  32.476  29.956  1.00  0.00    -0.744 OA
ENDBRANCH  42  46
ENDBRANCH  25  39
BRANCH  26  50
ATOM     50  C   UNL A   1      47.111  27.743  26.487  1.00  0.00     0.023 A 
ATOM     51  C   UNL A   1      47.267  27.974  25.112  1.00  0.00     0.031 A 
ATOM     52  C   UNL A   1      48.114  26.989  27.136  1.00  0.00     0.131 A 
ATOM     53  C   UNL A   1      48.366  27.422  24.427  1.00  0.00     0.055 A 
ATOM     54  C   UNL A   1      49.235  26.498  26.464  1.00  0.00     0.041 A 
ATOM     55  F   UNL A   1      48.026  26.722  28.449  1.00  0.00    -0.206 F 
ATOM     56  C   UNL A   1      49.358  26.700  25.097  1.00  0.00     0.022 A 
BRANCH  53  57
ATOM     57  S   UNL A   1      48.428  27.557  22.618  1.00  0.00     0.124 S 
ATOM     58  O   UNL A   1      48.488  26.156  22.218  1.00  0.00    -0.237 OA
ATOM     59  O   UNL A   1      47.182  28.257  22.326  1.00  0.00    -0.237 OA
ATOM     60  O   UNL A   1      49.646  28.327  22.376  1.00  0.00    -0.744 OA
ENDBRANCH  53  57
ENDBRANCH  26  50
BRANCH  38  61
ATOM     61  C   UNL A   1      45.102  33.749  29.426  1.00  0.00     0.023 A 
ATOM     62  C   UNL A   1      44.935  34.801  28.511  1.00  0.00     0.031 A 
ATOM     63  C   UNL A   1      45.966  33.937  30.518  1.00  0.00     0.131 A 
ATOM     64  C   UNL A   1      45.670  35.981  28.676  1.00  0.00     0.055 A 
ATOM     65  C   UNL A   1      46.638  35.141  30.715  1.00  0.00     0.041 A 
ATOM     66  F   UNL A   1      46.164  32.953  31.410  1.00  0.00    -0.206 F 
ATOM     67  C   UNL A   1      46.501  36.167  29.784  1.00  0.00     0.022 A 
BRANCH  64  68
ATOM     68  S   UNL A   1      45.599  37.230  27.366  1.00  0.00     0.124 S 
ATOM     69  O   UNL A   1      46.519  36.680  26.376  1.00  0.00    -0.237 OA
ATOM     70  O   UNL A   1      44.186  37.219  26.999  1.00  0.00    -0.237 OA
ATOM     71  O   UNL A   1      46.055  38.449  28.032  1.00  0.00    -0.744 OA
ENDBRANCH  64  68
ENDBRANCH  38  61
ENDBRANCH  12  13
ENDBRANCH   5   7
ENDBRANCH   4   5
ENDBRANCH   3   4
ENDBRANCH   2   3
ENDBRANCH   1   2
BRANCH   1  72
ATOM     72  C   UNL A   1      33.114  21.841  24.195  1.00  0.00     0.188 C 
BRANCH  72  73
ATOM     73  C   UNL A   1      32.720  21.784  25.672  1.00  0.00     0.188 C 
BRANCH  73  74
ATOM     74  O   UNL A   1      32.919  22.960  26.451  1.00  0.00    -0.376 OA
BRANCH  74  75
ATOM     75  C   UNL A   1      33.187  24.173  25.755  1.00  0.00     0.202 C 
BRANCH  75  76
ATOM     76  C   UNL A   1      32.000  25.032  25.291  1.00  0.00     0.261 C 
BRANCH  76  77
ATOM     77  O   UNL A   1      32.354  26.318  24.769  1.00  0.00    -0.463 OA
BRANCH  77  78
ATOM     78  C   UNL A   1      31.338  27.224  24.763  1.00  0.00     0.309 C 
ATOM     79  O   UNL A   1      30.147  26.946  24.800  1.00  0.00    -0.252 OA
BRANCH  78  80
ATOM     80  C   UNL A   1      31.882  28.644  24.796  1.00  0.00     0.110 C 
ATOM     81  C   UNL A   1      33.433  28.651  24.742  1.00  0.00     0.020 C 
ATOM     82  C   UNL A   1      31.597  29.392  26.106  1.00  0.00     0.070 C 
ATOM     83  C   UNL A   1      33.834  29.223  26.110  1.00  0.00    -0.002 C 
ATOM     84  C   UNL A   1      31.941  28.431  27.214  1.00  0.00     0.137 C 
ATOM     85  C   UNL A   1      32.802  30.334  26.228  1.00  0.00     0.016 C 
ATOM     86  C   UNL A   1      33.440  28.274  27.273  1.00  0.00     0.079 C 
ATOM     87  O   UNL A   1      31.122  27.813  27.883  1.00  0.00    -0.299 OA
ENDBRANCH  78  80
ENDBRANCH  77  78
ENDBRANCH  76  77
ENDBRANCH  75  76
ENDBRANCH  74  75
ENDBRANCH  73  74
ENDBRANCH  72  73
ENDBRANCH   1  72
TORSDOF 20
ENDMDL
