MODEL 1
REMARK VINA RESULT:      -9.5      0.000      0.000
REMARK SMILES CC(C)CSc1cc2c(cc1Cl)C=C(C(=O)OCCOCCOCCOC(=O)c1ccc(-c3c4nc(c(-c5cc(S(=O)(=O)[O-])ccc5F)c5ccc([nH]5)c(-c5cc(S(=O)(=O)[O-])ccc5F)c5nc(c(-c6cc(S(=O)(=O)[O-])ccc6F)c6ccc3[nH]6)C=C5)C=C4)cc1)[C@@H](C(F)(F)F)O2
REMARK SMILES IDX 21 1 20 2 19 3 18 4 17 5 15 6 16 7 14 8 6 9 7 10 11 11 8 12
REMARK SMILES IDX 10 13 12 14 9 15 97 16 13 17 92 18 5 19 4 20 2 21 1 22 3 23
REMARK SMILES IDX 93 24 94 25 95 26 96 27 22 28 23 29 24 30 25 31 26 32 27 33
REMARK SMILES IDX 28 34 29 35 30 36 91 37 31 38 90 39 32 40 33 41 34 42 84 43
REMARK SMILES IDX 35 44 89 45 83 46 85 47 36 48 88 49 82 50 81 51 37 53 69 54
REMARK SMILES IDX 49 55 68 56 50 57 53 58 67 59 86 60 51 61 52 62 66 64 87 65
REMARK SMILES IDX 54 66 38 67 39 68 47 69 40 70 46 71 48 72 45 73 41 74 42 75
REMARK SMILES IDX 43 76 44 77 70 78 71 79 79 80 72 81 78 82 80 83 77 84 73 85
REMARK SMILES IDX 74 86 75 87 76 88 55 89 56 90 64 91 57 92 63 93 65 94 62 95
REMARK SMILES IDX 58 96 59 97 60 98 61 99
REMARK H PARENT 85 52 53 63
REMARK Flexibility Score: inf
ROOT
ATOM      1  C   UNL A   1      31.454  30.238  25.405  1.00  0.00     0.188 C 
ENDROOT
BRANCH   1   2
ATOM      2  O   UNL A   1      31.633  29.210  24.454  1.00  0.00    -0.376 OA
BRANCH   2   3
ATOM      3  C   UNL A   1      32.756  29.260  23.594  1.00  0.00     0.202 C 
BRANCH   3   4
ATOM      4  C   UNL A   1      33.985  28.357  23.812  1.00  0.00     0.261 C 
BRANCH   4   5
ATOM      5  O   UNL A   1      33.732  27.007  24.209  1.00  0.00    -0.460 OA
BRANCH   5   6
ATOM      6  C   UNL A   1      33.879  26.706  25.525  1.00  0.00     0.338 C 
ATOM      7  O   UNL A   1      34.112  27.474  26.423  1.00  0.00    -0.246 OA
BRANCH   6   8
ATOM      8  C   UNL A   1      33.592  25.258  25.684  1.00  0.00     0.087 C 
ATOM      9  C   UNL A   1      33.455  20.227  25.592  1.00  0.00     0.030 A 
ATOM     10  C   UNL A   1      32.599  21.263  25.945  1.00  0.00     0.063 A 
ATOM     11  C   UNL A   1      34.751  20.587  25.185  1.00  0.00     0.055 A 
ATOM     12  C   UNL A   1      32.981  22.596  25.913  1.00  0.00     0.129 A 
ATOM     13  C   UNL A   1      35.132  21.944  25.099  1.00  0.00     0.033 A 
ATOM     14  Cl  UNL A   1      35.936  19.404  24.747  1.00  0.00    -0.083 Cl
ATOM     15  C   UNL A   1      34.233  22.960  25.448  1.00  0.00     0.019 A 
ATOM     16  O   UNL A   1      32.027  23.452  26.365  1.00  0.00    -0.475 OA
ATOM     17  C   UNL A   1      34.529  24.380  25.293  1.00  0.00     0.027 C 
ATOM     18  C   UNL A   1      32.292  24.869  26.345  1.00  0.00     0.316 C 
BRANCH   9  19
ATOM     19  S   UNL A   1      32.879  18.533  25.788  1.00  0.00    -0.124 SA
BRANCH  19  20
ATOM     20  C   UNL A   1      32.493  17.992  24.067  1.00  0.00     0.078 C 
BRANCH  20  21
ATOM     21  C   UNL A   1      33.077  16.619  23.656  1.00  0.00    -0.007 C 
ATOM     22  C   UNL A   1      34.409  16.670  22.904  1.00  0.00     0.008 C 
ATOM     23  C   UNL A   1      33.280  15.759  24.910  1.00  0.00     0.008 C 
ENDBRANCH  20  21
ENDBRANCH  19  20
ENDBRANCH   9  19
BRANCH  18  24
ATOM     24  C   UNL A   1      31.051  25.530  25.731  1.00  0.00     0.430 C 
ATOM     25  F   UNL A   1      30.851  26.765  26.258  1.00  0.00    -0.167 F 
ATOM     26  F   UNL A   1      31.158  25.698  24.394  1.00  0.00    -0.167 F 
ATOM     27  F   UNL A   1      29.929  24.811  25.964  1.00  0.00    -0.167 F 
ENDBRANCH  18  24
ENDBRANCH   6   8
ENDBRANCH   5   6
ENDBRANCH   4   5
ENDBRANCH   3   4
ENDBRANCH   2   3
ENDBRANCH   1   2
BRANCH   1  28
ATOM     28  C   UNL A   1      31.732  29.768  26.850  1.00  0.00     0.188 C 
BRANCH  28  29
ATOM     29  O   UNL A   1      32.853  30.286  27.556  1.00  0.00    -0.376 OA
BRANCH  29  30
ATOM     30  C   UNL A   1      33.431  31.515  27.129  1.00  0.00     0.202 C 
BRANCH  30  31
ATOM     31  C   UNL A   1      33.628  32.686  28.113  1.00  0.00     0.261 C 
BRANCH  31  32
ATOM     32  O   UNL A   1      34.950  32.859  28.645  1.00  0.00    -0.460 OA
BRANCH  32  33
ATOM     33  C   UNL A   1      35.110  32.552  29.959  1.00  0.00     0.338 C 
ATOM     34  O   UNL A   1      34.285  32.683  30.846  1.00  0.00    -0.246 OA
BRANCH  33  35
ATOM     35  C   UNL A   1      36.384  31.814  30.121  1.00  0.00     0.060 A 
ATOM     36  C   UNL A   1      37.558  32.277  29.527  1.00  0.00     0.016 A 
ATOM     37  C   UNL A   1      36.389  30.624  30.865  1.00  0.00     0.016 A 
ATOM     38  C   UNL A   1      38.742  31.551  29.692  1.00  0.00     0.010 A 
ATOM     39  C   UNL A   1      37.570  29.891  31.011  1.00  0.00     0.010 A 
ATOM     40  C   UNL A   1      38.762  30.360  30.442  1.00  0.00    -0.014 A 
BRANCH  40  41
ATOM     41  C   UNL A   1      40.061  29.724  30.782  1.00  0.00     0.031 A 
ATOM     42  C   UNL A   1      40.893  30.166  31.947  1.00  0.00     0.074 A 
ATOM     43  C   UNL A   1      40.488  28.717  29.995  1.00  0.00     0.049 A 
ATOM     44  N   UNL A   1      41.985  29.625  32.422  1.00  0.00    -0.248 NA
ATOM     45  C   UNL A   1      40.455  31.368  32.670  1.00  0.00     0.031 C 
ATOM     46  C   UNL A   1      39.781  28.242  28.805  1.00  0.00     0.029 A 
ATOM     47  N   UNL A   1      41.596  27.914  30.071  1.00  0.00    -0.354 N 
ATOM     48  C   UNL A   1      42.358  30.400  33.513  1.00  0.00     0.074 A 
ATOM     49  C   UNL A   1      41.399  31.484  33.597  1.00  0.00     0.031 C 
ATOM     50  C   UNL A   1      40.455  27.211  28.280  1.00  0.00     0.029 A 
ATOM     51  C   UNL A   1      41.659  26.968  29.073  1.00  0.00     0.049 A 
ATOM     52  H   UNL A   1      42.282  28.003  30.772  1.00  0.00     0.167 HD
ATOM     53  C   UNL A   1      43.390  30.205  34.371  1.00  0.00     0.034 A 
ATOM     54  C   UNL A   1      42.572  26.007  28.824  1.00  0.00     0.034 A 
ATOM     55  C   UNL A   1      44.337  29.120  34.259  1.00  0.00     0.049 A 
ATOM     56  C   UNL A   1      43.719  25.822  29.784  1.00  0.00     0.074 A 
ATOM     57  C   UNL A   1      45.377  28.805  35.119  1.00  0.00     0.029 A 
ATOM     58  N   UNL A   1      44.380  28.186  33.232  1.00  0.00    -0.354 N 
ATOM     59  N   UNL A   1      43.982  26.480  30.889  1.00  0.00    -0.248 NA
ATOM     60  C   UNL A   1      44.682  24.754  29.482  1.00  0.00     0.031 C 
ATOM     61  C   UNL A   1      46.094  27.741  34.573  1.00  0.00     0.029 A 
ATOM     62  C   UNL A   1      45.451  27.324  33.419  1.00  0.00     0.049 A 
ATOM     63  H   UNL A   1      43.744  28.142  32.482  1.00  0.00     0.167 HD
ATOM     64  C   UNL A   1      45.122  25.890  31.426  1.00  0.00     0.074 A 
ATOM     65  C   UNL A   1      45.482  24.803  30.540  1.00  0.00     0.031 C 
ATOM     66  C   UNL A   1      45.807  26.225  32.549  1.00  0.00     0.034 A 
BRANCH  53  67
ATOM     67  C   UNL A   1      43.559  31.141  35.545  1.00  0.00     0.023 A 
ATOM     68  C   UNL A   1      44.435  32.241  35.453  1.00  0.00     0.031 A 
ATOM     69  C   UNL A   1      43.007  30.836  36.802  1.00  0.00     0.131 A 
ATOM     70  C   UNL A   1      44.772  32.963  36.607  1.00  0.00     0.055 A 
ATOM     71  C   UNL A   1      43.312  31.588  37.939  1.00  0.00     0.041 A 
ATOM     72  F   UNL A   1      42.176  29.792  36.947  1.00  0.00    -0.206 F 
ATOM     73  C   UNL A   1      44.212  32.645  37.847  1.00  0.00     0.022 A 
BRANCH  70  74
ATOM     74  S   UNL A   1      46.023  34.277  36.562  1.00  0.00     0.124 S 
ATOM     75  O   UNL A   1      45.405  35.305  37.397  1.00  0.00    -0.237 OA
ATOM     76  O   UNL A   1      47.184  33.614  37.149  1.00  0.00    -0.237 OA
ATOM     77  O   UNL A   1      46.132  34.611  35.147  1.00  0.00    -0.744 OA
ENDBRANCH  70  74
ENDBRANCH  53  67
BRANCH  54  78
ATOM     78  C   UNL A   1      42.372  25.110  27.648  1.00  0.00     0.023 A 
ATOM     79  C   UNL A   1      41.549  23.973  27.743  1.00  0.00     0.031 A 
ATOM     80  C   UNL A   1      43.090  25.308  26.457  1.00  0.00     0.131 A 
ATOM     81  C   UNL A   1      41.523  23.041  26.697  1.00  0.00     0.055 A 
ATOM     82  C   UNL A   1      42.999  24.418  25.386  1.00  0.00     0.041 A 
ATOM     83  F   UNL A   1      43.903  26.367  26.325  1.00  0.00    -0.206 F 
ATOM     84  C   UNL A   1      42.227  23.267  25.511  1.00  0.00     0.022 A 
BRANCH  81  85
ATOM     85  S   UNL A   1      40.697  21.439  26.901  1.00  0.00     0.124 S 
ATOM     86  O   UNL A   1      40.818  21.215  28.338  1.00  0.00    -0.237 OA
ATOM     87  O   UNL A   1      39.351  21.736  26.418  1.00  0.00    -0.237 OA
ATOM     88  O   UNL A   1      41.475  20.541  26.055  1.00  0.00    -0.744 OA
ENDBRANCH  81  85
ENDBRANCH  54  78
BRANCH  66  89
ATOM     89  C   UNL A   1      47.031  25.421  32.927  1.00  0.00     0.023 A 
ATOM     90  C   UNL A   1      46.927  24.384  33.876  1.00  0.00     0.031 A 
ATOM     91  C   UNL A   1      48.315  25.780  32.481  1.00  0.00     0.131 A 
ATOM     92  C   UNL A   1      48.085  23.782  34.387  1.00  0.00     0.055 A 
ATOM     93  C   UNL A   1      49.462  25.137  32.949  1.00  0.00     0.041 A 
ATOM     94  F   UNL A   1      48.474  26.768  31.587  1.00  0.00    -0.206 F 
ATOM     95  C   UNL A   1      49.351  24.146  33.920  1.00  0.00     0.022 A 
BRANCH  92  96
ATOM     96  S   UNL A   1      47.997  22.581  35.745  1.00  0.00     0.124 S 
ATOM     97  O   UNL A   1      47.792  21.325  35.026  1.00  0.00    -0.237 OA
ATOM     98  O   UNL A   1      49.307  22.732  36.372  1.00  0.00    -0.237 OA
ATOM     99  O   UNL A   1      46.862  23.032  36.543  1.00  0.00    -0.744 OA
ENDBRANCH  92  96
ENDBRANCH  66  89
ENDBRANCH  40  41
ENDBRANCH  33  35
ENDBRANCH  32  33
ENDBRANCH  31  32
ENDBRANCH  30  31
ENDBRANCH  29  30
ENDBRANCH  28  29
ENDBRANCH   1  28
TORSDOF 24
ENDMDL
MODEL 2
REMARK VINA RESULT:      -9.5      3.592      9.448
REMARK SMILES CC(C)CSc1cc2c(cc1Cl)C=C(C(=O)OCCOCCOCCOC(=O)c1ccc(-c3c4nc(c(-c5cc(S(=O)(=O)[O-])ccc5F)c5ccc([nH]5)c(-c5cc(S(=O)(=O)[O-])ccc5F)c5nc(c(-c6cc(S(=O)(=O)[O-])ccc6F)c6ccc3[nH]6)C=C5)C=C4)cc1)[C@@H](C(F)(F)F)O2
REMARK SMILES IDX 21 1 20 2 19 3 18 4 17 5 15 6 16 7 14 8 6 9 7 10 11 11 8 12
REMARK SMILES IDX 10 13 12 14 9 15 97 16 13 17 92 18 5 19 4 20 2 21 1 22 3 23
REMARK SMILES IDX 93 24 94 25 95 26 96 27 22 28 23 29 24 30 25 31 26 32 27 33
REMARK SMILES IDX 28 34 29 35 30 36 91 37 31 38 90 39 32 40 33 41 34 42 84 43
REMARK SMILES IDX 35 44 89 45 83 46 85 47 36 48 88 49 82 50 81 51 37 53 69 54
REMARK SMILES IDX 49 55 68 56 50 57 53 58 67 59 86 60 51 61 52 62 66 64 87 65
REMARK SMILES IDX 54 66 38 67 39 68 47 69 40 70 46 71 48 72 45 73 41 74 42 75
REMARK SMILES IDX 43 76 44 77 70 78 71 79 79 80 72 81 78 82 80 83 77 84 73 85
REMARK SMILES IDX 74 86 75 87 76 88 55 89 56 90 64 91 57 92 63 93 65 94 62 95
REMARK SMILES IDX 58 96 59 97 60 98 61 99
REMARK H PARENT 85 52 53 63
REMARK Flexibility Score: inf
ROOT
ATOM      1  C   UNL A   1      39.810  20.969  26.262  1.00  0.00     0.188 C 
ENDROOT
BRANCH   1   2
ATOM      2  O   UNL A   1      38.791  21.822  25.788  1.00  0.00    -0.376 OA
BRANCH   2   3
ATOM      3  C   UNL A   1      37.818  21.301  24.900  1.00  0.00     0.202 C 
BRANCH   3   4
ATOM      4  C   UNL A   1      36.347  21.126  25.322  1.00  0.00     0.261 C 
BRANCH   4   5
ATOM      5  O   UNL A   1      35.363  21.783  24.519  1.00  0.00    -0.460 OA
BRANCH   5   6
ATOM      6  C   UNL A   1      34.063  21.633  24.881  1.00  0.00     0.338 C 
ATOM      7  O   UNL A   1      33.572  20.690  25.447  1.00  0.00    -0.246 OA
BRANCH   6   8
ATOM      8  C   UNL A   1      33.360  22.897  24.549  1.00  0.00     0.087 C 
ATOM      9  C   UNL A   1      31.938  27.616  23.519  1.00  0.00     0.030 A 
ATOM     10  C   UNL A   1      31.324  26.423  23.882  1.00  0.00     0.063 A 
ATOM     11  C   UNL A   1      33.328  27.576  23.312  1.00  0.00     0.055 A 
ATOM     12  C   UNL A   1      32.024  25.235  24.034  1.00  0.00     0.129 A 
ATOM     13  C   UNL A   1      34.056  26.382  23.514  1.00  0.00     0.033 A 
ATOM     14  Cl  UNL A   1      34.222  28.974  22.824  1.00  0.00    -0.083 Cl
ATOM     15  C   UNL A   1      33.401  25.204  23.897  1.00  0.00     0.019 A 
ATOM     16  O   UNL A   1      31.236  24.165  24.320  1.00  0.00    -0.475 OA
ATOM     17  C   UNL A   1      34.102  23.966  24.215  1.00  0.00     0.027 C 
ATOM     18  C   UNL A   1      31.851  22.880  24.538  1.00  0.00     0.316 C 
BRANCH   9  19
ATOM     19  S   UNL A   1      30.905  29.062  23.240  1.00  0.00    -0.124 SA
BRANCH  19  20
ATOM     20  C   UNL A   1      29.284  28.358  22.713  1.00  0.00     0.078 C 
BRANCH  20  21
ATOM     21  C   UNL A   1      28.095  29.348  22.721  1.00  0.00    -0.007 C 
ATOM     22  C   UNL A   1      26.809  28.828  23.369  1.00  0.00     0.008 C 
ATOM     23  C   UNL A   1      28.507  30.629  23.461  1.00  0.00     0.008 C 
ENDBRANCH  20  21
ENDBRANCH  19  20
ENDBRANCH   9  19
BRANCH  18  24
ATOM     24  C   UNL A   1      31.218  22.312  25.815  1.00  0.00     0.430 C 
ATOM     25  F   UNL A   1      31.062  20.966  25.719  1.00  0.00    -0.167 F 
ATOM     26  F   UNL A   1      31.975  22.530  26.914  1.00  0.00    -0.167 F 
ATOM     27  F   UNL A   1      29.995  22.840  26.050  1.00  0.00    -0.167 F 
ENDBRANCH  18  24
ENDBRANCH   6   8
ENDBRANCH   5   6
ENDBRANCH   4   5
ENDBRANCH   3   4
ENDBRANCH   2   3
ENDBRANCH   1   2
BRANCH   1  28
ATOM     28  C   UNL A   1      41.214  21.605  26.159  1.00  0.00     0.188 C 
BRANCH  28  29
ATOM     29  O   UNL A   1      42.306  20.829  25.679  1.00  0.00    -0.376 OA
BRANCH  29  30
ATOM     30  C   UNL A   1      43.620  21.377  25.735  1.00  0.00     0.202 C 
BRANCH  30  31
ATOM     31  C   UNL A   1      44.146  22.299  24.618  1.00  0.00     0.261 C 
BRANCH  31  32
ATOM     32  O   UNL A   1      43.663  23.651  24.624  1.00  0.00    -0.460 OA
BRANCH  32  33
ATOM     33  C   UNL A   1      44.517  24.588  25.114  1.00  0.00     0.338 C 
ATOM     34  O   UNL A   1      45.608  24.889  24.664  1.00  0.00    -0.246 OA
BRANCH  33  35
ATOM     35  C   UNL A   1      43.818  25.360  26.167  1.00  0.00     0.060 A 
ATOM     36  C   UNL A   1      42.838  24.763  26.960  1.00  0.00     0.016 A 
ATOM     37  C   UNL A   1      44.141  26.715  26.342  1.00  0.00     0.016 A 
ATOM     38  C   UNL A   1      42.192  25.523  27.940  1.00  0.00     0.010 A 
ATOM     39  C   UNL A   1      43.478  27.476  27.309  1.00  0.00     0.010 A 
ATOM     40  C   UNL A   1      42.511  26.881  28.130  1.00  0.00    -0.014 A 
BRANCH  40  41
ATOM     41  C   UNL A   1      41.971  27.608  29.308  1.00  0.00     0.031 A 
ATOM     42  C   UNL A   1      42.663  27.612  30.638  1.00  0.00     0.074 A 
ATOM     43  C   UNL A   1      40.812  28.276  29.152  1.00  0.00     0.049 A 
ATOM     44  N   UNL A   1      42.363  28.296  31.711  1.00  0.00    -0.248 NA
ATOM     45  C   UNL A   1      43.835  26.738  30.790  1.00  0.00     0.031 C 
ATOM     46  C   UNL A   1      40.030  28.295  27.915  1.00  0.00     0.029 A 
ATOM     47  N   UNL A   1      40.096  29.065  30.015  1.00  0.00    -0.354 N 
ATOM     48  C   UNL A   1      43.316  27.959  32.664  1.00  0.00     0.074 A 
ATOM     49  C   UNL A   1      44.178  26.965  32.054  1.00  0.00     0.031 C 
ATOM     50  C   UNL A   1      38.959  29.081  28.088  1.00  0.00     0.029 A 
ATOM     51  C   UNL A   1      38.958  29.598  29.455  1.00  0.00     0.049 A 
ATOM     52  H   UNL A   1      40.369  29.234  30.946  1.00  0.00     0.167 HD
ATOM     53  C   UNL A   1      43.465  28.453  33.918  1.00  0.00     0.034 A 
ATOM     54  C   UNL A   1      38.020  30.418  29.974  1.00  0.00     0.034 A 
ATOM     55  C   UNL A   1      42.586  29.438  34.506  1.00  0.00     0.049 A 
ATOM     56  C   UNL A   1      38.200  30.940  31.376  1.00  0.00     0.074 A 
ATOM     57  C   UNL A   1      42.695  30.045  35.747  1.00  0.00     0.029 A 
ATOM     58  N   UNL A   1      41.437  29.950  33.919  1.00  0.00    -0.354 N 
ATOM     59  N   UNL A   1      39.182  30.716  32.218  1.00  0.00    -0.248 NA
ATOM     60  C   UNL A   1      37.163  31.841  31.896  1.00  0.00     0.031 C 
ATOM     61  C   UNL A   1      41.577  30.854  35.942  1.00  0.00     0.029 A 
ATOM     62  C   UNL A   1      40.811  30.832  34.788  1.00  0.00     0.049 A 
ATOM     63  H   UNL A   1      41.113  29.721  33.017  1.00  0.00     0.167 HD
ATOM     64  C   UNL A   1      38.895  31.468  33.353  1.00  0.00     0.074 A 
ATOM     65  C   UNL A   1      37.662  32.176  33.080  1.00  0.00     0.031 C 
ATOM     66  C   UNL A   1      39.590  31.557  34.516  1.00  0.00     0.034 A 
BRANCH  53  67
ATOM     67  C   UNL A   1      44.633  27.992  34.757  1.00  0.00     0.023 A 
ATOM     68  C   UNL A   1      44.441  27.039  35.777  1.00  0.00     0.031 A 
ATOM     69  C   UNL A   1      45.883  28.633  34.677  1.00  0.00     0.131 A 
ATOM     70  C   UNL A   1      45.463  26.792  36.704  1.00  0.00     0.055 A 
ATOM     71  C   UNL A   1      46.913  28.349  35.576  1.00  0.00     0.041 A 
ATOM     72  F   UNL A   1      46.115  29.558  33.732  1.00  0.00    -0.206 F 
ATOM     73  C   UNL A   1      46.699  27.438  36.606  1.00  0.00     0.022 A 
BRANCH  70  74
ATOM     74  S   UNL A   1      45.198  25.699  38.129  1.00  0.00     0.124 S 
ATOM     75  O   UNL A   1      45.076  24.393  37.483  1.00  0.00    -0.237 OA
ATOM     76  O   UNL A   1      46.421  25.901  38.901  1.00  0.00    -0.237 OA
ATOM     77  O   UNL A   1      43.973  26.206  38.737  1.00  0.00    -0.744 OA
ENDBRANCH  70  74
ENDBRANCH  53  67
BRANCH  54  78
ATOM     78  C   UNL A   1      36.876  30.841  29.113  1.00  0.00     0.023 A 
ATOM     79  C   UNL A   1      36.486  32.191  29.049  1.00  0.00     0.031 A 
ATOM     80  C   UNL A   1      36.087  29.893  28.441  1.00  0.00     0.131 A 
ATOM     81  C   UNL A   1      35.300  32.544  28.392  1.00  0.00     0.055 A 
ATOM     82  C   UNL A   1      34.950  30.259  27.721  1.00  0.00     0.041 A 
ATOM     83  F   UNL A   1      36.408  28.591  28.489  1.00  0.00    -0.206 F 
ATOM     84  C   UNL A   1      34.540  31.589  27.710  1.00  0.00     0.022 A 
BRANCH  81  85
ATOM     85  S   UNL A   1      34.627  34.223  28.529  1.00  0.00     0.124 S 
ATOM     86  O   UNL A   1      34.656  34.676  27.142  1.00  0.00    -0.237 OA
ATOM     87  O   UNL A   1      33.300  33.967  29.084  1.00  0.00    -0.237 OA
ATOM     88  O   UNL A   1      35.557  34.894  29.432  1.00  0.00    -0.744 OA
ENDBRANCH  81  85
ENDBRANCH  54  78
BRANCH  66  89
ATOM     89  C   UNL A   1      39.066  32.454  35.616  1.00  0.00     0.023 A 
ATOM     90  C   UNL A   1      39.542  33.775  35.733  1.00  0.00     0.031 A 
ATOM     91  C   UNL A   1      38.232  31.959  36.633  1.00  0.00     0.131 A 
ATOM     92  C   UNL A   1      39.226  34.535  36.867  1.00  0.00     0.055 A 
ATOM     93  C   UNL A   1      37.871  32.742  37.732  1.00  0.00     0.041 A 
ATOM     94  F   UNL A   1      37.759  30.705  36.579  1.00  0.00    -0.206 F 
ATOM     95  C   UNL A   1      38.384  34.030  37.861  1.00  0.00     0.022 A 
BRANCH  92  96
ATOM     96  S   UNL A   1      39.975  36.166  37.142  1.00  0.00     0.124 S 
ATOM     97  O   UNL A   1      39.104  36.730  38.170  1.00  0.00    -0.237 OA
ATOM     98  O   UNL A   1      41.320  35.813  37.590  1.00  0.00    -0.237 OA
ATOM     99  O   UNL A   1      39.897  36.815  35.838  1.00  0.00    -0.744 OA
ENDBRANCH  92  96
ENDBRANCH  66  89
ENDBRANCH  40  41
ENDBRANCH  33  35
ENDBRANCH  32  33
ENDBRANCH  31  32
ENDBRANCH  30  31
ENDBRANCH  29  30
ENDBRANCH  28  29
ENDBRANCH   1  28
TORSDOF 24
ENDMDL
MODEL 3
REMARK VINA RESULT:      -8.8      3.814      9.228
REMARK SMILES CC(C)CSc1cc2c(cc1Cl)C=C(C(=O)OCCOCCOCCOC(=O)c1ccc(-c3c4nc(c(-c5cc(S(=O)(=O)[O-])ccc5F)c5ccc([nH]5)c(-c5cc(S(=O)(=O)[O-])ccc5F)c5nc(c(-c6cc(S(=O)(=O)[O-])ccc6F)c6ccc3[nH]6)C=C5)C=C4)cc1)[C@@H](C(F)(F)F)O2
REMARK SMILES IDX 21 1 20 2 19 3 18 4 17 5 15 6 16 7 14 8 6 9 7 10 11 11 8 12
REMARK SMILES IDX 10 13 12 14 9 15 97 16 13 17 92 18 5 19 4 20 2 21 1 22 3 23
REMARK SMILES IDX 93 24 94 25 95 26 96 27 22 28 23 29 24 30 25 31 26 32 27 33
REMARK SMILES IDX 28 34 29 35 30 36 91 37 31 38 90 39 32 40 33 41 34 42 84 43
REMARK SMILES IDX 35 44 89 45 83 46 85 47 36 48 88 49 82 50 81 51 37 53 69 54
REMARK SMILES IDX 49 55 68 56 50 57 53 58 67 59 86 60 51 61 52 62 66 64 87 65
REMARK SMILES IDX 54 66 38 67 39 68 47 69 40 70 46 71 48 72 45 73 41 74 42 75
REMARK SMILES IDX 43 76 44 77 70 78 71 79 79 80 72 81 78 82 80 83 77 84 73 85
REMARK SMILES IDX 74 86 75 87 76 88 55 89 56 90 64 91 57 92 63 93 65 94 62 95
REMARK SMILES IDX 58 96 59 97 60 98 61 99
REMARK H PARENT 85 52 53 63
REMARK Flexibility Score: inf
ROOT
ATOM      1  C   UNL A   1      39.956  20.586  26.500  1.00  0.00     0.188 C 
ENDROOT
BRANCH   1   2
ATOM      2  O   UNL A   1      38.718  21.154  26.128  1.00  0.00    -0.376 OA
BRANCH   2   3
ATOM      3  C   UNL A   1      38.037  20.635  24.999  1.00  0.00     0.202 C 
BRANCH   3   4
ATOM      4  C   UNL A   1      36.563  20.195  25.074  1.00  0.00     0.261 C 
BRANCH   4   5
ATOM      5  O   UNL A   1      35.581  21.163  24.697  1.00  0.00    -0.460 OA
BRANCH   5   6
ATOM      6  C   UNL A   1      36.024  22.310  24.123  1.00  0.00     0.338 C 
ATOM      7  O   UNL A   1      37.043  22.462  23.499  1.00  0.00    -0.246 OA
BRANCH   6   8
ATOM      8  C   UNL A   1      34.967  23.336  24.306  1.00  0.00     0.087 C 
ATOM      9  C   UNL A   1      31.989  27.395  24.286  1.00  0.00     0.030 A 
ATOM     10  C   UNL A   1      32.142  26.247  25.054  1.00  0.00     0.063 A 
ATOM     11  C   UNL A   1      32.818  27.517  23.158  1.00  0.00     0.055 A 
ATOM     12  C   UNL A   1      33.054  25.250  24.741  1.00  0.00     0.129 A 
ATOM     13  C   UNL A   1      33.786  26.532  22.860  1.00  0.00     0.033 A 
ATOM     14  Cl  UNL A   1      32.719  28.875  22.090  1.00  0.00    -0.083 Cl
ATOM     15  C   UNL A   1      33.919  25.396  23.670  1.00  0.00     0.019 A 
ATOM     16  O   UNL A   1      33.000  24.175  25.571  1.00  0.00    -0.475 OA
ATOM     17  C   UNL A   1      34.958  24.392  23.476  1.00  0.00     0.027 C 
ATOM     18  C   UNL A   1      33.926  23.089  25.371  1.00  0.00     0.316 C 
BRANCH   9  19
ATOM     19  S   UNL A   1      30.690  28.559  24.730  1.00  0.00    -0.124 SA
BRANCH  19  20
ATOM     20  C   UNL A   1      29.534  28.505  23.294  1.00  0.00     0.078 C 
BRANCH  20  21
ATOM     21  C   UNL A   1      28.856  29.850  22.937  1.00  0.00    -0.007 C 
ATOM     22  C   UNL A   1      29.183  31.019  23.868  1.00  0.00     0.008 C 
ATOM     23  C   UNL A   1      29.260  30.258  21.513  1.00  0.00     0.008 C 
ENDBRANCH  20  21
ENDBRANCH  19  20
ENDBRANCH   9  19
BRANCH  18  24
ATOM     24  C   UNL A   1      34.504  22.757  26.753  1.00  0.00     0.430 C 
ATOM     25  F   UNL A   1      35.791  23.177  26.852  1.00  0.00    -0.167 F 
ATOM     26  F   UNL A   1      33.828  23.357  27.758  1.00  0.00    -0.167 F 
ATOM     27  F   UNL A   1      34.499  21.426  26.995  1.00  0.00    -0.167 F 
ENDBRANCH  18  24
ENDBRANCH   6   8
ENDBRANCH   5   6
ENDBRANCH   4   5
ENDBRANCH   3   4
ENDBRANCH   2   3
ENDBRANCH   1   2
BRANCH   1  28
ATOM     28  C   UNL A   1      41.157  21.485  26.135  1.00  0.00     0.188 C 
BRANCH  28  29
ATOM     29  O   UNL A   1      42.293  20.918  25.493  1.00  0.00    -0.376 OA
BRANCH  29  30
ATOM     30  C   UNL A   1      43.551  21.577  25.606  1.00  0.00     0.202 C 
BRANCH  30  31
ATOM     31  C   UNL A   1      44.035  22.560  24.521  1.00  0.00     0.261 C 
BRANCH  31  32
ATOM     32  O   UNL A   1      43.499  23.890  24.579  1.00  0.00    -0.460 OA
BRANCH  32  33
ATOM     33  C   UNL A   1      44.338  24.853  25.046  1.00  0.00     0.338 C 
ATOM     34  O   UNL A   1      45.396  25.201  24.553  1.00  0.00    -0.246 OA
BRANCH  33  35
ATOM     35  C   UNL A   1      43.658  25.582  26.141  1.00  0.00     0.060 A 
ATOM     36  C   UNL A   1      42.710  24.947  26.942  1.00  0.00     0.016 A 
ATOM     37  C   UNL A   1      43.966  26.935  26.347  1.00  0.00     0.016 A 
ATOM     38  C   UNL A   1      42.080  25.667  27.962  1.00  0.00     0.010 A 
ATOM     39  C   UNL A   1      43.320  27.658  27.355  1.00  0.00     0.010 A 
ATOM     40  C   UNL A   1      42.386  27.024  28.184  1.00  0.00    -0.014 A 
BRANCH  40  41
ATOM     41  C   UNL A   1      41.869  27.706  29.398  1.00  0.00     0.031 A 
ATOM     42  C   UNL A   1      42.564  27.628  30.724  1.00  0.00     0.074 A 
ATOM     43  C   UNL A   1      40.728  28.413  29.279  1.00  0.00     0.049 A 
ATOM     44  N   UNL A   1      42.285  28.266  31.830  1.00  0.00    -0.248 NA
ATOM     45  C   UNL A   1      43.711  26.716  30.829  1.00  0.00     0.031 C 
ATOM     46  C   UNL A   1      39.943  28.513  28.048  1.00  0.00     0.029 A 
ATOM     47  N   UNL A   1      40.035  29.178  30.182  1.00  0.00    -0.354 N 
ATOM     48  C   UNL A   1      43.232  27.858  32.762  1.00  0.00     0.074 A 
ATOM     49  C   UNL A   1      44.064  26.872  32.100  1.00  0.00     0.031 C 
ATOM     50  C   UNL A   1      38.894  29.318  28.263  1.00  0.00     0.029 A 
ATOM     51  C   UNL A   1      38.911  29.769  29.653  1.00  0.00     0.049 A 
ATOM     52  H   UNL A   1      40.316  29.294  31.119  1.00  0.00     0.167 HD
ATOM     53  C   UNL A   1      43.397  28.287  34.037  1.00  0.00     0.034 A 
ATOM     54  C   UNL A   1      37.997  30.587  30.215  1.00  0.00     0.034 A 
ATOM     55  C   UNL A   1      42.546  29.265  34.676  1.00  0.00     0.049 A 
ATOM     56  C   UNL A   1      38.195  31.036  31.640  1.00  0.00     0.074 A 
ATOM     57  C   UNL A   1      42.676  29.808  35.944  1.00  0.00     0.029 A 
ATOM     58  N   UNL A   1      41.410  29.836  34.119  1.00  0.00    -0.354 N 
ATOM     59  N   UNL A   1      39.173  30.745  32.466  1.00  0.00    -0.248 NA
ATOM     60  C   UNL A   1      37.185  31.938  32.207  1.00  0.00     0.031 C 
ATOM     61  C   UNL A   1      41.580  30.637  36.183  1.00  0.00     0.029 A 
ATOM     62  C   UNL A   1      40.812  30.691  35.032  1.00  0.00     0.049 A 
ATOM     63  H   UNL A   1      41.078  29.660  33.209  1.00  0.00     0.167 HD
ATOM     64  C   UNL A   1      38.909  31.448  33.637  1.00  0.00     0.074 A 
ATOM     65  C   UNL A   1      37.695  32.201  33.404  1.00  0.00     0.031 C 
ATOM     66  C   UNL A   1      39.609  31.461  34.800  1.00  0.00     0.034 A 
BRANCH  53  67
ATOM     67  C   UNL A   1      44.555  27.754  34.849  1.00  0.00     0.023 A 
ATOM     68  C   UNL A   1      44.350  26.714  35.778  1.00  0.00     0.031 A 
ATOM     69  C   UNL A   1      45.804  28.401  34.843  1.00  0.00     0.131 A 
ATOM     70  C   UNL A   1      45.360  26.387  36.693  1.00  0.00     0.055 A 
ATOM     71  C   UNL A   1      46.822  28.039  35.727  1.00  0.00     0.041 A 
ATOM     72  F   UNL A   1      46.047  29.405  33.986  1.00  0.00    -0.206 F 
ATOM     73  C   UNL A   1      46.596  27.040  36.669  1.00  0.00     0.022 A 
BRANCH  70  74
ATOM     74  S   UNL A   1      45.077  25.172  38.012  1.00  0.00     0.124 S 
ATOM     75  O   UNL A   1      45.239  23.910  37.293  1.00  0.00    -0.237 OA
ATOM     76  O   UNL A   1      46.144  25.493  38.956  1.00  0.00    -0.237 OA
ATOM     77  O   UNL A   1      43.722  25.457  38.467  1.00  0.00    -0.744 OA
ENDBRANCH  70  74
ENDBRANCH  53  67
BRANCH  54  78
ATOM     78  C   UNL A   1      36.863  31.082  29.380  1.00  0.00     0.023 A 
ATOM     79  C   UNL A   1      35.901  30.190  28.873  1.00  0.00     0.031 A 
ATOM     80  C   UNL A   1      36.792  32.427  28.982  1.00  0.00     0.131 A 
ATOM     81  C   UNL A   1      34.958  30.638  27.938  1.00  0.00     0.055 A 
ATOM     82  C   UNL A   1      35.800  32.886  28.114  1.00  0.00     0.041 A 
ATOM     83  F   UNL A   1      37.697  33.312  29.425  1.00  0.00    -0.206 F 
ATOM     84  C   UNL A   1      34.889  31.986  27.572  1.00  0.00     0.022 A 
BRANCH  81  85
ATOM     85  S   UNL A   1      33.891  29.464  27.060  1.00  0.00     0.124 S 
ATOM     86  O   UNL A   1      32.580  29.757  27.630  1.00  0.00    -0.237 OA
ATOM     87  O   UNL A   1      34.081  29.873  25.670  1.00  0.00    -0.237 OA
ATOM     88  O   UNL A   1      34.454  28.163  27.405  1.00  0.00    -0.744 OA
ENDBRANCH  81  85
ENDBRANCH  54  78
BRANCH  66  89
ATOM     89  C   UNL A   1      39.113  32.318  35.944  1.00  0.00     0.023 A 
ATOM     90  C   UNL A   1      38.387  31.730  36.999  1.00  0.00     0.031 A 
ATOM     91  C   UNL A   1      39.213  33.719  35.911  1.00  0.00     0.131 A 
ATOM     92  C   UNL A   1      37.744  32.542  37.944  1.00  0.00     0.055 A 
ATOM     93  C   UNL A   1      38.621  34.521  36.889  1.00  0.00     0.041 A 
ATOM     94  F   UNL A   1      39.883  34.332  34.923  1.00  0.00    -0.206 F 
ATOM     95  C   UNL A   1      37.867  33.934  37.901  1.00  0.00     0.022 A 
BRANCH  92  96
ATOM     96  S   UNL A   1      36.646  31.829  39.201  1.00  0.00     0.124 S 
ATOM     97  O   UNL A   1      36.501  30.452  38.732  1.00  0.00    -0.237 OA
ATOM     98  O   UNL A   1      37.432  31.990  40.422  1.00  0.00    -0.237 OA
ATOM     99  O   UNL A   1      35.439  32.643  39.119  1.00  0.00    -0.744 OA
ENDBRANCH  92  96
ENDBRANCH  66  89
ENDBRANCH  40  41
ENDBRANCH  33  35
ENDBRANCH  32  33
ENDBRANCH  31  32
ENDBRANCH  30  31
ENDBRANCH  29  30
ENDBRANCH  28  29
ENDBRANCH   1  28
TORSDOF 24
ENDMDL
