MODEL 1
REMARK VINA RESULT:      -9.7      0.000      0.000
REMARK SMILES CCC(C)(C)NC(=O)[C@@H](C)Oc1ccc(C)nc1C(=O)OCCOCCOCCOC(=O)c1ccc(-c2c3nc(c(-c4cc(S(=O)(=O)[O-])ccc4F)c4ccc([nH]4)c(-c4cc(S(=O)(=O)[O-])ccc4F)c4nc(c(-c5cc(S(=O)(=O)[O-])ccc5F)c5ccc2[nH]5)C=C4)C=C3)cc1
REMARK SMILES IDX 25 1 24 2 23 3 22 4 21 5 19 6 20 7 18 8 12 9 13 10 14 11
REMARK SMILES IDX 17 12 15 13 16 14 11 15 9 16 10 17 7 18 6 19 8 21 3 22 4 23
REMARK SMILES IDX 5 24 2 25 1 26 26 27 27 28 28 29 29 30 30 31 31 32 32 33
REMARK SMILES IDX 33 34 34 35 95 36 35 37 94 38 36 39 37 40 38 41 88 42 39 43
REMARK SMILES IDX 93 44 87 45 89 46 40 47 92 48 86 49 85 50 41 52 73 53 53 54
REMARK SMILES IDX 72 55 54 56 57 57 71 58 90 59 55 60 56 61 70 63 91 64 58 65
REMARK SMILES IDX 42 66 43 67 51 68 44 69 50 70 52 71 49 72 45 73 46 74 47 75
REMARK SMILES IDX 48 76 74 77 75 78 83 79 76 80 82 81 84 82 81 83 77 84 78 85
REMARK SMILES IDX 79 86 80 87 59 88 60 89 68 90 61 91 67 92 69 93 66 94 62 95
REMARK SMILES IDX 63 96 64 97 65 98
REMARK H PARENT 6 20 89 51 57 62
REMARK Flexibility Score: inf
ROOT
ATOM      1  C   UNL A   1      35.339  21.944  26.160  1.00  0.00     0.188 C 
ENDROOT
BRANCH   1   2
ATOM      2  O   UNL A   1      33.924  22.051  26.022  1.00  0.00    -0.376 OA
BRANCH   2   3
ATOM      3  C   UNL A   1      33.194  22.487  27.165  1.00  0.00     0.202 C 
BRANCH   3   4
ATOM      4  C   UNL A   1      31.692  22.771  26.988  1.00  0.00     0.261 C 
BRANCH   4   5
ATOM      5  O   UNL A   1      31.257  24.093  27.370  1.00  0.00    -0.458 OA
BRANCH   5   6
ATOM      6  C   UNL A   1      30.924  24.899  26.322  1.00  0.00     0.360 C 
ATOM      7  O   UNL A   1      29.848  25.462  26.167  1.00  0.00    -0.244 OA
BRANCH   6   8
ATOM      8  C   UNL A   1      32.069  25.156  25.408  1.00  0.00     0.190 A 
ATOM      9  C   UNL A   1      33.141  25.975  25.759  1.00  0.00     0.153 A 
ATOM     10  C   UNL A   1      34.339  25.732  25.102  1.00  0.00     0.051 A 
ATOM     11  C   UNL A   1      34.355  24.929  23.960  1.00  0.00     0.027 A 
ATOM     12  N   UNL A   1      32.049  24.409  24.261  1.00  0.00    -0.243 NA
ATOM     13  C   UNL A   1      33.163  24.395  23.501  1.00  0.00     0.039 A 
ATOM     14  C   UNL A   1      33.051  23.857  22.104  1.00  0.00     0.067 C 
BRANCH   9  15
ATOM     15  O   UNL A   1      32.992  26.992  26.650  1.00  0.00    -0.478 OA
BRANCH  15  16
ATOM     16  C   UNL A   1      33.114  28.350  26.182  1.00  0.00     0.259 C 
ATOM     17  C   UNL A   1      34.063  29.150  27.096  1.00  0.00     0.064 C 
BRANCH  16  18
ATOM     18  C   UNL A   1      32.045  29.317  25.510  1.00  0.00     0.261 C 
ATOM     19  N   UNL A   1      31.032  28.943  24.662  1.00  0.00    -0.348 N 
ATOM     20  H   UNL A   1      30.164  28.866  25.119  1.00  0.00     0.164 HD
ATOM     21  O   UNL A   1      31.976  30.487  25.920  1.00  0.00    -0.271 OA
BRANCH  19  22
ATOM     22  C   UNL A   1      30.943  28.624  23.188  1.00  0.00     0.034 C 
ATOM     23  C   UNL A   1      30.394  27.193  22.985  1.00  0.00     0.034 C 
ATOM     24  C   UNL A   1      32.418  28.577  22.683  1.00  0.00     0.034 C 
BRANCH  22  25
ATOM     25  C   UNL A   1      30.280  29.643  22.216  1.00  0.00     0.024 C 
ATOM     26  C   UNL A   1      28.794  29.639  22.052  1.00  0.00     0.006 C 
ENDBRANCH  22  25
ENDBRANCH  19  22
ENDBRANCH  16  18
ENDBRANCH  15  16
ENDBRANCH   9  15
ENDBRANCH   6   8
ENDBRANCH   5   6
ENDBRANCH   4   5
ENDBRANCH   3   4
ENDBRANCH   2   3
ENDBRANCH   1   2
BRANCH   1  27
ATOM     27  C   UNL A   1      36.017  20.961  25.211  1.00  0.00     0.188 C 
BRANCH  27  28
ATOM     28  O   UNL A   1      37.359  21.261  24.887  1.00  0.00    -0.376 OA
BRANCH  28  29
ATOM     29  C   UNL A   1      38.366  20.316  25.238  1.00  0.00     0.202 C 
BRANCH  29  30
ATOM     30  C   UNL A   1      39.683  20.716  25.961  1.00  0.00     0.261 C 
BRANCH  30  31
ATOM     31  O   UNL A   1      40.550  19.687  26.477  1.00  0.00    -0.460 OA
BRANCH  31  32
ATOM     32  C   UNL A   1      41.857  19.731  26.129  1.00  0.00     0.338 C 
ATOM     33  O   UNL A   1      42.464  18.846  25.537  1.00  0.00    -0.246 OA
BRANCH  32  34
ATOM     34  C   UNL A   1      42.361  21.124  26.314  1.00  0.00     0.060 A 
ATOM     35  C   UNL A   1      42.583  21.576  27.625  1.00  0.00     0.016 A 
ATOM     36  C   UNL A   1      42.677  21.961  25.239  1.00  0.00     0.016 A 
ATOM     37  C   UNL A   1      43.081  22.863  27.867  1.00  0.00     0.010 A 
ATOM     38  C   UNL A   1      43.153  23.260  25.483  1.00  0.00     0.010 A 
ATOM     39  C   UNL A   1      43.331  23.733  26.798  1.00  0.00    -0.014 A 
BRANCH  39  40
ATOM     40  C   UNL A   1      43.577  25.183  27.042  1.00  0.00     0.031 A 
ATOM     41  C   UNL A   1      44.965  25.720  26.802  1.00  0.00     0.074 A 
ATOM     42  C   UNL A   1      42.610  26.020  27.463  1.00  0.00     0.049 A 
ATOM     43  N   UNL A   1      45.457  26.910  27.033  1.00  0.00    -0.248 NA
ATOM     44  C   UNL A   1      45.927  24.769  26.230  1.00  0.00     0.031 C 
ATOM     45  C   UNL A   1      41.209  25.661  27.668  1.00  0.00     0.029 A 
ATOM     46  N   UNL A   1      42.669  27.351  27.804  1.00  0.00    -0.354 N 
ATOM     47  C   UNL A   1      46.795  26.847  26.652  1.00  0.00     0.074 A 
ATOM     48  C   UNL A   1      47.037  25.488  26.215  1.00  0.00     0.031 C 
ATOM     49  C   UNL A   1      40.542  26.746  28.105  1.00  0.00     0.029 A 
ATOM     50  C   UNL A   1      41.475  27.862  28.258  1.00  0.00     0.049 A 
ATOM     51  H   UNL A   1      43.491  27.889  27.729  1.00  0.00     0.167 HD
ATOM     52  C   UNL A   1      47.733  27.828  26.661  1.00  0.00     0.034 A 
ATOM     53  C   UNL A   1      41.177  29.078  28.766  1.00  0.00     0.034 A 
ATOM     54  C   UNL A   1      47.486  29.175  27.121  1.00  0.00     0.049 A 
ATOM     55  C   UNL A   1      42.268  30.119  28.895  1.00  0.00     0.074 A 
ATOM     56  C   UNL A   1      48.359  30.248  27.155  1.00  0.00     0.029 A 
ATOM     57  N   UNL A   1      46.284  29.628  27.650  1.00  0.00    -0.354 N 
ATOM     58  N   UNL A   1      43.528  30.051  28.532  1.00  0.00    -0.248 NA
ATOM     59  C   UNL A   1      41.889  31.401  29.506  1.00  0.00     0.031 C 
ATOM     60  C   UNL A   1      47.717  31.317  27.789  1.00  0.00     0.029 A 
ATOM     61  C   UNL A   1      46.409  30.949  28.059  1.00  0.00     0.049 A 
ATOM     62  H   UNL A   1      45.463  29.091  27.723  1.00  0.00     0.167 HD
ATOM     63  C   UNL A   1      44.080  31.296  28.835  1.00  0.00     0.074 A 
ATOM     64  C   UNL A   1      43.014  32.094  29.405  1.00  0.00     0.031 C 
ATOM     65  C   UNL A   1      45.349  31.741  28.644  1.00  0.00     0.034 A 
BRANCH  52  66
ATOM     66  C   UNL A   1      49.130  27.444  26.225  1.00  0.00     0.023 A 
ATOM     67  C   UNL A   1      50.150  27.177  27.155  1.00  0.00     0.031 A 
ATOM     68  C   UNL A   1      49.467  27.419  24.859  1.00  0.00     0.131 A 
ATOM     69  C   UNL A   1      51.472  27.011  26.716  1.00  0.00     0.055 A 
ATOM     70  C   UNL A   1      50.766  27.149  24.425  1.00  0.00     0.041 A 
ATOM     71  F   UNL A   1      48.545  27.687  23.921  1.00  0.00    -0.206 F 
ATOM     72  C   UNL A   1      51.783  26.967  25.357  1.00  0.00     0.022 A 
BRANCH  69  73
ATOM     73  S   UNL A   1      52.801  27.064  27.951  1.00  0.00     0.124 S 
ATOM     74  O   UNL A   1      53.397  25.739  27.803  1.00  0.00    -0.237 OA
ATOM     75  O   UNL A   1      53.614  28.185  27.493  1.00  0.00    -0.237 OA
ATOM     76  O   UNL A   1      52.091  27.280  29.210  1.00  0.00    -0.744 OA
ENDBRANCH  69  73
ENDBRANCH  52  66
BRANCH  53  77
ATOM     77  C   UNL A   1      39.789  29.388  29.220  1.00  0.00     0.023 A 
ATOM     78  C   UNL A   1      39.464  29.388  30.586  1.00  0.00     0.031 A 
ATOM     79  C   UNL A   1      38.759  29.642  28.298  1.00  0.00     0.131 A 
ATOM     80  C   UNL A   1      38.137  29.605  30.990  1.00  0.00     0.055 A 
ATOM     81  C   UNL A   1      37.451  29.910  28.708  1.00  0.00     0.041 A 
ATOM     82  F   UNL A   1      39.012  29.641  26.979  1.00  0.00    -0.206 F 
ATOM     83  C   UNL A   1      37.132  29.884  30.062  1.00  0.00     0.022 A 
BRANCH  80  84
ATOM     84  S   UNL A   1      37.730  29.448  32.752  1.00  0.00     0.124 S 
ATOM     85  O   UNL A   1      38.871  30.105  33.378  1.00  0.00    -0.237 OA
ATOM     86  O   UNL A   1      36.457  30.159  32.833  1.00  0.00    -0.237 OA
ATOM     87  O   UNL A   1      37.649  28.005  32.956  1.00  0.00    -0.744 OA
ENDBRANCH  80  84
ENDBRANCH  53  77
BRANCH  65  88
ATOM     88  C   UNL A   1      45.648  33.179  29.006  1.00  0.00     0.023 A 
ATOM     89  C   UNL A   1      46.135  33.548  30.273  1.00  0.00     0.031 A 
ATOM     90  C   UNL A   1      45.438  34.202  28.062  1.00  0.00     0.131 A 
ATOM     91  C   UNL A   1      46.344  34.903  30.577  1.00  0.00     0.055 A 
ATOM     92  C   UNL A   1      45.712  35.541  28.347  1.00  0.00     0.041 A 
ATOM     93  F   UNL A   1      44.968  33.915  26.837  1.00  0.00    -0.206 F 
ATOM     94  C   UNL A   1      46.155  35.899  29.616  1.00  0.00     0.022 A 
BRANCH  91  95
ATOM     95  S   UNL A   1      46.772  35.362  32.280  1.00  0.00     0.124 S 
ATOM     96  O   UNL A   1      45.641  34.827  33.031  1.00  0.00    -0.237 OA
ATOM     97  O   UNL A   1      48.047  34.680  32.477  1.00  0.00    -0.237 OA
ATOM     98  O   UNL A   1      46.852  36.821  32.233  1.00  0.00    -0.744 OA
ENDBRANCH  91  95
ENDBRANCH  65  88
ENDBRANCH  39  40
ENDBRANCH  32  34
ENDBRANCH  31  32
ENDBRANCH  30  31
ENDBRANCH  29  30
ENDBRANCH  28  29
ENDBRANCH  27  28
ENDBRANCH   1  27
TORSDOF 25
ENDMDL
MODEL 2
REMARK VINA RESULT:      -9.2      2.622      3.536
REMARK SMILES CCC(C)(C)NC(=O)[C@@H](C)Oc1ccc(C)nc1C(=O)OCCOCCOCCOC(=O)c1ccc(-c2c3nc(c(-c4cc(S(=O)(=O)[O-])ccc4F)c4ccc([nH]4)c(-c4cc(S(=O)(=O)[O-])ccc4F)c4nc(c(-c5cc(S(=O)(=O)[O-])ccc5F)c5ccc2[nH]5)C=C4)C=C3)cc1
REMARK SMILES IDX 25 1 24 2 23 3 22 4 21 5 19 6 20 7 18 8 12 9 13 10 14 11
REMARK SMILES IDX 17 12 15 13 16 14 11 15 9 16 10 17 7 18 6 19 8 21 3 22 4 23
REMARK SMILES IDX 5 24 2 25 1 26 26 27 27 28 28 29 29 30 30 31 31 32 32 33
REMARK SMILES IDX 33 34 34 35 95 36 35 37 94 38 36 39 37 40 38 41 88 42 39 43
REMARK SMILES IDX 93 44 87 45 89 46 40 47 92 48 86 49 85 50 41 52 73 53 53 54
REMARK SMILES IDX 72 55 54 56 57 57 71 58 90 59 55 60 56 61 70 63 91 64 58 65
REMARK SMILES IDX 42 66 43 67 51 68 44 69 50 70 52 71 49 72 45 73 46 74 47 75
REMARK SMILES IDX 48 76 74 77 75 78 83 79 76 80 82 81 84 82 81 83 77 84 78 85
REMARK SMILES IDX 79 86 80 87 59 88 60 89 68 90 61 91 67 92 69 93 66 94 62 95
REMARK SMILES IDX 63 96 64 97 65 98
REMARK H PARENT 6 20 89 51 57 62
REMARK Flexibility Score: inf
ROOT
ATOM      1  C   UNL A   1      35.195  22.600  26.463  1.00  0.00     0.188 C 
ENDROOT
BRANCH   1   2
ATOM      2  O   UNL A   1      33.851  22.238  26.151  1.00  0.00    -0.376 OA
BRANCH   2   3
ATOM      3  C   UNL A   1      32.864  22.504  27.143  1.00  0.00     0.202 C 
BRANCH   3   4
ATOM      4  C   UNL A   1      31.452  22.882  26.663  1.00  0.00     0.261 C 
BRANCH   4   5
ATOM      5  O   UNL A   1      30.924  24.118  27.189  1.00  0.00    -0.458 OA
BRANCH   5   6
ATOM      6  C   UNL A   1      30.653  25.061  26.242  1.00  0.00     0.360 C 
ATOM      7  O   UNL A   1      29.614  25.702  26.148  1.00  0.00    -0.244 OA
BRANCH   6   8
ATOM      8  C   UNL A   1      31.824  25.354  25.372  1.00  0.00     0.190 A 
ATOM      9  C   UNL A   1      32.866  26.188  25.773  1.00  0.00     0.153 A 
ATOM     10  C   UNL A   1      34.091  25.978  25.153  1.00  0.00     0.051 A 
ATOM     11  C   UNL A   1      34.161  25.195  24.000  1.00  0.00     0.027 A 
ATOM     12  N   UNL A   1      31.857  24.626  24.213  1.00  0.00    -0.243 NA
ATOM     13  C   UNL A   1      32.997  24.646  23.492  1.00  0.00     0.039 A 
ATOM     14  C   UNL A   1      32.943  24.129  22.084  1.00  0.00     0.067 C 
BRANCH   9  15
ATOM     15  O   UNL A   1      32.668  27.187  26.674  1.00  0.00    -0.478 OA
BRANCH  15  16
ATOM     16  C   UNL A   1      32.823  28.554  26.243  1.00  0.00     0.259 C 
ATOM     17  C   UNL A   1      33.700  29.336  27.240  1.00  0.00     0.064 C 
BRANCH  16  18
ATOM     18  C   UNL A   1      31.807  29.534  25.510  1.00  0.00     0.261 C 
ATOM     19  N   UNL A   1      30.749  29.163  24.718  1.00  0.00    -0.348 N 
ATOM     20  H   UNL A   1      29.889  29.187  25.198  1.00  0.00     0.164 HD
ATOM     21  O   UNL A   1      31.830  30.736  25.820  1.00  0.00    -0.271 OA
BRANCH  19  22
ATOM     22  C   UNL A   1      30.600  28.727  23.280  1.00  0.00     0.034 C 
ATOM     23  C   UNL A   1      29.767  27.426  23.200  1.00  0.00     0.034 C 
ATOM     24  C   UNL A   1      32.034  28.329  22.815  1.00  0.00     0.034 C 
BRANCH  22  25
ATOM     25  C   UNL A   1      30.165  29.762  22.200  1.00  0.00     0.024 C 
ATOM     26  C   UNL A   1      28.723  29.855  21.814  1.00  0.00     0.006 C 
ENDBRANCH  22  25
ENDBRANCH  19  22
ENDBRANCH  16  18
ENDBRANCH  15  16
ENDBRANCH   9  15
ENDBRANCH   6   8
ENDBRANCH   5   6
ENDBRANCH   4   5
ENDBRANCH   3   4
ENDBRANCH   2   3
ENDBRANCH   1   2
BRANCH   1  27
ATOM     27  C   UNL A   1      36.260  21.601  26.023  1.00  0.00     0.188 C 
BRANCH  27  28
ATOM     28  O   UNL A   1      37.286  22.130  25.208  1.00  0.00    -0.376 OA
BRANCH  28  29
ATOM     29  C   UNL A   1      38.618  21.668  25.413  1.00  0.00     0.202 C 
BRANCH  29  30
ATOM     30  C   UNL A   1      39.522  22.185  26.569  1.00  0.00     0.261 C 
BRANCH  30  31
ATOM     31  O   UNL A   1      40.881  21.717  26.669  1.00  0.00    -0.460 OA
BRANCH  31  32
ATOM     32  C   UNL A   1      41.851  22.478  26.111  1.00  0.00     0.338 C 
ATOM     33  O   UNL A   1      42.504  22.179  25.117  1.00  0.00    -0.246 OA
BRANCH  32  34
ATOM     34  C   UNL A   1      41.801  23.844  26.711  1.00  0.00     0.060 A 
ATOM     35  C   UNL A   1      41.564  24.931  25.854  1.00  0.00     0.016 A 
ATOM     36  C   UNL A   1      41.915  24.069  28.087  1.00  0.00     0.016 A 
ATOM     37  C   UNL A   1      41.478  26.236  26.357  1.00  0.00     0.010 A 
ATOM     38  C   UNL A   1      41.853  25.380  28.587  1.00  0.00     0.010 A 
ATOM     39  C   UNL A   1      41.663  26.478  27.724  1.00  0.00    -0.014 A 
BRANCH  39  40
ATOM     40  C   UNL A   1      41.866  27.866  28.228  1.00  0.00     0.031 A 
ATOM     41  C   UNL A   1      43.273  28.405  28.284  1.00  0.00     0.074 A 
ATOM     42  C   UNL A   1      40.845  28.646  28.629  1.00  0.00     0.049 A 
ATOM     43  N   UNL A   1      43.722  29.533  28.770  1.00  0.00    -0.248 NA
ATOM     44  C   UNL A   1      44.312  27.536  27.716  1.00  0.00     0.031 C 
ATOM     45  C   UNL A   1      39.430  28.289  28.566  1.00  0.00     0.029 A 
ATOM     46  N   UNL A   1      40.850  29.905  29.183  1.00  0.00    -0.354 N 
ATOM     47  C   UNL A   1      45.102  29.503  28.586  1.00  0.00     0.074 A 
ATOM     48  C   UNL A   1      45.410  28.224  27.979  1.00  0.00     0.031 C 
ATOM     49  C   UNL A   1      38.703  29.305  29.067  1.00  0.00     0.029 A 
ATOM     50  C   UNL A   1      39.600  30.363  29.532  1.00  0.00     0.049 A 
ATOM     51  H   UNL A   1      41.672  30.431  29.317  1.00  0.00     0.167 HD
ATOM     52  C   UNL A   1      46.025  30.450  28.889  1.00  0.00     0.034 A 
ATOM     53  C   UNL A   1      39.226  31.490  30.176  1.00  0.00     0.034 A 
ATOM     54  C   UNL A   1      45.710  31.712  29.515  1.00  0.00     0.049 A 
ATOM     55  C   UNL A   1      40.283  32.475  30.628  1.00  0.00     0.074 A 
ATOM     56  C   UNL A   1      46.565  32.748  29.848  1.00  0.00     0.029 A 
ATOM     57  N   UNL A   1      44.441  32.102  29.926  1.00  0.00    -0.354 N 
ATOM     58  N   UNL A   1      41.583  32.439  30.449  1.00  0.00    -0.248 NA
ATOM     59  C   UNL A   1      39.815  33.653  31.373  1.00  0.00     0.031 C 
ATOM     60  C   UNL A   1      45.833  33.717  30.542  1.00  0.00     0.029 A 
ATOM     61  C   UNL A   1      44.500  33.338  30.555  1.00  0.00     0.049 A 
ATOM     62  H   UNL A   1      43.619  31.577  29.792  1.00  0.00     0.167 HD
ATOM     63  C   UNL A   1      42.081  33.608  31.024  1.00  0.00     0.074 A 
ATOM     64  C   UNL A   1      40.940  34.328  31.550  1.00  0.00     0.031 C 
ATOM     65  C   UNL A   1      43.364  34.051  31.095  1.00  0.00     0.034 A 
BRANCH  52  66
ATOM     66  C   UNL A   1      47.473  30.110  28.608  1.00  0.00     0.023 A 
ATOM     67  C   UNL A   1      48.292  29.497  29.573  1.00  0.00     0.031 A 
ATOM     68  C   UNL A   1      48.064  30.472  27.384  1.00  0.00     0.131 A 
ATOM     69  C   UNL A   1      49.670  29.371  29.344  1.00  0.00     0.055 A 
ATOM     70  C   UNL A   1      49.417  30.247  27.122  1.00  0.00     0.041 A 
ATOM     71  F   UNL A   1      47.343  31.080  26.429  1.00  0.00    -0.206 F 
ATOM     72  C   UNL A   1      50.234  29.716  28.115  1.00  0.00     0.022 A 
BRANCH  69  73
ATOM     73  S   UNL A   1      50.740  28.948  30.748  1.00  0.00     0.124 S 
ATOM     74  O   UNL A   1      52.060  28.935  30.121  1.00  0.00    -0.237 OA
ATOM     75  O   UNL A   1      50.486  30.042  31.680  1.00  0.00    -0.237 OA
ATOM     76  O   UNL A   1      50.249  27.638  31.172  1.00  0.00    -0.744 OA
ENDBRANCH  69  73
ENDBRANCH  52  66
BRANCH  53  77
ATOM     77  C   UNL A   1      37.786  31.755  30.464  1.00  0.00     0.023 A 
ATOM     78  C   UNL A   1      36.985  32.450  29.543  1.00  0.00     0.031 A 
ATOM     79  C   UNL A   1      37.200  31.362  31.680  1.00  0.00     0.131 A 
ATOM     80  C   UNL A   1      35.654  32.758  29.864  1.00  0.00     0.055 A 
ATOM     81  C   UNL A   1      35.860  31.624  31.973  1.00  0.00     0.041 A 
ATOM     82  F   UNL A   1      37.924  30.707  32.603  1.00  0.00    -0.206 F 
ATOM     83  C   UNL A   1      35.080  32.334  31.064  1.00  0.00     0.022 A 
BRANCH  80  84
ATOM     84  S   UNL A   1      34.698  33.785  28.713  1.00  0.00     0.124 S 
ATOM     85  O   UNL A   1      33.336  33.336  28.978  1.00  0.00    -0.237 OA
ATOM     86  O   UNL A   1      35.028  35.134  29.163  1.00  0.00    -0.237 OA
ATOM     87  O   UNL A   1      35.234  33.418  27.405  1.00  0.00    -0.744 OA
ENDBRANCH  80  84
ENDBRANCH  53  77
BRANCH  65  88
ATOM     88  C   UNL A   1      43.601  35.407  31.721  1.00  0.00     0.023 A 
ATOM     89  C   UNL A   1      43.781  35.573  33.106  1.00  0.00     0.031 A 
ATOM     90  C   UNL A   1      43.646  36.559  30.912  1.00  0.00     0.131 A 
ATOM     91  C   UNL A   1      43.943  36.860  33.644  1.00  0.00     0.055 A 
ATOM     92  C   UNL A   1      43.876  37.829  31.445  1.00  0.00     0.041 A 
ATOM     93  F   UNL A   1      43.475  36.467  29.583  1.00  0.00    -0.206 F 
ATOM     94  C   UNL A   1      44.012  37.986  32.820  1.00  0.00     0.022 A 
BRANCH  91  95
ATOM     95  S   UNL A   1      43.964  37.059  35.448  1.00  0.00     0.124 S 
ATOM     96  O   UNL A   1      44.711  38.303  35.606  1.00  0.00    -0.237 OA
ATOM     97  O   UNL A   1      42.543  37.124  35.771  1.00  0.00    -0.237 OA
ATOM     98  O   UNL A   1      44.651  35.858  35.919  1.00  0.00    -0.744 OA
ENDBRANCH  91  95
ENDBRANCH  65  88
ENDBRANCH  39  40
ENDBRANCH  32  34
ENDBRANCH  31  32
ENDBRANCH  30  31
ENDBRANCH  29  30
ENDBRANCH  28  29
ENDBRANCH  27  28
ENDBRANCH   1  27
TORSDOF 25
ENDMDL
MODEL 3
REMARK VINA RESULT:      -8.9      2.403      3.023
REMARK SMILES CCC(C)(C)NC(=O)[C@@H](C)Oc1ccc(C)nc1C(=O)OCCOCCOCCOC(=O)c1ccc(-c2c3nc(c(-c4cc(S(=O)(=O)[O-])ccc4F)c4ccc([nH]4)c(-c4cc(S(=O)(=O)[O-])ccc4F)c4nc(c(-c5cc(S(=O)(=O)[O-])ccc5F)c5ccc2[nH]5)C=C4)C=C3)cc1
REMARK SMILES IDX 25 1 24 2 23 3 22 4 21 5 19 6 20 7 18 8 12 9 13 10 14 11
REMARK SMILES IDX 17 12 15 13 16 14 11 15 9 16 10 17 7 18 6 19 8 21 3 22 4 23
REMARK SMILES IDX 5 24 2 25 1 26 26 27 27 28 28 29 29 30 30 31 31 32 32 33
REMARK SMILES IDX 33 34 34 35 95 36 35 37 94 38 36 39 37 40 38 41 88 42 39 43
REMARK SMILES IDX 93 44 87 45 89 46 40 47 92 48 86 49 85 50 41 52 73 53 53 54
REMARK SMILES IDX 72 55 54 56 57 57 71 58 90 59 55 60 56 61 70 63 91 64 58 65
REMARK SMILES IDX 42 66 43 67 51 68 44 69 50 70 52 71 49 72 45 73 46 74 47 75
REMARK SMILES IDX 48 76 74 77 75 78 83 79 76 80 82 81 84 82 81 83 77 84 78 85
REMARK SMILES IDX 79 86 80 87 59 88 60 89 68 90 61 91 67 92 69 93 66 94 62 95
REMARK SMILES IDX 63 96 64 97 65 98
REMARK H PARENT 6 20 89 51 57 62
REMARK Flexibility Score: inf
ROOT
ATOM      1  C   UNL A   1      35.883  22.726  26.241  1.00  0.00     0.188 C 
ENDROOT
BRANCH   1   2
ATOM      2  O   UNL A   1      34.496  22.450  26.059  1.00  0.00    -0.376 OA
BRANCH   2   3
ATOM      3  C   UNL A   1      33.650  22.619  27.193  1.00  0.00     0.202 C 
BRANCH   3   4
ATOM      4  C   UNL A   1      32.129  22.623  26.956  1.00  0.00     0.261 C 
BRANCH   4   5
ATOM      5  O   UNL A   1      31.428  23.795  27.422  1.00  0.00    -0.458 OA
BRANCH   5   6
ATOM      6  C   UNL A   1      30.927  24.581  26.428  1.00  0.00     0.360 C 
ATOM      7  O   UNL A   1      29.781  25.008  26.362  1.00  0.00    -0.244 OA
BRANCH   6   8
ATOM      8  C   UNL A   1      31.966  25.005  25.451  1.00  0.00     0.190 A 
ATOM      9  C   UNL A   1      32.946  25.947  25.760  1.00  0.00     0.153 A 
ATOM     10  C   UNL A   1      34.119  25.876  25.021  1.00  0.00     0.051 A 
ATOM     11  C   UNL A   1      34.161  25.110  23.856  1.00  0.00     0.027 A 
ATOM     12  N   UNL A   1      31.965  24.289  24.285  1.00  0.00    -0.243 NA
ATOM     13  C   UNL A   1      33.019  24.437  23.456  1.00  0.00     0.039 A 
ATOM     14  C   UNL A   1      32.883  23.923  22.052  1.00  0.00     0.067 C 
BRANCH   9  15
ATOM     15  O   UNL A   1      32.729  26.915  26.691  1.00  0.00    -0.478 OA
BRANCH  15  16
ATOM     16  C   UNL A   1      32.956  28.292  26.329  1.00  0.00     0.259 C 
ATOM     17  C   UNL A   1      33.757  29.012  27.432  1.00  0.00     0.064 C 
BRANCH  16  18
ATOM     18  C   UNL A   1      32.036  29.326  25.546  1.00  0.00     0.261 C 
ATOM     19  N   UNL A   1      31.238  29.045  24.465  1.00  0.00    -0.348 N 
ATOM     20  H   UNL A   1      30.293  28.922  24.714  1.00  0.00     0.164 HD
ATOM     21  O   UNL A   1      31.855  30.445  26.052  1.00  0.00    -0.271 OA
BRANCH  19  22
ATOM     22  C   UNL A   1      31.474  28.885  22.982  1.00  0.00     0.034 C 
ATOM     23  C   UNL A   1      30.376  29.627  22.184  1.00  0.00     0.034 C 
ATOM     24  C   UNL A   1      31.248  27.371  22.686  1.00  0.00     0.034 C 
BRANCH  22  25
ATOM     25  C   UNL A   1      32.893  29.142  22.394  1.00  0.00     0.024 C 
ATOM     26  C   UNL A   1      33.748  27.976  22.011  1.00  0.00     0.006 C 
ENDBRANCH  22  25
ENDBRANCH  19  22
ENDBRANCH  16  18
ENDBRANCH  15  16
ENDBRANCH   9  15
ENDBRANCH   6   8
ENDBRANCH   5   6
ENDBRANCH   4   5
ENDBRANCH   3   4
ENDBRANCH   2   3
ENDBRANCH   1   2
BRANCH   1  27
ATOM     27  C   UNL A   1      36.827  21.572  25.917  1.00  0.00     0.188 C 
BRANCH  27  28
ATOM     28  O   UNL A   1      37.994  21.928  25.205  1.00  0.00    -0.376 OA
BRANCH  28  29
ATOM     29  C   UNL A   1      39.167  21.142  25.395  1.00  0.00     0.202 C 
BRANCH  29  30
ATOM     30  C   UNL A   1      39.952  21.106  26.737  1.00  0.00     0.261 C 
BRANCH  30  31
ATOM     31  O   UNL A   1      41.222  20.429  26.798  1.00  0.00    -0.460 OA
BRANCH  31  32
ATOM     32  C   UNL A   1      42.308  21.084  26.327  1.00  0.00     0.338 C 
ATOM     33  O   UNL A   1      43.046  20.684  25.433  1.00  0.00    -0.246 OA
BRANCH  32  34
ATOM     34  C   UNL A   1      42.298  22.481  26.853  1.00  0.00     0.060 A 
ATOM     35  C   UNL A   1      42.102  23.528  25.938  1.00  0.00     0.016 A 
ATOM     36  C   UNL A   1      42.411  22.775  28.216  1.00  0.00     0.016 A 
ATOM     37  C   UNL A   1      42.055  24.860  26.370  1.00  0.00     0.010 A 
ATOM     38  C   UNL A   1      42.388  24.112  28.645  1.00  0.00     0.010 A 
ATOM     39  C   UNL A   1      42.239  25.168  27.724  1.00  0.00    -0.014 A 
BRANCH  39  40
ATOM     40  C   UNL A   1      42.483  26.574  28.156  1.00  0.00     0.031 A 
ATOM     41  C   UNL A   1      43.896  27.097  28.112  1.00  0.00     0.074 A 
ATOM     42  C   UNL A   1      41.494  27.383  28.577  1.00  0.00     0.049 A 
ATOM     43  N   UNL A   1      44.383  28.239  28.523  1.00  0.00    -0.248 NA
ATOM     44  C   UNL A   1      44.894  26.192  27.526  1.00  0.00     0.031 C 
ATOM     45  C   UNL A   1      40.074  27.042  28.607  1.00  0.00     0.029 A 
ATOM     46  N   UNL A   1      41.542  28.665  29.075  1.00  0.00    -0.354 N 
ATOM     47  C   UNL A   1      45.751  28.184  28.266  1.00  0.00     0.074 A 
ATOM     48  C   UNL A   1      46.012  26.876  27.699  1.00  0.00     0.031 C 
ATOM     49  C   UNL A   1      39.386  28.087  29.102  1.00  0.00     0.029 A 
ATOM     50  C   UNL A   1      40.318  29.153  29.471  1.00  0.00     0.049 A 
ATOM     51  H   UNL A   1      42.375  29.185  29.141  1.00  0.00     0.167 HD
ATOM     52  C   UNL A   1      46.699  29.132  28.476  1.00  0.00     0.034 A 
ATOM     53  C   UNL A   1      39.991  30.311  30.085  1.00  0.00     0.034 A 
ATOM     54  C   UNL A   1      46.430  30.423  29.064  1.00  0.00     0.049 A 
ATOM     55  C   UNL A   1      41.081  31.300  30.436  1.00  0.00     0.074 A 
ATOM     56  C   UNL A   1      47.314  31.462  29.305  1.00  0.00     0.029 A 
ATOM     57  N   UNL A   1      45.191  30.846  29.526  1.00  0.00    -0.354 N 
ATOM     58  N   UNL A   1      42.369  31.240  30.188  1.00  0.00    -0.248 NA
ATOM     59  C   UNL A   1      40.666  32.515  31.154  1.00  0.00     0.031 C 
ATOM     60  C   UNL A   1      46.630  32.469  29.994  1.00  0.00     0.029 A 
ATOM     61  C   UNL A   1      45.297  32.107  30.096  1.00  0.00     0.049 A 
ATOM     62  H   UNL A   1      44.357  30.326  29.460  1.00  0.00     0.167 HD
ATOM     63  C   UNL A   1      42.909  32.427  30.684  1.00  0.00     0.074 A 
ATOM     64  C   UNL A   1      41.807  33.183  31.240  1.00  0.00     0.031 C 
ATOM     65  C   UNL A   1      44.198  32.857  30.666  1.00  0.00     0.034 A 
BRANCH  52  66
ATOM     66  C   UNL A   1      48.125  28.762  28.132  1.00  0.00     0.023 A 
ATOM     67  C   UNL A   1      48.595  28.773  26.807  1.00  0.00     0.031 A 
ATOM     68  C   UNL A   1      49.006  28.319  29.135  1.00  0.00     0.131 A 
ATOM     69  C   UNL A   1      49.860  28.245  26.509  1.00  0.00     0.055 A 
ATOM     70  C   UNL A   1      50.304  27.893  28.843  1.00  0.00     0.041 A 
ATOM     71  F   UNL A   1      48.613  28.264  30.417  1.00  0.00    -0.206 F 
ATOM     72  C   UNL A   1      50.729  27.831  27.519  1.00  0.00     0.022 A 
BRANCH  69  73
ATOM     73  S   UNL A   1      50.266  27.914  24.770  1.00  0.00     0.124 S 
ATOM     74  O   UNL A   1      51.172  29.017  24.463  1.00  0.00    -0.237 OA
ATOM     75  O   UNL A   1      50.871  26.589  24.834  1.00  0.00    -0.237 OA
ATOM     76  O   UNL A   1      48.969  27.979  24.098  1.00  0.00    -0.744 OA
ENDBRANCH  69  73
ENDBRANCH  52  66
BRANCH  53  77
ATOM     77  C   UNL A   1      38.571  30.605  30.439  1.00  0.00     0.023 A 
ATOM     78  C   UNL A   1      37.799  31.471  29.649  1.00  0.00     0.031 A 
ATOM     79  C   UNL A   1      37.980  30.067  31.596  1.00  0.00     0.131 A 
ATOM     80  C   UNL A   1      36.491  31.798  30.040  1.00  0.00     0.055 A 
ATOM     81  C   UNL A   1      36.661  30.353  31.952  1.00  0.00     0.041 A 
ATOM     82  F   UNL A   1      38.679  29.244  32.396  1.00  0.00    -0.206 F 
ATOM     83  C   UNL A   1      35.910  31.231  31.175  1.00  0.00     0.022 A 
BRANCH  80  84
ATOM     84  S   UNL A   1      35.579  33.034  29.074  1.00  0.00     0.124 S 
ATOM     85  O   UNL A   1      34.724  33.634  30.092  1.00  0.00    -0.237 OA
ATOM     86  O   UNL A   1      36.656  33.877  28.563  1.00  0.00    -0.237 OA
ATOM     87  O   UNL A   1      34.885  32.236  28.067  1.00  0.00    -0.744 OA
ENDBRANCH  80  84
ENDBRANCH  53  77
BRANCH  65  88
ATOM     88  C   UNL A   1      44.483  34.235  31.219  1.00  0.00     0.023 A 
ATOM     89  C   UNL A   1      44.407  35.393  30.424  1.00  0.00     0.031 A 
ATOM     90  C   UNL A   1      44.840  34.392  32.572  1.00  0.00     0.131 A 
ATOM     91  C   UNL A   1      44.734  36.644  30.973  1.00  0.00     0.055 A 
ATOM     92  C   UNL A   1      45.099  35.646  33.129  1.00  0.00     0.041 A 
ATOM     93  F   UNL A   1      44.937  33.324  33.381  1.00  0.00    -0.206 F 
ATOM     94  C   UNL A   1      45.059  36.779  32.325  1.00  0.00     0.022 A 
BRANCH  91  95
ATOM     95  S   UNL A   1      44.827  38.085  29.874  1.00  0.00     0.124 S 
ATOM     96  O   UNL A   1      43.575  38.774  30.171  1.00  0.00    -0.237 OA
ATOM     97  O   UNL A   1      46.043  38.749  30.330  1.00  0.00    -0.237 OA
ATOM     98  O   UNL A   1      44.908  37.495  28.539  1.00  0.00    -0.744 OA
ENDBRANCH  91  95
ENDBRANCH  65  88
ENDBRANCH  39  40
ENDBRANCH  32  34
ENDBRANCH  31  32
ENDBRANCH  30  31
ENDBRANCH  29  30
ENDBRANCH  28  29
ENDBRANCH  27  28
ENDBRANCH   1  27
TORSDOF 25
ENDMDL
