MODEL 1
REMARK VINA RESULT:     -10.0      0.000      0.000
REMARK SMILES CCc1ccc2c(CC(=O)OCCOCCOCCOC(=O)c3ccc(-c4c5nc(c(-c6cc(S(=O)(=O)[O-])ccc6F)c6ccc([nH]6)c(-c6cc(S(=O)(=O)[O-])ccc6F)c6nc(c(-c7cc(S(=O)(=O)[O-])ccc7F)c7ccc4[nH]7)C=C6)C=C5)cc3)c(C(=O)c3cc(C)ccn3)[nH]c2c1
REMARK SMILES IDX 15 1 14 2 13 3 12 4 11 5 9 6 10 7 8 8 7 9 3 10 4 11 98 12
REMARK SMILES IDX 5 13 97 14 6 15 96 16 86 17 2 19 1 20 87 21 88 22 89 23
REMARK SMILES IDX 90 24 95 25 91 26 94 27 92 28 93 29 16 30 17 31 18 32 19 33
REMARK SMILES IDX 20 34 21 35 22 36 23 37 24 38 85 39 25 40 84 41 26 42 27 43
REMARK SMILES IDX 28 44 78 45 29 46 83 47 77 48 79 49 30 50 82 51 76 52 75 53
REMARK SMILES IDX 31 55 63 56 43 57 62 58 44 59 47 60 61 61 80 62 45 63 46 64
REMARK SMILES IDX 60 66 81 67 48 68 32 69 33 70 41 71 34 72 40 73 42 74 39 75
REMARK SMILES IDX 35 76 36 77 37 78 38 79 64 80 65 81 73 82 66 83 72 84 74 85
REMARK SMILES IDX 71 86 67 87 68 88 69 89 70 90 49 91 50 92 58 93 51 94 57 95
REMARK SMILES IDX 59 96 56 97 52 98 53 99 54 100 55 101
REMARK H PARENT 96 18 79 54 47 65
REMARK Flexibility Score: inf
ROOT
ATOM      1  C   UNL A   1      33.245  28.237  25.014  1.00  0.00     0.188 C 
ENDROOT
BRANCH   1   2
ATOM      2  O   UNL A   1      33.508  28.494  23.636  1.00  0.00    -0.376 OA
BRANCH   2   3
ATOM      3  C   UNL A   1      33.193  27.480  22.693  1.00  0.00     0.202 C 
BRANCH   3   4
ATOM      4  C   UNL A   1      33.156  26.047  23.237  1.00  0.00     0.261 C 
BRANCH   4   5
ATOM      5  O   UNL A   1      33.878  25.126  22.392  1.00  0.00    -0.463 OA
BRANCH   5   6
ATOM      6  C   UNL A   1      33.324  23.898  22.211  1.00  0.00     0.310 C 
ATOM      7  O   UNL A   1      33.608  23.166  21.268  1.00  0.00    -0.252 OA
BRANCH   6   8
ATOM      8  C   UNL A   1      32.455  23.431  23.374  1.00  0.00     0.161 C 
BRANCH   8   9
ATOM      9  C   UNL A   1      32.934  22.276  24.226  1.00  0.00     0.000 A 
ATOM     10  C   UNL A   1      33.126  18.095  23.670  1.00  0.00    -0.046 A 
ATOM     11  C   UNL A   1      32.365  18.801  22.730  1.00  0.00     0.004 A 
ATOM     12  C   UNL A   1      33.645  18.764  24.787  1.00  0.00     0.030 A 
ATOM     13  C   UNL A   1      32.154  20.184  22.850  1.00  0.00     0.011 A 
ATOM     14  C   UNL A   1      33.456  20.147  24.865  1.00  0.00     0.046 A 
ATOM     15  C   UNL A   1      32.755  20.883  23.915  1.00  0.00     0.004 A 
ATOM     16  N   UNL A   1      33.928  21.038  25.793  1.00  0.00    -0.352 N 
ATOM     17  C   UNL A   1      33.860  22.314  25.284  1.00  0.00     0.093 A 
ATOM     18  H   UNL A   1      34.264  20.800  26.687  1.00  0.00     0.167 HD
BRANCH  10  19
ATOM     19  C   UNL A   1      33.457  16.638  23.457  1.00  0.00     0.032 C 
ATOM     20  C   UNL A   1      33.226  15.790  24.698  1.00  0.00     0.009 C 
ENDBRANCH  10  19
BRANCH  17  21
ATOM     21  C   UNL A   1      34.701  23.403  25.766  1.00  0.00     0.227 C 
ATOM     22  O   UNL A   1      34.253  24.496  26.100  1.00  0.00    -0.285 OA
BRANCH  21  23
ATOM     23  C   UNL A   1      36.183  23.200  25.828  1.00  0.00     0.113 A 
ATOM     24  C   UNL A   1      37.017  24.166  26.385  1.00  0.00     0.036 A 
ATOM     25  N   UNL A   1      36.623  22.011  25.343  1.00  0.00    -0.253 NA
ATOM     26  C   UNL A   1      38.385  23.878  26.494  1.00  0.00    -0.047 A 
ATOM     27  C   UNL A   1      37.932  21.734  25.534  1.00  0.00     0.112 A 
ATOM     28  C   UNL A   1      39.373  24.860  27.054  1.00  0.00     0.044 C 
ATOM     29  C   UNL A   1      38.834  22.616  26.102  1.00  0.00     0.023 A 
ENDBRANCH  21  23
ENDBRANCH  17  21
ENDBRANCH   8   9
ENDBRANCH   6   8
ENDBRANCH   5   6
ENDBRANCH   4   5
ENDBRANCH   3   4
ENDBRANCH   2   3
ENDBRANCH   1   2
BRANCH   1  30
ATOM     30  C   UNL A   1      32.183  29.089  25.747  1.00  0.00     0.188 C 
BRANCH  30  31
ATOM     31  O   UNL A   1      32.449  30.486  25.725  1.00  0.00    -0.376 OA
BRANCH  31  32
ATOM     32  C   UNL A   1      32.520  31.085  27.011  1.00  0.00     0.202 C 
BRANCH  32  33
ATOM     33  C   UNL A   1      32.297  32.595  26.950  1.00  0.00     0.261 C 
BRANCH  33  34
ATOM     34  O   UNL A   1      32.970  33.277  28.029  1.00  0.00    -0.460 OA
BRANCH  34  35
ATOM     35  C   UNL A   1      34.206  33.749  27.791  1.00  0.00     0.338 C 
ATOM     36  O   UNL A   1      34.511  34.555  26.910  1.00  0.00    -0.246 OA
BRANCH  35  37
ATOM     37  C   UNL A   1      35.194  33.112  28.692  1.00  0.00     0.060 A 
ATOM     38  C   UNL A   1      36.536  33.508  28.745  1.00  0.00     0.016 A 
ATOM     39  C   UNL A   1      34.786  32.011  29.438  1.00  0.00     0.016 A 
ATOM     40  C   UNL A   1      37.473  32.785  29.493  1.00  0.00     0.010 A 
ATOM     41  C   UNL A   1      35.709  31.324  30.233  1.00  0.00     0.010 A 
ATOM     42  C   UNL A   1      37.069  31.688  30.257  1.00  0.00    -0.014 A 
BRANCH  42  43
ATOM     43  C   UNL A   1      38.020  30.869  31.059  1.00  0.00     0.031 A 
ATOM     44  C   UNL A   1      38.218  31.194  32.513  1.00  0.00     0.074 A 
ATOM     45  C   UNL A   1      38.766  29.902  30.493  1.00  0.00     0.049 A 
ATOM     46  N   UNL A   1      39.225  30.919  33.301  1.00  0.00    -0.248 NA
ATOM     47  C   UNL A   1      37.132  31.947  33.158  1.00  0.00     0.031 C 
ATOM     48  C   UNL A   1      38.606  29.387  29.134  1.00  0.00     0.029 A 
ATOM     49  N   UNL A   1      39.845  29.206  30.989  1.00  0.00    -0.354 N 
ATOM     50  C   UNL A   1      38.924  31.510  34.523  1.00  0.00     0.074 A 
ATOM     51  C   UNL A   1      37.636  32.159  34.367  1.00  0.00     0.031 C 
ATOM     52  C   UNL A   1      39.568  28.481  28.894  1.00  0.00     0.029 A 
ATOM     53  C   UNL A   1      40.470  28.427  30.041  1.00  0.00     0.049 A 
ATOM     54  H   UNL A   1      40.141  29.260  31.926  1.00  0.00     0.167 HD
ATOM     55  C   UNL A   1      39.666  31.521  35.658  1.00  0.00     0.034 A 
ATOM     56  C   UNL A   1      41.670  27.810  30.057  1.00  0.00     0.034 A 
ATOM     57  C   UNL A   1      40.941  30.854  35.788  1.00  0.00     0.049 A 
ATOM     58  C   UNL A   1      42.547  27.938  31.281  1.00  0.00     0.074 A 
ATOM     59  C   UNL A   1      41.788  30.812  36.885  1.00  0.00     0.029 A 
ATOM     60  N   UNL A   1      41.557  30.109  34.788  1.00  0.00    -0.354 N 
ATOM     61  N   UNL A   1      42.313  28.580  32.401  1.00  0.00    -0.248 NA
ATOM     62  C   UNL A   1      43.855  27.270  31.234  1.00  0.00     0.031 C 
ATOM     63  C   UNL A   1      42.941  30.106  36.525  1.00  0.00     0.029 A 
ATOM     64  C   UNL A   1      42.781  29.631  35.233  1.00  0.00     0.049 A 
ATOM     65  H   UNL A   1      41.179  29.946  33.895  1.00  0.00     0.167 HD
ATOM     66  C   UNL A   1      43.429  28.360  33.205  1.00  0.00     0.074 A 
ATOM     67  C   UNL A   1      44.336  27.528  32.442  1.00  0.00     0.031 C 
ATOM     68  C   UNL A   1      43.677  28.798  34.465  1.00  0.00     0.034 A 
BRANCH  55  69
ATOM     69  C   UNL A   1      39.156  32.344  36.818  1.00  0.00     0.023 A 
ATOM     70  C   UNL A   1      39.663  33.621  37.111  1.00  0.00     0.031 A 
ATOM     71  C   UNL A   1      38.159  31.822  37.663  1.00  0.00     0.131 A 
ATOM     72  C   UNL A   1      39.225  34.301  38.258  1.00  0.00     0.055 A 
ATOM     73  C   UNL A   1      37.664  32.540  38.753  1.00  0.00     0.041 A 
ATOM     74  F   UNL A   1      37.653  30.596  37.450  1.00  0.00    -0.206 F 
ATOM     75  C   UNL A   1      38.208  33.781  39.065  1.00  0.00     0.022 A 
BRANCH  72  76
ATOM     76  S   UNL A   1      40.106  35.803  38.767  1.00  0.00     0.124 S 
ATOM     77  O   UNL A   1      39.625  35.984  40.135  1.00  0.00    -0.237 OA
ATOM     78  O   UNL A   1      41.504  35.411  38.631  1.00  0.00    -0.237 OA
ATOM     79  O   UNL A   1      39.644  36.811  37.816  1.00  0.00    -0.744 OA
ENDBRANCH  72  76
ENDBRANCH  55  69
BRANCH  56  80
ATOM     80  C   UNL A   1      42.164  27.092  28.845  1.00  0.00     0.023 A 
ATOM     81  C   UNL A   1      42.326  25.699  28.843  1.00  0.00     0.031 A 
ATOM     82  C   UNL A   1      42.526  27.798  27.682  1.00  0.00     0.131 A 
ATOM     83  C   UNL A   1      42.872  25.059  27.719  1.00  0.00     0.055 A 
ATOM     84  C   UNL A   1      43.009  27.150  26.544  1.00  0.00     0.041 A 
ATOM     85  F   UNL A   1      42.405  29.134  27.631  1.00  0.00    -0.206 F 
ATOM     86  C   UNL A   1      43.196  25.772  26.563  1.00  0.00     0.022 A 
BRANCH  83  87
ATOM     87  S   UNL A   1      43.243  23.286  27.824  1.00  0.00     0.124 S 
ATOM     88  O   UNL A   1      44.153  23.108  26.699  1.00  0.00    -0.237 OA
ATOM     89  O   UNL A   1      43.837  23.179  29.153  1.00  0.00    -0.237 OA
ATOM     90  O   UNL A   1      41.934  22.655  27.675  1.00  0.00    -0.744 OA
ENDBRANCH  83  87
ENDBRANCH  56  80
BRANCH  68  91
ATOM     91  C   UNL A   1      44.945  28.318  35.131  1.00  0.00     0.023 A 
ATOM     92  C   UNL A   1      44.972  27.191  35.969  1.00  0.00     0.031 A 
ATOM     93  C   UNL A   1      46.152  29.007  34.908  1.00  0.00     0.131 A 
ATOM     94  C   UNL A   1      46.174  26.807  36.585  1.00  0.00     0.055 A 
ATOM     95  C   UNL A   1      47.354  28.589  35.480  1.00  0.00     0.041 A 
ATOM     96  F   UNL A   1      46.183  30.092  34.119  1.00  0.00    -0.206 F 
ATOM     97  C   UNL A   1      47.368  27.490  36.331  1.00  0.00     0.022 A 
BRANCH  94  98
ATOM     98  S   UNL A   1      46.153  25.439  37.776  1.00  0.00     0.124 S 
ATOM     99  O   UNL A   1      46.992  25.959  38.851  1.00  0.00    -0.237 OA
ATOM    100  O   UNL A   1      44.732  25.312  38.082  1.00  0.00    -0.237 OA
ATOM    101  O   UNL A   1      46.725  24.321  37.028  1.00  0.00    -0.744 OA
ENDBRANCH  94  98
ENDBRANCH  68  91
ENDBRANCH  42  43
ENDBRANCH  35  37
ENDBRANCH  34  35
ENDBRANCH  33  34
ENDBRANCH  32  33
ENDBRANCH  31  32
ENDBRANCH  30  31
ENDBRANCH   1  30
TORSDOF 24
ENDMDL
MODEL 2
REMARK VINA RESULT:      -9.7      1.867      2.119
REMARK SMILES CCc1ccc2c(CC(=O)OCCOCCOCCOC(=O)c3ccc(-c4c5nc(c(-c6cc(S(=O)(=O)[O-])ccc6F)c6ccc([nH]6)c(-c6cc(S(=O)(=O)[O-])ccc6F)c6nc(c(-c7cc(S(=O)(=O)[O-])ccc7F)c7ccc4[nH]7)C=C6)C=C5)cc3)c(C(=O)c3cc(C)ccn3)[nH]c2c1
REMARK SMILES IDX 15 1 14 2 13 3 12 4 11 5 9 6 10 7 8 8 7 9 3 10 4 11 98 12
REMARK SMILES IDX 5 13 97 14 6 15 96 16 86 17 2 19 1 20 87 21 88 22 89 23
REMARK SMILES IDX 90 24 95 25 91 26 94 27 92 28 93 29 16 30 17 31 18 32 19 33
REMARK SMILES IDX 20 34 21 35 22 36 23 37 24 38 85 39 25 40 84 41 26 42 27 43
REMARK SMILES IDX 28 44 78 45 29 46 83 47 77 48 79 49 30 50 82 51 76 52 75 53
REMARK SMILES IDX 31 55 63 56 43 57 62 58 44 59 47 60 61 61 80 62 45 63 46 64
REMARK SMILES IDX 60 66 81 67 48 68 32 69 33 70 41 71 34 72 40 73 42 74 39 75
REMARK SMILES IDX 35 76 36 77 37 78 38 79 64 80 65 81 73 82 66 83 72 84 74 85
REMARK SMILES IDX 71 86 67 87 68 88 69 89 70 90 49 91 50 92 58 93 51 94 57 95
REMARK SMILES IDX 59 96 56 97 52 98 53 99 54 100 55 101
REMARK H PARENT 96 18 79 54 47 65
REMARK Flexibility Score: inf
ROOT
ATOM      1  C   UNL A   1      33.208  28.208  25.005  1.00  0.00     0.188 C 
ENDROOT
BRANCH   1   2
ATOM      2  O   UNL A   1      33.343  28.496  23.615  1.00  0.00    -0.376 OA
BRANCH   2   3
ATOM      3  C   UNL A   1      33.002  27.480  22.683  1.00  0.00     0.202 C 
BRANCH   3   4
ATOM      4  C   UNL A   1      33.073  26.040  23.206  1.00  0.00     0.261 C 
BRANCH   4   5
ATOM      5  O   UNL A   1      33.768  25.164  22.294  1.00  0.00    -0.463 OA
BRANCH   5   6
ATOM      6  C   UNL A   1      33.274  23.906  22.156  1.00  0.00     0.310 C 
ATOM      7  O   UNL A   1      33.594  23.156  21.238  1.00  0.00    -0.252 OA
BRANCH   6   8
ATOM      8  C   UNL A   1      32.427  23.438  23.335  1.00  0.00     0.161 C 
BRANCH   8   9
ATOM      9  C   UNL A   1      32.920  22.278  24.174  1.00  0.00     0.000 A 
ATOM     10  C   UNL A   1      33.183  18.109  23.558  1.00  0.00    -0.046 A 
ATOM     11  C   UNL A   1      32.416  18.817  22.623  1.00  0.00     0.004 A 
ATOM     12  C   UNL A   1      33.684  18.771  24.688  1.00  0.00     0.030 A 
ATOM     13  C   UNL A   1      32.182  20.194  22.762  1.00  0.00     0.011 A 
ATOM     14  C   UNL A   1      33.473  20.149  24.785  1.00  0.00     0.046 A 
ATOM     15  C   UNL A   1      32.766  20.887  23.841  1.00  0.00     0.004 A 
ATOM     16  N   UNL A   1      33.925  21.033  25.729  1.00  0.00    -0.352 N 
ATOM     17  C   UNL A   1      33.839  22.316  25.238  1.00  0.00     0.093 A 
ATOM     18  H   UNL A   1      34.259  20.788  26.621  1.00  0.00     0.167 HD
BRANCH  10  19
ATOM     19  C   UNL A   1      33.539  16.661  23.326  1.00  0.00     0.032 C 
ATOM     20  C   UNL A   1      33.928  15.935  24.604  1.00  0.00     0.009 C 
ENDBRANCH  10  19
BRANCH  17  21
ATOM     21  C   UNL A   1      34.660  23.411  25.741  1.00  0.00     0.227 C 
ATOM     22  O   UNL A   1      34.193  24.497  26.073  1.00  0.00    -0.285 OA
BRANCH  21  23
ATOM     23  C   UNL A   1      36.142  23.224  25.828  1.00  0.00     0.113 A 
ATOM     24  C   UNL A   1      36.952  24.180  26.436  1.00  0.00     0.036 A 
ATOM     25  N   UNL A   1      36.608  22.057  25.311  1.00  0.00    -0.253 NA
ATOM     26  C   UNL A   1      38.320  23.904  26.565  1.00  0.00    -0.047 A 
ATOM     27  C   UNL A   1      37.916  21.790  25.522  1.00  0.00     0.112 A 
ATOM     28  C   UNL A   1      39.284  24.878  27.180  1.00  0.00     0.044 C 
ATOM     29  C   UNL A   1      38.794  22.662  26.139  1.00  0.00     0.023 A 
ENDBRANCH  21  23
ENDBRANCH  17  21
ENDBRANCH   8   9
ENDBRANCH   6   8
ENDBRANCH   5   6
ENDBRANCH   4   5
ENDBRANCH   3   4
ENDBRANCH   2   3
ENDBRANCH   1   2
BRANCH   1  30
ATOM     30  C   UNL A   1      32.301  29.110  25.873  1.00  0.00     0.188 C 
BRANCH  30  31
ATOM     31  O   UNL A   1      32.694  30.477  25.889  1.00  0.00    -0.376 OA
BRANCH  31  32
ATOM     32  C   UNL A   1      32.860  31.019  27.192  1.00  0.00     0.202 C 
BRANCH  32  33
ATOM     33  C   UNL A   1      32.489  32.500  27.245  1.00  0.00     0.261 C 
BRANCH  33  34
ATOM     34  O   UNL A   1      33.198  33.190  28.295  1.00  0.00    -0.460 OA
BRANCH  34  35
ATOM     35  C   UNL A   1      34.432  33.646  28.017  1.00  0.00     0.338 C 
ATOM     36  O   UNL A   1      34.723  34.420  27.104  1.00  0.00    -0.246 OA
BRANCH  35  37
ATOM     37  C   UNL A   1      35.434  33.034  28.919  1.00  0.00     0.060 A 
ATOM     38  C   UNL A   1      36.701  33.592  29.134  1.00  0.00     0.016 A 
ATOM     39  C   UNL A   1      35.134  31.802  29.493  1.00  0.00     0.016 A 
ATOM     40  C   UNL A   1      37.676  32.907  29.870  1.00  0.00     0.010 A 
ATOM     41  C   UNL A   1      36.087  31.145  30.278  1.00  0.00     0.010 A 
ATOM     42  C   UNL A   1      37.377  31.678  30.462  1.00  0.00    -0.014 A 
BRANCH  42  43
ATOM     43  C   UNL A   1      38.375  30.894  31.241  1.00  0.00     0.031 A 
ATOM     44  C   UNL A   1      38.580  31.213  32.696  1.00  0.00     0.074 A 
ATOM     45  C   UNL A   1      39.156  29.968  30.654  1.00  0.00     0.049 A 
ATOM     46  N   UNL A   1      39.609  30.975  33.466  1.00  0.00    -0.248 NA
ATOM     47  C   UNL A   1      37.471  31.909  33.365  1.00  0.00     0.031 C 
ATOM     48  C   UNL A   1      39.000  29.460  29.292  1.00  0.00     0.029 A 
ATOM     49  N   UNL A   1      40.272  29.316  31.127  1.00  0.00    -0.354 N 
ATOM     50  C   UNL A   1      39.300  31.539  34.699  1.00  0.00     0.074 A 
ATOM     51  C   UNL A   1      37.982  32.130  34.568  1.00  0.00     0.031 C 
ATOM     52  C   UNL A   1      39.998  28.602  29.028  1.00  0.00     0.029 A 
ATOM     53  C   UNL A   1      40.918  28.576  30.162  1.00  0.00     0.049 A 
ATOM     54  H   UNL A   1      40.579  29.373  32.061  1.00  0.00     0.167 HD
ATOM     55  C   UNL A   1      40.057  31.571  35.824  1.00  0.00     0.034 A 
ATOM     56  C   UNL A   1      42.144  28.014  30.154  1.00  0.00     0.034 A 
ATOM     57  C   UNL A   1      41.363  30.960  35.929  1.00  0.00     0.049 A 
ATOM     58  C   UNL A   1      43.032  28.168  31.366  1.00  0.00     0.074 A 
ATOM     59  C   UNL A   1      42.226  30.945  37.012  1.00  0.00     0.029 A 
ATOM     60  N   UNL A   1      41.997  30.255  34.912  1.00  0.00    -0.354 N 
ATOM     61  N   UNL A   1      42.786  28.787  32.497  1.00  0.00    -0.248 NA
ATOM     62  C   UNL A   1      44.368  27.560  31.293  1.00  0.00     0.031 C 
ATOM     63  C   UNL A   1      43.405  30.296  36.629  1.00  0.00     0.029 A 
ATOM     64  C   UNL A   1      43.247  29.828  35.334  1.00  0.00     0.049 A 
ATOM     65  H   UNL A   1      41.614  30.084  34.022  1.00  0.00     0.167 HD
ATOM     66  C   UNL A   1      43.922  28.609  33.283  1.00  0.00     0.074 A 
ATOM     67  C   UNL A   1      44.854  27.827  32.497  1.00  0.00     0.031 C 
ATOM     68  C   UNL A   1      44.169  29.044  34.544  1.00  0.00     0.034 A 
BRANCH  55  69
ATOM     69  C   UNL A   1      39.528  32.357  37.000  1.00  0.00     0.023 A 
ATOM     70  C   UNL A   1      38.678  31.785  37.962  1.00  0.00     0.031 A 
ATOM     71  C   UNL A   1      39.861  33.716  37.142  1.00  0.00     0.131 A 
ATOM     72  C   UNL A   1      38.135  32.586  38.980  1.00  0.00     0.055 A 
ATOM     73  C   UNL A   1      39.387  34.486  38.206  1.00  0.00     0.041 A 
ATOM     74  F   UNL A   1      40.648  34.326  36.240  1.00  0.00    -0.206 F 
ATOM     75  C   UNL A   1      38.507  33.926  39.124  1.00  0.00     0.022 A 
BRANCH  72  76
ATOM     76  S   UNL A   1      36.821  31.893  40.020  1.00  0.00     0.124 S 
ATOM     77  O   UNL A   1      36.175  30.956  39.103  1.00  0.00    -0.237 OA
ATOM     78  O   UNL A   1      37.569  31.294  41.119  1.00  0.00    -0.237 OA
ATOM     79  O   UNL A   1      36.013  33.058  40.375  1.00  0.00    -0.744 OA
ENDBRANCH  72  76
ENDBRANCH  55  69
BRANCH  56  80
ATOM     80  C   UNL A   1      42.652  27.331  28.926  1.00  0.00     0.023 A 
ATOM     81  C   UNL A   1      42.476  25.953  28.738  1.00  0.00     0.031 A 
ATOM     82  C   UNL A   1      43.364  28.044  27.944  1.00  0.00     0.131 A 
ATOM     83  C   UNL A   1      43.038  25.322  27.617  1.00  0.00     0.055 A 
ATOM     84  C   UNL A   1      43.866  27.424  26.799  1.00  0.00     0.041 A 
ATOM     85  F   UNL A   1      43.575  29.363  28.078  1.00  0.00    -0.206 F 
ATOM     86  C   UNL A   1      43.715  26.051  26.636  1.00  0.00     0.022 A 
BRANCH  83  87
ATOM     87  S   UNL A   1      42.953  23.513  27.504  1.00  0.00     0.124 S 
ATOM     88  O   UNL A   1      42.235  23.175  28.728  1.00  0.00    -0.237 OA
ATOM     89  O   UNL A   1      42.222  23.320  26.257  1.00  0.00    -0.237 OA
ATOM     90  O   UNL A   1      44.357  23.109  27.472  1.00  0.00    -0.744 OA
ENDBRANCH  83  87
ENDBRANCH  56  80
BRANCH  68  91
ATOM     91  C   UNL A   1      45.466  28.615  35.187  1.00  0.00     0.023 A 
ATOM     92  C   UNL A   1      46.658  29.342  35.031  1.00  0.00     0.031 A 
ATOM     93  C   UNL A   1      45.498  27.453  35.981  1.00  0.00     0.131 A 
ATOM     94  C   UNL A   1      47.842  28.880  35.629  1.00  0.00     0.055 A 
ATOM     95  C   UNL A   1      46.666  27.028  36.616  1.00  0.00     0.041 A 
ATOM     96  F   UNL A   1      44.390  26.719  36.161  1.00  0.00    -0.206 F 
ATOM     97  C   UNL A   1      47.848  27.737  36.434  1.00  0.00     0.022 A 
BRANCH  94  98
ATOM     98  S   UNL A   1      49.395  29.755  35.291  1.00  0.00     0.124 S 
ATOM     99  O   UNL A   1      49.058  30.525  34.099  1.00  0.00    -0.237 OA
ATOM    100  O   UNL A   1      49.593  30.526  36.514  1.00  0.00    -0.237 OA
ATOM    101  O   UNL A   1      50.359  28.676  35.080  1.00  0.00    -0.744 OA
ENDBRANCH  94  98
ENDBRANCH  68  91
ENDBRANCH  42  43
ENDBRANCH  35  37
ENDBRANCH  34  35
ENDBRANCH  33  34
ENDBRANCH  32  33
ENDBRANCH  31  32
ENDBRANCH  30  31
ENDBRANCH   1  30
TORSDOF 24
ENDMDL
MODEL 3
REMARK VINA RESULT:      -9.5      7.577     15.021
REMARK SMILES CCc1ccc2c(CC(=O)OCCOCCOCCOC(=O)c3ccc(-c4c5nc(c(-c6cc(S(=O)(=O)[O-])ccc6F)c6ccc([nH]6)c(-c6cc(S(=O)(=O)[O-])ccc6F)c6nc(c(-c7cc(S(=O)(=O)[O-])ccc7F)c7ccc4[nH]7)C=C6)C=C5)cc3)c(C(=O)c3cc(C)ccn3)[nH]c2c1
REMARK SMILES IDX 15 1 14 2 13 3 12 4 11 5 9 6 10 7 8 8 7 9 3 10 4 11 98 12
REMARK SMILES IDX 5 13 97 14 6 15 96 16 86 17 2 19 1 20 87 21 88 22 89 23
REMARK SMILES IDX 90 24 95 25 91 26 94 27 92 28 93 29 16 30 17 31 18 32 19 33
REMARK SMILES IDX 20 34 21 35 22 36 23 37 24 38 85 39 25 40 84 41 26 42 27 43
REMARK SMILES IDX 28 44 78 45 29 46 83 47 77 48 79 49 30 50 82 51 76 52 75 53
REMARK SMILES IDX 31 55 63 56 43 57 62 58 44 59 47 60 61 61 80 62 45 63 46 64
REMARK SMILES IDX 60 66 81 67 48 68 32 69 33 70 41 71 34 72 40 73 42 74 39 75
REMARK SMILES IDX 35 76 36 77 37 78 38 79 64 80 65 81 73 82 66 83 72 84 74 85
REMARK SMILES IDX 71 86 67 87 68 88 69 89 70 90 49 91 50 92 58 93 51 94 57 95
REMARK SMILES IDX 59 96 56 97 52 98 53 99 54 100 55 101
REMARK H PARENT 96 18 79 54 47 65
REMARK Flexibility Score: inf
ROOT
ATOM      1  C   UNL A   1      47.615  19.517  38.206  1.00  0.00     0.188 C 
ENDROOT
BRANCH   1   2
ATOM      2  O   UNL A   1      47.577  19.265  39.609  1.00  0.00    -0.376 OA
BRANCH   2   3
ATOM      3  C   UNL A   1      47.943  17.971  40.068  1.00  0.00     0.202 C 
BRANCH   3   4
ATOM      4  C   UNL A   1      47.470  17.602  41.479  1.00  0.00     0.261 C 
BRANCH   4   5
ATOM      5  O   UNL A   1      46.652  16.412  41.485  1.00  0.00    -0.463 OA
BRANCH   5   6
ATOM      6  C   UNL A   1      45.465  16.481  40.828  1.00  0.00     0.310 C 
ATOM      7  O   UNL A   1      45.285  15.997  39.715  1.00  0.00    -0.252 OA
BRANCH   6   8
ATOM      8  C   UNL A   1      44.324  17.053  41.663  1.00  0.00     0.161 C 
BRANCH   8   9
ATOM      9  C   UNL A   1      44.287  16.761  43.148  1.00  0.00     0.000 A 
ATOM     10  C   UNL A   1      45.057  19.049  46.612  1.00  0.00    -0.046 A 
ATOM     11  C   UNL A   1      45.462  19.622  45.400  1.00  0.00     0.004 A 
ATOM     12  C   UNL A   1      44.570  17.734  46.630  1.00  0.00     0.030 A 
ATOM     13  C   UNL A   1      45.338  18.929  44.186  1.00  0.00     0.011 A 
ATOM     14  C   UNL A   1      44.418  17.078  45.405  1.00  0.00     0.046 A 
ATOM     15  C   UNL A   1      44.756  17.646  44.181  1.00  0.00     0.004 A 
ATOM     16  N   UNL A   1      43.890  15.842  45.141  1.00  0.00    -0.352 N 
ATOM     17  C   UNL A   1      43.557  15.757  43.809  1.00  0.00     0.093 A 
ATOM     18  H   UNL A   1      43.767  15.125  45.804  1.00  0.00     0.167 HD
BRANCH  10  19
ATOM     19  C   UNL A   1      45.070  19.853  47.889  1.00  0.00     0.032 C 
ATOM     20  C   UNL A   1      44.912  21.347  47.650  1.00  0.00     0.009 C 
ENDBRANCH  10  19
BRANCH  17  21
ATOM     21  C   UNL A   1      42.558  14.824  43.301  1.00  0.00     0.227 C 
ATOM     22  O   UNL A   1      41.497  15.189  42.803  1.00  0.00    -0.285 OA
BRANCH  21  23
ATOM     23  C   UNL A   1      42.814  13.355  43.418  1.00  0.00     0.113 A 
ATOM     24  C   UNL A   1      43.503  12.830  44.508  1.00  0.00     0.036 A 
ATOM     25  N   UNL A   1      42.297  12.597  42.416  1.00  0.00    -0.253 NA
ATOM     26  C   UNL A   1      43.633  11.437  44.602  1.00  0.00    -0.047 A 
ATOM     27  C   UNL A   1      42.372  11.258  42.579  1.00  0.00     0.112 A 
ATOM     28  C   UNL A   1      44.380  10.772  45.723  1.00  0.00     0.044 C 
ATOM     29  C   UNL A   1      43.011  10.642  43.639  1.00  0.00     0.023 A 
ENDBRANCH  21  23
ENDBRANCH  17  21
ENDBRANCH   8   9
ENDBRANCH   6   8
ENDBRANCH   5   6
ENDBRANCH   4   5
ENDBRANCH   3   4
ENDBRANCH   2   3
ENDBRANCH   1   2
BRANCH   1  30
ATOM     30  C   UNL A   1      46.370  20.123  37.519  1.00  0.00     0.188 C 
BRANCH  30  31
ATOM     31  O   UNL A   1      46.653  20.785  36.293  1.00  0.00    -0.376 OA
BRANCH  31  32
ATOM     32  C   UNL A   1      47.259  22.061  36.446  1.00  0.00     0.202 C 
BRANCH  32  33
ATOM     33  C   UNL A   1      46.221  23.180  36.508  1.00  0.00     0.261 C 
BRANCH  33  34
ATOM     34  O   UNL A   1      46.825  24.478  36.324  1.00  0.00    -0.460 OA
BRANCH  34  35
ATOM     35  C   UNL A   1      46.207  25.535  36.880  1.00  0.00     0.338 C 
ATOM     36  O   UNL A   1      46.208  25.820  38.079  1.00  0.00    -0.246 OA
BRANCH  35  37
ATOM     37  C   UNL A   1      45.446  26.295  35.862  1.00  0.00     0.060 A 
ATOM     38  C   UNL A   1      45.929  27.472  35.278  1.00  0.00     0.016 A 
ATOM     39  C   UNL A   1      44.158  25.868  35.552  1.00  0.00     0.016 A 
ATOM     40  C   UNL A   1      45.120  28.245  34.435  1.00  0.00     0.010 A 
ATOM     41  C   UNL A   1      43.371  26.607  34.664  1.00  0.00     0.010 A 
ATOM     42  C   UNL A   1      43.832  27.815  34.108  1.00  0.00    -0.014 A 
BRANCH  42  43
ATOM     43  C   UNL A   1      42.919  28.600  33.232  1.00  0.00     0.031 A 
ATOM     44  C   UNL A   1      41.925  29.535  33.863  1.00  0.00     0.074 A 
ATOM     45  C   UNL A   1      42.905  28.428  31.896  1.00  0.00     0.049 A 
ATOM     46  N   UNL A   1      40.804  30.009  33.385  1.00  0.00    -0.248 NA
ATOM     47  C   UNL A   1      42.239  29.984  35.227  1.00  0.00     0.031 C 
ATOM     48  C   UNL A   1      43.878  27.656  31.126  1.00  0.00     0.029 A 
ATOM     49  N   UNL A   1      42.003  28.866  30.952  1.00  0.00    -0.354 N 
ATOM     50  C   UNL A   1      40.246  30.769  34.407  1.00  0.00     0.074 A 
ATOM     51  C   UNL A   1      41.160  30.690  35.531  1.00  0.00     0.031 C 
ATOM     52  C   UNL A   1      43.508  27.649  29.836  1.00  0.00     0.029 A 
ATOM     53  C   UNL A   1      42.221  28.326  29.704  1.00  0.00     0.049 A 
ATOM     54  H   UNL A   1      41.276  29.499  31.149  1.00  0.00     0.167 HD
ATOM     55  C   UNL A   1      39.074  31.451  34.406  1.00  0.00     0.034 A 
ATOM     56  C   UNL A   1      41.439  28.302  28.605  1.00  0.00     0.034 A 
ATOM     57  C   UNL A   1      38.189  31.522  33.265  1.00  0.00     0.049 A 
ATOM     58  C   UNL A   1      40.077  28.953  28.656  1.00  0.00     0.074 A 
ATOM     59  C   UNL A   1      36.969  32.169  33.155  1.00  0.00     0.029 A 
ATOM     60  N   UNL A   1      38.430  30.926  32.032  1.00  0.00    -0.354 N 
ATOM     61  N   UNL A   1      39.500  29.586  29.651  1.00  0.00    -0.248 NA
ATOM     62  C   UNL A   1      39.255  28.873  27.440  1.00  0.00     0.031 C 
ATOM     63  C   UNL A   1      36.441  31.904  31.886  1.00  0.00     0.029 A 
ATOM     64  C   UNL A   1      37.369  31.165  31.170  1.00  0.00     0.049 A 
ATOM     65  H   UNL A   1      39.235  30.408  31.804  1.00  0.00     0.167 HD
ATOM     66  C   UNL A   1      38.265  30.011  29.167  1.00  0.00     0.074 A 
ATOM     67  C   UNL A   1      38.180  29.563  27.793  1.00  0.00     0.031 C 
ATOM     68  C   UNL A   1      37.294  30.717  29.799  1.00  0.00     0.034 A 
BRANCH  55  69
ATOM     69  C   UNL A   1      38.643  32.103  35.698  1.00  0.00     0.023 A 
ATOM     70  C   UNL A   1      38.142  31.361  36.781  1.00  0.00     0.031 A 
ATOM     71  C   UNL A   1      38.713  33.501  35.836  1.00  0.00     0.131 A 
ATOM     72  C   UNL A   1      37.664  32.025  37.922  1.00  0.00     0.055 A 
ATOM     73  C   UNL A   1      38.317  34.149  37.007  1.00  0.00     0.041 A 
ATOM     74  F   UNL A   1      39.159  34.267  34.826  1.00  0.00    -0.206 F 
ATOM     75  C   UNL A   1      37.774  33.412  38.053  1.00  0.00     0.022 A 
BRANCH  72  76
ATOM     76  S   UNL A   1      36.758  31.066  39.168  1.00  0.00     0.124 S 
ATOM     77  O   UNL A   1      36.620  29.770  38.506  1.00  0.00    -0.237 OA
ATOM     78  O   UNL A   1      37.658  31.104  40.313  1.00  0.00    -0.237 OA
ATOM     79  O   UNL A   1      35.509  31.807  39.329  1.00  0.00    -0.744 OA
ENDBRANCH  72  76
ENDBRANCH  55  69
BRANCH  56  80
ATOM     80  C   UNL A   1      41.876  27.559  27.386  1.00  0.00     0.023 A 
ATOM     81  C   UNL A   1      41.803  26.159  27.325  1.00  0.00     0.031 A 
ATOM     82  C   UNL A   1      42.420  28.238  26.280  1.00  0.00     0.131 A 
ATOM     83  C   UNL A   1      42.300  25.481  26.201  1.00  0.00     0.055 A 
ATOM     84  C   UNL A   1      42.853  27.563  25.137  1.00  0.00     0.041 A 
ATOM     85  F   UNL A   1      42.527  29.576  26.287  1.00  0.00    -0.206 F 
ATOM     86  C   UNL A   1      42.807  26.174  25.099  1.00  0.00     0.022 A 
BRANCH  83  87
ATOM     87  S   UNL A   1      42.363  23.668  26.239  1.00  0.00     0.124 S 
ATOM     88  O   UNL A   1      40.946  23.323  26.219  1.00  0.00    -0.237 OA
ATOM     89  O   UNL A   1      43.115  23.365  25.026  1.00  0.00    -0.237 OA
ATOM     90  O   UNL A   1      43.059  23.378  27.491  1.00  0.00    -0.744 OA
ENDBRANCH  83  87
ENDBRANCH  56  80
BRANCH  68  91
ATOM     91  C   UNL A   1      36.088  31.122  28.985  1.00  0.00     0.023 A 
ATOM     92  C   UNL A   1      35.256  30.181  28.358  1.00  0.00     0.031 A 
ATOM     93  C   UNL A   1      35.767  32.486  28.849  1.00  0.00     0.131 A 
ATOM     94  C   UNL A   1      34.163  30.616  27.590  1.00  0.00     0.055 A 
ATOM     95  C   UNL A   1      34.650  32.910  28.128  1.00  0.00     0.041 A 
ATOM     96  F   UNL A   1      36.529  33.428  29.425  1.00  0.00    -0.206 F 
ATOM     97  C   UNL A   1      33.847  31.974  27.486  1.00  0.00     0.022 A 
BRANCH  94  98
ATOM     98  S   UNL A   1      33.193  29.390  26.670  1.00  0.00     0.124 S 
ATOM     99  O   UNL A   1      32.276  30.235  25.912  1.00  0.00    -0.237 OA
ATOM    100  O   UNL A   1      34.216  28.701  25.890  1.00  0.00    -0.237 OA
ATOM    101  O   UNL A   1      32.570  28.585  27.719  1.00  0.00    -0.744 OA
ENDBRANCH  94  98
ENDBRANCH  68  91
ENDBRANCH  42  43
ENDBRANCH  35  37
ENDBRANCH  34  35
ENDBRANCH  33  34
ENDBRANCH  32  33
ENDBRANCH  31  32
ENDBRANCH  30  31
ENDBRANCH   1  30
TORSDOF 24
ENDMDL
