MODEL 1
REMARK VINA RESULT:     -10.3      0.000      0.000
REMARK SMILES COc1ccc(Cc2ncc(C(=O)OCCOCCOCCOC(=O)c3ccc(-c4c5nc(c(-c6cc(S(=O)(=O)[O-])ccc6F)c6ccc([nH]6)c(-c6cc(S(=O)(=O)[O-])ccc6F)c6nc(c(-c7cc(S(=O)(=O)[O-])ccc7F)c7ccc4[nH]7)C=C6)C=C5)cc3)c(C)n2)cn1
REMARK SMILES IDX 18 1 17 2 16 3 15 4 14 5 12 6 13 7 11 8 8 9 9 10 91 11 10 12
REMARK SMILES IDX 89 13 90 14 7 15 6 16 3 17 4 18 93 19 5 20 92 21 2 22 1 23
REMARK SMILES IDX 19 24 20 25 21 26 22 27 23 28 24 29 25 30 26 31 27 32 88 33
REMARK SMILES IDX 28 34 87 35 29 36 30 37 31 38 81 39 32 40 86 41 80 42 82 43
REMARK SMILES IDX 33 44 85 45 79 46 78 47 34 49 66 50 46 51 65 52 47 53 50 54
REMARK SMILES IDX 64 55 83 56 48 57 49 58 63 60 84 61 51 62 35 63 36 64 44 65
REMARK SMILES IDX 37 66 43 67 45 68 42 69 38 70 39 71 40 72 41 73 67 74 68 75
REMARK SMILES IDX 76 76 69 77 75 78 77 79 74 80 70 81 71 82 72 83 73 84 52 85
REMARK SMILES IDX 53 86 61 87 54 88 60 89 62 90 59 91 55 92 56 93 57 94 58 95
REMARK H PARENT 82 48 50 59
REMARK Flexibility Score: inf
ROOT
ATOM      1  C   UNL A   1      34.001  28.969  26.593  1.00  0.00     0.188 C 
ENDROOT
BRANCH   1   2
ATOM      2  O   UNL A   1      34.395  27.615  26.386  1.00  0.00    -0.376 OA
BRANCH   2   3
ATOM      3  C   UNL A   1      33.395  26.635  26.122  1.00  0.00     0.202 C 
BRANCH   3   4
ATOM      4  C   UNL A   1      33.731  25.564  25.083  1.00  0.00     0.261 C 
BRANCH   4   5
ATOM      5  O   UNL A   1      33.982  26.131  23.784  1.00  0.00    -0.460 OA
BRANCH   5   6
ATOM      6  C   UNL A   1      33.205  25.662  22.782  1.00  0.00     0.341 C 
ATOM      7  O   UNL A   1      33.513  24.812  21.964  1.00  0.00    -0.246 OA
BRANCH   6   8
ATOM      8  C   UNL A   1      31.835  26.184  22.896  1.00  0.00     0.099 A 
ATOM      9  C   UNL A   1      29.417  27.414  23.149  1.00  0.00     0.133 A 
ATOM     10  N   UNL A   1      30.442  28.138  22.665  1.00  0.00    -0.240 NA
ATOM     11  N   UNL A   1      29.511  26.105  23.478  1.00  0.00    -0.237 NA
ATOM     12  C   UNL A   1      31.631  27.506  22.555  1.00  0.00     0.130 A 
ATOM     13  C   UNL A   1      30.720  25.494  23.338  1.00  0.00     0.056 A 
ATOM     14  C   UNL A   1      30.765  24.061  23.781  1.00  0.00     0.068 C 
BRANCH   9  15
ATOM     15  C   UNL A   1      28.147  28.151  23.505  1.00  0.00     0.114 C 
BRANCH  15  16
ATOM     16  C   UNL A   1      27.986  29.531  22.927  1.00  0.00    -0.022 A 
ATOM     17  C   UNL A   1      27.860  32.036  21.813  1.00  0.00     0.212 A 
ATOM     18  C   UNL A   1      27.765  31.923  23.189  1.00  0.00     0.069 A 
ATOM     19  N   UNL A   1      27.988  30.982  20.984  1.00  0.00    -0.222 NA
ATOM     20  C   UNL A   1      27.836  30.651  23.752  1.00  0.00     0.011 A 
ATOM     21  C   UNL A   1      28.055  29.758  21.554  1.00  0.00     0.119 A 
BRANCH  17  22
ATOM     22  O   UNL A   1      27.743  33.259  21.207  1.00  0.00    -0.481 OA
ATOM     23  C   UNL A   1      27.838  33.134  19.791  1.00  0.00     0.280 C 
ENDBRANCH  17  22
ENDBRANCH  15  16
ENDBRANCH   9  15
ENDBRANCH   6   8
ENDBRANCH   5   6
ENDBRANCH   4   5
ENDBRANCH   3   4
ENDBRANCH   2   3
ENDBRANCH   1   2
BRANCH   1  24
ATOM     24  C   UNL A   1      32.697  29.479  25.946  1.00  0.00     0.188 C 
BRANCH  24  25
ATOM     25  O   UNL A   1      31.829  30.163  26.836  1.00  0.00    -0.376 OA
BRANCH  25  26
ATOM     26  C   UNL A   1      31.941  31.582  26.825  1.00  0.00     0.202 C 
BRANCH  26  27
ATOM     27  C   UNL A   1      33.068  32.143  27.701  1.00  0.00     0.261 C 
BRANCH  27  28
ATOM     28  O   UNL A   1      33.387  33.527  27.479  1.00  0.00    -0.460 OA
BRANCH  28  29
ATOM     29  C   UNL A   1      33.417  34.333  28.567  1.00  0.00     0.338 C 
ATOM     30  O   UNL A   1      32.569  35.143  28.894  1.00  0.00    -0.246 OA
BRANCH  29  31
ATOM     31  C   UNL A   1      34.576  33.927  29.392  1.00  0.00     0.060 A 
ATOM     32  C   UNL A   1      35.871  34.194  28.932  1.00  0.00     0.016 A 
ATOM     33  C   UNL A   1      34.380  33.302  30.627  1.00  0.00     0.016 A 
ATOM     34  C   UNL A   1      36.977  33.817  29.702  1.00  0.00     0.010 A 
ATOM     35  C   UNL A   1      35.485  32.912  31.387  1.00  0.00     0.010 A 
ATOM     36  C   UNL A   1      36.790  33.148  30.920  1.00  0.00    -0.014 A 
BRANCH  36  37
ATOM     37  C   UNL A   1      37.947  32.542  31.629  1.00  0.00     0.031 A 
ATOM     38  C   UNL A   1      38.669  31.395  30.975  1.00  0.00     0.074 A 
ATOM     39  C   UNL A   1      38.342  32.989  32.835  1.00  0.00     0.049 A 
ATOM     40  N   UNL A   1      39.664  30.672  31.422  1.00  0.00    -0.248 NA
ATOM     41  C   UNL A   1      38.191  31.008  29.640  1.00  0.00     0.031 C 
ATOM     42  C   UNL A   1      37.741  34.106  33.561  1.00  0.00     0.029 A 
ATOM     43  N   UNL A   1      39.341  32.545  33.668  1.00  0.00    -0.354 N 
ATOM     44  C   UNL A   1      39.937  29.748  30.419  1.00  0.00     0.074 A 
ATOM     45  C   UNL A   1      38.970  29.975  29.365  1.00  0.00     0.031 C 
ATOM     46  C   UNL A   1      38.377  34.252  34.737  1.00  0.00     0.029 A 
ATOM     47  C   UNL A   1      39.407  33.222  34.863  1.00  0.00     0.049 A 
ATOM     48  H   UNL A   1      39.952  31.811  33.430  1.00  0.00     0.167 HD
ATOM     49  C   UNL A   1      40.910  28.805  30.375  1.00  0.00     0.034 A 
ATOM     50  C   UNL A   1      40.193  33.018  35.940  1.00  0.00     0.034 A 
ATOM     51  C   UNL A   1      41.852  28.572  31.443  1.00  0.00     0.049 A 
ATOM     52  C   UNL A   1      41.213  31.903  35.909  1.00  0.00     0.074 A 
ATOM     53  C   UNL A   1      42.887  27.653  31.498  1.00  0.00     0.029 A 
ATOM     54  N   UNL A   1      41.863  29.251  32.656  1.00  0.00    -0.354 N 
ATOM     55  N   UNL A   1      41.476  31.047  34.948  1.00  0.00    -0.248 NA
ATOM     56  C   UNL A   1      42.045  31.732  37.108  1.00  0.00     0.031 C 
ATOM     57  C   UNL A   1      43.474  27.728  32.766  1.00  0.00     0.029 A 
ATOM     58  C   UNL A   1      42.860  28.746  33.478  1.00  0.00     0.049 A 
ATOM     59  H   UNL A   1      41.253  29.984  32.897  1.00  0.00     0.167 HD
ATOM     60  C   UNL A   1      42.523  30.257  35.418  1.00  0.00     0.074 A 
ATOM     61  C   UNL A   1      42.849  30.745  36.742  1.00  0.00     0.031 C 
ATOM     62  C   UNL A   1      43.164  29.227  34.806  1.00  0.00     0.034 A 
BRANCH  49  63
ATOM     63  C   UNL A   1      40.957  27.922  29.151  1.00  0.00     0.023 A 
ATOM     64  C   UNL A   1      41.943  28.079  28.160  1.00  0.00     0.031 A 
ATOM     65  C   UNL A   1      39.969  26.941  28.948  1.00  0.00     0.131 A 
ATOM     66  C   UNL A   1      41.876  27.322  26.979  1.00  0.00     0.055 A 
ATOM     67  C   UNL A   1      39.955  26.137  27.806  1.00  0.00     0.041 A 
ATOM     68  F   UNL A   1      38.988  26.761  29.846  1.00  0.00    -0.206 F 
ATOM     69  C   UNL A   1      40.901  26.336  26.806  1.00  0.00     0.022 A 
BRANCH  66  70
ATOM     70  S   UNL A   1      42.987  27.747  25.609  1.00  0.00     0.124 S 
ATOM     71  O   UNL A   1      43.971  28.595  26.276  1.00  0.00    -0.237 OA
ATOM     72  O   UNL A   1      43.460  26.440  25.168  1.00  0.00    -0.237 OA
ATOM     73  O   UNL A   1      42.116  28.445  24.665  1.00  0.00    -0.744 OA
ENDBRANCH  66  70
ENDBRANCH  49  63
BRANCH  50  74
ATOM     74  C   UNL A   1      40.027  33.853  37.166  1.00  0.00     0.023 A 
ATOM     75  C   UNL A   1      40.963  34.840  37.510  1.00  0.00     0.031 A 
ATOM     76  C   UNL A   1      38.948  33.631  38.043  1.00  0.00     0.131 A 
ATOM     77  C   UNL A   1      40.827  35.542  38.719  1.00  0.00     0.055 A 
ATOM     78  C   UNL A   1      38.792  34.365  39.219  1.00  0.00     0.041 A 
ATOM     79  F   UNL A   1      38.027  32.696  37.763  1.00  0.00    -0.206 F 
ATOM     80  C   UNL A   1      39.740  35.320  39.569  1.00  0.00     0.022 A 
BRANCH  77  81
ATOM     81  S   UNL A   1      42.133  36.704  39.206  1.00  0.00     0.124 S 
ATOM     82  O   UNL A   1      43.120  35.810  39.801  1.00  0.00    -0.237 OA
ATOM     83  O   UNL A   1      42.497  37.304  37.927  1.00  0.00    -0.237 OA
ATOM     84  O   UNL A   1      41.460  37.601  40.143  1.00  0.00    -0.744 OA
ENDBRANCH  77  81
ENDBRANCH  50  74
BRANCH  62  85
ATOM     85  C   UNL A   1      44.312  28.589  35.552  1.00  0.00     0.023 A 
ATOM     86  C   UNL A   1      44.108  27.561  36.491  1.00  0.00     0.031 A 
ATOM     87  C   UNL A   1      45.630  29.024  35.325  1.00  0.00     0.131 A 
ATOM     88  C   UNL A   1      45.200  27.037  37.203  1.00  0.00     0.055 A 
ATOM     89  C   UNL A   1      46.717  28.461  35.996  1.00  0.00     0.041 A 
ATOM     90  F   UNL A   1      45.884  30.003  34.443  1.00  0.00    -0.206 F 
ATOM     91  C   UNL A   1      46.504  27.470  36.949  1.00  0.00     0.022 A 
BRANCH  88  92
ATOM     92  S   UNL A   1      44.886  25.840  38.530  1.00  0.00     0.124 S 
ATOM     93  O   UNL A   1      46.239  25.495  38.955  1.00  0.00    -0.237 OA
ATOM     94  O   UNL A   1      44.100  26.622  39.479  1.00  0.00    -0.237 OA
ATOM     95  O   UNL A   1      44.155  24.767  37.858  1.00  0.00    -0.744 OA
ENDBRANCH  88  92
ENDBRANCH  62  85
ENDBRANCH  36  37
ENDBRANCH  29  31
ENDBRANCH  28  29
ENDBRANCH  27  28
ENDBRANCH  26  27
ENDBRANCH  25  26
ENDBRANCH  24  25
ENDBRANCH   1  24
TORSDOF 23
ENDMDL
MODEL 2
REMARK VINA RESULT:     -10.1      5.663     10.801
REMARK SMILES COc1ccc(Cc2ncc(C(=O)OCCOCCOCCOC(=O)c3ccc(-c4c5nc(c(-c6cc(S(=O)(=O)[O-])ccc6F)c6ccc([nH]6)c(-c6cc(S(=O)(=O)[O-])ccc6F)c6nc(c(-c7cc(S(=O)(=O)[O-])ccc7F)c7ccc4[nH]7)C=C6)C=C5)cc3)c(C)n2)cn1
REMARK SMILES IDX 18 1 17 2 16 3 15 4 14 5 12 6 13 7 11 8 8 9 9 10 91 11 10 12
REMARK SMILES IDX 89 13 90 14 7 15 6 16 3 17 4 18 93 19 5 20 92 21 2 22 1 23
REMARK SMILES IDX 19 24 20 25 21 26 22 27 23 28 24 29 25 30 26 31 27 32 88 33
REMARK SMILES IDX 28 34 87 35 29 36 30 37 31 38 81 39 32 40 86 41 80 42 82 43
REMARK SMILES IDX 33 44 85 45 79 46 78 47 34 49 66 50 46 51 65 52 47 53 50 54
REMARK SMILES IDX 64 55 83 56 48 57 49 58 63 60 84 61 51 62 35 63 36 64 44 65
REMARK SMILES IDX 37 66 43 67 45 68 42 69 38 70 39 71 40 72 41 73 67 74 68 75
REMARK SMILES IDX 76 76 69 77 75 78 77 79 74 80 70 81 71 82 72 83 73 84 52 85
REMARK SMILES IDX 53 86 61 87 54 88 60 89 62 90 59 91 55 92 56 93 57 94 58 95
REMARK H PARENT 82 48 50 59
REMARK Flexibility Score: inf
ROOT
ATOM      1  C   UNL A   1      35.556  21.900  25.924  1.00  0.00     0.188 C 
ENDROOT
BRANCH   1   2
ATOM      2  O   UNL A   1      34.329  22.567  25.641  1.00  0.00    -0.376 OA
BRANCH   2   3
ATOM      3  C   UNL A   1      34.134  23.893  26.124  1.00  0.00     0.202 C 
BRANCH   3   4
ATOM      4  C   UNL A   1      34.180  25.021  25.090  1.00  0.00     0.261 C 
BRANCH   4   5
ATOM      5  O   UNL A   1      33.566  24.638  23.846  1.00  0.00    -0.460 OA
BRANCH   5   6
ATOM      6  C   UNL A   1      33.395  25.636  22.949  1.00  0.00     0.341 C 
ATOM      7  O   UNL A   1      34.100  25.868  21.981  1.00  0.00    -0.246 OA
BRANCH   6   8
ATOM      8  C   UNL A   1      32.120  26.330  23.176  1.00  0.00     0.099 A 
ATOM      9  C   UNL A   1      29.627  27.392  23.463  1.00  0.00     0.133 A 
ATOM     10  N   UNL A   1      29.737  26.052  23.419  1.00  0.00    -0.240 NA
ATOM     11  N   UNL A   1      30.684  28.236  23.413  1.00  0.00    -0.237 NA
ATOM     12  C   UNL A   1      30.983  25.552  23.270  1.00  0.00     0.130 A 
ATOM     13  C   UNL A   1      31.928  27.697  23.280  1.00  0.00     0.056 A 
ATOM     14  C   UNL A   1      33.044  28.692  23.168  1.00  0.00     0.068 C 
BRANCH   9  15
ATOM     15  C   UNL A   1      28.237  27.982  23.388  1.00  0.00     0.114 C 
BRANCH  15  16
ATOM     16  C   UNL A   1      28.137  29.404  22.904  1.00  0.00    -0.022 A 
ATOM     17  C   UNL A   1      28.130  31.997  22.007  1.00  0.00     0.212 A 
ATOM     18  C   UNL A   1      27.689  31.746  23.295  1.00  0.00     0.069 A 
ATOM     19  N   UNL A   1      28.541  31.036  21.158  1.00  0.00    -0.222 NA
ATOM     20  C   UNL A   1      27.700  30.429  23.750  1.00  0.00     0.011 A 
ATOM     21  C   UNL A   1      28.542  29.766  21.622  1.00  0.00     0.119 A 
BRANCH  17  22
ATOM     22  O   UNL A   1      28.089  33.267  21.495  1.00  0.00    -0.481 OA
ATOM     23  C   UNL A   1      27.433  33.281  20.231  1.00  0.00     0.280 C 
ENDBRANCH  17  22
ENDBRANCH  15  16
ENDBRANCH   9  15
ENDBRANCH   6   8
ENDBRANCH   5   6
ENDBRANCH   4   5
ENDBRANCH   3   4
ENDBRANCH   2   3
ENDBRANCH   1   2
BRANCH   1  24
ATOM     24  C   UNL A   1      36.761  22.116  24.986  1.00  0.00     0.188 C 
BRANCH  24  25
ATOM     25  O   UNL A   1      38.025  21.903  25.594  1.00  0.00    -0.376 OA
BRANCH  25  26
ATOM     26  C   UNL A   1      38.607  20.626  25.357  1.00  0.00     0.202 C 
BRANCH  26  27
ATOM     27  C   UNL A   1      39.838  20.312  26.218  1.00  0.00     0.261 C 
BRANCH  27  28
ATOM     28  O   UNL A   1      40.820  19.464  25.600  1.00  0.00    -0.460 OA
BRANCH  28  29
ATOM     29  C   UNL A   1      42.069  19.487  26.124  1.00  0.00     0.338 C 
ATOM     30  O   UNL A   1      42.844  18.551  26.195  1.00  0.00    -0.246 OA
BRANCH  29  31
ATOM     31  C   UNL A   1      42.400  20.897  26.428  1.00  0.00     0.060 A 
ATOM     32  C   UNL A   1      42.543  21.808  25.375  1.00  0.00     0.016 A 
ATOM     33  C   UNL A   1      42.548  21.317  27.752  1.00  0.00     0.016 A 
ATOM     34  C   UNL A   1      42.855  23.145  25.647  1.00  0.00     0.010 A 
ATOM     35  C   UNL A   1      42.876  22.649  28.021  1.00  0.00     0.010 A 
ATOM     36  C   UNL A   1      43.051  23.566  26.970  1.00  0.00    -0.014 A 
BRANCH  36  37
ATOM     37  C   UNL A   1      43.604  24.916  27.254  1.00  0.00     0.031 A 
ATOM     38  C   UNL A   1      42.680  25.967  27.807  1.00  0.00     0.074 A 
ATOM     39  C   UNL A   1      44.895  25.209  27.014  1.00  0.00     0.049 A 
ATOM     40  N   UNL A   1      42.917  27.225  28.080  1.00  0.00    -0.248 NA
ATOM     41  C   UNL A   1      41.300  25.538  28.076  1.00  0.00     0.031 C 
ATOM     42  C   UNL A   1      45.893  24.273  26.502  1.00  0.00     0.029 A 
ATOM     43  N   UNL A   1      45.583  26.390  27.160  1.00  0.00    -0.354 N 
ATOM     44  C   UNL A   1      41.716  27.737  28.561  1.00  0.00     0.074 A 
ATOM     45  C   UNL A   1      40.746  26.664  28.495  1.00  0.00     0.031 C 
ATOM     46  C   UNL A   1      47.065  24.919  26.366  1.00  0.00     0.029 A 
ATOM     47  C   UNL A   1      46.894  26.320  26.749  1.00  0.00     0.049 A 
ATOM     48  H   UNL A   1      45.176  27.208  27.525  1.00  0.00     0.167 HD
ATOM     49  C   UNL A   1      41.449  28.984  29.024  1.00  0.00     0.034 A 
ATOM     50  C   UNL A   1      47.837  27.281  26.671  1.00  0.00     0.034 A 
ATOM     51  C   UNL A   1      42.419  30.052  29.061  1.00  0.00     0.049 A 
ATOM     52  C   UNL A   1      47.496  28.687  27.108  1.00  0.00     0.074 A 
ATOM     53  C   UNL A   1      42.260  31.347  29.523  1.00  0.00     0.029 A 
ATOM     54  N   UNL A   1      43.727  29.955  28.599  1.00  0.00    -0.354 N 
ATOM     55  N   UNL A   1      46.363  29.157  27.580  1.00  0.00    -0.248 NA
ATOM     56  C   UNL A   1      48.565  29.691  27.008  1.00  0.00     0.031 C 
ATOM     57  C   UNL A   1      43.444  32.050  29.276  1.00  0.00     0.029 A 
ATOM     58  C   UNL A   1      44.371  31.177  28.731  1.00  0.00     0.049 A 
ATOM     59  H   UNL A   1      44.136  29.139  28.233  1.00  0.00     0.167 HD
ATOM     60  C   UNL A   1      46.594  30.502  27.858  1.00  0.00     0.074 A 
ATOM     61  C   UNL A   1      47.976  30.765  27.511  1.00  0.00     0.031 C 
ATOM     62  C   UNL A   1      45.744  31.434  28.363  1.00  0.00     0.034 A 
BRANCH  49  63
ATOM     63  C   UNL A   1      40.034  29.262  29.471  1.00  0.00     0.023 A 
ATOM     64  C   UNL A   1      39.680  29.298  30.833  1.00  0.00     0.031 A 
ATOM     65  C   UNL A   1      39.014  29.444  28.520  1.00  0.00     0.131 A 
ATOM     66  C   UNL A   1      38.332  29.434  31.202  1.00  0.00     0.055 A 
ATOM     67  C   UNL A   1      37.687  29.659  28.897  1.00  0.00     0.041 A 
ATOM     68  F   UNL A   1      39.287  29.395  27.207  1.00  0.00    -0.206 F 
ATOM     69  C   UNL A   1      37.336  29.638  30.243  1.00  0.00     0.022 A 
BRANCH  66  70
ATOM     70  S   UNL A   1      37.877  29.191  32.941  1.00  0.00     0.124 S 
ATOM     71  O   UNL A   1      36.685  30.026  33.056  1.00  0.00    -0.237 OA
ATOM     72  O   UNL A   1      37.661  27.750  33.014  1.00  0.00    -0.237 OA
ATOM     73  O   UNL A   1      39.043  29.682  33.672  1.00  0.00    -0.744 OA
ENDBRANCH  66  70
ENDBRANCH  49  63
BRANCH  50  74
ATOM     74  C   UNL A   1      49.188  26.972  26.117  1.00  0.00     0.023 A 
ATOM     75  C   UNL A   1      50.286  26.735  26.959  1.00  0.00     0.031 A 
ATOM     76  C   UNL A   1      49.407  26.965  24.727  1.00  0.00     0.131 A 
ATOM     77  C   UNL A   1      51.562  26.540  26.404  1.00  0.00     0.055 A 
ATOM     78  C   UNL A   1      50.668  26.724  24.180  1.00  0.00     0.041 A 
ATOM     79  F   UNL A   1      48.391  27.190  23.878  1.00  0.00    -0.206 F 
ATOM     80  C   UNL A   1      51.758  26.520  25.021  1.00  0.00     0.022 A 
BRANCH  77  81
ATOM     81  S   UNL A   1      52.984  26.386  27.521  1.00  0.00     0.124 S 
ATOM     82  O   UNL A   1      53.546  25.103  27.113  1.00  0.00    -0.237 OA
ATOM     83  O   UNL A   1      53.768  27.568  27.179  1.00  0.00    -0.237 OA
ATOM     84  O   UNL A   1      52.378  26.407  28.851  1.00  0.00    -0.744 OA
ENDBRANCH  77  81
ENDBRANCH  50  74
BRANCH  62  85
ATOM     85  C   UNL A   1      46.304  32.816  28.609  1.00  0.00     0.023 A 
ATOM     86  C   UNL A   1      46.316  33.801  27.606  1.00  0.00     0.031 A 
ATOM     87  C   UNL A   1      46.840  33.146  29.867  1.00  0.00     0.131 A 
ATOM     88  C   UNL A   1      46.899  35.054  27.863  1.00  0.00     0.055 A 
ATOM     89  C   UNL A   1      47.367  34.410  30.133  1.00  0.00     0.041 A 
ATOM     90  F   UNL A   1      46.857  32.245  30.861  1.00  0.00    -0.206 F 
ATOM     91  C   UNL A   1      47.409  35.369  29.125  1.00  0.00     0.022 A 
BRANCH  88  92
ATOM     92  S   UNL A   1      47.059  36.241  26.500  1.00  0.00     0.124 S 
ATOM     93  O   UNL A   1      47.833  37.312  27.119  1.00  0.00    -0.237 OA
ATOM     94  O   UNL A   1      47.754  35.459  25.483  1.00  0.00    -0.237 OA
ATOM     95  O   UNL A   1      45.675  36.582  26.178  1.00  0.00    -0.744 OA
ENDBRANCH  88  92
ENDBRANCH  62  85
ENDBRANCH  36  37
ENDBRANCH  29  31
ENDBRANCH  28  29
ENDBRANCH  27  28
ENDBRANCH  26  27
ENDBRANCH  25  26
ENDBRANCH  24  25
ENDBRANCH   1  24
TORSDOF 23
ENDMDL
MODEL 3
REMARK VINA RESULT:      -9.8      5.517     10.569
REMARK SMILES COc1ccc(Cc2ncc(C(=O)OCCOCCOCCOC(=O)c3ccc(-c4c5nc(c(-c6cc(S(=O)(=O)[O-])ccc6F)c6ccc([nH]6)c(-c6cc(S(=O)(=O)[O-])ccc6F)c6nc(c(-c7cc(S(=O)(=O)[O-])ccc7F)c7ccc4[nH]7)C=C6)C=C5)cc3)c(C)n2)cn1
REMARK SMILES IDX 18 1 17 2 16 3 15 4 14 5 12 6 13 7 11 8 8 9 9 10 91 11 10 12
REMARK SMILES IDX 89 13 90 14 7 15 6 16 3 17 4 18 93 19 5 20 92 21 2 22 1 23
REMARK SMILES IDX 19 24 20 25 21 26 22 27 23 28 24 29 25 30 26 31 27 32 88 33
REMARK SMILES IDX 28 34 87 35 29 36 30 37 31 38 81 39 32 40 86 41 80 42 82 43
REMARK SMILES IDX 33 44 85 45 79 46 78 47 34 49 66 50 46 51 65 52 47 53 50 54
REMARK SMILES IDX 64 55 83 56 48 57 49 58 63 60 84 61 51 62 35 63 36 64 44 65
REMARK SMILES IDX 37 66 43 67 45 68 42 69 38 70 39 71 40 72 41 73 67 74 68 75
REMARK SMILES IDX 76 76 69 77 75 78 77 79 74 80 70 81 71 82 72 83 73 84 52 85
REMARK SMILES IDX 53 86 61 87 54 88 60 89 62 90 59 91 55 92 56 93 57 94 58 95
REMARK H PARENT 82 48 50 59
REMARK Flexibility Score: inf
ROOT
ATOM      1  C   UNL A   1      35.436  21.840  25.829  1.00  0.00     0.188 C 
ENDROOT
BRANCH   1   2
ATOM      2  O   UNL A   1      34.189  22.470  25.545  1.00  0.00    -0.376 OA
BRANCH   2   3
ATOM      3  C   UNL A   1      33.925  23.760  26.087  1.00  0.00     0.202 C 
BRANCH   3   4
ATOM      4  C   UNL A   1      33.979  24.944  25.118  1.00  0.00     0.261 C 
BRANCH   4   5
ATOM      5  O   UNL A   1      33.464  24.601  23.818  1.00  0.00    -0.460 OA
BRANCH   5   6
ATOM      6  C   UNL A   1      33.322  25.633  22.956  1.00  0.00     0.341 C 
ATOM      7  O   UNL A   1      34.031  25.875  21.993  1.00  0.00    -0.246 OA
BRANCH   6   8
ATOM      8  C   UNL A   1      32.071  26.361  23.214  1.00  0.00     0.099 A 
ATOM      9  C   UNL A   1      29.617  27.499  23.537  1.00  0.00     0.133 A 
ATOM     10  N   UNL A   1      29.674  26.163  23.392  1.00  0.00    -0.240 NA
ATOM     11  N   UNL A   1      30.708  28.300  23.570  1.00  0.00    -0.237 NA
ATOM     12  C   UNL A   1      30.903  25.625  23.227  1.00  0.00     0.130 A 
ATOM     13  C   UNL A   1      31.932  27.722  23.419  1.00  0.00     0.056 A 
ATOM     14  C   UNL A   1      33.089  28.676  23.404  1.00  0.00     0.068 C 
BRANCH   9  15
ATOM     15  C   UNL A   1      28.254  28.150  23.483  1.00  0.00     0.114 C 
BRANCH  15  16
ATOM     16  C   UNL A   1      28.198  29.547  22.925  1.00  0.00    -0.022 A 
ATOM     17  C   UNL A   1      27.920  32.083  21.915  1.00  0.00     0.212 A 
ATOM     18  C   UNL A   1      28.480  31.111  21.105  1.00  0.00     0.069 A 
ATOM     19  N   UNL A   1      27.524  31.861  23.183  1.00  0.00    -0.222 NA
ATOM     20  C   UNL A   1      28.614  29.823  21.618  1.00  0.00     0.011 A 
ATOM     21  C   UNL A   1      27.664  30.603  23.659  1.00  0.00     0.119 A 
BRANCH  17  22
ATOM     22  O   UNL A   1      27.816  33.377  21.477  1.00  0.00    -0.481 OA
ATOM     23  C   UNL A   1      27.403  33.417  20.114  1.00  0.00     0.280 C 
ENDBRANCH  17  22
ENDBRANCH  15  16
ENDBRANCH   9  15
ENDBRANCH   6   8
ENDBRANCH   5   6
ENDBRANCH   4   5
ENDBRANCH   3   4
ENDBRANCH   2   3
ENDBRANCH   1   2
BRANCH   1  24
ATOM     24  C   UNL A   1      36.589  21.966  24.812  1.00  0.00     0.188 C 
BRANCH  24  25
ATOM     25  O   UNL A   1      37.884  21.819  25.372  1.00  0.00    -0.376 OA
BRANCH  25  26
ATOM     26  C   UNL A   1      38.417  20.500  25.336  1.00  0.00     0.202 C 
BRANCH  26  27
ATOM     27  C   UNL A   1      39.653  20.282  26.219  1.00  0.00     0.261 C 
BRANCH  27  28
ATOM     28  O   UNL A   1      40.554  19.255  25.773  1.00  0.00    -0.460 OA
BRANCH  28  29
ATOM     29  C   UNL A   1      41.840  19.342  26.189  1.00  0.00     0.338 C 
ATOM     30  O   UNL A   1      42.671  18.453  26.170  1.00  0.00    -0.246 OA
BRANCH  29  31
ATOM     31  C   UNL A   1      42.113  20.762  26.501  1.00  0.00     0.060 A 
ATOM     32  C   UNL A   1      42.215  21.686  25.454  1.00  0.00     0.016 A 
ATOM     33  C   UNL A   1      42.249  21.180  27.828  1.00  0.00     0.016 A 
ATOM     34  C   UNL A   1      42.471  23.033  25.734  1.00  0.00     0.010 A 
ATOM     35  C   UNL A   1      42.522  22.522  28.105  1.00  0.00     0.010 A 
ATOM     36  C   UNL A   1      42.655  23.452  27.059  1.00  0.00    -0.014 A 
BRANCH  36  37
ATOM     37  C   UNL A   1      43.153  24.822  27.350  1.00  0.00     0.031 A 
ATOM     38  C   UNL A   1      42.204  25.814  27.967  1.00  0.00     0.074 A 
ATOM     39  C   UNL A   1      44.416  25.185  27.061  1.00  0.00     0.049 A 
ATOM     40  N   UNL A   1      42.390  27.076  28.258  1.00  0.00    -0.248 NA
ATOM     41  C   UNL A   1      40.860  25.311  28.286  1.00  0.00     0.031 C 
ATOM     42  C   UNL A   1      45.436  24.311  26.484  1.00  0.00     0.029 A 
ATOM     43  N   UNL A   1      45.051  26.396  27.204  1.00  0.00    -0.354 N 
ATOM     44  C   UNL A   1      41.188  27.517  28.802  1.00  0.00     0.074 A 
ATOM     45  C   UNL A   1      40.270  26.398  28.754  1.00  0.00     0.031 C 
ATOM     46  C   UNL A   1      46.567  25.019  26.312  1.00  0.00     0.029 A 
ATOM     47  C   UNL A   1      46.343  26.401  26.735  1.00  0.00     0.049 A 
ATOM     48  H   UNL A   1      44.620  27.184  27.605  1.00  0.00     0.167 HD
ATOM     49  C   UNL A   1      40.881  28.738  29.306  1.00  0.00     0.034 A 
ATOM     50  C   UNL A   1      47.234  27.410  26.639  1.00  0.00     0.034 A 
ATOM     51  C   UNL A   1      41.797  29.853  29.325  1.00  0.00     0.049 A 
ATOM     52  C   UNL A   1      46.843  28.787  27.123  1.00  0.00     0.074 A 
ATOM     53  C   UNL A   1      41.595  31.129  29.824  1.00  0.00     0.029 A 
ATOM     54  N   UNL A   1      43.086  29.832  28.805  1.00  0.00    -0.354 N 
ATOM     55  N   UNL A   1      45.711  29.189  27.654  1.00  0.00    -0.248 NA
ATOM     56  C   UNL A   1      47.856  29.846  26.998  1.00  0.00     0.031 C 
ATOM     57  C   UNL A   1      42.731  31.896  29.541  1.00  0.00     0.029 A 
ATOM     58  C   UNL A   1      43.675  31.082  28.936  1.00  0.00     0.049 A 
ATOM     59  H   UNL A   1      43.519  29.045  28.402  1.00  0.00     0.167 HD
ATOM     60  C   UNL A   1      45.888  30.538  27.952  1.00  0.00     0.074 A 
ATOM     61  C   UNL A   1      47.238  30.878  27.552  1.00  0.00     0.031 C 
ATOM     62  C   UNL A   1      45.016  31.415  28.515  1.00  0.00     0.034 A 
BRANCH  49  63
ATOM     63  C   UNL A   1      39.475  28.935  29.820  1.00  0.00     0.023 A 
ATOM     64  C   UNL A   1      38.470  29.519  29.027  1.00  0.00     0.031 A 
ATOM     65  C   UNL A   1      39.148  28.580  31.141  1.00  0.00     0.131 A 
ATOM     66  C   UNL A   1      37.212  29.799  29.585  1.00  0.00     0.055 A 
ATOM     67  C   UNL A   1      37.871  28.789  31.665  1.00  0.00     0.041 A 
ATOM     68  F   UNL A   1      40.072  28.043  31.954  1.00  0.00    -0.206 F 
ATOM     69  C   UNL A   1      36.899  29.417  30.891  1.00  0.00     0.022 A 
BRANCH  66  70
ATOM     70  S   UNL A   1      36.041  30.804  28.630  1.00  0.00     0.124 S 
ATOM     71  O   UNL A   1      35.060  31.166  29.650  1.00  0.00    -0.237 OA
ATOM     72  O   UNL A   1      36.883  31.887  28.136  1.00  0.00    -0.237 OA
ATOM     73  O   UNL A   1      35.552  29.881  27.608  1.00  0.00    -0.744 OA
ENDBRANCH  66  70
ENDBRANCH  49  63
BRANCH  50  74
ATOM     74  C   UNL A   1      48.572  27.181  26.019  1.00  0.00     0.023 A 
ATOM     75  C   UNL A   1      48.802  27.447  24.660  1.00  0.00     0.031 A 
ATOM     76  C   UNL A   1      49.628  26.637  26.774  1.00  0.00     0.131 A 
ATOM     77  C   UNL A   1      50.045  27.131  24.087  1.00  0.00     0.055 A 
ATOM     78  C   UNL A   1      50.876  26.370  26.210  1.00  0.00     0.041 A 
ATOM     79  F   UNL A   1      49.459  26.361  28.077  1.00  0.00    -0.206 F 
ATOM     80  C   UNL A   1      51.088  26.607  24.856  1.00  0.00     0.022 A 
BRANCH  77  81
ATOM     81  S   UNL A   1      50.262  27.346  22.298  1.00  0.00     0.124 S 
ATOM     82  O   UNL A   1      49.719  28.684  22.091  1.00  0.00    -0.237 OA
ATOM     83  O   UNL A   1      51.707  27.208  22.148  1.00  0.00    -0.237 OA
ATOM     84  O   UNL A   1      49.472  26.257  21.725  1.00  0.00    -0.744 OA
ENDBRANCH  77  81
ENDBRANCH  50  74
BRANCH  62  85
ATOM     85  C   UNL A   1      45.517  32.818  28.769  1.00  0.00     0.023 A 
ATOM     86  C   UNL A   1      46.190  33.164  29.955  1.00  0.00     0.031 A 
ATOM     87  C   UNL A   1      45.309  33.826  27.809  1.00  0.00     0.131 A 
ATOM     88  C   UNL A   1      46.586  34.494  30.172  1.00  0.00     0.055 A 
ATOM     89  C   UNL A   1      45.755  35.133  28.007  1.00  0.00     0.041 A 
ATOM     90  F   UNL A   1      44.671  33.554  26.661  1.00  0.00    -0.206 F 
ATOM     91  C   UNL A   1      46.387  35.476  29.198  1.00  0.00     0.022 A 
BRANCH  88  92
ATOM     92  S   UNL A   1      47.292  34.945  31.781  1.00  0.00     0.124 S 
ATOM     93  O   UNL A   1      48.080  33.761  32.110  1.00  0.00    -0.237 OA
ATOM     94  O   UNL A   1      48.053  36.149  31.463  1.00  0.00    -0.237 OA
ATOM     95  O   UNL A   1      46.117  35.161  32.623  1.00  0.00    -0.744 OA
ENDBRANCH  88  92
ENDBRANCH  62  85
ENDBRANCH  36  37
ENDBRANCH  29  31
ENDBRANCH  28  29
ENDBRANCH  27  28
ENDBRANCH  26  27
ENDBRANCH  25  26
ENDBRANCH  24  25
ENDBRANCH   1  24
TORSDOF 23
ENDMDL
