MODEL 1
REMARK VINA RESULT:     -10.4      0.000      0.000
REMARK SMILES Cc1nc(C)c(C(=O)N[C@@H](CCS(C)(=O)=O)C(=O)OCCOCCOCCOC(=O)c2ccc(-c3c4nc(c(-c5cc(S(=O)(=O)[O-])ccc5F)c5ccc([nH]5)c(-c5cc(S(=O)(=O)[O-])ccc5F)c5nc(c(-c6cc(S(=O)(=O)[O-])ccc6F)c6ccc3[nH]6)C=C5)C=C4)cc2)s1
REMARK SMILES IDX 23 1 22 2 21 3 20 4 19 5 17 6 18 7 10 8 9 9 7 10 8 11 6 13
REMARK SMILES IDX 1 14 2 15 3 16 94 17 4 18 5 19 11 20 12 21 13 22 14 23 15 24
REMARK SMILES IDX 16 25 24 26 25 27 26 28 27 29 28 30 29 31 30 32 31 33 32 34
REMARK SMILES IDX 93 35 33 36 92 37 34 38 35 39 36 40 86 41 37 42 91 43 85 44
REMARK SMILES IDX 87 45 38 46 90 47 84 48 83 49 39 51 71 52 51 53 70 54 52 55
REMARK SMILES IDX 55 56 69 57 88 58 53 59 54 60 68 62 89 63 56 64 40 65 41 66
REMARK SMILES IDX 49 67 42 68 48 69 50 70 47 71 43 72 44 73 45 74 46 75 72 76
REMARK SMILES IDX 73 77 81 78 74 79 80 80 82 81 79 82 75 83 76 84 77 85 78 86
REMARK SMILES IDX 57 87 58 88 66 89 59 90 65 91 67 92 64 93 60 94 61 95 62 96
REMARK SMILES IDX 63 97
REMARK H PARENT 9 12 87 50 55 61
REMARK Flexibility Score: inf
ROOT
ATOM      1  C   UNL A   1      29.395  27.128  24.228  1.00  0.00     0.188 C 
ENDROOT
BRANCH   1   2
ATOM      2  O   UNL A   1      29.981  25.835  24.340  1.00  0.00    -0.376 OA
BRANCH   2   3
ATOM      3  C   UNL A   1      30.004  25.218  25.622  1.00  0.00     0.202 C 
BRANCH   3   4
ATOM      4  C   UNL A   1      30.903  23.991  25.813  1.00  0.00     0.261 C 
BRANCH   4   5
ATOM      5  O   UNL A   1      31.435  23.816  27.149  1.00  0.00    -0.462 OA
BRANCH   5   6
ATOM      6  C   UNL A   1      32.314  22.803  27.335  1.00  0.00     0.328 C 
ATOM      7  O   UNL A   1      32.672  22.405  28.440  1.00  0.00    -0.250 OA
BRANCH   6   8
ATOM      8  C   UNL A   1      33.033  22.339  26.049  1.00  0.00     0.193 C 
BRANCH   8   9
ATOM      9  N   UNL A   1      34.399  22.774  25.733  1.00  0.00    -0.338 N 
ATOM     10  C   UNL A   1      34.959  23.689  24.851  1.00  0.00     0.263 C 
ATOM     11  O   UNL A   1      36.196  23.667  24.877  1.00  0.00    -0.268 OA
ATOM     12  H   UNL A   1      35.077  22.307  26.272  1.00  0.00     0.164 HD
BRANCH  10  13
ATOM     13  C   UNL A   1      34.235  24.638  24.001  1.00  0.00     0.115 A 
ATOM     14  C   UNL A   1      32.106  26.185  21.103  1.00  0.00     0.079 C 
ATOM     15  C   UNL A   1      32.918  25.823  22.298  1.00  0.00     0.091 A 
ATOM     16  N   UNL A   1      33.099  26.597  23.337  1.00  0.00    -0.246 NA
ATOM     17  S   UNL A   1      33.677  24.307  22.413  1.00  0.00    -0.113 S 
ATOM     18  C   UNL A   1      33.837  25.944  24.320  1.00  0.00     0.061 A 
ATOM     19  C   UNL A   1      34.032  26.736  25.571  1.00  0.00     0.068 C 
ENDBRANCH  10  13
ENDBRANCH   8   9
BRANCH   8  20
ATOM     20  C   UNL A   1      32.886  20.813  25.881  1.00  0.00     0.053 C 
BRANCH  20  21
ATOM     21  C   UNL A   1      33.381  20.145  24.602  1.00  0.00     0.139 C 
BRANCH  21  22
ATOM     22  S   UNL A   1      33.185  18.383  24.390  1.00  0.00     0.147 S 
ATOM     23  C   UNL A   1      32.586  18.076  22.742  1.00  0.00     0.158 C 
ATOM     24  O   UNL A   1      34.512  17.796  24.455  1.00  0.00    -0.229 OA
ATOM     25  O   UNL A   1      32.169  17.945  25.325  1.00  0.00    -0.229 OA
ENDBRANCH  21  22
ENDBRANCH  20  21
ENDBRANCH   8  20
ENDBRANCH   6   8
ENDBRANCH   5   6
ENDBRANCH   4   5
ENDBRANCH   3   4
ENDBRANCH   2   3
ENDBRANCH   1   2
BRANCH   1  26
ATOM     26  C   UNL A   1      29.886  28.060  23.103  1.00  0.00     0.188 C 
BRANCH  26  27
ATOM     27  O   UNL A   1      30.602  29.186  23.553  1.00  0.00    -0.376 OA
BRANCH  27  28
ATOM     28  C   UNL A   1      31.031  29.189  24.901  1.00  0.00     0.202 C 
BRANCH  28  29
ATOM     29  C   UNL A   1      32.231  30.051  25.348  1.00  0.00     0.261 C 
BRANCH  29  30
ATOM     30  O   UNL A   1      32.401  30.282  26.758  1.00  0.00    -0.460 OA
BRANCH  30  31
ATOM     31  C   UNL A   1      32.953  31.465  27.139  1.00  0.00     0.338 C 
ATOM     32  O   UNL A   1      32.401  32.541  27.167  1.00  0.00    -0.246 OA
BRANCH  31  33
ATOM     33  C   UNL A   1      34.277  31.166  27.754  1.00  0.00     0.060 A 
ATOM     34  C   UNL A   1      34.596  29.833  28.053  1.00  0.00     0.016 A 
ATOM     35  C   UNL A   1      35.212  32.174  27.992  1.00  0.00     0.016 A 
ATOM     36  C   UNL A   1      35.843  29.508  28.594  1.00  0.00     0.010 A 
ATOM     37  C   UNL A   1      36.451  31.849  28.568  1.00  0.00     0.010 A 
ATOM     38  C   UNL A   1      36.768  30.515  28.890  1.00  0.00    -0.014 A 
BRANCH  38  39
ATOM     39  C   UNL A   1      37.951  30.199  29.737  1.00  0.00     0.031 A 
ATOM     40  C   UNL A   1      38.984  29.257  29.177  1.00  0.00     0.074 A 
ATOM     41  C   UNL A   1      38.140  30.753  30.950  1.00  0.00     0.049 A 
ATOM     42  N   UNL A   1      40.043  28.743  29.746  1.00  0.00    -0.248 NA
ATOM     43  C   UNL A   1      38.784  28.838  27.782  1.00  0.00     0.031 C 
ATOM     44  C   UNL A   1      37.268  31.744  31.575  1.00  0.00     0.029 A 
ATOM     45  N   UNL A   1      39.138  30.555  31.877  1.00  0.00    -0.354 N 
ATOM     46  C   UNL A   1      40.630  27.929  28.783  1.00  0.00     0.074 A 
ATOM     47  C   UNL A   1      39.790  27.995  27.606  1.00  0.00     0.031 C 
ATOM     48  C   UNL A   1      37.763  32.058  32.786  1.00  0.00     0.029 A 
ATOM     49  C   UNL A   1      38.958  31.254  33.049  1.00  0.00     0.049 A 
ATOM     50  H   UNL A   1      39.911  29.965  31.716  1.00  0.00     0.167 HD
ATOM     51  C   UNL A   1      41.766  27.192  28.868  1.00  0.00     0.034 A 
ATOM     52  C   UNL A   1      39.652  31.218  34.207  1.00  0.00     0.034 A 
ATOM     53  C   UNL A   1      42.591  27.124  30.049  1.00  0.00     0.049 A 
ATOM     54  C   UNL A   1      40.847  30.294  34.324  1.00  0.00     0.074 A 
ATOM     55  C   UNL A   1      43.754  26.400  30.245  1.00  0.00     0.029 A 
ATOM     56  N   UNL A   1      42.336  27.792  31.239  1.00  0.00    -0.354 N 
ATOM     57  N   UNL A   1      41.377  29.504  33.417  1.00  0.00    -0.248 NA
ATOM     58  C   UNL A   1      41.535  30.255  35.623  1.00  0.00     0.031 C 
ATOM     59  C   UNL A   1      44.154  26.564  31.575  1.00  0.00     0.029 A 
ATOM     60  C   UNL A   1      43.298  27.467  32.184  1.00  0.00     0.049 A 
ATOM     61  H   UNL A   1      41.582  28.408  31.390  1.00  0.00     0.167 HD
ATOM     62  C   UNL A   1      42.478  28.904  34.030  1.00  0.00     0.074 A 
ATOM     63  C   UNL A   1      42.545  29.436  35.374  1.00  0.00     0.031 C 
ATOM     64  C   UNL A   1      43.356  27.998  33.526  1.00  0.00     0.034 A 
BRANCH  51  65
ATOM     65  C   UNL A   1      42.134  26.348  27.672  1.00  0.00     0.023 A 
ATOM     66  C   UNL A   1      41.763  24.996  27.570  1.00  0.00     0.031 A 
ATOM     67  C   UNL A   1      42.903  26.900  26.630  1.00  0.00     0.131 A 
ATOM     68  C   UNL A   1      42.222  24.226  26.491  1.00  0.00     0.055 A 
ATOM     69  C   UNL A   1      43.282  26.151  25.517  1.00  0.00     0.041 A 
ATOM     70  F   UNL A   1      43.310  28.178  26.686  1.00  0.00    -0.206 F 
ATOM     71  C   UNL A   1      42.955  24.800  25.450  1.00  0.00     0.022 A 
BRANCH  68  72
ATOM     72  S   UNL A   1      41.979  22.429  26.544  1.00  0.00     0.124 S 
ATOM     73  O   UNL A   1      42.693  22.070  27.767  1.00  0.00    -0.237 OA
ATOM     74  O   UNL A   1      40.527  22.308  26.592  1.00  0.00    -0.237 OA
ATOM     75  O   UNL A   1      42.605  21.962  25.308  1.00  0.00    -0.744 OA
ENDBRANCH  68  72
ENDBRANCH  51  65
BRANCH  52  76
ATOM     76  C   UNL A   1      39.216  32.026  35.388  1.00  0.00     0.023 A 
ATOM     77  C   UNL A   1      38.574  31.428  36.485  1.00  0.00     0.031 A 
ATOM     78  C   UNL A   1      39.358  33.426  35.398  1.00  0.00     0.131 A 
ATOM     79  C   UNL A   1      38.052  32.227  37.516  1.00  0.00     0.055 A 
ATOM     80  C   UNL A   1      38.894  34.211  36.455  1.00  0.00     0.041 A 
ATOM     81  F   UNL A   1      39.950  34.056  34.371  1.00  0.00    -0.206 F 
ATOM     82  C   UNL A   1      38.223  33.613  37.517  1.00  0.00     0.022 A 
BRANCH  79  83
ATOM     83  S   UNL A   1      37.051  31.439  38.809  1.00  0.00     0.124 S 
ATOM     84  O   UNL A   1      35.850  32.266  38.798  1.00  0.00    -0.237 OA
ATOM     85  O   UNL A   1      36.904  30.083  38.289  1.00  0.00    -0.237 OA
ATOM     86  O   UNL A   1      37.883  31.559  40.004  1.00  0.00    -0.744 OA
ENDBRANCH  79  83
ENDBRANCH  52  76
BRANCH  64  87
ATOM     87  C   UNL A   1      44.501  27.566  34.415  1.00  0.00     0.023 A 
ATOM     88  C   UNL A   1      44.473  26.360  35.137  1.00  0.00     0.031 A 
ATOM     89  C   UNL A   1      45.644  28.379  34.539  1.00  0.00     0.131 A 
ATOM     90  C   UNL A   1      45.536  26.028  35.991  1.00  0.00     0.055 A 
ATOM     91  C   UNL A   1      46.729  28.011  35.337  1.00  0.00     0.041 A 
ATOM     92  F   UNL A   1      45.728  29.546  33.878  1.00  0.00    -0.206 F 
ATOM     93  C   UNL A   1      46.672  26.836  36.080  1.00  0.00     0.022 A 
BRANCH  90  94
ATOM     94  S   UNL A   1      45.372  24.576  37.067  1.00  0.00     0.124 S 
ATOM     95  O   UNL A   1      44.488  23.718  36.283  1.00  0.00    -0.237 OA
ATOM     96  O   UNL A   1      46.753  24.123  37.193  1.00  0.00    -0.237 OA
ATOM     97  O   UNL A   1      44.783  25.119  38.290  1.00  0.00    -0.744 OA
ENDBRANCH  90  94
ENDBRANCH  64  87
ENDBRANCH  38  39
ENDBRANCH  31  33
ENDBRANCH  30  31
ENDBRANCH  29  30
ENDBRANCH  28  29
ENDBRANCH  27  28
ENDBRANCH  26  27
ENDBRANCH   1  26
TORSDOF 25
ENDMDL
MODEL 2
REMARK VINA RESULT:      -9.5      1.479      2.850
REMARK SMILES Cc1nc(C)c(C(=O)N[C@@H](CCS(C)(=O)=O)C(=O)OCCOCCOCCOC(=O)c2ccc(-c3c4nc(c(-c5cc(S(=O)(=O)[O-])ccc5F)c5ccc([nH]5)c(-c5cc(S(=O)(=O)[O-])ccc5F)c5nc(c(-c6cc(S(=O)(=O)[O-])ccc6F)c6ccc3[nH]6)C=C5)C=C4)cc2)s1
REMARK SMILES IDX 23 1 22 2 21 3 20 4 19 5 17 6 18 7 10 8 9 9 7 10 8 11 6 13
REMARK SMILES IDX 1 14 2 15 3 16 94 17 4 18 5 19 11 20 12 21 13 22 14 23 15 24
REMARK SMILES IDX 16 25 24 26 25 27 26 28 27 29 28 30 29 31 30 32 31 33 32 34
REMARK SMILES IDX 93 35 33 36 92 37 34 38 35 39 36 40 86 41 37 42 91 43 85 44
REMARK SMILES IDX 87 45 38 46 90 47 84 48 83 49 39 51 71 52 51 53 70 54 52 55
REMARK SMILES IDX 55 56 69 57 88 58 53 59 54 60 68 62 89 63 56 64 40 65 41 66
REMARK SMILES IDX 49 67 42 68 48 69 50 70 47 71 43 72 44 73 45 74 46 75 72 76
REMARK SMILES IDX 73 77 81 78 74 79 80 80 82 81 79 82 75 83 76 84 77 85 78 86
REMARK SMILES IDX 57 87 58 88 66 89 59 90 65 91 67 92 64 93 60 94 61 95 62 96
REMARK SMILES IDX 63 97
REMARK H PARENT 9 12 87 50 55 61
REMARK Flexibility Score: inf
ROOT
ATOM      1  C   UNL A   1      30.544  26.952  23.785  1.00  0.00     0.188 C 
ENDROOT
BRANCH   1   2
ATOM      2  O   UNL A   1      31.526  25.941  23.990  1.00  0.00    -0.376 OA
BRANCH   2   3
ATOM      3  C   UNL A   1      31.982  25.710  25.318  1.00  0.00     0.202 C 
BRANCH   3   4
ATOM      4  C   UNL A   1      31.017  25.038  26.302  1.00  0.00     0.261 C 
BRANCH   4   5
ATOM      5  O   UNL A   1      30.915  23.598  26.183  1.00  0.00    -0.462 OA
BRANCH   5   6
ATOM      6  C   UNL A   1      31.926  22.864  26.706  1.00  0.00     0.328 C 
ATOM      7  O   UNL A   1      32.188  22.822  27.905  1.00  0.00    -0.250 OA
BRANCH   6   8
ATOM      8  C   UNL A   1      32.891  22.270  25.657  1.00  0.00     0.193 C 
BRANCH   8   9
ATOM      9  N   UNL A   1      32.482  22.070  24.262  1.00  0.00    -0.338 N 
ATOM     10  C   UNL A   1      32.370  20.971  23.419  1.00  0.00     0.263 C 
ATOM     11  O   UNL A   1      32.048  21.295  22.270  1.00  0.00    -0.268 OA
ATOM     12  H   UNL A   1      32.227  22.911  23.820  1.00  0.00     0.164 HD
BRANCH  10  13
ATOM     13  C   UNL A   1      32.544  19.565  23.791  1.00  0.00     0.115 A 
ATOM     14  C   UNL A   1      32.852  16.261  25.869  1.00  0.00     0.079 C 
ATOM     15  C   UNL A   1      32.765  17.374  24.883  1.00  0.00     0.091 A 
ATOM     16  N   UNL A   1      32.630  17.215  23.591  1.00  0.00    -0.246 NA
ATOM     17  S   UNL A   1      32.808  18.996  25.388  1.00  0.00    -0.113 S 
ATOM     18  C   UNL A   1      32.496  18.442  22.951  1.00  0.00     0.061 A 
ATOM     19  C   UNL A   1      32.270  18.347  21.477  1.00  0.00     0.068 C 
ENDBRANCH  10  13
ENDBRANCH   8   9
BRANCH   8  20
ATOM     20  C   UNL A   1      34.259  22.979  25.735  1.00  0.00     0.053 C 
BRANCH  20  21
ATOM     21  C   UNL A   1      35.491  22.192  26.173  1.00  0.00     0.139 C 
BRANCH  21  22
ATOM     22  S   UNL A   1      36.546  21.443  24.943  1.00  0.00     0.147 S 
ATOM     23  C   UNL A   1      38.229  21.520  25.520  1.00  0.00     0.158 C 
ATOM     24  O   UNL A   1      36.201  20.032  24.889  1.00  0.00    -0.229 OA
ATOM     25  O   UNL A   1      36.447  22.244  23.741  1.00  0.00    -0.229 OA
ENDBRANCH  21  22
ENDBRANCH  20  21
ENDBRANCH   8  20
ENDBRANCH   6   8
ENDBRANCH   5   6
ENDBRANCH   4   5
ENDBRANCH   3   4
ENDBRANCH   2   3
ENDBRANCH   1   2
BRANCH   1  26
ATOM     26  C   UNL A   1      31.004  28.323  23.250  1.00  0.00     0.188 C 
BRANCH  26  27
ATOM     27  O   UNL A   1      30.756  29.400  24.123  1.00  0.00    -0.376 OA
BRANCH  27  28
ATOM     28  C   UNL A   1      31.364  29.357  25.400  1.00  0.00     0.202 C 
BRANCH  28  29
ATOM     29  C   UNL A   1      31.850  30.650  26.089  1.00  0.00     0.261 C 
BRANCH  29  30
ATOM     30  O   UNL A   1      33.232  30.720  26.482  1.00  0.00    -0.460 OA
BRANCH  30  31
ATOM     31  C   UNL A   1      33.614  31.773  27.253  1.00  0.00     0.338 C 
ATOM     32  O   UNL A   1      32.930  32.719  27.569  1.00  0.00    -0.246 OA
BRANCH  31  33
ATOM     33  C   UNL A   1      34.938  31.437  27.849  1.00  0.00     0.060 A 
ATOM     34  C   UNL A   1      35.180  30.115  28.252  1.00  0.00     0.016 A 
ATOM     35  C   UNL A   1      35.946  32.395  27.967  1.00  0.00     0.016 A 
ATOM     36  C   UNL A   1      36.423  29.753  28.778  1.00  0.00     0.010 A 
ATOM     37  C   UNL A   1      37.182  32.036  28.529  1.00  0.00     0.010 A 
ATOM     38  C   UNL A   1      37.423  30.716  28.954  1.00  0.00    -0.014 A 
BRANCH  38  39
ATOM     39  C   UNL A   1      38.614  30.392  29.787  1.00  0.00     0.031 A 
ATOM     40  C   UNL A   1      39.640  29.452  29.211  1.00  0.00     0.074 A 
ATOM     41  C   UNL A   1      38.818  30.939  31.001  1.00  0.00     0.049 A 
ATOM     42  N   UNL A   1      40.704  28.933  29.765  1.00  0.00    -0.248 NA
ATOM     43  C   UNL A   1      39.423  29.041  27.815  1.00  0.00     0.031 C 
ATOM     44  C   UNL A   1      37.955  31.928  31.641  1.00  0.00     0.029 A 
ATOM     45  N   UNL A   1      39.825  30.733  31.916  1.00  0.00    -0.354 N 
ATOM     46  C   UNL A   1      41.279  28.123  28.791  1.00  0.00     0.074 A 
ATOM     47  C   UNL A   1      40.426  28.197  27.623  1.00  0.00     0.031 C 
ATOM     48  C   UNL A   1      38.463  32.234  32.849  1.00  0.00     0.029 A 
ATOM     49  C   UNL A   1      39.659  31.426  33.094  1.00  0.00     0.049 A 
ATOM     50  H   UNL A   1      40.595  30.143  31.744  1.00  0.00     0.167 HD
ATOM     51  C   UNL A   1      42.414  27.383  28.860  1.00  0.00     0.034 A 
ATOM     52  C   UNL A   1      40.365  31.382  34.245  1.00  0.00     0.034 A 
ATOM     53  C   UNL A   1      43.251  27.306  30.032  1.00  0.00     0.049 A 
ATOM     54  C   UNL A   1      41.560  30.455  34.343  1.00  0.00     0.074 A 
ATOM     55  C   UNL A   1      44.415  26.579  30.210  1.00  0.00     0.029 A 
ATOM     56  N   UNL A   1      43.011  27.968  31.227  1.00  0.00    -0.354 N 
ATOM     57  N   UNL A   1      42.079  29.669  33.426  1.00  0.00    -0.248 NA
ATOM     58  C   UNL A   1      42.262  30.407  35.634  1.00  0.00     0.031 C 
ATOM     59  C   UNL A   1      44.830  26.735  31.536  1.00  0.00     0.029 A 
ATOM     60  C   UNL A   1      43.982  27.636  32.160  1.00  0.00     0.049 A 
ATOM     61  H   UNL A   1      42.260  28.584  31.390  1.00  0.00     0.167 HD
ATOM     62  C   UNL A   1      43.185  29.063  34.023  1.00  0.00     0.074 A 
ATOM     63  C   UNL A   1      43.268  29.587  35.369  1.00  0.00     0.031 C 
ATOM     64  C   UNL A   1      44.056  28.159  33.505  1.00  0.00     0.034 A 
BRANCH  51  65
ATOM     65  C   UNL A   1      42.767  26.545  27.655  1.00  0.00     0.023 A 
ATOM     66  C   UNL A   1      42.496  25.168  27.598  1.00  0.00     0.031 A 
ATOM     67  C   UNL A   1      43.421  27.133  26.556  1.00  0.00     0.131 A 
ATOM     68  C   UNL A   1      42.942  24.412  26.503  1.00  0.00     0.055 A 
ATOM     69  C   UNL A   1      43.784  26.392  25.431  1.00  0.00     0.041 A 
ATOM     70  F   UNL A   1      43.731  28.439  26.564  1.00  0.00    -0.206 F 
ATOM     71  C   UNL A   1      43.559  25.019  25.407  1.00  0.00     0.022 A 
BRANCH  68  72
ATOM     72  S   UNL A   1      42.844  22.603  26.599  1.00  0.00     0.124 S 
ATOM     73  O   UNL A   1      42.293  22.408  27.939  1.00  0.00    -0.237 OA
ATOM     74  O   UNL A   1      41.955  22.277  25.490  1.00  0.00    -0.237 OA
ATOM     75  O   UNL A   1      44.231  22.175  26.437  1.00  0.00    -0.744 OA
ENDBRANCH  68  72
ENDBRANCH  51  65
BRANCH  52  76
ATOM     76  C   UNL A   1      39.945  32.184  35.435  1.00  0.00     0.023 A 
ATOM     77  C   UNL A   1      39.117  31.635  36.429  1.00  0.00     0.031 A 
ATOM     78  C   UNL A   1      40.292  33.542  35.551  1.00  0.00     0.131 A 
ATOM     79  C   UNL A   1      38.625  32.450  37.462  1.00  0.00     0.055 A 
ATOM     80  C   UNL A   1      39.851  34.333  36.614  1.00  0.00     0.041 A 
ATOM     81  F   UNL A   1      41.068  34.126  34.623  1.00  0.00    -0.206 F 
ATOM     82  C   UNL A   1      39.000  33.791  37.571  1.00  0.00     0.022 A 
BRANCH  79  83
ATOM     83  S   UNL A   1      37.398  31.759  38.608  1.00  0.00     0.124 S 
ATOM     84  O   UNL A   1      36.310  32.723  38.493  1.00  0.00    -0.237 OA
ATOM     85  O   UNL A   1      37.154  30.442  38.027  1.00  0.00    -0.237 OA
ATOM     86  O   UNL A   1      38.096  31.752  39.891  1.00  0.00    -0.744 OA
ENDBRANCH  79  83
ENDBRANCH  52  76
BRANCH  64  87
ATOM     87  C   UNL A   1      45.209  27.719  34.378  1.00  0.00     0.023 A 
ATOM     88  C   UNL A   1      45.044  26.795  35.425  1.00  0.00     0.031 A 
ATOM     89  C   UNL A   1      46.500  28.236  34.156  1.00  0.00     0.131 A 
ATOM     90  C   UNL A   1      46.135  26.460  36.244  1.00  0.00     0.055 A 
ATOM     91  C   UNL A   1      47.595  27.846  34.929  1.00  0.00     0.041 A 
ATOM     92  F   UNL A   1      46.720  29.126  33.174  1.00  0.00    -0.206 F 
ATOM     93  C   UNL A   1      47.412  26.964  35.989  1.00  0.00     0.022 A 
BRANCH  90  94
ATOM     94  S   UNL A   1      45.842  25.434  37.711  1.00  0.00     0.124 S 
ATOM     95  O   UNL A   1      46.460  24.169  37.324  1.00  0.00    -0.237 OA
ATOM     96  O   UNL A   1      46.527  26.183  38.759  1.00  0.00    -0.237 OA
ATOM     97  O   UNL A   1      44.385  25.401  37.822  1.00  0.00    -0.744 OA
ENDBRANCH  90  94
ENDBRANCH  64  87
ENDBRANCH  38  39
ENDBRANCH  31  33
ENDBRANCH  30  31
ENDBRANCH  29  30
ENDBRANCH  28  29
ENDBRANCH  27  28
ENDBRANCH  26  27
ENDBRANCH   1  26
TORSDOF 25
ENDMDL
MODEL 3
REMARK VINA RESULT:      -9.4      2.426      7.814
REMARK SMILES Cc1nc(C)c(C(=O)N[C@@H](CCS(C)(=O)=O)C(=O)OCCOCCOCCOC(=O)c2ccc(-c3c4nc(c(-c5cc(S(=O)(=O)[O-])ccc5F)c5ccc([nH]5)c(-c5cc(S(=O)(=O)[O-])ccc5F)c5nc(c(-c6cc(S(=O)(=O)[O-])ccc6F)c6ccc3[nH]6)C=C5)C=C4)cc2)s1
REMARK SMILES IDX 23 1 22 2 21 3 20 4 19 5 17 6 18 7 10 8 9 9 7 10 8 11 6 13
REMARK SMILES IDX 1 14 2 15 3 16 94 17 4 18 5 19 11 20 12 21 13 22 14 23 15 24
REMARK SMILES IDX 16 25 24 26 25 27 26 28 27 29 28 30 29 31 30 32 31 33 32 34
REMARK SMILES IDX 93 35 33 36 92 37 34 38 35 39 36 40 86 41 37 42 91 43 85 44
REMARK SMILES IDX 87 45 38 46 90 47 84 48 83 49 39 51 71 52 51 53 70 54 52 55
REMARK SMILES IDX 55 56 69 57 88 58 53 59 54 60 68 62 89 63 56 64 40 65 41 66
REMARK SMILES IDX 49 67 42 68 48 69 50 70 47 71 43 72 44 73 45 74 46 75 72 76
REMARK SMILES IDX 73 77 81 78 74 79 80 80 82 81 79 82 75 83 76 84 77 85 78 86
REMARK SMILES IDX 57 87 58 88 66 89 59 90 65 91 67 92 64 93 60 94 61 95 62 96
REMARK SMILES IDX 63 97
REMARK H PARENT 9 12 87 50 55 61
REMARK Flexibility Score: inf
ROOT
ATOM      1  C   UNL A   1      30.664  27.040  24.348  1.00  0.00     0.188 C 
ENDROOT
BRANCH   1   2
ATOM      2  O   UNL A   1      30.493  26.293  25.548  1.00  0.00    -0.376 OA
BRANCH   2   3
ATOM      3  C   UNL A   1      30.150  24.917  25.438  1.00  0.00     0.202 C 
BRANCH   3   4
ATOM      4  C   UNL A   1      31.283  23.910  25.207  1.00  0.00     0.261 C 
BRANCH   4   5
ATOM      5  O   UNL A   1      31.294  22.774  26.106  1.00  0.00    -0.462 OA
BRANCH   5   6
ATOM      6  C   UNL A   1      32.373  21.957  26.054  1.00  0.00     0.328 C 
ATOM      7  O   UNL A   1      33.225  21.898  26.936  1.00  0.00    -0.250 OA
BRANCH   6   8
ATOM      8  C   UNL A   1      32.594  21.279  24.684  1.00  0.00     0.193 C 
BRANCH   8   9
ATOM      9  N   UNL A   1      33.174  22.008  23.550  1.00  0.00    -0.338 N 
ATOM     10  C   UNL A   1      34.303  22.794  23.362  1.00  0.00     0.263 C 
ATOM     11  O   UNL A   1      34.351  23.279  22.225  1.00  0.00    -0.268 OA
ATOM     12  H   UNL A   1      32.635  21.920  22.731  1.00  0.00     0.164 HD
BRANCH  10  13
ATOM     13  C   UNL A   1      35.378  23.023  24.330  1.00  0.00     0.115 A 
ATOM     14  C   UNL A   1      38.794  22.828  26.234  1.00  0.00     0.079 C 
ATOM     15  C   UNL A   1      37.435  23.072  25.676  1.00  0.00     0.091 A 
ATOM     16  N   UNL A   1      36.662  24.074  26.008  1.00  0.00    -0.246 NA
ATOM     17  S   UNL A   1      36.775  22.041  24.497  1.00  0.00    -0.113 S 
ATOM     18  C   UNL A   1      35.493  24.072  25.255  1.00  0.00     0.061 A 
ATOM     19  C   UNL A   1      34.583  25.224  25.526  1.00  0.00     0.068 C 
ENDBRANCH  10  13
ENDBRANCH   8   9
BRANCH   8  20
ATOM     20  C   UNL A   1      33.287  19.913  24.875  1.00  0.00     0.053 C 
BRANCH  20  21
ATOM     21  C   UNL A   1      32.713  18.676  24.192  1.00  0.00     0.139 C 
BRANCH  21  22
ATOM     22  S   UNL A   1      33.771  17.276  23.863  1.00  0.00     0.147 S 
ATOM     23  C   UNL A   1      33.183  15.888  24.811  1.00  0.00     0.158 C 
ATOM     24  O   UNL A   1      33.584  16.921  22.466  1.00  0.00    -0.229 OA
ATOM     25  O   UNL A   1      35.097  17.614  24.338  1.00  0.00    -0.229 OA
ENDBRANCH  21  22
ENDBRANCH  20  21
ENDBRANCH   8  20
ENDBRANCH   6   8
ENDBRANCH   5   6
ENDBRANCH   4   5
ENDBRANCH   3   4
ENDBRANCH   2   3
ENDBRANCH   1   2
BRANCH   1  26
ATOM     26  C   UNL A   1      31.993  27.791  24.136  1.00  0.00     0.188 C 
BRANCH  26  27
ATOM     27  O   UNL A   1      31.861  29.190  24.045  1.00  0.00    -0.376 OA
BRANCH  27  28
ATOM     28  C   UNL A   1      31.675  29.907  25.251  1.00  0.00     0.202 C 
BRANCH  28  29
ATOM     29  C   UNL A   1      32.883  30.343  26.107  1.00  0.00     0.261 C 
BRANCH  29  30
ATOM     30  O   UNL A   1      32.620  31.125  27.287  1.00  0.00    -0.460 OA
BRANCH  30  31
ATOM     31  C   UNL A   1      33.427  32.191  27.527  1.00  0.00     0.338 C 
ATOM     32  O   UNL A   1      33.091  33.353  27.575  1.00  0.00    -0.246 OA
BRANCH  31  33
ATOM     33  C   UNL A   1      34.748  31.664  27.971  1.00  0.00     0.060 A 
ATOM     34  C   UNL A   1      34.857  30.304  28.297  1.00  0.00     0.016 A 
ATOM     35  C   UNL A   1      35.878  32.483  28.021  1.00  0.00     0.016 A 
ATOM     36  C   UNL A   1      36.088  29.765  28.679  1.00  0.00     0.010 A 
ATOM     37  C   UNL A   1      37.106  31.946  28.439  1.00  0.00     0.010 A 
ATOM     38  C   UNL A   1      37.216  30.586  28.788  1.00  0.00    -0.014 A 
BRANCH  38  39
ATOM     39  C   UNL A   1      38.431  30.075  29.481  1.00  0.00     0.031 A 
ATOM     40  C   UNL A   1      38.699  30.565  30.880  1.00  0.00     0.074 A 
ATOM     41  C   UNL A   1      39.257  29.172  28.920  1.00  0.00     0.049 A 
ATOM     42  N   UNL A   1      39.730  30.358  31.656  1.00  0.00    -0.248 NA
ATOM     43  C   UNL A   1      37.655  31.413  31.476  1.00  0.00     0.031 C 
ATOM     44  C   UNL A   1      39.070  28.548  27.613  1.00  0.00     0.029 A 
ATOM     45  N   UNL A   1      40.429  28.622  29.388  1.00  0.00    -0.354 N 
ATOM     46  C   UNL A   1      39.467  31.058  32.828  1.00  0.00     0.074 A 
ATOM     47  C   UNL A   1      38.193  31.721  32.646  1.00  0.00     0.031 C 
ATOM     48  C   UNL A   1      40.097  27.710  27.379  1.00  0.00     0.029 A 
ATOM     49  C   UNL A   1      41.043  27.775  28.494  1.00  0.00     0.049 A 
ATOM     50  H   UNL A   1      40.795  28.817  30.282  1.00  0.00     0.167 HD
ATOM     51  C   UNL A   1      40.216  31.144  33.955  1.00  0.00     0.034 A 
ATOM     52  C   UNL A   1      42.244  27.158  28.553  1.00  0.00     0.034 A 
ATOM     53  C   UNL A   1      41.490  30.489  34.123  1.00  0.00     0.049 A 
ATOM     54  C   UNL A   1      43.122  27.365  29.770  1.00  0.00     0.074 A 
ATOM     55  C   UNL A   1      42.335  30.519  35.220  1.00  0.00     0.029 A 
ATOM     56  N   UNL A   1      42.111  29.696  33.168  1.00  0.00    -0.354 N 
ATOM     57  N   UNL A   1      42.878  28.055  30.862  1.00  0.00    -0.248 NA
ATOM     58  C   UNL A   1      44.440  26.713  29.761  1.00  0.00     0.031 C 
ATOM     59  C   UNL A   1      43.499  29.816  34.895  1.00  0.00     0.029 A 
ATOM     60  C   UNL A   1      43.344  29.264  33.633  1.00  0.00     0.049 A 
ATOM     61  H   UNL A   1      41.731  29.473  32.287  1.00  0.00     0.167 HD
ATOM     62  C   UNL A   1      43.998  27.888  31.678  1.00  0.00     0.074 A 
ATOM     63  C   UNL A   1      44.907  27.022  30.961  1.00  0.00     0.031 C 
ATOM     64  C   UNL A   1      44.249  28.403  32.910  1.00  0.00     0.034 A 
BRANCH  51  65
ATOM     65  C   UNL A   1      39.704  32.035  35.060  1.00  0.00     0.023 A 
ATOM     66  C   UNL A   1      40.123  33.370  35.198  1.00  0.00     0.031 A 
ATOM     67  C   UNL A   1      38.804  31.526  36.016  1.00  0.00     0.131 A 
ATOM     68  C   UNL A   1      39.703  34.124  36.303  1.00  0.00     0.055 A 
ATOM     69  C   UNL A   1      38.322  32.309  37.064  1.00  0.00     0.041 A 
ATOM     70  F   UNL A   1      38.390  30.251  35.952  1.00  0.00    -0.206 F 
ATOM     71  C   UNL A   1      38.783  33.613  37.222  1.00  0.00     0.022 A 
BRANCH  68  72
ATOM     72  S   UNL A   1      40.493  35.728  36.610  1.00  0.00     0.124 S 
ATOM     73  O   UNL A   1      41.827  35.510  36.057  1.00  0.00    -0.237 OA
ATOM     74  O   UNL A   1      39.636  36.648  35.870  1.00  0.00    -0.237 OA
ATOM     75  O   UNL A   1      40.444  35.861  38.064  1.00  0.00    -0.744 OA
ENDBRANCH  68  72
ENDBRANCH  51  65
BRANCH  52  76
ATOM     76  C   UNL A   1      42.740  26.332  27.409  1.00  0.00     0.023 A 
ATOM     77  C   UNL A   1      42.526  24.944  27.364  1.00  0.00     0.031 A 
ATOM     78  C   UNL A   1      43.515  26.907  26.385  1.00  0.00     0.131 A 
ATOM     79  C   UNL A   1      43.121  24.174  26.351  1.00  0.00     0.055 A 
ATOM     80  C   UNL A   1      44.052  26.146  25.345  1.00  0.00     0.041 A 
ATOM     81  F   UNL A   1      43.767  28.226  26.383  1.00  0.00    -0.206 F 
ATOM     82  C   UNL A   1      43.869  24.768  25.332  1.00  0.00     0.022 A 
BRANCH  79  83
ATOM     83  S   UNL A   1      42.993  22.365  26.442  1.00  0.00     0.124 S 
ATOM     84  O   UNL A   1      44.360  21.957  26.137  1.00  0.00    -0.237 OA
ATOM     85  O   UNL A   1      42.554  22.165  27.820  1.00  0.00    -0.237 OA
ATOM     86  O   UNL A   1      42.000  22.042  25.420  1.00  0.00    -0.744 OA
ENDBRANCH  79  83
ENDBRANCH  52  76
BRANCH  64  87
ATOM     87  C   UNL A   1      45.539  27.995  33.586  1.00  0.00     0.023 A 
ATOM     88  C   UNL A   1      46.722  28.743  33.453  1.00  0.00     0.031 A 
ATOM     89  C   UNL A   1      45.582  26.834  34.382  1.00  0.00     0.131 A 
ATOM     90  C   UNL A   1      47.908  28.294  34.056  1.00  0.00     0.055 A 
ATOM     91  C   UNL A   1      46.748  26.430  35.036  1.00  0.00     0.041 A 
ATOM     92  F   UNL A   1      44.486  26.075  34.544  1.00  0.00    -0.206 F 
ATOM     93  C   UNL A   1      47.923  27.154  34.863  1.00  0.00     0.022 A 
BRANCH  90  94
ATOM     94  S   UNL A   1      49.458  29.163  33.689  1.00  0.00     0.124 S 
ATOM     95  O   UNL A   1      50.142  28.208  32.823  1.00  0.00    -0.237 OA
ATOM     96  O   UNL A   1      48.987  30.385  33.044  1.00  0.00    -0.237 OA
ATOM     97  O   UNL A   1      50.066  29.352  35.005  1.00  0.00    -0.744 OA
ENDBRANCH  90  94
ENDBRANCH  64  87
ENDBRANCH  38  39
ENDBRANCH  31  33
ENDBRANCH  30  31
ENDBRANCH  29  30
ENDBRANCH  28  29
ENDBRANCH  27  28
ENDBRANCH  26  27
ENDBRANCH   1  26
TORSDOF 25
ENDMDL
