MODEL 1
REMARK VINA RESULT:     -11.9      0.000      0.000
REMARK SMILES CC(C)C[C@H](C(=O)OCCOCCOCCOC(=O)c1ccc(-c2c3nc(c(-c4cc(S(=O)(=O)[O-])ccc4F)c4ccc([nH]4)c(-c4cc(S(=O)(=O)[O-])ccc4F)c4nc(c(-c5cc(S(=O)(=O)[O-])ccc5F)c5ccc2[nH]5)C=C4)C=C3)cc1)N1C(=O)/C(=C2\C(=O)Nc3ccc(Br)cc32)SC1=S
REMARK SMILES IDX 13 1 12 2 11 3 10 4 9 5 8 6 6 7 7 8 5 9 4 10 2 11 1 12 3 13
REMARK SMILES IDX 83 14 84 15 99 16 85 17 86 18 98 19 100 20 87 21 88 22 97 23
REMARK SMILES IDX 89 24 90 25 91 26 96 27 92 29 94 30 93 31 95 32 14 33 15 34
REMARK SMILES IDX 16 35 17 36 18 37 19 38 20 39 21 40 82 41 22 42 81 43 23 44
REMARK SMILES IDX 24 45 25 46 75 47 26 48 80 49 74 50 76 51 27 52 79 53 73 54
REMARK SMILES IDX 72 55 28 57 60 58 40 59 59 60 41 61 44 62 58 63 77 64 42 65
REMARK SMILES IDX 43 66 57 68 78 69 45 70 29 71 30 72 38 73 31 74 37 75 39 76
REMARK SMILES IDX 36 77 32 78 33 79 34 80 35 81 61 82 62 83 70 84 63 85 69 86
REMARK SMILES IDX 71 87 68 88 64 89 65 90 66 91 67 92 46 93 47 94 55 95 48 96
REMARK SMILES IDX 54 97 56 98 53 99 49 100 50 101 51 102 52 103
REMARK H PARENT 90 28 76 56 44 67
REMARK Flexibility Score: inf
ROOT
ATOM      1  C   UNL A   1      42.609  20.231  26.290  1.00  0.00     0.188 C 
ENDROOT
BRANCH   1   2
ATOM      2  C   UNL A   1      41.073  20.030  26.218  1.00  0.00     0.188 C 
BRANCH   2   3
ATOM      3  O   UNL A   1      40.221  20.838  27.016  1.00  0.00    -0.376 OA
BRANCH   3   4
ATOM      4  C   UNL A   1      39.452  21.827  26.353  1.00  0.00     0.202 C 
BRANCH   4   5
ATOM      5  C   UNL A   1      38.337  21.337  25.417  1.00  0.00     0.261 C 
BRANCH   5   6
ATOM      6  O   UNL A   1      37.014  21.723  25.842  1.00  0.00    -0.462 OA
BRANCH   6   7
ATOM      7  C   UNL A   1      36.280  22.494  24.985  1.00  0.00     0.329 C 
ATOM      8  O   UNL A   1      36.628  23.594  24.573  1.00  0.00    -0.250 OA
BRANCH   7   9
ATOM      9  C   UNL A   1      34.886  21.874  24.683  1.00  0.00     0.202 C 
BRANCH   9  10
ATOM     10  C   UNL A   1      34.588  20.560  25.463  1.00  0.00     0.040 C 
BRANCH  10  11
ATOM     11  C   UNL A   1      33.924  19.438  24.628  1.00  0.00    -0.015 C 
ATOM     12  C   UNL A   1      34.905  18.286  24.396  1.00  0.00     0.007 C 
ATOM     13  C   UNL A   1      32.612  18.954  25.252  1.00  0.00     0.007 C 
ENDBRANCH  10  11
ENDBRANCH   9  10
BRANCH   9  14
ATOM     14  N   UNL A   1      33.760  22.816  24.861  1.00  0.00    -0.278 N 
ATOM     15  C   UNL A   1      33.305  23.539  23.783  1.00  0.00     0.267 C 
ATOM     16  C   UNL A   1      33.236  23.218  26.062  1.00  0.00     0.149 C 
ATOM     17  O   UNL A   1      33.090  23.051  22.685  1.00  0.00    -0.268 OA
ATOM     18  C   UNL A   1      32.871  24.895  24.201  1.00  0.00     0.093 C 
ATOM     19  S   UNL A   1      32.727  24.902  25.923  1.00  0.00    -0.053 SA
ATOM     20  S   UNL A   1      33.041  22.331  27.457  1.00  0.00    -0.052 S 
ATOM     21  C   UNL A   1      32.521  25.878  23.360  1.00  0.00     0.069 C 
ATOM     22  C   UNL A   1      32.408  25.702  21.871  1.00  0.00     0.257 C 
ATOM     23  C   UNL A   1      31.891  27.174  23.653  1.00  0.00     0.013 A 
ATOM     24  O   UNL A   1      33.097  25.038  21.107  1.00  0.00    -0.269 OA
ATOM     25  N   UNL A   1      31.416  26.581  21.489  1.00  0.00    -0.321 N 
ATOM     26  C   UNL A   1      31.139  27.481  22.512  1.00  0.00     0.049 A 
ATOM     27  C   UNL A   1      31.992  28.096  24.680  1.00  0.00     0.026 A 
ATOM     28  H   UNL A   1      30.965  26.572  20.614  1.00  0.00     0.170 HD
ATOM     29  C   UNL A   1      30.358  28.610  22.404  1.00  0.00     0.028 A 
ATOM     30  C   UNL A   1      31.260  29.283  24.560  1.00  0.00     0.018 A 
ATOM     31  C   UNL A   1      30.422  29.525  23.454  1.00  0.00     0.018 A 
ATOM     32  Br  UNL A   1      31.444  30.631  25.876  1.00  0.00    -0.051 Br
ENDBRANCH   9  14
ENDBRANCH   7   9
ENDBRANCH   6   7
ENDBRANCH   5   6
ENDBRANCH   4   5
ENDBRANCH   3   4
ENDBRANCH   2   3
ENDBRANCH   1   2
BRANCH   1  33
ATOM     33  O   UNL A   1      43.254  21.052  25.331  1.00  0.00    -0.376 OA
BRANCH  33  34
ATOM     34  C   UNL A   1      43.074  22.455  25.433  1.00  0.00     0.202 C 
BRANCH  34  35
ATOM     35  C   UNL A   1      44.028  23.322  24.605  1.00  0.00     0.261 C 
BRANCH  35  36
ATOM     36  O   UNL A   1      43.589  24.694  24.494  1.00  0.00    -0.460 OA
BRANCH  36  37
ATOM     37  C   UNL A   1      44.263  25.588  25.259  1.00  0.00     0.338 C 
ATOM     38  O   UNL A   1      45.435  25.906  25.142  1.00  0.00    -0.246 OA
BRANCH  37  39
ATOM     39  C   UNL A   1      43.363  26.277  26.209  1.00  0.00     0.060 A 
ATOM     40  C   UNL A   1      43.653  27.598  26.542  1.00  0.00     0.016 A 
ATOM     41  C   UNL A   1      42.398  25.584  26.937  1.00  0.00     0.016 A 
ATOM     42  C   UNL A   1      43.050  28.205  27.644  1.00  0.00     0.010 A 
ATOM     43  C   UNL A   1      41.750  26.218  28.016  1.00  0.00     0.010 A 
ATOM     44  C   UNL A   1      42.093  27.528  28.401  1.00  0.00    -0.014 A 
BRANCH  44  45
ATOM     45  C   UNL A   1      41.579  28.154  29.657  1.00  0.00     0.031 A 
ATOM     46  C   UNL A   1      40.257  28.873  29.630  1.00  0.00     0.074 A 
ATOM     47  C   UNL A   1      42.210  28.000  30.839  1.00  0.00     0.049 A 
ATOM     48  N   UNL A   1      39.701  29.632  30.540  1.00  0.00    -0.248 NA
ATOM     49  C   UNL A   1      39.446  28.697  28.417  1.00  0.00     0.031 C 
ATOM     50  C   UNL A   1      43.399  27.177  31.065  1.00  0.00     0.029 A 
ATOM     51  N   UNL A   1      41.932  28.521  32.082  1.00  0.00    -0.354 N 
ATOM     52  C   UNL A   1      38.495  30.061  29.994  1.00  0.00     0.074 A 
ATOM     53  C   UNL A   1      38.403  29.471  28.673  1.00  0.00     0.031 C 
ATOM     54  C   UNL A   1      43.745  27.249  32.361  1.00  0.00     0.029 A 
ATOM     55  C   UNL A   1      42.866  28.197  33.042  1.00  0.00     0.049 A 
ATOM     56  H   UNL A   1      41.139  29.074  32.269  1.00  0.00     0.167 HD
ATOM     57  C   UNL A   1      37.562  30.882  30.538  1.00  0.00     0.034 A 
ATOM     58  C   UNL A   1      43.036  28.658  34.300  1.00  0.00     0.034 A 
ATOM     59  C   UNL A   1      37.664  31.450  31.862  1.00  0.00     0.049 A 
ATOM     60  C   UNL A   1      42.078  29.704  34.829  1.00  0.00     0.074 A 
ATOM     61  C   UNL A   1      36.802  32.333  32.491  1.00  0.00     0.029 A 
ATOM     62  N   UNL A   1      38.691  31.193  32.762  1.00  0.00    -0.354 N 
ATOM     63  N   UNL A   1      41.004  30.205  34.263  1.00  0.00    -0.248 NA
ATOM     64  C   UNL A   1      42.366  30.260  36.159  1.00  0.00     0.031 C 
ATOM     65  C   UNL A   1      37.351  32.673  33.733  1.00  0.00     0.029 A 
ATOM     66  C   UNL A   1      38.505  31.931  33.922  1.00  0.00     0.049 A 
ATOM     67  H   UNL A   1      39.442  30.577  32.600  1.00  0.00     0.167 HD
ATOM     68  C   UNL A   1      40.473  31.107  35.183  1.00  0.00     0.074 A 
ATOM     69  C   UNL A   1      41.337  31.072  36.345  1.00  0.00     0.031 C 
ATOM     70  C   UNL A   1      39.371  31.893  35.078  1.00  0.00     0.034 A 
BRANCH  57  71
ATOM     71  C   UNL A   1      36.411  31.300  29.656  1.00  0.00     0.023 A 
ATOM     72  C   UNL A   1      35.976  32.633  29.561  1.00  0.00     0.031 A 
ATOM     73  C   UNL A   1      35.703  30.324  28.929  1.00  0.00     0.131 A 
ATOM     74  C   UNL A   1      34.822  32.939  28.822  1.00  0.00     0.055 A 
ATOM     75  C   UNL A   1      34.608  30.649  28.127  1.00  0.00     0.041 A 
ATOM     76  F   UNL A   1      36.054  29.030  29.002  1.00  0.00    -0.206 F 
ATOM     77  C   UNL A   1      34.151  31.961  28.083  1.00  0.00     0.022 A 
BRANCH  74  78
ATOM     78  S   UNL A   1      34.112  34.603  28.969  1.00  0.00     0.124 S 
ATOM     79  O   UNL A   1      32.750  34.385  28.486  1.00  0.00    -0.237 OA
ATOM     80  O   UNL A   1      34.247  34.879  30.395  1.00  0.00    -0.237 OA
ATOM     81  O   UNL A   1      34.953  35.414  28.092  1.00  0.00    -0.744 OA
ENDBRANCH  74  78
ENDBRANCH  57  71
BRANCH  58  82
ATOM     82  C   UNL A   1      44.213  28.236  35.125  1.00  0.00     0.023 A 
ATOM     83  C   UNL A   1      44.069  27.367  36.220  1.00  0.00     0.031 A 
ATOM     84  C   UNL A   1      45.491  28.780  34.887  1.00  0.00     0.131 A 
ATOM     85  C   UNL A   1      45.166  27.111  37.061  1.00  0.00     0.055 A 
ATOM     86  C   UNL A   1      46.593  28.466  35.684  1.00  0.00     0.041 A 
ATOM     87  F   UNL A   1      45.688  29.636  33.872  1.00  0.00    -0.206 F 
ATOM     88  C   UNL A   1      46.430  27.639  36.790  1.00  0.00     0.022 A 
BRANCH  85  89
ATOM     89  S   UNL A   1      44.892  26.172  38.591  1.00  0.00     0.124 S 
ATOM     90  O   UNL A   1      45.836  26.810  39.501  1.00  0.00    -0.237 OA
ATOM     91  O   UNL A   1      43.478  26.422  38.851  1.00  0.00    -0.237 OA
ATOM     92  O   UNL A   1      45.221  24.799  38.211  1.00  0.00    -0.744 OA
ENDBRANCH  85  89
ENDBRANCH  58  82
BRANCH  70  93
ATOM     93  C   UNL A   1      38.997  32.732  36.279  1.00  0.00     0.023 A 
ATOM     94  C   UNL A   1      38.245  32.214  37.348  1.00  0.00     0.031 A 
ATOM     95  C   UNL A   1      39.401  34.079  36.350  1.00  0.00     0.131 A 
ATOM     96  C   UNL A   1      37.877  33.050  38.415  1.00  0.00     0.055 A 
ATOM     97  C   UNL A   1      39.088  34.886  37.445  1.00  0.00     0.041 A 
ATOM     98  F   UNL A   1      40.115  34.630  35.356  1.00  0.00    -0.206 F 
ATOM     99  C   UNL A   1      38.311  34.377  38.479  1.00  0.00     0.022 A 
BRANCH  96 100
ATOM    100  S   UNL A   1      36.740  32.409  39.676  1.00  0.00     0.124 S 
ATOM    101  O   UNL A   1      37.151  31.012  39.773  1.00  0.00    -0.237 OA
ATOM    102  O   UNL A   1      37.050  33.246  40.830  1.00  0.00    -0.237 OA
ATOM    103  O   UNL A   1      35.418  32.628  39.091  1.00  0.00    -0.744 OA
ENDBRANCH  96 100
ENDBRANCH  70  93
ENDBRANCH  44  45
ENDBRANCH  37  39
ENDBRANCH  36  37
ENDBRANCH  35  36
ENDBRANCH  34  35
ENDBRANCH  33  34
ENDBRANCH   1  33
TORSDOF 23
ENDMDL
MODEL 2
REMARK VINA RESULT:     -11.1      5.123      7.852
REMARK SMILES CC(C)C[C@H](C(=O)OCCOCCOCCOC(=O)c1ccc(-c2c3nc(c(-c4cc(S(=O)(=O)[O-])ccc4F)c4ccc([nH]4)c(-c4cc(S(=O)(=O)[O-])ccc4F)c4nc(c(-c5cc(S(=O)(=O)[O-])ccc5F)c5ccc2[nH]5)C=C4)C=C3)cc1)N1C(=O)/C(=C2\C(=O)Nc3ccc(Br)cc32)SC1=S
REMARK SMILES IDX 13 1 12 2 11 3 10 4 9 5 8 6 6 7 7 8 5 9 4 10 2 11 1 12 3 13
REMARK SMILES IDX 83 14 84 15 99 16 85 17 86 18 98 19 100 20 87 21 88 22 97 23
REMARK SMILES IDX 89 24 90 25 91 26 96 27 92 29 94 30 93 31 95 32 14 33 15 34
REMARK SMILES IDX 16 35 17 36 18 37 19 38 20 39 21 40 82 41 22 42 81 43 23 44
REMARK SMILES IDX 24 45 25 46 75 47 26 48 80 49 74 50 76 51 27 52 79 53 73 54
REMARK SMILES IDX 72 55 28 57 60 58 40 59 59 60 41 61 44 62 58 63 77 64 42 65
REMARK SMILES IDX 43 66 57 68 78 69 45 70 29 71 30 72 38 73 31 74 37 75 39 76
REMARK SMILES IDX 36 77 32 78 33 79 34 80 35 81 61 82 62 83 70 84 63 85 69 86
REMARK SMILES IDX 71 87 68 88 64 89 65 90 66 91 67 92 46 93 47 94 55 95 48 96
REMARK SMILES IDX 54 97 56 98 53 99 49 100 50 101 51 102 52 103
REMARK H PARENT 90 28 76 56 44 67
REMARK Flexibility Score: inf
ROOT
ATOM      1  C   UNL A   1      41.778  19.801  26.161  1.00  0.00     0.188 C 
ENDROOT
BRANCH   1   2
ATOM      2  C   UNL A   1      40.268  20.136  26.261  1.00  0.00     0.188 C 
BRANCH   2   3
ATOM      3  O   UNL A   1      39.849  21.279  26.991  1.00  0.00    -0.376 OA
BRANCH   3   4
ATOM      4  C   UNL A   1      39.467  22.425  26.249  1.00  0.00     0.202 C 
BRANCH   4   5
ATOM      5  C   UNL A   1      37.982  22.817  26.278  1.00  0.00     0.261 C 
BRANCH   5   6
ATOM      6  O   UNL A   1      37.118  21.851  25.646  1.00  0.00    -0.462 OA
BRANCH   6   7
ATOM      7  C   UNL A   1      36.504  22.225  24.483  1.00  0.00     0.329 C 
ATOM      8  O   UNL A   1      36.965  23.034  23.687  1.00  0.00    -0.250 OA
BRANCH   7   9
ATOM      9  C   UNL A   1      35.087  21.601  24.339  1.00  0.00     0.202 C 
BRANCH   9  10
ATOM     10  C   UNL A   1      34.869  20.307  25.175  1.00  0.00     0.040 C 
BRANCH  10  11
ATOM     11  C   UNL A   1      34.038  19.204  24.474  1.00  0.00    -0.015 C 
ATOM     12  C   UNL A   1      34.868  17.929  24.305  1.00  0.00     0.007 C 
ATOM     13  C   UNL A   1      32.715  18.933  25.196  1.00  0.00     0.007 C 
ENDBRANCH  10  11
ENDBRANCH   9  10
BRANCH   9  14
ATOM     14  N   UNL A   1      33.984  22.550  24.607  1.00  0.00    -0.278 N 
ATOM     15  C   UNL A   1      33.468  23.297  23.575  1.00  0.00     0.267 C 
ATOM     16  C   UNL A   1      33.545  22.934  25.847  1.00  0.00     0.149 C 
ATOM     17  O   UNL A   1      33.176  22.832  22.485  1.00  0.00    -0.268 OA
ATOM     18  C   UNL A   1      33.075  24.648  24.045  1.00  0.00     0.093 C 
ATOM     19  S   UNL A   1      33.044  24.625  25.772  1.00  0.00    -0.053 SA
ATOM     20  S   UNL A   1      33.432  22.023  27.236  1.00  0.00    -0.052 S 
ATOM     21  C   UNL A   1      32.681  25.650  23.246  1.00  0.00     0.069 C 
ATOM     22  C   UNL A   1      32.469  25.503  21.765  1.00  0.00     0.257 C 
ATOM     23  C   UNL A   1      32.084  26.946  23.603  1.00  0.00     0.013 A 
ATOM     24  O   UNL A   1      33.099  24.847  20.945  1.00  0.00    -0.269 OA
ATOM     25  N   UNL A   1      31.462  26.398  21.465  1.00  0.00    -0.321 N 
ATOM     26  C   UNL A   1      31.263  27.281  22.520  1.00  0.00     0.049 A 
ATOM     27  C   UNL A   1      32.262  27.848  24.638  1.00  0.00     0.026 A 
ATOM     28  H   UNL A   1      30.955  26.409  20.621  1.00  0.00     0.170 HD
ATOM     29  C   UNL A   1      30.488  28.419  22.484  1.00  0.00     0.028 A 
ATOM     30  C   UNL A   1      31.536  29.044  24.587  1.00  0.00     0.018 A 
ATOM     31  C   UNL A   1      30.630  29.313  23.543  1.00  0.00     0.018 A 
ATOM     32  Br  UNL A   1      31.820  30.365  25.913  1.00  0.00    -0.051 Br
ENDBRANCH   9  14
ENDBRANCH   7   9
ENDBRANCH   6   7
ENDBRANCH   5   6
ENDBRANCH   4   5
ENDBRANCH   3   4
ENDBRANCH   2   3
ENDBRANCH   1   2
BRANCH   1  33
ATOM     33  O   UNL A   1      42.712  20.539  26.930  1.00  0.00    -0.376 OA
BRANCH  33  34
ATOM     34  C   UNL A   1      43.192  21.761  26.395  1.00  0.00     0.202 C 
BRANCH  34  35
ATOM     35  C   UNL A   1      42.969  23.011  27.252  1.00  0.00     0.261 C 
BRANCH  35  36
ATOM     36  O   UNL A   1      43.645  24.178  26.733  1.00  0.00    -0.460 OA
BRANCH  36  37
ATOM     37  C   UNL A   1      42.845  25.115  26.168  1.00  0.00     0.338 C 
ATOM     38  O   UNL A   1      41.874  24.910  25.458  1.00  0.00    -0.246 OA
BRANCH  37  39
ATOM     39  C   UNL A   1      43.197  26.476  26.626  1.00  0.00     0.060 A 
ATOM     40  C   UNL A   1      43.840  26.604  27.856  1.00  0.00     0.016 A 
ATOM     41  C   UNL A   1      42.707  27.614  25.989  1.00  0.00     0.016 A 
ATOM     42  C   UNL A   1      43.924  27.843  28.491  1.00  0.00     0.010 A 
ATOM     43  C   UNL A   1      42.843  28.873  26.608  1.00  0.00     0.010 A 
ATOM     44  C   UNL A   1      43.427  28.996  27.883  1.00  0.00    -0.014 A 
BRANCH  44  45
ATOM     45  C   UNL A   1      43.401  30.276  28.654  1.00  0.00     0.031 A 
ATOM     46  C   UNL A   1      44.585  31.204  28.575  1.00  0.00     0.074 A 
ATOM     47  C   UNL A   1      42.307  30.677  29.332  1.00  0.00     0.049 A 
ATOM     48  N   UNL A   1      44.859  32.270  29.282  1.00  0.00    -0.248 NA
ATOM     49  C   UNL A   1      45.584  30.893  27.543  1.00  0.00     0.031 C 
ATOM     50  C   UNL A   1      41.020  29.982  29.353  1.00  0.00     0.029 A 
ATOM     51  N   UNL A   1      42.096  31.780  30.128  1.00  0.00    -0.354 N 
ATOM     52  C   UNL A   1      46.084  32.733  28.815  1.00  0.00     0.074 A 
ATOM     53  C   UNL A   1      46.495  31.831  27.757  1.00  0.00     0.031 C 
ATOM     54  C   UNL A   1      40.158  30.672  30.119  1.00  0.00     0.029 A 
ATOM     55  C   UNL A   1      40.853  31.806  30.724  1.00  0.00     0.049 A 
ATOM     56  H   UNL A   1      42.769  32.486  30.260  1.00  0.00     0.167 HD
ATOM     57  C   UNL A   1      46.805  33.802  29.238  1.00  0.00     0.034 A 
ATOM     58  C   UNL A   1      40.354  32.605  31.692  1.00  0.00     0.034 A 
ATOM     59  C   UNL A   1      46.373  34.699  30.284  1.00  0.00     0.049 A 
ATOM     60  C   UNL A   1      41.239  33.688  32.272  1.00  0.00     0.074 A 
ATOM     61  C   UNL A   1      47.047  35.781  30.826  1.00  0.00     0.029 A 
ATOM     62  N   UNL A   1      45.156  34.619  30.951  1.00  0.00    -0.354 N 
ATOM     63  N   UNL A   1      42.450  34.048  31.913  1.00  0.00    -0.248 NA
ATOM     64  C   UNL A   1      40.696  34.459  33.399  1.00  0.00     0.031 C 
ATOM     65  C   UNL A   1      46.276  36.301  31.872  1.00  0.00     0.029 A 
ATOM     66  C   UNL A   1      45.079  35.606  31.923  1.00  0.00     0.049 A 
ATOM     67  H   UNL A   1      44.452  33.958  30.761  1.00  0.00     0.167 HD
ATOM     68  C   UNL A   1      42.795  35.109  32.749  1.00  0.00     0.074 A 
ATOM     69  C   UNL A   1      41.661  35.338  33.619  1.00  0.00     0.031 C 
ATOM     70  C   UNL A   1      43.945  35.829  32.791  1.00  0.00     0.034 A 
BRANCH  57  71
ATOM     71  C   UNL A   1      48.181  33.987  28.645  1.00  0.00     0.023 A 
ATOM     72  C   UNL A   1      48.391  34.608  27.402  1.00  0.00     0.031 A 
ATOM     73  C   UNL A   1      49.304  33.483  29.328  1.00  0.00     0.131 A 
ATOM     74  C   UNL A   1      49.681  34.637  26.847  1.00  0.00     0.055 A 
ATOM     75  C   UNL A   1      50.595  33.592  28.809  1.00  0.00     0.041 A 
ATOM     76  F   UNL A   1      49.163  32.855  30.506  1.00  0.00    -0.206 F 
ATOM     77  C   UNL A   1      50.787  34.158  27.554  1.00  0.00     0.022 A 
BRANCH  74  78
ATOM     78  S   UNL A   1      49.871  35.161  25.120  1.00  0.00     0.124 S 
ATOM     79  O   UNL A   1      48.535  34.908  24.587  1.00  0.00    -0.237 OA
ATOM     80  O   UNL A   1      50.251  36.562  25.255  1.00  0.00    -0.237 OA
ATOM     81  O   UNL A   1      50.915  34.277  24.606  1.00  0.00    -0.744 OA
ENDBRANCH  74  78
ENDBRANCH  57  71
BRANCH  58  82
ATOM     82  C   UNL A   1      38.995  32.360  32.270  1.00  0.00     0.023 A 
ATOM     83  C   UNL A   1      37.836  32.884  31.670  1.00  0.00     0.031 A 
ATOM     84  C   UNL A   1      38.844  31.679  33.494  1.00  0.00     0.131 A 
ATOM     85  C   UNL A   1      36.594  32.764  32.318  1.00  0.00     0.055 A 
ATOM     86  C   UNL A   1      37.598  31.500  34.097  1.00  0.00     0.041 A 
ATOM     87  F   UNL A   1      39.914  31.176  34.129  1.00  0.00    -0.206 F 
ATOM     88  C   UNL A   1      36.465  32.059  33.517  1.00  0.00     0.022 A 
BRANCH  85  89
ATOM     89  S   UNL A   1      35.163  33.647  31.634  1.00  0.00     0.124 S 
ATOM     90  O   UNL A   1      35.546  33.787  30.234  1.00  0.00    -0.237 OA
ATOM     91  O   UNL A   1      34.072  32.718  31.913  1.00  0.00    -0.237 OA
ATOM     92  O   UNL A   1      35.132  34.891  32.401  1.00  0.00    -0.744 OA
ENDBRANCH  85  89
ENDBRANCH  58  82
BRANCH  70  93
ATOM     93  C   UNL A   1      44.011  36.980  33.770  1.00  0.00     0.023 A 
ATOM     94  C   UNL A   1      43.643  38.288  33.412  1.00  0.00     0.031 A 
ATOM     95  C   UNL A   1      44.454  36.759  35.088  1.00  0.00     0.131 A 
ATOM     96  C   UNL A   1      43.774  39.332  34.342  1.00  0.00     0.055 A 
ATOM     97  C   UNL A   1      44.518  37.788  36.027  1.00  0.00     0.041 A 
ATOM     98  F   UNL A   1      44.825  35.531  35.486  1.00  0.00    -0.206 F 
ATOM     99  C   UNL A   1      44.190  39.086  35.653  1.00  0.00     0.022 A 
BRANCH  96 100
ATOM    100  S   UNL A   1      43.484  41.037  33.791  1.00  0.00     0.124 S 
ATOM    101  O   UNL A   1      43.499  41.770  35.052  1.00  0.00    -0.237 OA
ATOM    102  O   UNL A   1      44.616  41.275  32.901  1.00  0.00    -0.237 OA
ATOM    103  O   UNL A   1      42.182  40.968  33.129  1.00  0.00    -0.744 OA
ENDBRANCH  96 100
ENDBRANCH  70  93
ENDBRANCH  44  45
ENDBRANCH  37  39
ENDBRANCH  36  37
ENDBRANCH  35  36
ENDBRANCH  34  35
ENDBRANCH  33  34
ENDBRANCH   1  33
TORSDOF 23
ENDMDL
MODEL 3
REMARK VINA RESULT:     -11.0      5.563      7.946
REMARK SMILES CC(C)C[C@H](C(=O)OCCOCCOCCOC(=O)c1ccc(-c2c3nc(c(-c4cc(S(=O)(=O)[O-])ccc4F)c4ccc([nH]4)c(-c4cc(S(=O)(=O)[O-])ccc4F)c4nc(c(-c5cc(S(=O)(=O)[O-])ccc5F)c5ccc2[nH]5)C=C4)C=C3)cc1)N1C(=O)/C(=C2\C(=O)Nc3ccc(Br)cc32)SC1=S
REMARK SMILES IDX 13 1 12 2 11 3 10 4 9 5 8 6 6 7 7 8 5 9 4 10 2 11 1 12 3 13
REMARK SMILES IDX 83 14 84 15 99 16 85 17 86 18 98 19 100 20 87 21 88 22 97 23
REMARK SMILES IDX 89 24 90 25 91 26 96 27 92 29 94 30 93 31 95 32 14 33 15 34
REMARK SMILES IDX 16 35 17 36 18 37 19 38 20 39 21 40 82 41 22 42 81 43 23 44
REMARK SMILES IDX 24 45 25 46 75 47 26 48 80 49 74 50 76 51 27 52 79 53 73 54
REMARK SMILES IDX 72 55 28 57 60 58 40 59 59 60 41 61 44 62 58 63 77 64 42 65
REMARK SMILES IDX 43 66 57 68 78 69 45 70 29 71 30 72 38 73 31 74 37 75 39 76
REMARK SMILES IDX 36 77 32 78 33 79 34 80 35 81 61 82 62 83 70 84 63 85 69 86
REMARK SMILES IDX 71 87 68 88 64 89 65 90 66 91 67 92 46 93 47 94 55 95 48 96
REMARK SMILES IDX 54 97 56 98 53 99 49 100 50 101 51 102 52 103
REMARK H PARENT 90 28 76 56 44 67
REMARK Flexibility Score: inf
ROOT
ATOM      1  C   UNL A   1      41.313  20.700  26.244  1.00  0.00     0.188 C 
ENDROOT
BRANCH   1   2
ATOM      2  C   UNL A   1      39.915  21.233  25.838  1.00  0.00     0.188 C 
BRANCH   2   3
ATOM      3  O   UNL A   1      39.145  21.971  26.775  1.00  0.00    -0.376 OA
BRANCH   3   4
ATOM      4  C   UNL A   1      39.006  23.364  26.553  1.00  0.00     0.202 C 
BRANCH   4   5
ATOM      5  C   UNL A   1      37.674  23.851  25.966  1.00  0.00     0.261 C 
BRANCH   5   6
ATOM      6  O   UNL A   1      36.708  22.797  25.771  1.00  0.00    -0.462 OA
BRANCH   6   7
ATOM      7  C   UNL A   1      36.454  22.411  24.484  1.00  0.00     0.329 C 
ATOM      8  O   UNL A   1      37.212  22.601  23.541  1.00  0.00    -0.250 OA
BRANCH   7   9
ATOM      9  C   UNL A   1      35.029  21.808  24.323  1.00  0.00     0.202 C 
BRANCH   9  10
ATOM     10  C   UNL A   1      34.808  20.472  25.090  1.00  0.00     0.040 C 
BRANCH  10  11
ATOM     11  C   UNL A   1      33.981  19.407  24.328  1.00  0.00    -0.015 C 
ATOM     12  C   UNL A   1      34.560  18.009  24.559  1.00  0.00     0.007 C 
ATOM     13  C   UNL A   1      32.492  19.474  24.678  1.00  0.00     0.007 C 
ENDBRANCH  10  11
ENDBRANCH   9  10
BRANCH   9  14
ATOM     14  N   UNL A   1      33.939  22.751  24.657  1.00  0.00    -0.278 N 
ATOM     15  C   UNL A   1      33.388  23.528  23.664  1.00  0.00     0.267 C 
ATOM     16  C   UNL A   1      33.543  23.100  25.921  1.00  0.00     0.149 C 
ATOM     17  O   UNL A   1      33.058  23.094  22.573  1.00  0.00    -0.268 OA
ATOM     18  C   UNL A   1      33.016  24.866  24.186  1.00  0.00     0.093 C 
ATOM     19  S   UNL A   1      33.045  24.793  25.912  1.00  0.00    -0.053 SA
ATOM     20  S   UNL A   1      33.477  22.151  27.287  1.00  0.00    -0.052 S 
ATOM     21  C   UNL A   1      32.597  25.890  23.430  1.00  0.00     0.069 C 
ATOM     22  C   UNL A   1      32.333  25.786  21.954  1.00  0.00     0.257 C 
ATOM     23  C   UNL A   1      32.016  27.177  23.844  1.00  0.00     0.013 A 
ATOM     24  O   UNL A   1      32.932  25.152  21.094  1.00  0.00    -0.269 OA
ATOM     25  N   UNL A   1      31.319  26.690  21.714  1.00  0.00    -0.321 N 
ATOM     26  C   UNL A   1      31.158  27.543  22.801  1.00  0.00     0.049 A 
ATOM     27  C   UNL A   1      32.232  28.049  24.897  1.00  0.00     0.026 A 
ATOM     28  H   UNL A   1      30.783  26.727  20.890  1.00  0.00     0.170 HD
ATOM     29  C   UNL A   1      30.385  28.683  22.823  1.00  0.00     0.028 A 
ATOM     30  C   UNL A   1      31.508  29.246  24.906  1.00  0.00     0.018 A 
ATOM     31  C   UNL A   1      30.567  29.547  23.902  1.00  0.00     0.018 A 
ATOM     32  Br  UNL A   1      31.841  30.529  26.258  1.00  0.00    -0.051 Br
ENDBRANCH   9  14
ENDBRANCH   7   9
ENDBRANCH   6   7
ENDBRANCH   5   6
ENDBRANCH   4   5
ENDBRANCH   3   4
ENDBRANCH   2   3
ENDBRANCH   1   2
BRANCH   1  33
ATOM     33  O   UNL A   1      41.986  21.274  27.352  1.00  0.00    -0.376 OA
BRANCH  33  34
ATOM     34  C   UNL A   1      42.929  22.301  27.095  1.00  0.00     0.202 C 
BRANCH  34  35
ATOM     35  C   UNL A   1      42.567  23.698  27.611  1.00  0.00     0.261 C 
BRANCH  35  36
ATOM     36  O   UNL A   1      43.469  24.723  27.138  1.00  0.00    -0.460 OA
BRANCH  36  37
ATOM     37  C   UNL A   1      42.952  25.582  26.225  1.00  0.00     0.338 C 
ATOM     38  O   UNL A   1      42.242  25.293  25.276  1.00  0.00    -0.246 OA
BRANCH  37  39
ATOM     39  C   UNL A   1      43.234  26.989  26.583  1.00  0.00     0.060 A 
ATOM     40  C   UNL A   1      44.088  27.230  27.658  1.00  0.00     0.016 A 
ATOM     41  C   UNL A   1      42.504  28.043  26.040  1.00  0.00     0.016 A 
ATOM     42  C   UNL A   1      44.156  28.494  28.244  1.00  0.00     0.010 A 
ATOM     43  C   UNL A   1      42.617  29.331  26.600  1.00  0.00     0.010 A 
ATOM     44  C   UNL A   1      43.423  29.563  27.731  1.00  0.00    -0.014 A 
BRANCH  44  45
ATOM     45  C   UNL A   1      43.407  30.861  28.472  1.00  0.00     0.031 A 
ATOM     46  C   UNL A   1      44.421  31.918  28.123  1.00  0.00     0.074 A 
ATOM     47  C   UNL A   1      42.444  31.157  29.369  1.00  0.00     0.049 A 
ATOM     48  N   UNL A   1      44.708  33.036  28.739  1.00  0.00    -0.248 NA
ATOM     49  C   UNL A   1      45.204  31.686  26.901  1.00  0.00     0.031 C 
ATOM     50  C   UNL A   1      41.288  30.316  29.681  1.00  0.00     0.029 A 
ATOM     51  N   UNL A   1      42.276  32.258  30.178  1.00  0.00    -0.354 N 
ATOM     52  C   UNL A   1      45.736  33.622  28.008  1.00  0.00     0.074 A 
ATOM     53  C   UNL A   1      46.016  32.733  26.898  1.00  0.00     0.031 C 
ATOM     54  C   UNL A   1      40.535  30.929  30.609  1.00  0.00     0.029 A 
ATOM     55  C   UNL A   1      41.198  32.160  31.033  1.00  0.00     0.049 A 
ATOM     56  H   UNL A   1      42.870  33.043  30.149  1.00  0.00     0.167 HD
ATOM     57  C   UNL A   1      46.393  34.785  28.249  1.00  0.00     0.034 A 
ATOM     58  C   UNL A   1      40.826  32.932  32.076  1.00  0.00     0.034 A 
ATOM     59  C   UNL A   1      46.090  35.665  29.353  1.00  0.00     0.049 A 
ATOM     60  C   UNL A   1      41.674  34.134  32.433  1.00  0.00     0.074 A 
ATOM     61  C   UNL A   1      46.726  36.839  29.719  1.00  0.00     0.029 A 
ATOM     62  N   UNL A   1      45.067  35.468  30.272  1.00  0.00    -0.354 N 
ATOM     63  N   UNL A   1      42.725  34.620  31.812  1.00  0.00    -0.248 NA
ATOM     64  C   UNL A   1      41.297  34.880  33.642  1.00  0.00     0.031 C 
ATOM     65  C   UNL A   1      46.142  37.305  30.902  1.00  0.00     0.029 A 
ATOM     66  C   UNL A   1      45.080  36.477  31.224  1.00  0.00     0.049 A 
ATOM     67  H   UNL A   1      44.425  34.722  30.250  1.00  0.00     0.167 HD
ATOM     68  C   UNL A   1      43.109  35.747  32.538  1.00  0.00     0.074 A 
ATOM     69  C   UNL A   1      42.171  35.875  33.634  1.00  0.00     0.031 C 
ATOM     70  C   UNL A   1      44.143  36.599  32.317  1.00  0.00     0.034 A 
BRANCH  57  71
ATOM     71  C   UNL A   1      47.574  35.107  27.366  1.00  0.00     0.023 A 
ATOM     72  C   UNL A   1      48.873  34.648  27.643  1.00  0.00     0.031 A 
ATOM     73  C   UNL A   1      47.395  35.936  26.242  1.00  0.00     0.131 A 
ATOM     74  C   UNL A   1      49.950  35.086  26.855  1.00  0.00     0.055 A 
ATOM     75  C   UNL A   1      48.458  36.297  25.412  1.00  0.00     0.041 A 
ATOM     76  F   UNL A   1      46.182  36.428  25.942  1.00  0.00    -0.206 F 
ATOM     77  C   UNL A   1      49.747  35.884  25.726  1.00  0.00     0.022 A 
BRANCH  74  78
ATOM     78  S   UNL A   1      51.638  34.731  27.418  1.00  0.00     0.124 S 
ATOM     79  O   UNL A   1      51.941  33.504  26.686  1.00  0.00    -0.237 OA
ATOM     80  O   UNL A   1      52.368  35.922  26.998  1.00  0.00    -0.237 OA
ATOM     81  O   UNL A   1      51.490  34.565  28.863  1.00  0.00    -0.744 OA
ENDBRANCH  74  78
ENDBRANCH  57  71
BRANCH  58  82
ATOM     82  C   UNL A   1      39.665  32.552  32.941  1.00  0.00     0.023 A 
ATOM     83  C   UNL A   1      38.397  33.135  32.769  1.00  0.00     0.031 A 
ATOM     84  C   UNL A   1      39.834  31.668  34.025  1.00  0.00     0.131 A 
ATOM     85  C   UNL A   1      37.371  32.869  33.691  1.00  0.00     0.055 A 
ATOM     86  C   UNL A   1      38.790  31.352  34.897  1.00  0.00     0.041 A 
ATOM     87  F   UNL A   1      41.026  31.097  34.259  1.00  0.00    -0.206 F 
ATOM     88  C   UNL A   1      37.553  31.967  34.742  1.00  0.00     0.022 A 
BRANCH  85  89
ATOM     89  S   UNL A   1      35.824  33.812  33.572  1.00  0.00     0.124 S 
ATOM     90  O   UNL A   1      35.238  33.584  34.887  1.00  0.00    -0.237 OA
ATOM     91  O   UNL A   1      36.311  35.162  33.310  1.00  0.00    -0.237 OA
ATOM     92  O   UNL A   1      35.123  33.177  32.457  1.00  0.00    -0.744 OA
ENDBRANCH  85  89
ENDBRANCH  58  82
BRANCH  70  93
ATOM     93  C   UNL A   1      44.276  37.787  33.243  1.00  0.00     0.023 A 
ATOM     94  C   UNL A   1      43.599  38.997  33.009  1.00  0.00     0.031 A 
ATOM     95  C   UNL A   1      45.100  37.704  34.381  1.00  0.00     0.131 A 
ATOM     96  C   UNL A   1      43.799  40.088  33.869  1.00  0.00     0.055 A 
ATOM     97  C   UNL A   1      45.243  38.771  35.269  1.00  0.00     0.041 A 
ATOM     98  F   UNL A   1      45.777  36.576  34.652  1.00  0.00    -0.206 F 
ATOM     99  C   UNL A   1      44.601  39.976  35.008  1.00  0.00     0.022 A 
BRANCH  96 100
ATOM    100  S   UNL A   1      43.072  41.692  33.430  1.00  0.00     0.124 S 
ATOM    101  O   UNL A   1      44.209  42.387  32.836  1.00  0.00    -0.237 OA
ATOM    102  O   UNL A   1      42.006  41.312  32.510  1.00  0.00    -0.237 OA
ATOM    103  O   UNL A   1      42.620  42.228  34.713  1.00  0.00    -0.744 OA
ENDBRANCH  96 100
ENDBRANCH  70  93
ENDBRANCH  44  45
ENDBRANCH  37  39
ENDBRANCH  36  37
ENDBRANCH  35  36
ENDBRANCH  34  35
ENDBRANCH  33  34
ENDBRANCH   1  33
TORSDOF 23
ENDMDL
