MODEL 1
REMARK VINA RESULT:     -10.2      0.000      0.000
REMARK SMILES O=C(CCCc1nc(-c2cccc(Cl)c2)no1)OCCOCCOCCOC(=O)c1ccc(-c2c3nc(c(-c4cc(S(=O)(=O)[O-])ccc4F)c4ccc([nH]4)c(-c4cc(S(=O)(=O)[O-])ccc4F)c4nc(c(-c5cc(S(=O)(=O)[O-])ccc5F)c5ccc2[nH]5)C=C4)C=C3)cc1
REMARK SMILES IDX 22 1 21 2 20 3 19 4 18 5 2 6 1 7 3 8 4 9 5 10 6 11 7 12
REMARK SMILES IDX 17 13 8 14 16 15 9 16 10 17 15 18 11 19 13 20 12 21 14 22
REMARK SMILES IDX 23 23 24 24 25 25 26 26 27 27 28 28 29 29 30 30 31 31 92 32
REMARK SMILES IDX 32 33 91 34 33 35 34 36 35 37 85 38 36 39 90 40 84 41 86 42
REMARK SMILES IDX 37 43 89 44 83 45 82 46 38 48 70 49 50 50 69 51 51 52 54 53
REMARK SMILES IDX 68 54 87 55 52 56 53 57 67 59 88 60 55 61 39 62 40 63 48 64
REMARK SMILES IDX 41 65 47 66 49 67 46 68 42 69 43 70 44 71 45 72 71 73 72 74
REMARK SMILES IDX 80 75 73 76 79 77 81 78 78 79 74 80 75 81 76 82 77 83 56 84
REMARK SMILES IDX 57 85 65 86 58 87 64 88 66 89 63 90 59 91 60 92 61 93 62 94
REMARK H PARENT 86 47 54 58
REMARK Flexibility Score: inf
ROOT
ATOM      1  C   UNL A   1      34.572  24.051  23.846  1.00  0.00     0.188 C 
ENDROOT
BRANCH   1   2
ATOM      2  O   UNL A   1      34.256  24.612  22.571  1.00  0.00    -0.376 OA
BRANCH   2   3
ATOM      3  C   UNL A   1      32.870  24.748  22.297  1.00  0.00     0.202 C 
BRANCH   3   4
ATOM      4  C   UNL A   1      32.581  26.124  21.716  1.00  0.00     0.261 C 
BRANCH   4   5
ATOM      5  O   UNL A   1      31.665  26.865  22.538  1.00  0.00    -0.463 OA
BRANCH   5   6
ATOM      6  C   UNL A   1      32.043  27.333  23.754  1.00  0.00     0.305 C 
ATOM      7  O   UNL A   1      33.146  27.854  23.898  1.00  0.00    -0.252 OA
BRANCH   6   8
ATOM      8  C   UNL A   1      31.134  27.061  24.933  1.00  0.00     0.123 C 
BRANCH   8   9
ATOM      9  C   UNL A   1      30.332  25.764  24.847  1.00  0.00     0.022 C 
BRANCH   9  10
ATOM     10  C   UNL A   1      30.429  24.820  26.047  1.00  0.00     0.101 C 
BRANCH  10  11
ATOM     11  C   UNL A   1      31.236  23.580  25.869  1.00  0.00     0.226 A 
ATOM     12  N   UNL A   1      31.175  22.587  25.008  1.00  0.00    -0.191 NA
ATOM     13  O   UNL A   1      32.204  23.402  26.814  1.00  0.00    -0.339 OA
ATOM     14  C   UNL A   1      32.125  21.705  25.495  1.00  0.00     0.202 A 
ATOM     15  N   UNL A   1      32.786  22.170  26.570  1.00  0.00    -0.057 NA
BRANCH  14  16
ATOM     16  C   UNL A   1      32.387  20.380  24.934  1.00  0.00     0.024 A 
ATOM     17  C   UNL A   1      32.798  19.309  25.740  1.00  0.00     0.012 A 
ATOM     18  C   UNL A   1      32.224  20.159  23.555  1.00  0.00     0.032 A 
ATOM     19  C   UNL A   1      33.016  18.043  25.180  1.00  0.00     0.002 A 
ATOM     20  C   UNL A   1      32.467  18.902  23.001  1.00  0.00     0.041 A 
ATOM     21  C   UNL A   1      32.858  17.840  23.809  1.00  0.00     0.020 A 
ATOM     22  Cl  UNL A   1      32.297  18.669  21.304  1.00  0.00    -0.084 Cl
ENDBRANCH  14  16
ENDBRANCH  10  11
ENDBRANCH   9  10
ENDBRANCH   8   9
ENDBRANCH   6   8
ENDBRANCH   5   6
ENDBRANCH   4   5
ENDBRANCH   3   4
ENDBRANCH   2   3
ENDBRANCH   1   2
BRANCH   1  23
ATOM     23  C   UNL A   1      35.301  22.706  23.775  1.00  0.00     0.188 C 
BRANCH  23  24
ATOM     24  O   UNL A   1      36.010  22.318  24.949  1.00  0.00    -0.376 OA
BRANCH  24  25
ATOM     25  C   UNL A   1      36.009  20.927  25.280  1.00  0.00     0.202 C 
BRANCH  25  26
ATOM     26  C   UNL A   1      37.329  20.209  25.007  1.00  0.00     0.261 C 
BRANCH  26  27
ATOM     27  O   UNL A   1      38.431  21.143  25.024  1.00  0.00    -0.460 OA
BRANCH  27  28
ATOM     28  C   UNL A   1      39.389  20.900  25.947  1.00  0.00     0.338 C 
ATOM     29  O   UNL A   1      39.959  19.843  26.143  1.00  0.00    -0.246 OA
BRANCH  28  30
ATOM     30  C   UNL A   1      39.756  22.145  26.651  1.00  0.00     0.060 A 
ATOM     31  C   UNL A   1      39.168  23.337  26.212  1.00  0.00     0.016 A 
ATOM     32  C   UNL A   1      40.765  22.172  27.618  1.00  0.00     0.016 A 
ATOM     33  C   UNL A   1      39.639  24.562  26.683  1.00  0.00     0.010 A 
ATOM     34  C   UNL A   1      41.233  23.403  28.095  1.00  0.00     0.010 A 
ATOM     35  C   UNL A   1      40.709  24.604  27.587  1.00  0.00    -0.014 A 
BRANCH  35  36
ATOM     36  C   UNL A   1      41.407  25.894  27.831  1.00  0.00     0.031 A 
ATOM     37  C   UNL A   1      40.680  26.979  28.583  1.00  0.00     0.074 A 
ATOM     38  C   UNL A   1      42.679  26.085  27.437  1.00  0.00     0.049 A 
ATOM     39  N   UNL A   1      41.081  28.183  28.908  1.00  0.00    -0.248 NA
ATOM     40  C   UNL A   1      39.313  26.663  29.027  1.00  0.00     0.031 C 
ATOM     41  C   UNL A   1      43.503  25.100  26.740  1.00  0.00     0.029 A 
ATOM     42  N   UNL A   1      43.500  27.177  27.572  1.00  0.00    -0.354 N 
ATOM     43  C   UNL A   1      40.019  28.765  29.594  1.00  0.00     0.074 A 
ATOM     44  C   UNL A   1      38.941  27.799  29.596  1.00  0.00     0.031 C 
ATOM     45  C   UNL A   1      44.714  25.635  26.504  1.00  0.00     0.029 A 
ATOM     46  C   UNL A   1      44.740  27.009  27.005  1.00  0.00     0.049 A 
ATOM     47  H   UNL A   1      43.225  28.004  28.031  1.00  0.00     0.167 HD
ATOM     48  C   UNL A   1      39.953  29.985  30.184  1.00  0.00     0.034 A 
ATOM     49  C   UNL A   1      45.772  27.871  26.887  1.00  0.00     0.034 A 
ATOM     50  C   UNL A   1      41.029  30.945  30.169  1.00  0.00     0.049 A 
ATOM     51  C   UNL A   1      45.646  29.256  27.474  1.00  0.00     0.074 A 
ATOM     52  C   UNL A   1      41.070  32.204  30.743  1.00  0.00     0.029 A 
ATOM     53  N   UNL A   1      42.252  30.757  29.537  1.00  0.00    -0.354 N 
ATOM     54  N   UNL A   1      44.638  29.790  28.124  1.00  0.00    -0.248 NA
ATOM     55  C   UNL A   1      46.800  30.151  27.315  1.00  0.00     0.031 C 
ATOM     56  C   UNL A   1      42.290  32.802  30.404  1.00  0.00     0.029 A 
ATOM     57  C   UNL A   1      43.040  31.889  29.679  1.00  0.00     0.049 A 
ATOM     58  H   UNL A   1      42.519  29.941  29.058  1.00  0.00     0.167 HD
ATOM     59  C   UNL A   1      45.051  31.074  28.477  1.00  0.00     0.074 A 
ATOM     60  C   UNL A   1      46.400  31.228  27.974  1.00  0.00     0.031 C 
ATOM     61  C   UNL A   1      44.380  32.035  29.161  1.00  0.00     0.034 A 
BRANCH  48  62
ATOM     62  C   UNL A   1      38.651  30.357  30.852  1.00  0.00     0.023 A 
ATOM     63  C   UNL A   1      37.620  31.008  30.151  1.00  0.00     0.031 A 
ATOM     64  C   UNL A   1      38.453  30.090  32.218  1.00  0.00     0.131 A 
ATOM     65  C   UNL A   1      36.469  31.431  30.833  1.00  0.00     0.055 A 
ATOM     66  C   UNL A   1      37.273  30.446  32.873  1.00  0.00     0.041 A 
ATOM     67  F   UNL A   1      39.411  29.492  32.943  1.00  0.00    -0.206 F 
ATOM     68  C   UNL A   1      36.279  31.134  32.185  1.00  0.00     0.022 A 
BRANCH  65  69
ATOM     69  S   UNL A   1      35.288  32.498  29.963  1.00  0.00     0.124 S 
ATOM     70  O   UNL A   1      34.337  32.813  31.026  1.00  0.00    -0.237 OA
ATOM     71  O   UNL A   1      36.132  33.599  29.512  1.00  0.00    -0.237 OA
ATOM     72  O   UNL A   1      34.765  31.639  28.904  1.00  0.00    -0.744 OA
ENDBRANCH  65  69
ENDBRANCH  48  62
BRANCH  49  73
ATOM     73  C   UNL A   1      47.006  27.472  26.153  1.00  0.00     0.023 A 
ATOM     74  C   UNL A   1      47.185  27.796  24.799  1.00  0.00     0.031 A 
ATOM     75  C   UNL A   1      48.002  26.709  26.788  1.00  0.00     0.131 A 
ATOM     76  C   UNL A   1      48.314  27.322  24.112  1.00  0.00     0.055 A 
ATOM     77  C   UNL A   1      49.146  26.281  26.112  1.00  0.00     0.041 A 
ATOM     78  F   UNL A   1      47.877  26.372  28.082  1.00  0.00    -0.206 F 
ATOM     79  C   UNL A   1      49.301  26.578  24.763  1.00  0.00     0.022 A 
BRANCH  76  80
ATOM     80  S   UNL A   1      48.441  27.631  22.328  1.00  0.00     0.124 S 
ATOM     81  O   UNL A   1      48.529  26.275  21.798  1.00  0.00    -0.237 OA
ATOM     82  O   UNL A   1      47.199  28.347  22.056  1.00  0.00    -0.237 OA
ATOM     83  O   UNL A   1      49.658  28.430  22.207  1.00  0.00    -0.744 OA
ENDBRANCH  76  80
ENDBRANCH  49  73
BRANCH  61  84
ATOM     84  C   UNL A   1      45.116  33.321  29.442  1.00  0.00     0.023 A 
ATOM     85  C   UNL A   1      45.894  33.492  30.600  1.00  0.00     0.031 A 
ATOM     86  C   UNL A   1      45.032  34.394  28.536  1.00  0.00     0.131 A 
ATOM     87  C   UNL A   1      46.518  34.724  30.847  1.00  0.00     0.055 A 
ATOM     88  C   UNL A   1      45.698  35.599  28.762  1.00  0.00     0.041 A 
ATOM     89  F   UNL A   1      44.303  34.284  27.414  1.00  0.00    -0.206 F 
ATOM     90  C   UNL A   1      46.436  35.774  29.928  1.00  0.00     0.022 A 
BRANCH  87  91
ATOM     91  S   UNL A   1      47.379  34.967  32.426  1.00  0.00     0.124 S 
ATOM     92  O   UNL A   1      48.749  34.603  32.084  1.00  0.00    -0.237 OA
ATOM     93  O   UNL A   1      47.143  36.380  32.697  1.00  0.00    -0.237 OA
ATOM     94  O   UNL A   1      46.700  34.042  33.333  1.00  0.00    -0.744 OA
ENDBRANCH  87  91
ENDBRANCH  61  84
ENDBRANCH  35  36
ENDBRANCH  28  30
ENDBRANCH  27  28
ENDBRANCH  26  27
ENDBRANCH  25  26
ENDBRANCH  24  25
ENDBRANCH  23  24
ENDBRANCH   1  23
TORSDOF 24
ENDMDL
MODEL 2
REMARK VINA RESULT:     -10.0      5.439      8.786
REMARK SMILES O=C(CCCc1nc(-c2cccc(Cl)c2)no1)OCCOCCOCCOC(=O)c1ccc(-c2c3nc(c(-c4cc(S(=O)(=O)[O-])ccc4F)c4ccc([nH]4)c(-c4cc(S(=O)(=O)[O-])ccc4F)c4nc(c(-c5cc(S(=O)(=O)[O-])ccc5F)c5ccc2[nH]5)C=C4)C=C3)cc1
REMARK SMILES IDX 22 1 21 2 20 3 19 4 18 5 2 6 1 7 3 8 4 9 5 10 6 11 7 12
REMARK SMILES IDX 17 13 8 14 16 15 9 16 10 17 15 18 11 19 13 20 12 21 14 22
REMARK SMILES IDX 23 23 24 24 25 25 26 26 27 27 28 28 29 29 30 30 31 31 92 32
REMARK SMILES IDX 32 33 91 34 33 35 34 36 35 37 85 38 36 39 90 40 84 41 86 42
REMARK SMILES IDX 37 43 89 44 83 45 82 46 38 48 70 49 50 50 69 51 51 52 54 53
REMARK SMILES IDX 68 54 87 55 52 56 53 57 67 59 88 60 55 61 39 62 40 63 48 64
REMARK SMILES IDX 41 65 47 66 49 67 46 68 42 69 43 70 44 71 45 72 71 73 72 74
REMARK SMILES IDX 80 75 73 76 79 77 81 78 78 79 74 80 75 81 76 82 77 83 56 84
REMARK SMILES IDX 57 85 65 86 58 87 64 88 66 89 63 90 59 91 60 92 61 93 62 94
REMARK H PARENT 86 47 54 58
REMARK Flexibility Score: inf
ROOT
ATOM      1  C   UNL A   1      31.860  29.414  25.703  1.00  0.00     0.188 C 
ENDROOT
BRANCH   1   2
ATOM      2  O   UNL A   1      32.801  29.481  24.631  1.00  0.00    -0.376 OA
BRANCH   2   3
ATOM      3  C   UNL A   1      33.786  28.459  24.626  1.00  0.00     0.202 C 
BRANCH   3   4
ATOM      4  C   UNL A   1      33.211  27.171  25.195  1.00  0.00     0.261 C 
BRANCH   4   5
ATOM      5  O   UNL A   1      34.098  26.059  24.995  1.00  0.00    -0.463 OA
BRANCH   5   6
ATOM      6  C   UNL A   1      33.705  24.976  24.279  1.00  0.00     0.305 C 
ATOM      7  O   UNL A   1      33.413  23.931  24.854  1.00  0.00    -0.252 OA
BRANCH   6   8
ATOM      8  C   UNL A   1      33.781  25.056  22.770  1.00  0.00     0.123 C 
BRANCH   8   9
ATOM      9  C   UNL A   1      32.511  25.554  22.083  1.00  0.00     0.022 C 
BRANCH   9  10
ATOM     10  C   UNL A   1      31.216  25.465  22.893  1.00  0.00     0.101 C 
BRANCH  10  11
ATOM     11  C   UNL A   1      30.327  26.661  22.880  1.00  0.00     0.226 A 
ATOM     12  N   UNL A   1      30.482  27.888  22.432  1.00  0.00    -0.191 NA
ATOM     13  O   UNL A   1      29.127  26.472  23.503  1.00  0.00    -0.339 OA
ATOM     14  C   UNL A   1      29.327  28.517  22.866  1.00  0.00     0.202 A 
ATOM     15  N   UNL A   1      28.472  27.691  23.495  1.00  0.00    -0.057 NA
BRANCH  14  16
ATOM     16  C   UNL A   1      29.048  29.942  22.697  1.00  0.00     0.024 A 
ATOM     17  C   UNL A   1      29.206  30.852  23.750  1.00  0.00     0.012 A 
ATOM     18  C   UNL A   1      28.613  30.427  21.450  1.00  0.00     0.032 A 
ATOM     19  C   UNL A   1      28.957  32.218  23.552  1.00  0.00     0.002 A 
ATOM     20  C   UNL A   1      28.343  31.783  21.267  1.00  0.00     0.041 A 
ATOM     21  C   UNL A   1      28.518  32.682  22.312  1.00  0.00     0.020 A 
ATOM     22  Cl  UNL A   1      27.774  32.343  19.742  1.00  0.00    -0.084 Cl
ENDBRANCH  14  16
ENDBRANCH  10  11
ENDBRANCH   9  10
ENDBRANCH   8   9
ENDBRANCH   6   8
ENDBRANCH   5   6
ENDBRANCH   4   5
ENDBRANCH   3   4
ENDBRANCH   2   3
ENDBRANCH   1   2
BRANCH   1  23
ATOM     23  C   UNL A   1      32.065  30.480  26.783  1.00  0.00     0.188 C 
BRANCH  23  24
ATOM     24  O   UNL A   1      31.144  31.568  26.769  1.00  0.00    -0.376 OA
BRANCH  24  25
ATOM     25  C   UNL A   1      31.687  32.879  26.593  1.00  0.00     0.202 C 
BRANCH  25  26
ATOM     26  C   UNL A   1      32.817  33.233  27.558  1.00  0.00     0.261 C 
BRANCH  26  27
ATOM     27  O   UNL A   1      32.562  34.502  28.198  1.00  0.00    -0.460 OA
BRANCH  27  28
ATOM     28  C   UNL A   1      33.380  34.814  29.228  1.00  0.00     0.338 C 
ATOM     29  O   UNL A   1      33.208  35.689  30.056  1.00  0.00    -0.246 OA
BRANCH  28  30
ATOM     30  C   UNL A   1      34.507  33.862  29.300  1.00  0.00     0.060 A 
ATOM     31  C   UNL A   1      34.299  32.660  29.987  1.00  0.00     0.016 A 
ATOM     32  C   UNL A   1      35.783  34.198  28.839  1.00  0.00     0.016 A 
ATOM     33  C   UNL A   1      35.379  31.829  30.281  1.00  0.00     0.010 A 
ATOM     34  C   UNL A   1      36.866  33.359  29.130  1.00  0.00     0.010 A 
ATOM     35  C   UNL A   1      36.676  32.199  29.900  1.00  0.00    -0.014 A 
BRANCH  35  36
ATOM     36  C   UNL A   1      37.840  31.484  30.487  1.00  0.00     0.031 A 
ATOM     37  C   UNL A   1      38.239  31.796  31.908  1.00  0.00     0.074 A 
ATOM     38  C   UNL A   1      38.503  30.541  29.794  1.00  0.00     0.049 A 
ATOM     39  N   UNL A   1      39.218  31.306  32.626  1.00  0.00    -0.248 NA
ATOM     40  C   UNL A   1      37.423  32.799  32.610  1.00  0.00     0.031 C 
ATOM     41  C   UNL A   1      38.189  30.120  28.430  1.00  0.00     0.029 A 
ATOM     42  N   UNL A   1      39.579  29.765  30.148  1.00  0.00    -0.354 N 
ATOM     43  C   UNL A   1      39.133  31.938  33.864  1.00  0.00     0.074 A 
ATOM     44  C   UNL A   1      38.037  32.880  33.780  1.00  0.00     0.031 C 
ATOM     45  C   UNL A   1      39.058  29.162  28.060  1.00  0.00     0.029 A 
ATOM     46  C   UNL A   1      40.007  28.926  29.148  1.00  0.00     0.049 A 
ATOM     47  H   UNL A   1      40.005  29.808  31.035  1.00  0.00     0.167 HD
ATOM     48  C   UNL A   1      39.887  31.741  34.974  1.00  0.00     0.034 A 
ATOM     49  C   UNL A   1      41.055  28.077  29.108  1.00  0.00     0.034 A 
ATOM     50  C   UNL A   1      40.983  30.806  35.046  1.00  0.00     0.049 A 
ATOM     51  C   UNL A   1      41.937  27.935  30.326  1.00  0.00     0.074 A 
ATOM     52  C   UNL A   1      41.805  30.521  36.123  1.00  0.00     0.029 A 
ATOM     53  N   UNL A   1      41.420  30.012  33.994  1.00  0.00    -0.354 N 
ATOM     54  N   UNL A   1      41.841  28.536  31.490  1.00  0.00    -0.248 NA
ATOM     55  C   UNL A   1      43.063  26.997  30.224  1.00  0.00     0.031 C 
ATOM     56  C   UNL A   1      42.776  29.604  35.705  1.00  0.00     0.029 A 
ATOM     57  C   UNL A   1      42.518  29.262  34.387  1.00  0.00     0.049 A 
ATOM     58  H   UNL A   1      41.010  29.985  33.100  1.00  0.00     0.167 HD
ATOM     59  C   UNL A   1      42.878  28.023  32.267  1.00  0.00     0.074 A 
ATOM     60  C   UNL A   1      43.579  27.062  31.443  1.00  0.00     0.031 C 
ATOM     61  C   UNL A   1      43.216  28.315  33.549  1.00  0.00     0.034 A 
BRANCH  48  62
ATOM     62  C   UNL A   1      39.572  32.591  36.181  1.00  0.00     0.023 A 
ATOM     63  C   UNL A   1      38.710  32.143  37.197  1.00  0.00     0.031 A 
ATOM     64  C   UNL A   1      40.114  33.883  36.299  1.00  0.00     0.131 A 
ATOM     65  C   UNL A   1      38.359  33.004  38.248  1.00  0.00     0.055 A 
ATOM     66  C   UNL A   1      39.821  34.707  37.387  1.00  0.00     0.041 A 
ATOM     67  F   UNL A   1      40.925  34.374  35.348  1.00  0.00    -0.206 F 
ATOM     68  C   UNL A   1      38.928  34.275  38.362  1.00  0.00     0.022 A 
BRANCH  65  69
ATOM     69  S   UNL A   1      37.043  32.492  39.386  1.00  0.00     0.124 S 
ATOM     70  O   UNL A   1      37.314  33.336  40.548  1.00  0.00    -0.237 OA
ATOM     71  O   UNL A   1      35.835  32.808  38.633  1.00  0.00    -0.237 OA
ATOM     72  O   UNL A   1      37.299  31.067  39.588  1.00  0.00    -0.744 OA
ENDBRANCH  65  69
ENDBRANCH  48  62
BRANCH  49  73
ATOM     73  C   UNL A   1      41.361  27.316  27.863  1.00  0.00     0.023 A 
ATOM     74  C   UNL A   1      41.167  25.928  27.791  1.00  0.00     0.031 A 
ATOM     75  C   UNL A   1      41.905  27.967  26.742  1.00  0.00     0.131 A 
ATOM     76  C   UNL A   1      41.555  25.228  26.637  1.00  0.00     0.055 A 
ATOM     77  C   UNL A   1      42.245  27.273  25.580  1.00  0.00     0.041 A 
ATOM     78  F   UNL A   1      42.112  29.294  26.761  1.00  0.00    -0.206 F 
ATOM     79  C   UNL A   1      42.081  25.894  25.528  1.00  0.00     0.022 A 
BRANCH  76  80
ATOM     80  S   UNL A   1      41.431  23.418  26.634  1.00  0.00     0.124 S 
ATOM     81  O   UNL A   1      42.247  23.067  25.476  1.00  0.00    -0.237 OA
ATOM     82  O   UNL A   1      41.987  23.074  27.938  1.00  0.00    -0.237 OA
ATOM     83  O   UNL A   1      39.998  23.175  26.486  1.00  0.00    -0.744 OA
ENDBRANCH  76  80
ENDBRANCH  49  73
BRANCH  61  84
ATOM     84  C   UNL A   1      44.370  27.549  34.148  1.00  0.00     0.023 A 
ATOM     85  C   UNL A   1      44.176  26.348  34.851  1.00  0.00     0.031 A 
ATOM     86  C   UNL A   1      45.683  28.035  34.015  1.00  0.00     0.131 A 
ATOM     87  C   UNL A   1      45.272  25.697  35.438  1.00  0.00     0.055 A 
ATOM     88  C   UNL A   1      46.775  27.356  34.556  1.00  0.00     0.041 A 
ATOM     89  F   UNL A   1      45.924  29.178  33.353  1.00  0.00    -0.206 F 
ATOM     90  C   UNL A   1      46.572  26.186  35.283  1.00  0.00     0.022 A 
BRANCH  87  91
ATOM     91  S   UNL A   1      44.970  24.240  36.475  1.00  0.00     0.124 S 
ATOM     92  O   UNL A   1      46.326  23.818  36.809  1.00  0.00    -0.237 OA
ATOM     93  O   UNL A   1      44.186  24.794  37.573  1.00  0.00    -0.237 OA
ATOM     94  O   UNL A   1      44.239  23.334  35.590  1.00  0.00    -0.744 OA
ENDBRANCH  87  91
ENDBRANCH  61  84
ENDBRANCH  35  36
ENDBRANCH  28  30
ENDBRANCH  27  28
ENDBRANCH  26  27
ENDBRANCH  25  26
ENDBRANCH  24  25
ENDBRANCH  23  24
ENDBRANCH   1  23
TORSDOF 24
ENDMDL
MODEL 3
REMARK VINA RESULT:      -9.5      5.079      8.737
REMARK SMILES O=C(CCCc1nc(-c2cccc(Cl)c2)no1)OCCOCCOCCOC(=O)c1ccc(-c2c3nc(c(-c4cc(S(=O)(=O)[O-])ccc4F)c4ccc([nH]4)c(-c4cc(S(=O)(=O)[O-])ccc4F)c4nc(c(-c5cc(S(=O)(=O)[O-])ccc5F)c5ccc2[nH]5)C=C4)C=C3)cc1
REMARK SMILES IDX 22 1 21 2 20 3 19 4 18 5 2 6 1 7 3 8 4 9 5 10 6 11 7 12
REMARK SMILES IDX 17 13 8 14 16 15 9 16 10 17 15 18 11 19 13 20 12 21 14 22
REMARK SMILES IDX 23 23 24 24 25 25 26 26 27 27 28 28 29 29 30 30 31 31 92 32
REMARK SMILES IDX 32 33 91 34 33 35 34 36 35 37 85 38 36 39 90 40 84 41 86 42
REMARK SMILES IDX 37 43 89 44 83 45 82 46 38 48 70 49 50 50 69 51 51 52 54 53
REMARK SMILES IDX 68 54 87 55 52 56 53 57 67 59 88 60 55 61 39 62 40 63 48 64
REMARK SMILES IDX 41 65 47 66 49 67 46 68 42 69 43 70 44 71 45 72 71 73 72 74
REMARK SMILES IDX 80 75 73 76 79 77 81 78 78 79 74 80 75 81 76 82 77 83 56 84
REMARK SMILES IDX 57 85 65 86 58 87 64 88 66 89 63 90 59 91 60 92 61 93 62 94
REMARK H PARENT 86 47 54 58
REMARK Flexibility Score: inf
ROOT
ATOM      1  C   UNL A   1      31.910  29.633  25.484  1.00  0.00     0.188 C 
ENDROOT
BRANCH   1   2
ATOM      2  O   UNL A   1      33.115  29.725  24.725  1.00  0.00    -0.376 OA
BRANCH   2   3
ATOM      3  C   UNL A   1      33.618  28.490  24.236  1.00  0.00     0.202 C 
BRANCH   3   4
ATOM      4  C   UNL A   1      33.364  27.382  25.247  1.00  0.00     0.261 C 
BRANCH   4   5
ATOM      5  O   UNL A   1      34.078  26.181  24.908  1.00  0.00    -0.463 OA
BRANCH   5   6
ATOM      6  C   UNL A   1      33.422  25.093  24.435  1.00  0.00     0.305 C 
ATOM      7  O   UNL A   1      33.069  24.203  25.203  1.00  0.00    -0.252 OA
BRANCH   6   8
ATOM      8  C   UNL A   1      33.276  24.948  22.935  1.00  0.00     0.123 C 
BRANCH   8   9
ATOM      9  C   UNL A   1      32.009  25.565  22.345  1.00  0.00     0.022 C 
BRANCH   9  10
ATOM     10  C   UNL A   1      30.853  25.812  23.317  1.00  0.00     0.101 C 
BRANCH  10  11
ATOM     11  C   UNL A   1      29.967  26.976  23.032  1.00  0.00     0.226 A 
ATOM     12  N   UNL A   1      30.143  28.093  22.360  1.00  0.00    -0.191 NA
ATOM     13  O   UNL A   1      28.740  26.903  23.626  1.00  0.00    -0.339 OA
ATOM     14  C   UNL A   1      28.971  28.786  22.612  1.00  0.00     0.202 A 
ATOM     15  N   UNL A   1      28.087  28.092  23.351  1.00  0.00    -0.057 NA
BRANCH  14  16
ATOM     16  C   UNL A   1      28.702  30.149  22.155  1.00  0.00     0.024 A 
ATOM     17  C   UNL A   1      28.035  30.402  20.950  1.00  0.00     0.012 A 
ATOM     18  C   UNL A   1      29.115  31.242  22.937  1.00  0.00     0.032 A 
ATOM     19  C   UNL A   1      27.767  31.719  20.550  1.00  0.00     0.002 A 
ATOM     20  C   UNL A   1      28.867  32.550  22.521  1.00  0.00     0.041 A 
ATOM     21  C   UNL A   1      28.189  32.794  21.332  1.00  0.00     0.020 A 
ATOM     22  Cl  UNL A   1      29.417  33.871  23.478  1.00  0.00    -0.084 Cl
ENDBRANCH  14  16
ENDBRANCH  10  11
ENDBRANCH   9  10
ENDBRANCH   8   9
ENDBRANCH   6   8
ENDBRANCH   5   6
ENDBRANCH   4   5
ENDBRANCH   3   4
ENDBRANCH   2   3
ENDBRANCH   1   2
BRANCH   1  23
ATOM     23  C   UNL A   1      31.916  30.461  26.772  1.00  0.00     0.188 C 
BRANCH  23  24
ATOM     24  O   UNL A   1      31.058  31.600  26.786  1.00  0.00    -0.376 OA
BRANCH  24  25
ATOM     25  C   UNL A   1      31.667  32.876  26.576  1.00  0.00     0.202 C 
BRANCH  25  26
ATOM     26  C   UNL A   1      32.788  33.214  27.558  1.00  0.00     0.261 C 
BRANCH  26  27
ATOM     27  O   UNL A   1      32.574  34.515  28.148  1.00  0.00    -0.460 OA
BRANCH  27  28
ATOM     28  C   UNL A   1      33.392  34.833  29.176  1.00  0.00     0.338 C 
ATOM     29  O   UNL A   1      33.222  35.717  29.995  1.00  0.00    -0.246 OA
BRANCH  28  30
ATOM     30  C   UNL A   1      34.516  33.878  29.259  1.00  0.00     0.060 A 
ATOM     31  C   UNL A   1      34.294  32.672  29.933  1.00  0.00     0.016 A 
ATOM     32  C   UNL A   1      35.799  34.214  28.821  1.00  0.00     0.016 A 
ATOM     33  C   UNL A   1      35.367  31.836  30.239  1.00  0.00     0.010 A 
ATOM     34  C   UNL A   1      36.876  33.370  29.122  1.00  0.00     0.010 A 
ATOM     35  C   UNL A   1      36.671  32.205  29.880  1.00  0.00    -0.014 A 
BRANCH  35  36
ATOM     36  C   UNL A   1      37.824  31.483  30.481  1.00  0.00     0.031 A 
ATOM     37  C   UNL A   1      38.191  31.772  31.914  1.00  0.00     0.074 A 
ATOM     38  C   UNL A   1      38.503  30.553  29.787  1.00  0.00     0.049 A 
ATOM     39  N   UNL A   1      39.156  31.273  32.645  1.00  0.00    -0.248 NA
ATOM     40  C   UNL A   1      37.358  32.762  32.615  1.00  0.00     0.031 C 
ATOM     41  C   UNL A   1      38.220  30.153  28.410  1.00  0.00     0.029 A 
ATOM     42  N   UNL A   1      39.573  29.773  30.151  1.00  0.00    -0.354 N 
ATOM     43  C   UNL A   1      39.043  31.884  33.891  1.00  0.00     0.074 A 
ATOM     44  C   UNL A   1      37.948  32.825  33.799  1.00  0.00     0.031 C 
ATOM     45  C   UNL A   1      39.098  29.203  28.043  1.00  0.00     0.029 A 
ATOM     46  C   UNL A   1      40.024  28.951  29.147  1.00  0.00     0.049 A 
ATOM     47  H   UNL A   1      39.980  29.802  31.047  1.00  0.00     0.167 HD
ATOM     48  C   UNL A   1      39.774  31.670  35.014  1.00  0.00     0.034 A 
ATOM     49  C   UNL A   1      41.075  28.104  29.115  1.00  0.00     0.034 A 
ATOM     50  C   UNL A   1      40.871  30.737  35.094  1.00  0.00     0.049 A 
ATOM     51  C   UNL A   1      41.931  27.945  30.349  1.00  0.00     0.074 A 
ATOM     52  C   UNL A   1      41.670  30.435  36.184  1.00  0.00     0.029 A 
ATOM     53  N   UNL A   1      41.331  29.960  34.039  1.00  0.00    -0.354 N 
ATOM     54  N   UNL A   1      41.809  28.526  31.520  1.00  0.00    -0.248 NA
ATOM     55  C   UNL A   1      43.061  27.011  30.256  1.00  0.00     0.031 C 
ATOM     56  C   UNL A   1      42.651  29.527  35.771  1.00  0.00     0.029 A 
ATOM     57  C   UNL A   1      42.422  29.206  34.443  1.00  0.00     0.049 A 
ATOM     58  H   UNL A   1      40.940  29.947  33.136  1.00  0.00     0.167 HD
ATOM     59  C   UNL A   1      42.831  28.003  32.311  1.00  0.00     0.074 A 
ATOM     60  C   UNL A   1      43.550  27.056  31.486  1.00  0.00     0.031 C 
ATOM     61  C   UNL A   1      43.140  28.275  33.605  1.00  0.00     0.034 A 
BRANCH  48  62
ATOM     62  C   UNL A   1      39.432  32.500  36.228  1.00  0.00     0.023 A 
ATOM     63  C   UNL A   1      40.086  33.715  36.502  1.00  0.00     0.031 A 
ATOM     64  C   UNL A   1      38.461  32.053  37.142  1.00  0.00     0.131 A 
ATOM     65  C   UNL A   1      39.814  34.402  37.694  1.00  0.00     0.055 A 
ATOM     66  C   UNL A   1      38.140  32.781  38.288  1.00  0.00     0.041 A 
ATOM     67  F   UNL A   1      37.821  30.890  36.944  1.00  0.00    -0.206 F 
ATOM     68  C   UNL A   1      38.828  33.956  38.578  1.00  0.00     0.022 A 
BRANCH  65  69
ATOM     69  S   UNL A   1      40.864  35.812  38.142  1.00  0.00     0.124 S 
ATOM     70  O   UNL A   1      40.678  35.870  39.590  1.00  0.00    -0.237 OA
ATOM     71  O   UNL A   1      42.179  35.383  37.682  1.00  0.00    -0.237 OA
ATOM     72  O   UNL A   1      40.276  36.926  37.402  1.00  0.00    -0.744 OA
ENDBRANCH  65  69
ENDBRANCH  48  62
BRANCH  49  73
ATOM     73  C   UNL A   1      41.409  27.365  27.865  1.00  0.00     0.023 A 
ATOM     74  C   UNL A   1      41.219  25.978  27.766  1.00  0.00     0.031 A 
ATOM     75  C   UNL A   1      41.976  28.035  26.767  1.00  0.00     0.131 A 
ATOM     76  C   UNL A   1      41.633  25.298  26.610  1.00  0.00     0.055 A 
ATOM     77  C   UNL A   1      42.342  27.361  25.601  1.00  0.00     0.041 A 
ATOM     78  F   UNL A   1      42.179  29.362  26.812  1.00  0.00    -0.206 F 
ATOM     79  C   UNL A   1      42.181  25.982  25.523  1.00  0.00     0.022 A 
BRANCH  76  80
ATOM     80  S   UNL A   1      41.513  23.488  26.574  1.00  0.00     0.124 S 
ATOM     81  O   UNL A   1      41.916  23.137  27.932  1.00  0.00    -0.237 OA
ATOM     82  O   UNL A   1      40.105  23.284  26.251  1.00  0.00    -0.237 OA
ATOM     83  O   UNL A   1      42.453  23.105  25.523  1.00  0.00    -0.744 OA
ENDBRANCH  76  80
ENDBRANCH  49  73
BRANCH  61  84
ATOM     84  C   UNL A   1      44.283  27.501  34.216  1.00  0.00     0.023 A 
ATOM     85  C   UNL A   1      45.597  28.000  34.217  1.00  0.00     0.031 A 
ATOM     86  C   UNL A   1      44.050  26.244  34.800  1.00  0.00     0.131 A 
ATOM     87  C   UNL A   1      46.638  27.223  34.748  1.00  0.00     0.055 A 
ATOM     88  C   UNL A   1      45.081  25.498  35.374  1.00  0.00     0.041 A 
ATOM     89  F   UNL A   1      42.814  25.721  34.826  1.00  0.00    -0.206 F 
ATOM     90  C   UNL A   1      46.386  25.982  35.339  1.00  0.00     0.022 A 
BRANCH  87  91
ATOM     91  S   UNL A   1      48.343  27.821  34.589  1.00  0.00     0.124 S 
ATOM     92  O   UNL A   1      48.876  27.579  35.925  1.00  0.00    -0.237 OA
ATOM     93  O   UNL A   1      48.874  26.974  33.527  1.00  0.00    -0.237 OA
ATOM     94  O   UNL A   1      48.181  29.230  34.233  1.00  0.00    -0.744 OA
ENDBRANCH  87  91
ENDBRANCH  61  84
ENDBRANCH  35  36
ENDBRANCH  28  30
ENDBRANCH  27  28
ENDBRANCH  26  27
ENDBRANCH  25  26
ENDBRANCH  24  25
ENDBRANCH  23  24
ENDBRANCH   1  23
TORSDOF 24
ENDMDL
