MODEL 1
REMARK VINA RESULT:      -5.9      0.000      0.000
REMARK SMILES CC[C@@H](Oc1ccc(/C=C2/SC(=S)N(N3CCOCC3)C2=O)cc1OC)C(=O)OCCOCCOCCOC(=O)c1ccc(-c2c3nc(c(-c4cc(S(=O)(=O)[O-])ccc4F)c4ccc([nH]4)c(-c4cc(S(=O)(=O)[O-])ccc4F)c4nc(c(-c5cc(S(=O)(=O)[O-])ccc5F)c5ccc2[nH]5)C=C4)C=C3)cc1
REMARK SMILES IDX 33 1 32 2 31 3 30 4 29 5 27 6 28 7 3 8 2 9 1 10 4 11 5 12
REMARK SMILES IDX 6 13 24 14 7 15 23 16 8 17 25 18 26 19 9 20 10 21 11 22
REMARK SMILES IDX 21 23 12 24 14 25 22 26 13 27 15 28 16 29 20 30 17 31 19 32
REMARK SMILES IDX 18 33 34 34 35 35 36 36 37 37 38 38 39 39 40 40 41 41 42 42
REMARK SMILES IDX 103 43 43 44 102 45 44 46 45 47 46 48 96 49 47 50 101 51
REMARK SMILES IDX 95 52 97 53 48 54 100 55 94 56 93 57 49 59 81 60 61 61 80 62
REMARK SMILES IDX 62 63 65 64 79 65 98 66 63 67 64 68 78 70 99 71 66 72 50 73
REMARK SMILES IDX 51 74 59 75 52 76 58 77 60 78 57 79 53 80 54 81 55 82 56 83
REMARK SMILES IDX 82 84 83 85 91 86 84 87 90 88 92 89 89 90 85 91 86 92 87 93
REMARK SMILES IDX 88 94 67 95 68 96 76 97 69 98 75 99 77 100 74 101 70 102
REMARK SMILES IDX 71 103 72 104 73 105
REMARK H PARENT 97 58 65 69
REMARK Flexibility Score: inf
ROOT
ATOM      1  C   UNL A   1      39.046  33.568  39.853  1.00  0.00     0.188 C 
ENDROOT
BRANCH   1   2
ATOM      2  O   UNL A   1      38.912  32.385  39.081  1.00  0.00    -0.376 OA
BRANCH   2   3
ATOM      3  C   UNL A   1      38.797  32.553  37.673  1.00  0.00     0.202 C 
BRANCH   3   4
ATOM      4  C   UNL A   1      37.967  31.523  36.888  1.00  0.00     0.261 C 
BRANCH   4   5
ATOM      5  O   UNL A   1      38.390  31.288  35.534  1.00  0.00    -0.461 OA
BRANCH   5   6
ATOM      6  C   UNL A   1      37.718  31.989  34.568  1.00  0.00     0.347 C 
ATOM      7  O   UNL A   1      36.632  32.534  34.730  1.00  0.00    -0.248 OA
BRANCH   6   8
ATOM      8  C   UNL A   1      38.453  31.991  33.230  1.00  0.00     0.282 C 
BRANCH   8   9
ATOM      9  C   UNL A   1      39.588  33.028  33.169  1.00  0.00     0.054 C 
ATOM     10  C   UNL A   1      39.390  34.158  32.159  1.00  0.00     0.008 C 
ENDBRANCH   8   9
BRANCH   8  11
ATOM     11  O   UNL A   1      38.926  30.642  33.110  1.00  0.00    -0.475 OA
BRANCH  11  12
ATOM     12  C   UNL A   1      39.434  30.379  31.871  1.00  0.00     0.162 A 
ATOM     13  C   UNL A   1      38.683  30.681  30.727  1.00  0.00     0.051 A 
ATOM     14  C   UNL A   1      40.711  29.828  31.760  1.00  0.00     0.161 A 
ATOM     15  C   UNL A   1      39.227  30.477  29.459  1.00  0.00     0.012 A 
ATOM     16  C   UNL A   1      41.269  29.699  30.494  1.00  0.00     0.058 A 
ATOM     17  C   UNL A   1      40.519  29.967  29.339  1.00  0.00    -0.020 A 
BRANCH  14  18
ATOM     18  O   UNL A   1      41.540  29.457  32.785  1.00  0.00    -0.493 OA
ATOM     19  C   UNL A   1      41.275  28.188  33.372  1.00  0.00     0.278 C 
ENDBRANCH  14  18
BRANCH  17  20
ATOM     20  C   UNL A   1      41.093  29.696  28.020  1.00  0.00     0.029 C 
ATOM     21  C   UNL A   1      40.991  28.508  27.406  1.00  0.00     0.082 C 
ATOM     22  S   UNL A   1      41.872  28.103  25.983  1.00  0.00    -0.053 SA
ATOM     23  C   UNL A   1      40.229  27.315  27.883  1.00  0.00     0.280 C 
ATOM     24  C   UNL A   1      41.608  26.370  26.209  1.00  0.00     0.163 C 
ATOM     25  N   UNL A   1      40.755  26.176  27.285  1.00  0.00    -0.220 N 
ATOM     26  O   UNL A   1      39.250  27.360  28.617  1.00  0.00    -0.267 OA
ATOM     27  S   UNL A   1      42.328  25.254  25.198  1.00  0.00    -0.050 S 
BRANCH  25  28
ATOM     28  N   UNL A   1      40.306  24.936  27.744  1.00  0.00    -0.208 NA
ATOM     29  C   UNL A   1      41.194  24.003  28.413  1.00  0.00     0.137 C 
ATOM     30  C   UNL A   1      39.034  24.410  27.292  1.00  0.00     0.137 C 
ATOM     31  C   UNL A   1      41.290  22.676  27.641  1.00  0.00     0.177 C 
ATOM     32  C   UNL A   1      39.257  23.118  26.504  1.00  0.00     0.177 C 
ATOM     33  O   UNL A   1      39.998  22.162  27.279  1.00  0.00    -0.379 OA
ENDBRANCH  25  28
ENDBRANCH  17  20
ENDBRANCH  11  12
ENDBRANCH   8  11
ENDBRANCH   6   8
ENDBRANCH   5   6
ENDBRANCH   4   5
ENDBRANCH   3   4
ENDBRANCH   2   3
ENDBRANCH   1   2
BRANCH   1  34
ATOM     34  C   UNL A   1      38.580  34.882  39.225  1.00  0.00     0.188 C 
BRANCH  34  35
ATOM     35  O   UNL A   1      38.518  36.015  40.084  1.00  0.00    -0.376 OA
BRANCH  35  36
ATOM     36  C   UNL A   1      39.586  36.115  41.038  1.00  0.00     0.202 C 
BRANCH  36  37
ATOM     37  C   UNL A   1      40.501  37.351  40.909  1.00  0.00     0.261 C 
BRANCH  37  38
ATOM     38  O   UNL A   1      40.685  37.827  39.558  1.00  0.00    -0.460 OA
BRANCH  38  39
ATOM     39  C   UNL A   1      41.964  37.956  39.117  1.00  0.00     0.338 C 
ATOM     40  O   UNL A   1      42.796  38.719  39.560  1.00  0.00    -0.246 OA
BRANCH  39  41
ATOM     41  C   UNL A   1      42.263  36.820  38.194  1.00  0.00     0.060 A 
ATOM     42  C   UNL A   1      43.591  36.641  37.780  1.00  0.00     0.016 A 
ATOM     43  C   UNL A   1      41.287  35.898  37.797  1.00  0.00     0.016 A 
ATOM     44  C   UNL A   1      43.935  35.580  36.934  1.00  0.00     0.010 A 
ATOM     45  C   UNL A   1      41.632  34.841  36.943  1.00  0.00     0.010 A 
ATOM     46  C   UNL A   1      42.951  34.696  36.475  1.00  0.00    -0.014 A 
BRANCH  46  47
ATOM     47  C   UNL A   1      43.248  33.772  35.344  1.00  0.00     0.031 A 
ATOM     48  C   UNL A   1      43.634  32.353  35.674  1.00  0.00     0.074 A 
ATOM     49  C   UNL A   1      43.151  34.149  34.056  1.00  0.00     0.049 A 
ATOM     50  N   UNL A   1      43.977  31.373  34.878  1.00  0.00    -0.248 NA
ATOM     51  C   UNL A   1      43.631  31.998  37.102  1.00  0.00     0.031 C 
ATOM     52  C   UNL A   1      42.738  35.470  33.586  1.00  0.00     0.029 A 
ATOM     53  N   UNL A   1      43.400  33.446  32.899  1.00  0.00    -0.354 N 
ATOM     54  C   UNL A   1      44.233  30.285  35.706  1.00  0.00     0.074 A 
ATOM     55  C   UNL A   1      44.045  30.742  37.067  1.00  0.00     0.031 C 
ATOM     56  C   UNL A   1      42.771  35.484  32.240  1.00  0.00     0.029 A 
ATOM     57  C   UNL A   1      43.244  34.187  31.751  1.00  0.00     0.049 A 
ATOM     58  H   UNL A   1      43.667  32.498  32.895  1.00  0.00     0.167 HD
ATOM     59  C   UNL A   1      44.579  29.018  35.370  1.00  0.00     0.034 A 
ATOM     60  C   UNL A   1      43.478  33.868  30.458  1.00  0.00     0.034 A 
ATOM     61  C   UNL A   1      44.784  28.568  34.015  1.00  0.00     0.049 A 
ATOM     62  C   UNL A   1      43.975  32.481  30.112  1.00  0.00     0.074 A 
ATOM     63  C   UNL A   1      45.135  27.304  33.572  1.00  0.00     0.029 A 
ATOM     64  N   UNL A   1      44.677  29.367  32.885  1.00  0.00    -0.354 N 
ATOM     65  N   UNL A   1      44.209  31.460  30.905  1.00  0.00    -0.248 NA
ATOM     66  C   UNL A   1      44.235  32.203  28.690  1.00  0.00     0.031 C 
ATOM     67  C   UNL A   1      45.315  27.358  32.185  1.00  0.00     0.029 A 
ATOM     68  C   UNL A   1      44.992  28.632  31.751  1.00  0.00     0.049 A 
ATOM     69  H   UNL A   1      44.416  30.316  32.887  1.00  0.00     0.167 HD
ATOM     70  C   UNL A   1      44.610  30.414  30.072  1.00  0.00     0.074 A 
ATOM     71  C   UNL A   1      44.575  30.923  28.718  1.00  0.00     0.031 C 
ATOM     72  C   UNL A   1      44.966  29.145  30.400  1.00  0.00     0.034 A 
BRANCH  59  73
ATOM     73  C   UNL A   1      44.812  28.047  36.502  1.00  0.00     0.023 A 
ATOM     74  C   UNL A   1      46.087  27.859  37.064  1.00  0.00     0.031 A 
ATOM     75  C   UNL A   1      43.752  27.267  36.995  1.00  0.00     0.131 A 
ATOM     76  C   UNL A   1      46.285  26.859  38.028  1.00  0.00     0.055 A 
ATOM     77  C   UNL A   1      43.938  26.333  38.016  1.00  0.00     0.041 A 
ATOM     78  F   UNL A   1      42.518  27.385  36.480  1.00  0.00    -0.206 F 
ATOM     79  C   UNL A   1      45.214  26.113  38.527  1.00  0.00     0.022 A 
BRANCH  76  80
ATOM     80  S   UNL A   1      47.984  26.439  38.502  1.00  0.00     0.124 S 
ATOM     81  O   UNL A   1      47.846  26.240  39.943  1.00  0.00    -0.237 OA
ATOM     82  O   UNL A   1      48.244  25.240  37.714  1.00  0.00    -0.237 OA
ATOM     83  O   UNL A   1      48.751  27.621  38.116  1.00  0.00    -0.744 OA
ENDBRANCH  76  80
ENDBRANCH  59  73
BRANCH  60  84
ATOM     84  C   UNL A   1      43.308  34.888  29.380  1.00  0.00     0.023 A 
ATOM     85  C   UNL A   1      44.378  35.693  28.956  1.00  0.00     0.031 A 
ATOM     86  C   UNL A   1      42.042  35.127  28.814  1.00  0.00     0.131 A 
ATOM     87  C   UNL A   1      44.154  36.727  28.033  1.00  0.00     0.055 A 
ATOM     88  C   UNL A   1      41.836  36.120  27.855  1.00  0.00     0.041 A 
ATOM     89  F   UNL A   1      40.981  34.395  29.190  1.00  0.00    -0.206 F 
ATOM     90  C   UNL A   1      42.894  36.937  27.468  1.00  0.00     0.022 A 
BRANCH  87  91
ATOM     91  S   UNL A   1      45.519  37.860  27.644  1.00  0.00     0.124 S 
ATOM     92  O   UNL A   1      44.921  38.704  26.616  1.00  0.00    -0.237 OA
ATOM     93  O   UNL A   1      45.764  38.493  28.934  1.00  0.00    -0.237 OA
ATOM     94  O   UNL A   1      46.580  36.967  27.179  1.00  0.00    -0.744 OA
ENDBRANCH  87  91
ENDBRANCH  60  84
BRANCH  72  95
ATOM     95  C   UNL A   1      45.295  28.196  29.269  1.00  0.00     0.023 A 
ATOM     96  C   UNL A   1      46.530  28.234  28.596  1.00  0.00     0.031 A 
ATOM     97  C   UNL A   1      44.353  27.234  28.860  1.00  0.00     0.131 A 
ATOM     98  C   UNL A   1      46.769  27.362  27.522  1.00  0.00     0.055 A 
ATOM     99  C   UNL A   1      44.620  26.330  27.830  1.00  0.00     0.041 A 
ATOM    100  F   UNL A   1      43.156  27.151  29.462  1.00  0.00    -0.206 F 
ATOM    101  C   UNL A   1      45.829  26.400  27.146  1.00  0.00     0.022 A 
BRANCH  98 102
ATOM    102  S   UNL A   1      48.296  27.557  26.559  1.00  0.00     0.124 S 
ATOM    103  O   UNL A   1      48.182  28.932  26.084  1.00  0.00    -0.237 OA
ATOM    104  O   UNL A   1      49.329  27.312  27.561  1.00  0.00    -0.237 OA
ATOM    105  O   UNL A   1      48.183  26.531  25.524  1.00  0.00    -0.744 OA
ENDBRANCH  98 102
ENDBRANCH  72  95
ENDBRANCH  46  47
ENDBRANCH  39  41
ENDBRANCH  38  39
ENDBRANCH  37  38
ENDBRANCH  36  37
ENDBRANCH  35  36
ENDBRANCH  34  35
ENDBRANCH   1  34
TORSDOF 26
ENDMDL
MODEL 2
REMARK VINA RESULT:      -5.5      7.928     15.861
REMARK SMILES CC[C@@H](Oc1ccc(/C=C2/SC(=S)N(N3CCOCC3)C2=O)cc1OC)C(=O)OCCOCCOCCOC(=O)c1ccc(-c2c3nc(c(-c4cc(S(=O)(=O)[O-])ccc4F)c4ccc([nH]4)c(-c4cc(S(=O)(=O)[O-])ccc4F)c4nc(c(-c5cc(S(=O)(=O)[O-])ccc5F)c5ccc2[nH]5)C=C4)C=C3)cc1
REMARK SMILES IDX 33 1 32 2 31 3 30 4 29 5 27 6 28 7 3 8 2 9 1 10 4 11 5 12
REMARK SMILES IDX 6 13 24 14 7 15 23 16 8 17 25 18 26 19 9 20 10 21 11 22
REMARK SMILES IDX 21 23 12 24 14 25 22 26 13 27 15 28 16 29 20 30 17 31 19 32
REMARK SMILES IDX 18 33 34 34 35 35 36 36 37 37 38 38 39 39 40 40 41 41 42 42
REMARK SMILES IDX 103 43 43 44 102 45 44 46 45 47 46 48 96 49 47 50 101 51
REMARK SMILES IDX 95 52 97 53 48 54 100 55 94 56 93 57 49 59 81 60 61 61 80 62
REMARK SMILES IDX 62 63 65 64 79 65 98 66 63 67 64 68 78 70 99 71 66 72 50 73
REMARK SMILES IDX 51 74 59 75 52 76 58 77 60 78 57 79 53 80 54 81 55 82 56 83
REMARK SMILES IDX 82 84 83 85 91 86 84 87 90 88 92 89 89 90 85 91 86 92 87 93
REMARK SMILES IDX 88 94 67 95 68 96 76 97 69 98 75 99 77 100 74 101 70 102
REMARK SMILES IDX 71 103 72 104 73 105
REMARK H PARENT 97 58 65 69
REMARK Flexibility Score: inf
ROOT
ATOM      1  C   UNL A   1      54.379  40.732  18.647  1.00  0.00     0.188 C 
ENDROOT
BRANCH   1   2
ATOM      2  O   UNL A   1      53.400  41.634  19.138  1.00  0.00    -0.376 OA
BRANCH   2   3
ATOM      3  C   UNL A   1      53.314  42.898  18.489  1.00  0.00     0.202 C 
BRANCH   3   4
ATOM      4  C   UNL A   1      51.938  43.355  17.978  1.00  0.00     0.261 C 
BRANCH   4   5
ATOM      5  O   UNL A   1      51.276  44.347  18.782  1.00  0.00    -0.461 OA
BRANCH   5   6
ATOM      6  C   UNL A   1      50.273  43.887  19.593  1.00  0.00     0.347 C 
ATOM      7  O   UNL A   1      50.159  42.725  19.971  1.00  0.00    -0.248 OA
BRANCH   6   8
ATOM      8  C   UNL A   1      49.266  44.976  19.954  1.00  0.00     0.282 C 
BRANCH   8   9
ATOM      9  C   UNL A   1      49.889  46.383  19.985  1.00  0.00     0.054 C 
ATOM     10  C   UNL A   1      49.632  47.241  18.748  1.00  0.00     0.008 C 
ENDBRANCH   8   9
BRANCH   8  11
ATOM     11  O   UNL A   1      48.254  44.838  18.946  1.00  0.00    -0.475 OA
BRANCH  11  12
ATOM     12  C   UNL A   1      47.036  44.521  19.475  1.00  0.00     0.162 A 
ATOM     13  C   UNL A   1      46.720  43.184  19.752  1.00  0.00     0.051 A 
ATOM     14  C   UNL A   1      46.126  45.541  19.752  1.00  0.00     0.161 A 
ATOM     15  C   UNL A   1      45.504  42.863  20.354  1.00  0.00     0.012 A 
ATOM     16  C   UNL A   1      44.951  45.217  20.419  1.00  0.00     0.058 A 
ATOM     17  C   UNL A   1      44.606  43.880  20.675  1.00  0.00    -0.020 A 
BRANCH  14  18
ATOM     18  O   UNL A   1      46.289  46.878  19.508  1.00  0.00    -0.493 OA
ATOM     19  C   UNL A   1      46.414  47.710  20.656  1.00  0.00     0.278 C 
ENDBRANCH  14  18
BRANCH  17  20
ATOM     20  C   UNL A   1      43.302  43.565  21.260  1.00  0.00     0.029 C 
ATOM     21  C   UNL A   1      43.143  43.194  22.540  1.00  0.00     0.082 C 
ATOM     22  S   UNL A   1      41.662  42.579  23.167  1.00  0.00    -0.053 SA
ATOM     23  C   UNL A   1      44.203  43.123  23.590  1.00  0.00     0.280 C 
ATOM     24  C   UNL A   1      42.453  41.879  24.583  1.00  0.00     0.163 C 
ATOM     25  N   UNL A   1      43.789  42.248  24.588  1.00  0.00    -0.220 N 
ATOM     26  O   UNL A   1      45.226  43.796  23.596  1.00  0.00    -0.267 OA
ATOM     27  S   UNL A   1      41.595  40.948  25.671  1.00  0.00    -0.050 S 
BRANCH  25  28
ATOM     28  N   UNL A   1      44.719  41.897  25.569  1.00  0.00    -0.208 NA
ATOM     29  C   UNL A   1      45.422  40.628  25.534  1.00  0.00     0.137 C 
ATOM     30  C   UNL A   1      44.780  42.638  26.812  1.00  0.00     0.137 C 
ATOM     31  C   UNL A   1      45.124  39.791  26.790  1.00  0.00     0.177 C 
ATOM     32  C   UNL A   1      44.425  41.718  27.983  1.00  0.00     0.177 C 
ATOM     33  O   UNL A   1      45.268  40.555  27.999  1.00  0.00    -0.379 OA
ENDBRANCH  25  28
ENDBRANCH  17  20
ENDBRANCH  11  12
ENDBRANCH   8  11
ENDBRANCH   6   8
ENDBRANCH   5   6
ENDBRANCH   4   5
ENDBRANCH   3   4
ENDBRANCH   2   3
ENDBRANCH   1   2
BRANCH   1  34
ATOM     34  C   UNL A   1      55.004  39.754  19.642  1.00  0.00     0.188 C 
BRANCH  34  35
ATOM     35  O   UNL A   1      54.745  39.991  21.021  1.00  0.00    -0.376 OA
BRANCH  35  36
ATOM     36  C   UNL A   1      55.897  39.932  21.875  1.00  0.00     0.202 C 
BRANCH  36  37
ATOM     37  C   UNL A   1      55.680  39.305  23.269  1.00  0.00     0.261 C 
BRANCH  37  38
ATOM     38  O   UNL A   1      54.434  38.590  23.421  1.00  0.00    -0.460 OA
BRANCH  38  39
ATOM     39  C   UNL A   1      53.871  38.587  24.657  1.00  0.00     0.338 C 
ATOM     40  O   UNL A   1      53.693  39.558  25.361  1.00  0.00    -0.246 OA
BRANCH  39  41
ATOM     41  C   UNL A   1      53.255  37.246  24.892  1.00  0.00     0.060 A 
ATOM     42  C   UNL A   1      52.559  36.647  23.831  1.00  0.00     0.016 A 
ATOM     43  C   UNL A   1      53.413  36.547  26.094  1.00  0.00     0.016 A 
ATOM     44  C   UNL A   1      51.981  35.382  23.986  1.00  0.00     0.010 A 
ATOM     45  C   UNL A   1      52.827  35.283  26.250  1.00  0.00     0.010 A 
ATOM     46  C   UNL A   1      52.075  34.707  25.210  1.00  0.00    -0.014 A 
BRANCH  46  47
ATOM     47  C   UNL A   1      51.209  33.524  25.477  1.00  0.00     0.031 A 
ATOM     48  C   UNL A   1      49.752  33.769  25.776  1.00  0.00     0.074 A 
ATOM     49  C   UNL A   1      51.671  32.261  25.426  1.00  0.00     0.049 A 
ATOM     50  N   UNL A   1      48.806  32.918  26.080  1.00  0.00    -0.248 NA
ATOM     51  C   UNL A   1      49.308  35.171  25.726  1.00  0.00     0.031 C 
ATOM     52  C   UNL A   1      53.039  31.870  25.098  1.00  0.00     0.029 A 
ATOM     53  N   UNL A   1      51.028  31.066  25.658  1.00  0.00    -0.354 N 
ATOM     54  C   UNL A   1      47.655  33.679  26.257  1.00  0.00     0.074 A 
ATOM     55  C   UNL A   1      48.035  35.063  26.069  1.00  0.00     0.031 C 
ATOM     56  C   UNL A   1      53.136  30.529  25.158  1.00  0.00     0.029 A 
ATOM     57  C   UNL A   1      51.848  29.965  25.566  1.00  0.00     0.049 A 
ATOM     58  H   UNL A   1      50.069  31.006  25.872  1.00  0.00     0.167 HD
ATOM     59  C   UNL A   1      46.394  33.268  26.538  1.00  0.00     0.034 A 
ATOM     60  C   UNL A   1      51.597  28.659  25.808  1.00  0.00     0.034 A 
ATOM     61  C   UNL A   1      46.018  31.890  26.745  1.00  0.00     0.049 A 
ATOM     62  C   UNL A   1      50.208  28.232  26.232  1.00  0.00     0.074 A 
ATOM     63  C   UNL A   1      44.767  31.374  27.032  1.00  0.00     0.029 A 
ATOM     64  N   UNL A   1      46.892  30.812  26.704  1.00  0.00    -0.354 N 
ATOM     65  N   UNL A   1      49.129  28.962  26.393  1.00  0.00    -0.248 NA
ATOM     66  C   UNL A   1      50.006  26.801  26.504  1.00  0.00     0.031 C 
ATOM     67  C   UNL A   1      44.897  29.996  27.242  1.00  0.00     0.029 A 
ATOM     68  C   UNL A   1      46.213  29.639  27.000  1.00  0.00     0.049 A 
ATOM     69  H   UNL A   1      47.852  30.871  26.497  1.00  0.00     0.167 HD
ATOM     70  C   UNL A   1      48.116  28.071  26.751  1.00  0.00     0.074 A 
ATOM     71  C   UNL A   1      48.709  26.752  26.771  1.00  0.00     0.031 C 
ATOM     72  C   UNL A   1      46.810  28.323  27.028  1.00  0.00     0.034 A 
BRANCH  59  73
ATOM     73  C   UNL A   1      45.342  34.339  26.694  1.00  0.00     0.023 A 
ATOM     74  C   UNL A   1      45.292  35.167  27.830  1.00  0.00     0.031 A 
ATOM     75  C   UNL A   1      44.349  34.506  25.714  1.00  0.00     0.131 A 
ATOM     76  C   UNL A   1      44.227  36.065  27.995  1.00  0.00     0.055 A 
ATOM     77  C   UNL A   1      43.340  35.461  25.842  1.00  0.00     0.041 A 
ATOM     78  F   UNL A   1      44.331  33.727  24.620  1.00  0.00    -0.206 F 
ATOM     79  C   UNL A   1      43.265  36.237  26.996  1.00  0.00     0.022 A 
BRANCH  76  80
ATOM     80  S   UNL A   1      44.028  36.887  29.598  1.00  0.00     0.124 S 
ATOM     81  O   UNL A   1      42.772  37.609  29.405  1.00  0.00    -0.237 OA
ATOM     82  O   UNL A   1      43.982  35.763  30.525  1.00  0.00    -0.237 OA
ATOM     83  O   UNL A   1      45.214  37.734  29.699  1.00  0.00    -0.744 OA
ENDBRANCH  76  80
ENDBRANCH  59  73
BRANCH  60  84
ATOM     84  C   UNL A   1      52.691  27.646  25.715  1.00  0.00     0.023 A 
ATOM     85  C   UNL A   1      53.531  27.371  26.808  1.00  0.00     0.031 A 
ATOM     86  C   UNL A   1      52.963  26.993  24.498  1.00  0.00     0.131 A 
ATOM     87  C   UNL A   1      54.627  26.507  26.650  1.00  0.00     0.055 A 
ATOM     88  C   UNL A   1      54.021  26.093  24.362  1.00  0.00     0.041 A 
ATOM     89  F   UNL A   1      52.201  27.226  23.419  1.00  0.00    -0.206 F 
ATOM     90  C   UNL A   1      54.869  25.856  25.438  1.00  0.00     0.022 A 
BRANCH  87  91
ATOM     91  S   UNL A   1      55.792  26.316  28.029  1.00  0.00     0.124 S 
ATOM     92  O   UNL A   1      54.890  26.057  29.146  1.00  0.00    -0.237 OA
ATOM     93  O   UNL A   1      56.605  25.189  27.585  1.00  0.00    -0.237 OA
ATOM     94  O   UNL A   1      56.485  27.602  28.070  1.00  0.00    -0.744 OA
ENDBRANCH  87  91
ENDBRANCH  60  84
BRANCH  72  95
ATOM     95  C   UNL A   1      45.917  27.139  27.326  1.00  0.00     0.023 A 
ATOM     96  C   UNL A   1      45.150  26.511  26.328  1.00  0.00     0.031 A 
ATOM     97  C   UNL A   1      45.835  26.630  28.635  1.00  0.00     0.131 A 
ATOM     98  C   UNL A   1      44.300  25.445  26.664  1.00  0.00     0.055 A 
ATOM     99  C   UNL A   1      45.035  25.531  28.952  1.00  0.00     0.041 A 
ATOM    100  F   UNL A   1      46.542  27.189  29.631  1.00  0.00    -0.206 F 
ATOM    101  C   UNL A   1      44.252  24.940  27.966  1.00  0.00     0.022 A 
BRANCH  98 102
ATOM    102  S   UNL A   1      43.190  24.775  25.394  1.00  0.00     0.124 S 
ATOM    103  O   UNL A   1      42.289  23.944  26.185  1.00  0.00    -0.237 OA
ATOM    104  O   UNL A   1      42.606  25.985  24.822  1.00  0.00    -0.237 OA
ATOM    105  O   UNL A   1      44.088  24.042  24.504  1.00  0.00    -0.744 OA
ENDBRANCH  98 102
ENDBRANCH  72  95
ENDBRANCH  46  47
ENDBRANCH  39  41
ENDBRANCH  38  39
ENDBRANCH  37  38
ENDBRANCH  36  37
ENDBRANCH  35  36
ENDBRANCH  34  35
ENDBRANCH   1  34
TORSDOF 26
ENDMDL
MODEL 3
REMARK VINA RESULT:      -5.5      7.815     13.988
REMARK SMILES CC[C@@H](Oc1ccc(/C=C2/SC(=S)N(N3CCOCC3)C2=O)cc1OC)C(=O)OCCOCCOCCOC(=O)c1ccc(-c2c3nc(c(-c4cc(S(=O)(=O)[O-])ccc4F)c4ccc([nH]4)c(-c4cc(S(=O)(=O)[O-])ccc4F)c4nc(c(-c5cc(S(=O)(=O)[O-])ccc5F)c5ccc2[nH]5)C=C4)C=C3)cc1
REMARK SMILES IDX 33 1 32 2 31 3 30 4 29 5 27 6 28 7 3 8 2 9 1 10 4 11 5 12
REMARK SMILES IDX 6 13 24 14 7 15 23 16 8 17 25 18 26 19 9 20 10 21 11 22
REMARK SMILES IDX 21 23 12 24 14 25 22 26 13 27 15 28 16 29 20 30 17 31 19 32
REMARK SMILES IDX 18 33 34 34 35 35 36 36 37 37 38 38 39 39 40 40 41 41 42 42
REMARK SMILES IDX 103 43 43 44 102 45 44 46 45 47 46 48 96 49 47 50 101 51
REMARK SMILES IDX 95 52 97 53 48 54 100 55 94 56 93 57 49 59 81 60 61 61 80 62
REMARK SMILES IDX 62 63 65 64 79 65 98 66 63 67 64 68 78 70 99 71 66 72 50 73
REMARK SMILES IDX 51 74 59 75 52 76 58 77 60 78 57 79 53 80 54 81 55 82 56 83
REMARK SMILES IDX 82 84 83 85 91 86 84 87 90 88 92 89 89 90 85 91 86 92 87 93
REMARK SMILES IDX 88 94 67 95 68 96 76 97 69 98 75 99 77 100 74 101 70 102
REMARK SMILES IDX 71 103 72 104 73 105
REMARK H PARENT 97 58 65 69
REMARK Flexibility Score: inf
ROOT
ATOM      1  C   UNL A   1      46.919  38.975  27.188  1.00  0.00     0.188 C 
ENDROOT
BRANCH   1   2
ATOM      2  O   UNL A   1      47.825  39.450  28.171  1.00  0.00    -0.376 OA
BRANCH   2   3
ATOM      3  C   UNL A   1      47.720  40.825  28.523  1.00  0.00     0.202 C 
BRANCH   3   4
ATOM      4  C   UNL A   1      48.211  41.870  27.507  1.00  0.00     0.261 C 
BRANCH   4   5
ATOM      5  O   UNL A   1      48.044  43.243  27.900  1.00  0.00    -0.461 OA
BRANCH   5   6
ATOM      6  C   UNL A   1      48.366  44.178  26.953  1.00  0.00     0.347 C 
ATOM      7  O   UNL A   1      49.475  44.303  26.445  1.00  0.00    -0.248 OA
BRANCH   6   8
ATOM      8  C   UNL A   1      47.195  45.098  26.616  1.00  0.00     0.282 C 
BRANCH   8   9
ATOM      9  C   UNL A   1      47.101  46.318  27.549  1.00  0.00     0.054 C 
ATOM     10  C   UNL A   1      45.685  46.719  27.961  1.00  0.00     0.008 C 
ENDBRANCH   8   9
BRANCH   8  11
ATOM     11  O   UNL A   1      47.442  45.460  25.250  1.00  0.00    -0.475 OA
BRANCH  11  12
ATOM     12  C   UNL A   1      46.516  44.930  24.398  1.00  0.00     0.162 A 
ATOM     13  C   UNL A   1      45.175  45.327  24.485  1.00  0.00     0.051 A 
ATOM     14  C   UNL A   1      46.925  44.009  23.433  1.00  0.00     0.161 A 
ATOM     15  C   UNL A   1      44.240  44.839  23.574  1.00  0.00     0.012 A 
ATOM     16  C   UNL A   1      46.001  43.589  22.485  1.00  0.00     0.058 A 
ATOM     17  C   UNL A   1      44.648  43.952  22.578  1.00  0.00    -0.020 A 
BRANCH  14  18
ATOM     18  O   UNL A   1      48.188  43.512  23.252  1.00  0.00    -0.493 OA
ATOM     19  C   UNL A   1      48.616  43.374  21.902  1.00  0.00     0.278 C 
ENDBRANCH  14  18
BRANCH  17  20
ATOM     20  C   UNL A   1      43.676  43.387  21.640  1.00  0.00     0.029 C 
ATOM     21  C   UNL A   1      43.529  43.827  20.382  1.00  0.00     0.082 C 
ATOM     22  S   UNL A   1      42.228  43.348  19.361  1.00  0.00    -0.053 SA
ATOM     23  C   UNL A   1      44.352  44.868  19.695  1.00  0.00     0.280 C 
ATOM     24  C   UNL A   1      42.478  44.709  18.261  1.00  0.00     0.163 C 
ATOM     25  N   UNL A   1      43.617  45.400  18.642  1.00  0.00    -0.220 N 
ATOM     26  O   UNL A   1      45.514  45.136  19.974  1.00  0.00    -0.267 OA
ATOM     27  S   UNL A   1      41.429  44.989  16.993  1.00  0.00    -0.050 S 
BRANCH  25  28
ATOM     28  N   UNL A   1      44.135  46.521  17.991  1.00  0.00    -0.208 NA
ATOM     29  C   UNL A   1      45.123  46.401  16.934  1.00  0.00     0.137 C 
ATOM     30  C   UNL A   1      43.948  47.842  18.556  1.00  0.00     0.137 C 
ATOM     31  C   UNL A   1      46.427  47.127  17.306  1.00  0.00     0.177 C 
ATOM     32  C   UNL A   1      45.305  48.447  18.924  1.00  0.00     0.177 C 
ATOM     33  O   UNL A   1      46.189  48.458  17.793  1.00  0.00    -0.379 OA
ENDBRANCH  25  28
ENDBRANCH  17  20
ENDBRANCH  11  12
ENDBRANCH   8  11
ENDBRANCH   6   8
ENDBRANCH   5   6
ENDBRANCH   4   5
ENDBRANCH   3   4
ENDBRANCH   2   3
ENDBRANCH   1   2
BRANCH   1  34
ATOM     34  C   UNL A   1      45.677  38.226  27.671  1.00  0.00     0.188 C 
BRANCH  34  35
ATOM     35  O   UNL A   1      44.647  39.010  28.264  1.00  0.00    -0.376 OA
BRANCH  35  36
ATOM     36  C   UNL A   1      43.351  38.394  28.290  1.00  0.00     0.202 C 
BRANCH  36  37
ATOM     37  C   UNL A   1      42.679  38.164  26.919  1.00  0.00     0.261 C 
BRANCH  37  38
ATOM     38  O   UNL A   1      42.761  36.809  26.426  1.00  0.00    -0.460 OA
BRANCH  38  39
ATOM     39  C   UNL A   1      42.402  35.817  27.282  1.00  0.00     0.338 C 
ATOM     40  O   UNL A   1      41.342  35.729  27.864  1.00  0.00    -0.246 OA
BRANCH  39  41
ATOM     41  C   UNL A   1      43.404  34.714  27.175  1.00  0.00     0.060 A 
ATOM     42  C   UNL A   1      44.007  34.257  28.356  1.00  0.00     0.016 A 
ATOM     43  C   UNL A   1      43.698  34.082  25.961  1.00  0.00     0.016 A 
ATOM     44  C   UNL A   1      44.935  33.210  28.320  1.00  0.00     0.010 A 
ATOM     45  C   UNL A   1      44.635  33.039  25.926  1.00  0.00     0.010 A 
ATOM     46  C   UNL A   1      45.288  32.620  27.099  1.00  0.00    -0.014 A 
BRANCH  46  47
ATOM     47  C   UNL A   1      46.486  31.739  27.017  1.00  0.00     0.031 A 
ATOM     48  C   UNL A   1      46.284  30.254  27.175  1.00  0.00     0.074 A 
ATOM     49  C   UNL A   1      47.722  32.216  26.774  1.00  0.00     0.049 A 
ATOM     50  N   UNL A   1      47.163  29.285  27.184  1.00  0.00    -0.248 NA
ATOM     51  C   UNL A   1      44.893  29.807  27.350  1.00  0.00     0.031 C 
ATOM     52  C   UNL A   1      48.061  33.618  26.547  1.00  0.00     0.029 A 
ATOM     53  N   UNL A   1      48.929  31.560  26.682  1.00  0.00    -0.354 N 
ATOM     54  C   UNL A   1      46.435  28.114  27.365  1.00  0.00     0.074 A 
ATOM     55  C   UNL A   1      45.046  28.502  27.505  1.00  0.00     0.031 C 
ATOM     56  C   UNL A   1      49.389  33.719  26.351  1.00  0.00     0.029 A 
ATOM     57  C   UNL A   1      50.002  32.396  26.476  1.00  0.00     0.049 A 
ATOM     58  H   UNL A   1      49.015  30.583  26.759  1.00  0.00     0.167 HD
ATOM     59  C   UNL A   1      46.873  26.832  27.400  1.00  0.00     0.034 A 
ATOM     60  C   UNL A   1      51.326  32.129  26.420  1.00  0.00     0.034 A 
ATOM     61  C   UNL A   1      48.258  26.447  27.281  1.00  0.00     0.049 A 
ATOM     62  C   UNL A   1      51.807  30.702  26.576  1.00  0.00     0.074 A 
ATOM     63  C   UNL A   1      48.802  25.175  27.303  1.00  0.00     0.029 A 
ATOM     64  N   UNL A   1      49.321  27.329  27.136  1.00  0.00    -0.354 N 
ATOM     65  N   UNL A   1      51.107  29.604  26.744  1.00  0.00    -0.248 NA
ATOM     66  C   UNL A   1      53.261  30.481  26.531  1.00  0.00     0.031 C 
ATOM     67  C   UNL A   1      50.196  25.290  27.249  1.00  0.00     0.029 A 
ATOM     68  C   UNL A   1      50.519  26.629  27.106  1.00  0.00     0.049 A 
ATOM     69  H   UNL A   1      49.237  28.307  27.065  1.00  0.00     0.167 HD
ATOM     70  C   UNL A   1      52.035  28.563  26.788  1.00  0.00     0.074 A 
ATOM     71  C   UNL A   1      53.341  29.162  26.620  1.00  0.00     0.031 C 
ATOM     72  C   UNL A   1      51.823  27.230  26.946  1.00  0.00     0.034 A 
BRANCH  59  73
ATOM     73  C   UNL A   1      45.838  25.759  27.634  1.00  0.00     0.023 A 
ATOM     74  C   UNL A   1      45.155  25.145  26.569  1.00  0.00     0.031 A 
ATOM     75  C   UNL A   1      45.497  25.377  28.943  1.00  0.00     0.131 A 
ATOM     76  C   UNL A   1      44.113  24.244  26.834  1.00  0.00     0.055 A 
ATOM     77  C   UNL A   1      44.518  24.415  29.198  1.00  0.00     0.041 A 
ATOM     78  F   UNL A   1      46.097  25.947  30.000  1.00  0.00    -0.206 F 
ATOM     79  C   UNL A   1      43.808  23.854  28.140  1.00  0.00     0.022 A 
BRANCH  76  80
ATOM     80  S   UNL A   1      43.059  23.711  25.458  1.00  0.00     0.124 S 
ATOM     81  O   UNL A   1      44.052  23.328  24.457  1.00  0.00    -0.237 OA
ATOM     82  O   UNL A   1      42.295  22.620  26.050  1.00  0.00    -0.237 OA
ATOM     83  O   UNL A   1      42.289  24.910  25.131  1.00  0.00    -0.744 OA
ENDBRANCH  76  80
ENDBRANCH  59  73
BRANCH  60  84
ATOM     84  C   UNL A   1      52.318  33.235  26.265  1.00  0.00     0.023 A 
ATOM     85  C   UNL A   1      52.812  33.606  25.003  1.00  0.00     0.031 A 
ATOM     86  C   UNL A   1      52.849  33.885  27.395  1.00  0.00     0.131 A 
ATOM     87  C   UNL A   1      53.837  34.562  24.905  1.00  0.00     0.055 A 
ATOM     88  C   UNL A   1      53.829  34.875  27.287  1.00  0.00     0.041 A 
ATOM     89  F   UNL A   1      52.423  33.563  28.626  1.00  0.00    -0.206 F 
ATOM     90  C   UNL A   1      54.338  35.209  26.037  1.00  0.00     0.022 A 
BRANCH  87  91
ATOM     91  S   UNL A   1      54.574  34.885  23.277  1.00  0.00     0.124 S 
ATOM     92  O   UNL A   1      55.052  36.254  23.435  1.00  0.00    -0.237 OA
ATOM     93  O   UNL A   1      55.599  33.851  23.198  1.00  0.00    -0.237 OA
ATOM     94  O   UNL A   1      53.452  34.718  22.356  1.00  0.00    -0.744 OA
ENDBRANCH  87  91
ENDBRANCH  60  84
BRANCH  72  95
ATOM     95  C   UNL A   1      53.028  26.318  26.890  1.00  0.00     0.023 A 
ATOM     96  C   UNL A   1      53.898  26.159  27.984  1.00  0.00     0.031 A 
ATOM     97  C   UNL A   1      53.308  25.593  25.716  1.00  0.00     0.131 A 
ATOM     98  C   UNL A   1      55.029  25.336  27.865  1.00  0.00     0.055 A 
ATOM     99  C   UNL A   1      54.401  24.730  25.625  1.00  0.00     0.041 A 
ATOM    100  F   UNL A   1      52.516  25.706  24.638  1.00  0.00    -0.206 F 
ATOM    101  C   UNL A   1      55.277  24.607  26.700  1.00  0.00     0.022 A 
BRANCH  98 102
ATOM    102  S   UNL A   1      56.228  25.293  29.228  1.00  0.00     0.124 S 
ATOM    103  O   UNL A   1      57.098  26.418  28.903  1.00  0.00    -0.237 OA
ATOM    104  O   UNL A   1      55.373  25.465  30.400  1.00  0.00    -0.237 OA
ATOM    105  O   UNL A   1      56.845  23.974  29.102  1.00  0.00    -0.744 OA
ENDBRANCH  98 102
ENDBRANCH  72  95
ENDBRANCH  46  47
ENDBRANCH  39  41
ENDBRANCH  38  39
ENDBRANCH  37  38
ENDBRANCH  36  37
ENDBRANCH  35  36
ENDBRANCH  34  35
ENDBRANCH   1  34
TORSDOF 26
ENDMDL
