MODEL 1
REMARK VINA RESULT:     -10.3      0.000      0.000
REMARK SMILES Cc1cc(C)cc(C[N@@H+]2CCO[C@@H](CC(=O)OCCOCCOCCOC(=O)c3ccc(-c4c5nc(c(-c6cc(S(=O)(=O)[O-])ccc6F)c6ccc([nH]6)c(-c6cc(S(=O)(=O)[O-])ccc6F)c6nc(c(-c7cc(S(=O)(=O)[O-])ccc7F)c7ccc4[nH]7)C=C6)C=C5)cc3)C2)c1
REMARK SMILES IDX 21 1 20 2 19 3 18 4 17 5 15 6 16 7 14 8 13 9 9 10 10 11
REMARK SMILES IDX 92 12 11 14 12 15 8 16 7 17 1 18 2 19 3 20 93 21 4 22 5 23
REMARK SMILES IDX 6 24 22 25 23 26 24 27 25 28 26 29 27 30 28 31 29 32 30 33
REMARK SMILES IDX 91 34 31 35 90 36 32 37 33 38 34 39 84 40 35 41 89 42 83 43
REMARK SMILES IDX 85 44 36 45 88 46 82 47 81 48 37 50 69 51 49 52 68 53 50 54
REMARK SMILES IDX 53 55 67 56 86 57 51 58 52 59 66 61 87 62 54 63 38 64 39 65
REMARK SMILES IDX 47 66 40 67 46 68 48 69 45 70 41 71 42 72 43 73 44 74 70 75
REMARK SMILES IDX 71 76 79 77 72 78 78 79 80 80 77 81 73 82 74 83 75 84 76 85
REMARK SMILES IDX 55 86 56 87 64 88 57 89 63 90 65 91 62 92 58 93 59 94 60 95
REMARK SMILES IDX 61 96
REMARK H PARENT 9 13 85 49 53 60
REMARK Flexibility Score: inf
ROOT
ATOM      1  C   UNL A   1      46.202  42.295  25.157  1.00  0.00     0.188 C 
ENDROOT
BRANCH   1   2
ATOM      2  O   UNL A   1      45.168  42.256  24.179  1.00  0.00    -0.376 OA
BRANCH   2   3
ATOM      3  C   UNL A   1      43.885  42.774  24.530  1.00  0.00     0.202 C 
BRANCH   3   4
ATOM      4  C   UNL A   1      43.339  43.917  23.667  1.00  0.00     0.261 C 
BRANCH   4   5
ATOM      5  O   UNL A   1      42.066  43.579  23.086  1.00  0.00    -0.463 OA
BRANCH   5   6
ATOM      6  C   UNL A   1      42.077  42.477  22.297  1.00  0.00     0.308 C 
ATOM      7  O   UNL A   1      41.889  41.339  22.714  1.00  0.00    -0.252 OA
BRANCH   6   8
ATOM      8  C   UNL A   1      42.096  42.830  20.829  1.00  0.00     0.160 C 
BRANCH   8   9
ATOM      9  C   UNL A   1      43.352  43.369  20.128  1.00  0.00     0.184 C 
ATOM     10  N   UNL A   1      44.877  45.237  19.392  1.00  0.00    -0.327 N 
ATOM     11  C   UNL A   1      45.993  44.448  19.912  1.00  0.00     0.291 C 
ATOM     12  C   UNL A   1      43.609  44.890  20.062  1.00  0.00     0.295 C 
ATOM     13  H   UNL A   1      45.065  46.199  19.677  1.00  0.00     0.348 HD
ATOM     14  C   UNL A   1      45.685  42.951  20.091  1.00  0.00     0.222 C 
ATOM     15  O   UNL A   1      44.471  42.751  20.817  1.00  0.00    -0.366 OA
BRANCH  10  16
ATOM     16  C   UNL A   1      44.858  45.552  17.955  1.00  0.00     0.299 C 
BRANCH  16  17
ATOM     17  C   UNL A   1      44.368  46.898  17.443  1.00  0.00     0.007 A 
ATOM     18  C   UNL A   1      41.266  48.372  15.732  1.00  0.00     0.044 C 
ATOM     19  C   UNL A   1      42.632  48.238  16.334  1.00  0.00    -0.050 A 
ATOM     20  C   UNL A   1      43.362  49.401  16.585  1.00  0.00     0.006 A 
ATOM     21  C   UNL A   1      43.155  46.995  16.733  1.00  0.00     0.013 A 
ATOM     22  C   UNL A   1      44.532  49.346  17.337  1.00  0.00    -0.050 A 
ATOM     23  C   UNL A   1      45.315  50.597  17.603  1.00  0.00     0.044 C 
ATOM     24  C   UNL A   1      44.982  48.105  17.806  1.00  0.00     0.013 A 
ENDBRANCH  16  17
ENDBRANCH  10  16
ENDBRANCH   8   9
ENDBRANCH   6   8
ENDBRANCH   5   6
ENDBRANCH   4   5
ENDBRANCH   3   4
ENDBRANCH   2   3
ENDBRANCH   1   2
BRANCH   1  25
ATOM     25  C   UNL A   1      45.805  42.265  26.645  1.00  0.00     0.188 C 
BRANCH  25  26
ATOM     26  O   UNL A   1      46.354  41.193  27.398  1.00  0.00    -0.376 OA
BRANCH  26  27
ATOM     27  C   UNL A   1      46.273  39.913  26.774  1.00  0.00     0.202 C 
BRANCH  27  28
ATOM     28  C   UNL A   1      44.996  39.125  27.082  1.00  0.00     0.261 C 
BRANCH  28  29
ATOM     29  O   UNL A   1      45.278  38.037  27.984  1.00  0.00    -0.460 OA
BRANCH  29  30
ATOM     30  C   UNL A   1      46.110  37.062  27.586  1.00  0.00     0.338 C 
ATOM     31  O   UNL A   1      47.209  37.214  27.055  1.00  0.00    -0.246 OA
BRANCH  30  32
ATOM     32  C   UNL A   1      45.492  35.743  27.855  1.00  0.00     0.060 A 
ATOM     33  C   UNL A   1      45.824  34.984  28.987  1.00  0.00     0.016 A 
ATOM     34  C   UNL A   1      44.626  35.205  26.904  1.00  0.00     0.016 A 
ATOM     35  C   UNL A   1      45.332  33.692  29.155  1.00  0.00     0.010 A 
ATOM     36  C   UNL A   1      44.102  33.923  27.089  1.00  0.00     0.010 A 
ATOM     37  C   UNL A   1      44.471  33.147  28.204  1.00  0.00    -0.014 A 
BRANCH  37  38
ATOM     38  C   UNL A   1      44.014  31.741  28.305  1.00  0.00     0.031 A 
ATOM     39  C   UNL A   1      44.797  30.670  27.604  1.00  0.00     0.074 A 
ATOM     40  C   UNL A   1      42.903  31.430  28.997  1.00  0.00     0.049 A 
ATOM     41  N   UNL A   1      44.445  29.451  27.297  1.00  0.00    -0.248 NA
ATOM     42  C   UNL A   1      46.161  31.031  27.186  1.00  0.00     0.031 C 
ATOM     43  C   UNL A   1      42.123  32.362  29.814  1.00  0.00     0.029 A 
ATOM     44  N   UNL A   1      42.222  30.244  29.100  1.00  0.00    -0.354 N 
ATOM     45  C   UNL A   1      45.525  28.909  26.607  1.00  0.00     0.074 A 
ATOM     46  C   UNL A   1      46.545  29.935  26.548  1.00  0.00     0.031 C 
ATOM     47  C   UNL A   1      41.058  31.717  30.314  1.00  0.00     0.029 A 
ATOM     48  C   UNL A   1      41.031  30.360  29.778  1.00  0.00     0.049 A 
ATOM     49  H   UNL A   1      42.553  29.394  28.726  1.00  0.00     0.167 HD
ATOM     50  C   UNL A   1      45.635  27.675  26.059  1.00  0.00     0.034 A 
ATOM     51  C   UNL A   1      39.999  29.500  29.884  1.00  0.00     0.034 A 
ATOM     52  C   UNL A   1      44.596  26.675  26.142  1.00  0.00     0.049 A 
ATOM     53  C   UNL A   1      40.090  28.172  29.177  1.00  0.00     0.074 A 
ATOM     54  C   UNL A   1      44.580  25.397  25.613  1.00  0.00     0.029 A 
ATOM     55  N   UNL A   1      43.383  26.847  26.800  1.00  0.00    -0.354 N 
ATOM     56  N   UNL A   1      41.068  27.695  28.441  1.00  0.00    -0.248 NA
ATOM     57  C   UNL A   1      38.935  27.276  29.301  1.00  0.00     0.031 C 
ATOM     58  C   UNL A   1      43.337  24.819  25.899  1.00  0.00     0.029 A 
ATOM     59  C   UNL A   1      42.604  25.709  26.669  1.00  0.00     0.049 A 
ATOM     60  H   UNL A   1      43.117  27.658  27.289  1.00  0.00     0.167 HD
ATOM     61  C   UNL A   1      40.652  26.434  28.029  1.00  0.00     0.074 A 
ATOM     62  C   UNL A   1      39.340  26.221  28.609  1.00  0.00     0.031 C 
ATOM     63  C   UNL A   1      41.292  25.529  27.245  1.00  0.00     0.034 A 
BRANCH  50  64
ATOM     64  C   UNL A   1      46.875  27.377  25.255  1.00  0.00     0.023 A 
ATOM     65  C   UNL A   1      47.039  27.827  23.934  1.00  0.00     0.031 A 
ATOM     66  C   UNL A   1      47.904  26.600  25.819  1.00  0.00     0.131 A 
ATOM     67  C   UNL A   1      48.177  27.450  23.202  1.00  0.00     0.055 A 
ATOM     68  C   UNL A   1      49.066  26.287  25.110  1.00  0.00     0.041 A 
ATOM     69  F   UNL A   1      47.791  26.119  27.067  1.00  0.00    -0.206 F 
ATOM     70  C   UNL A   1      49.203  26.704  23.790  1.00  0.00     0.022 A 
BRANCH  67  71
ATOM     71  S   UNL A   1      48.245  27.843  21.433  1.00  0.00     0.124 S 
ATOM     72  O   UNL A   1      49.218  28.932  21.408  1.00  0.00    -0.237 OA
ATOM     73  O   UNL A   1      48.682  26.583  20.845  1.00  0.00    -0.237 OA
ATOM     74  O   UNL A   1      46.873  28.236  21.116  1.00  0.00    -0.744 OA
ENDBRANCH  67  71
ENDBRANCH  50  64
BRANCH  51  75
ATOM     75  C   UNL A   1      38.755  29.907  30.598  1.00  0.00     0.023 A 
ATOM     76  C   UNL A   1      37.788  30.710  29.975  1.00  0.00     0.031 A 
ATOM     77  C   UNL A   1      38.528  29.515  31.930  1.00  0.00     0.131 A 
ATOM     78  C   UNL A   1      36.650  31.114  30.691  1.00  0.00     0.055 A 
ATOM     79  C   UNL A   1      37.371  29.876  32.621  1.00  0.00     0.041 A 
ATOM     80  F   UNL A   1      39.424  28.751  32.576  1.00  0.00    -0.206 F 
ATOM     81  C   UNL A   1      36.427  30.690  32.003  1.00  0.00     0.022 A 
BRANCH  78  82
ATOM     82  S   UNL A   1      35.490  32.264  29.901  1.00  0.00     0.124 S 
ATOM     83  O   UNL A   1      34.642  32.648  31.023  1.00  0.00    -0.237 OA
ATOM     84  O   UNL A   1      36.389  33.296  29.393  1.00  0.00    -0.237 OA
ATOM     85  O   UNL A   1      34.843  31.445  28.879  1.00  0.00    -0.744 OA
ENDBRANCH  78  82
ENDBRANCH  51  75
BRANCH  63  86
ATOM     86  C   UNL A   1      40.592  24.214  27.018  1.00  0.00     0.023 A 
ATOM     87  C   UNL A   1      39.388  24.133  26.297  1.00  0.00     0.031 A 
ATOM     88  C   UNL A   1      41.130  23.030  27.551  1.00  0.00     0.131 A 
ATOM     89  C   UNL A   1      38.734  22.899  26.172  1.00  0.00     0.055 A 
ATOM     90  C   UNL A   1      40.501  21.797  27.378  1.00  0.00     0.041 A 
ATOM     91  F   UNL A   1      42.276  23.055  28.249  1.00  0.00    -0.206 F 
ATOM     92  C   UNL A   1      39.289  21.728  26.696  1.00  0.00     0.022 A 
BRANCH  89  93
ATOM     93  S   UNL A   1      37.099  22.856  25.388  1.00  0.00     0.124 S 
ATOM     94  O   UNL A   1      36.444  24.015  25.985  1.00  0.00    -0.237 OA
ATOM     95  O   UNL A   1      37.429  22.969  23.971  1.00  0.00    -0.237 OA
ATOM     96  O   UNL A   1      36.557  21.560  25.795  1.00  0.00    -0.744 OA
ENDBRANCH  89  93
ENDBRANCH  63  86
ENDBRANCH  37  38
ENDBRANCH  30  32
ENDBRANCH  29  30
ENDBRANCH  28  29
ENDBRANCH  27  28
ENDBRANCH  26  27
ENDBRANCH  25  26
ENDBRANCH   1  25
TORSDOF 23
ENDMDL
MODEL 2
REMARK VINA RESULT:     -10.1      7.229     14.396
REMARK SMILES Cc1cc(C)cc(C[N@@H+]2CCO[C@@H](CC(=O)OCCOCCOCCOC(=O)c3ccc(-c4c5nc(c(-c6cc(S(=O)(=O)[O-])ccc6F)c6ccc([nH]6)c(-c6cc(S(=O)(=O)[O-])ccc6F)c6nc(c(-c7cc(S(=O)(=O)[O-])ccc7F)c7ccc4[nH]7)C=C6)C=C5)cc3)C2)c1
REMARK SMILES IDX 21 1 20 2 19 3 18 4 17 5 15 6 16 7 14 8 13 9 9 10 10 11
REMARK SMILES IDX 92 12 11 14 12 15 8 16 7 17 1 18 2 19 3 20 93 21 4 22 5 23
REMARK SMILES IDX 6 24 22 25 23 26 24 27 25 28 26 29 27 30 28 31 29 32 30 33
REMARK SMILES IDX 91 34 31 35 90 36 32 37 33 38 34 39 84 40 35 41 89 42 83 43
REMARK SMILES IDX 85 44 36 45 88 46 82 47 81 48 37 50 69 51 49 52 68 53 50 54
REMARK SMILES IDX 53 55 67 56 86 57 51 58 52 59 66 61 87 62 54 63 38 64 39 65
REMARK SMILES IDX 47 66 40 67 46 68 48 69 45 70 41 71 42 72 43 73 44 74 70 75
REMARK SMILES IDX 71 76 79 77 72 78 78 79 80 80 77 81 73 82 74 83 75 84 76 85
REMARK SMILES IDX 55 86 56 87 64 88 57 89 63 90 65 91 62 92 58 93 59 94 60 95
REMARK SMILES IDX 61 96
REMARK H PARENT 9 13 85 49 53 60
REMARK Flexibility Score: inf
ROOT
ATOM      1  C   UNL A   1      36.692  23.253  25.458  1.00  0.00     0.188 C 
ENDROOT
BRANCH   1   2
ATOM      2  O   UNL A   1      35.720  22.306  25.025  1.00  0.00    -0.376 OA
BRANCH   2   3
ATOM      3  C   UNL A   1      34.950  21.626  26.015  1.00  0.00     0.202 C 
BRANCH   3   4
ATOM      4  C   UNL A   1      34.156  20.399  25.555  1.00  0.00     0.261 C 
BRANCH   4   5
ATOM      5  O   UNL A   1      33.796  20.494  24.164  1.00  0.00    -0.463 OA
BRANCH   5   6
ATOM      6  C   UNL A   1      32.629  21.140  23.923  1.00  0.00     0.308 C 
ATOM      7  O   UNL A   1      31.661  21.101  24.674  1.00  0.00    -0.252 OA
BRANCH   6   8
ATOM      8  C   UNL A   1      32.743  22.102  22.765  1.00  0.00     0.160 C 
BRANCH   8   9
ATOM      9  C   UNL A   1      32.580  23.620  22.937  1.00  0.00     0.184 C 
ATOM     10  N   UNL A   1      32.929  25.782  24.187  1.00  0.00    -0.327 N 
ATOM     11  C   UNL A   1      33.355  26.374  22.921  1.00  0.00     0.291 C 
ATOM     12  C   UNL A   1      33.131  24.320  24.198  1.00  0.00     0.295 C 
ATOM     13  H   UNL A   1      33.579  26.137  24.889  1.00  0.00     0.348 HD
ATOM     14  C   UNL A   1      32.903  25.598  21.671  1.00  0.00     0.222 C 
ATOM     15  O   UNL A   1      33.223  24.209  21.776  1.00  0.00    -0.366 OA
BRANCH  10  16
ATOM     16  C   UNL A   1      31.740  26.338  24.850  1.00  0.00     0.299 C 
BRANCH  16  17
ATOM     17  C   UNL A   1      31.290  27.772  24.606  1.00  0.00     0.007 A 
ATOM     18  C   UNL A   1      28.881  29.683  22.311  1.00  0.00     0.044 C 
ATOM     19  C   UNL A   1      29.926  29.377  23.343  1.00  0.00    -0.050 A 
ATOM     20  C   UNL A   1      30.333  30.404  24.196  1.00  0.00     0.006 A 
ATOM     21  C   UNL A   1      30.433  28.079  23.532  1.00  0.00     0.013 A 
ATOM     22  C   UNL A   1      31.130  30.121  25.302  1.00  0.00    -0.050 A 
ATOM     23  C   UNL A   1      31.568  31.226  26.216  1.00  0.00     0.044 C 
ATOM     24  C   UNL A   1      31.543  28.800  25.524  1.00  0.00     0.013 A 
ENDBRANCH  16  17
ENDBRANCH  10  16
ENDBRANCH   8   9
ENDBRANCH   6   8
ENDBRANCH   5   6
ENDBRANCH   4   5
ENDBRANCH   3   4
ENDBRANCH   2   3
ENDBRANCH   1   2
BRANCH   1  25
ATOM     25  C   UNL A   1      38.149  22.782  25.627  1.00  0.00     0.188 C 
BRANCH  25  26
ATOM     26  O   UNL A   1      38.447  21.517  25.054  1.00  0.00    -0.376 OA
BRANCH  26  27
ATOM     27  C   UNL A   1      38.654  20.462  25.990  1.00  0.00     0.202 C 
BRANCH  27  28
ATOM     28  C   UNL A   1      39.787  19.495  25.631  1.00  0.00     0.261 C 
BRANCH  28  29
ATOM     29  O   UNL A   1      40.640  19.271  26.770  1.00  0.00    -0.460 OA
BRANCH  29  30
ATOM     30  C   UNL A   1      41.913  19.693  26.723  1.00  0.00     0.338 C 
ATOM     31  O   UNL A   1      42.915  18.983  26.653  1.00  0.00    -0.246 OA
BRANCH  30  32
ATOM     32  C   UNL A   1      41.946  21.173  26.797  1.00  0.00     0.060 A 
ATOM     33  C   UNL A   1      41.914  21.975  25.647  1.00  0.00     0.016 A 
ATOM     34  C   UNL A   1      42.108  21.775  28.044  1.00  0.00     0.016 A 
ATOM     35  C   UNL A   1      42.078  23.356  25.730  1.00  0.00     0.010 A 
ATOM     36  C   UNL A   1      42.235  23.164  28.132  1.00  0.00     0.010 A 
ATOM     37  C   UNL A   1      42.246  23.962  26.974  1.00  0.00    -0.014 A 
BRANCH  37  38
ATOM     38  C   UNL A   1      42.524  25.414  27.084  1.00  0.00     0.031 A 
ATOM     39  C   UNL A   1      43.873  25.928  26.677  1.00  0.00     0.074 A 
ATOM     40  C   UNL A   1      41.588  26.256  27.559  1.00  0.00     0.049 A 
ATOM     41  N   UNL A   1      44.445  27.068  26.955  1.00  0.00    -0.248 NA
ATOM     42  C   UNL A   1      44.690  25.027  25.849  1.00  0.00     0.031 C 
ATOM     43  C   UNL A   1      40.205  25.896  27.877  1.00  0.00     0.029 A 
ATOM     44  N   UNL A   1      41.671  27.586  27.882  1.00  0.00    -0.354 N 
ATOM     45  C   UNL A   1      45.709  27.007  26.379  1.00  0.00     0.074 A 
ATOM     46  C   UNL A   1      45.815  25.717  25.730  1.00  0.00     0.031 C 
ATOM     47  C   UNL A   1      39.577  26.973  28.373  1.00  0.00     0.029 A 
ATOM     48  C   UNL A   1      40.536  28.066  28.495  1.00  0.00     0.049 A 
ATOM     49  H   UNL A   1      42.463  28.141  27.696  1.00  0.00     0.167 HD
ATOM     50  C   UNL A   1      46.692  27.940  26.413  1.00  0.00     0.034 A 
ATOM     51  C   UNL A   1      40.322  29.223  29.152  1.00  0.00     0.034 A 
ATOM     52  C   UNL A   1      46.549  29.219  27.068  1.00  0.00     0.049 A 
ATOM     53  C   UNL A   1      41.458  30.204  29.275  1.00  0.00     0.074 A 
ATOM     54  C   UNL A   1      47.476  30.239  27.188  1.00  0.00     0.029 A 
ATOM     55  N   UNL A   1      45.397  29.651  27.716  1.00  0.00    -0.354 N 
ATOM     56  N   UNL A   1      42.686  30.107  28.817  1.00  0.00    -0.248 NA
ATOM     57  C   UNL A   1      41.187  31.441  30.018  1.00  0.00     0.031 C 
ATOM     58  C   UNL A   1      46.907  31.260  27.958  1.00  0.00     0.029 A 
ATOM     59  C   UNL A   1      45.599  30.910  28.259  1.00  0.00     0.049 A 
ATOM     60  H   UNL A   1      44.560  29.138  27.781  1.00  0.00     0.167 HD
ATOM     61  C   UNL A   1      43.328  31.280  29.201  1.00  0.00     0.074 A 
ATOM     62  C   UNL A   1      42.347  32.073  29.918  1.00  0.00     0.031 C 
ATOM     63  C   UNL A   1      44.609  31.672  28.983  1.00  0.00     0.034 A 
BRANCH  50  64
ATOM     64  C   UNL A   1      48.022  27.574  25.805  1.00  0.00     0.023 A 
ATOM     65  C   UNL A   1      48.281  27.709  24.430  1.00  0.00     0.031 A 
ATOM     66  C   UNL A   1      49.044  27.052  26.619  1.00  0.00     0.131 A 
ATOM     67  C   UNL A   1      49.508  27.274  23.903  1.00  0.00     0.055 A 
ATOM     68  C   UNL A   1      50.288  26.686  26.099  1.00  0.00     0.041 A 
ATOM     69  F   UNL A   1      48.845  26.874  27.935  1.00  0.00    -0.206 F 
ATOM     70  C   UNL A   1      50.522  26.787  24.732  1.00  0.00     0.022 A 
BRANCH  67  71
ATOM     71  S   UNL A   1      49.718  27.238  22.102  1.00  0.00     0.124 S 
ATOM     72  O   UNL A   1      49.318  28.594  21.730  1.00  0.00    -0.237 OA
ATOM     73  O   UNL A   1      51.134  26.928  21.954  1.00  0.00    -0.237 OA
ATOM     74  O   UNL A   1      48.800  26.186  21.669  1.00  0.00    -0.744 OA
ENDBRANCH  67  71
ENDBRANCH  50  64
BRANCH  51  75
ATOM     75  C   UNL A   1      39.016  29.468  29.829  1.00  0.00     0.023 A 
ATOM     76  C   UNL A   1      38.027  30.264  29.234  1.00  0.00     0.031 A 
ATOM     77  C   UNL A   1      38.751  28.924  31.100  1.00  0.00     0.131 A 
ATOM     78  C   UNL A   1      36.826  30.512  29.919  1.00  0.00     0.055 A 
ATOM     79  C   UNL A   1      37.537  29.131  31.754  1.00  0.00     0.041 A 
ATOM     80  F   UNL A   1      39.666  28.159  31.717  1.00  0.00    -0.206 F 
ATOM     81  C   UNL A   1      36.568  29.939  31.167  1.00  0.00     0.022 A 
BRANCH  78  82
ATOM     82  S   UNL A   1      35.627  31.657  29.182  1.00  0.00     0.124 S 
ATOM     83  O   UNL A   1      35.012  32.245  30.365  1.00  0.00    -0.237 OA
ATOM     84  O   UNL A   1      36.491  32.538  28.403  1.00  0.00    -0.237 OA
ATOM     85  O   UNL A   1      34.761  30.781  28.396  1.00  0.00    -0.744 OA
ENDBRANCH  78  82
ENDBRANCH  51  75
BRANCH  63  86
ATOM     86  C   UNL A   1      44.995  33.038  29.487  1.00  0.00     0.023 A 
ATOM     87  C   UNL A   1      44.799  34.195  28.713  1.00  0.00     0.031 A 
ATOM     88  C   UNL A   1      45.585  33.178  30.755  1.00  0.00     0.131 A 
ATOM     89  C   UNL A   1      45.239  35.436  29.193  1.00  0.00     0.055 A 
ATOM     90  C   UNL A   1      45.973  34.424  31.250  1.00  0.00     0.041 A 
ATOM     91  F   UNL A   1      45.795  32.104  31.533  1.00  0.00    -0.206 F 
ATOM     92  C   UNL A   1      45.812  35.560  30.463  1.00  0.00     0.022 A 
BRANCH  89  93
ATOM     93  S   UNL A   1      45.131  36.880  28.102  1.00  0.00     0.124 S 
ATOM     94  O   UNL A   1      45.293  37.984  29.043  1.00  0.00    -0.237 OA
ATOM     95  O   UNL A   1      46.240  36.659  27.180  1.00  0.00    -0.237 OA
ATOM     96  O   UNL A   1      43.800  36.764  27.508  1.00  0.00    -0.744 OA
ENDBRANCH  89  93
ENDBRANCH  63  86
ENDBRANCH  37  38
ENDBRANCH  30  32
ENDBRANCH  29  30
ENDBRANCH  28  29
ENDBRANCH  27  28
ENDBRANCH  26  27
ENDBRANCH  25  26
ENDBRANCH   1  25
TORSDOF 23
ENDMDL
MODEL 3
REMARK VINA RESULT:     -10.0     10.051     15.015
REMARK SMILES Cc1cc(C)cc(C[N@@H+]2CCO[C@@H](CC(=O)OCCOCCOCCOC(=O)c3ccc(-c4c5nc(c(-c6cc(S(=O)(=O)[O-])ccc6F)c6ccc([nH]6)c(-c6cc(S(=O)(=O)[O-])ccc6F)c6nc(c(-c7cc(S(=O)(=O)[O-])ccc7F)c7ccc4[nH]7)C=C6)C=C5)cc3)C2)c1
REMARK SMILES IDX 21 1 20 2 19 3 18 4 17 5 15 6 16 7 14 8 13 9 9 10 10 11
REMARK SMILES IDX 92 12 11 14 12 15 8 16 7 17 1 18 2 19 3 20 93 21 4 22 5 23
REMARK SMILES IDX 6 24 22 25 23 26 24 27 25 28 26 29 27 30 28 31 29 32 30 33
REMARK SMILES IDX 91 34 31 35 90 36 32 37 33 38 34 39 84 40 35 41 89 42 83 43
REMARK SMILES IDX 85 44 36 45 88 46 82 47 81 48 37 50 69 51 49 52 68 53 50 54
REMARK SMILES IDX 53 55 67 56 86 57 51 58 52 59 66 61 87 62 54 63 38 64 39 65
REMARK SMILES IDX 47 66 40 67 46 68 48 69 45 70 41 71 42 72 43 73 44 74 70 75
REMARK SMILES IDX 71 76 79 77 72 78 78 79 80 80 77 81 73 82 74 83 75 84 76 85
REMARK SMILES IDX 55 86 56 87 64 88 57 89 63 90 65 91 62 92 58 93 59 94 60 95
REMARK SMILES IDX 61 96
REMARK H PARENT 9 13 85 49 53 60
REMARK Flexibility Score: inf
ROOT
ATOM      1  C   UNL A   1      33.141  30.908  27.251  1.00  0.00     0.188 C 
ENDROOT
BRANCH   1   2
ATOM      2  O   UNL A   1      33.400  29.515  27.105  1.00  0.00    -0.376 OA
BRANCH   2   3
ATOM      3  C   UNL A   1      33.753  29.025  25.812  1.00  0.00     0.202 C 
BRANCH   3   4
ATOM      4  C   UNL A   1      32.755  29.277  24.678  1.00  0.00     0.261 C 
BRANCH   4   5
ATOM      5  O   UNL A   1      31.449  28.762  24.998  1.00  0.00    -0.463 OA
BRANCH   5   6
ATOM      6  C   UNL A   1      30.570  28.762  23.966  1.00  0.00     0.308 C 
ATOM      7  O   UNL A   1      30.268  29.765  23.329  1.00  0.00    -0.252 OA
BRANCH   6   8
ATOM      8  C   UNL A   1      30.201  27.363  23.535  1.00  0.00     0.160 C 
BRANCH   8   9
ATOM      9  C   UNL A   1      31.224  26.218  23.495  1.00  0.00     0.184 C 
ATOM     10  N   UNL A   1      31.851  23.782  23.309  1.00  0.00    -0.327 N 
ATOM     11  C   UNL A   1      32.858  24.180  22.327  1.00  0.00     0.291 C 
ATOM     12  C   UNL A   1      30.743  24.755  23.375  1.00  0.00     0.295 C 
ATOM     13  H   UNL A   1      31.426  22.932  22.938  1.00  0.00     0.348 HD
ATOM     14  C   UNL A   1      33.239  25.670  22.374  1.00  0.00     0.222 C 
ATOM     15  O   UNL A   1      32.081  26.506  22.359  1.00  0.00    -0.366 OA
BRANCH  10  16
ATOM     16  C   UNL A   1      32.308  23.141  24.552  1.00  0.00     0.299 C 
BRANCH  16  17
ATOM     17  C   UNL A   1      33.106  21.845  24.532  1.00  0.00     0.007 A 
ATOM     18  C   UNL A   1      36.723  20.683  25.067  1.00  0.00     0.044 C 
ATOM     19  C   UNL A   1      35.257  20.680  24.751  1.00  0.00    -0.050 A 
ATOM     20  C   UNL A   1      34.610  19.449  24.627  1.00  0.00     0.006 A 
ATOM     21  C   UNL A   1      34.507  21.867  24.669  1.00  0.00     0.013 A 
ATOM     22  C   UNL A   1      33.221  19.392  24.553  1.00  0.00    -0.050 A 
ATOM     23  C   UNL A   1      32.528  18.070  24.417  1.00  0.00     0.044 C 
ATOM     24  C   UNL A   1      32.489  20.587  24.570  1.00  0.00     0.013 A 
ENDBRANCH  16  17
ENDBRANCH  10  16
ENDBRANCH   8   9
ENDBRANCH   6   8
ENDBRANCH   5   6
ENDBRANCH   4   5
ENDBRANCH   3   4
ENDBRANCH   2   3
ENDBRANCH   1   2
BRANCH   1  25
ATOM     25  C   UNL A   1      34.053  31.729  28.183  1.00  0.00     0.188 C 
BRANCH  25  26
ATOM     26  O   UNL A   1      34.835  32.725  27.541  1.00  0.00    -0.376 OA
BRANCH  26  27
ATOM     27  C   UNL A   1      34.352  34.059  27.683  1.00  0.00     0.202 C 
BRANCH  27  28
ATOM     28  C   UNL A   1      33.074  34.196  28.518  1.00  0.00     0.261 C 
BRANCH  28  29
ATOM     29  O   UNL A   1      33.236  35.212  29.527  1.00  0.00    -0.460 OA
BRANCH  29  30
ATOM     30  C   UNL A   1      33.329  34.842  30.814  1.00  0.00     0.338 C 
ATOM     31  O   UNL A   1      32.503  35.063  31.697  1.00  0.00    -0.246 OA
BRANCH  30  32
ATOM     32  C   UNL A   1      34.613  34.136  31.034  1.00  0.00     0.060 A 
ATOM     33  C   UNL A   1      34.682  32.920  31.729  1.00  0.00     0.016 A 
ATOM     34  C   UNL A   1      35.793  34.750  30.615  1.00  0.00     0.016 A 
ATOM     35  C   UNL A   1      35.909  32.338  32.039  1.00  0.00     0.010 A 
ATOM     36  C   UNL A   1      37.024  34.149  30.894  1.00  0.00     0.010 A 
ATOM     37  C   UNL A   1      37.092  32.952  31.629  1.00  0.00    -0.014 A 
BRANCH  37  38
ATOM     38  C   UNL A   1      38.411  32.411  32.032  1.00  0.00     0.031 A 
ATOM     39  C   UNL A   1      39.088  31.408  31.143  1.00  0.00     0.074 A 
ATOM     40  C   UNL A   1      38.987  32.796  33.185  1.00  0.00     0.049 A 
ATOM     41  N   UNL A   1      40.067  30.588  31.413  1.00  0.00    -0.248 NA
ATOM     42  C   UNL A   1      38.582  31.316  29.764  1.00  0.00     0.031 C 
ATOM     43  C   UNL A   1      38.486  33.847  34.074  1.00  0.00     0.029 A 
ATOM     44  N   UNL A   1      40.109  32.328  33.820  1.00  0.00    -0.354 N 
ATOM     45  C   UNL A   1      40.266  29.845  30.254  1.00  0.00     0.074 A 
ATOM     46  C   UNL A   1      39.308  30.320  29.278  1.00  0.00     0.031 C 
ATOM     47  C   UNL A   1      39.283  33.924  35.150  1.00  0.00     0.029 A 
ATOM     48  C   UNL A   1      40.290  32.871  35.071  1.00  0.00     0.049 A 
ATOM     49  H   UNL A   1      40.722  31.668  33.421  1.00  0.00     0.167 HD
ATOM     50  C   UNL A   1      41.156  28.845  30.042  1.00  0.00     0.034 A 
ATOM     51  C   UNL A   1      41.118  32.505  36.069  1.00  0.00     0.034 A 
ATOM     52  C   UNL A   1      42.101  28.400  31.040  1.00  0.00     0.049 A 
ATOM     53  C   UNL A   1      42.026  31.322  35.858  1.00  0.00     0.074 A 
ATOM     54  C   UNL A   1      43.039  27.387  30.953  1.00  0.00     0.029 A 
ATOM     55  N   UNL A   1      42.224  28.947  32.312  1.00  0.00    -0.354 N 
ATOM     56  N   UNL A   1      42.148  30.554  34.798  1.00  0.00    -0.248 NA
ATOM     57  C   UNL A   1      42.895  30.946  36.979  1.00  0.00     0.031 C 
ATOM     58  C   UNL A   1      43.687  27.282  32.190  1.00  0.00     0.029 A 
ATOM     59  C   UNL A   1      43.204  28.276  33.027  1.00  0.00     0.049 A 
ATOM     60  H   UNL A   1      41.693  29.700  32.656  1.00  0.00     0.167 HD
ATOM     61  C   UNL A   1      43.121  29.614  35.121  1.00  0.00     0.074 A 
ATOM     62  C   UNL A   1      43.561  29.920  36.469  1.00  0.00     0.031 C 
ATOM     63  C   UNL A   1      43.612  28.591  34.375  1.00  0.00     0.034 A 
BRANCH  50  64
ATOM     64  C   UNL A   1      41.087  28.117  28.724  1.00  0.00     0.023 A 
ATOM     65  C   UNL A   1      40.408  26.896  28.576  1.00  0.00     0.031 A 
ATOM     66  C   UNL A   1      41.739  28.649  27.595  1.00  0.00     0.131 A 
ATOM     67  C   UNL A   1      40.446  26.218  27.346  1.00  0.00     0.055 A 
ATOM     68  C   UNL A   1      41.714  28.005  26.356  1.00  0.00     0.041 A 
ATOM     69  F   UNL A   1      42.426  29.799  27.683  1.00  0.00    -0.206 F 
ATOM     70  C   UNL A   1      41.073  26.777  26.229  1.00  0.00     0.022 A 
BRANCH  67  71
ATOM     71  S   UNL A   1      39.770  24.538  27.256  1.00  0.00     0.124 S 
ATOM     72  O   UNL A   1      39.066  24.569  25.975  1.00  0.00    -0.237 OA
ATOM     73  O   UNL A   1      40.969  23.710  27.305  1.00  0.00    -0.237 OA
ATOM     74  O   UNL A   1      38.904  24.452  28.431  1.00  0.00    -0.744 OA
ENDBRANCH  67  71
ENDBRANCH  50  64
BRANCH  51  75
ATOM     75  C   UNL A   1      41.051  33.197  37.389  1.00  0.00     0.023 A 
ATOM     76  C   UNL A   1      40.151  32.783  38.382  1.00  0.00     0.031 A 
ATOM     77  C   UNL A   1      41.876  34.304  37.664  1.00  0.00     0.131 A 
ATOM     78  C   UNL A   1      40.081  33.486  39.595  1.00  0.00     0.055 A 
ATOM     79  C   UNL A   1      41.838  34.967  38.890  1.00  0.00     0.041 A 
ATOM     80  F   UNL A   1      42.751  34.745  36.746  1.00  0.00    -0.206 F 
ATOM     81  C   UNL A   1      40.929  34.564  39.863  1.00  0.00     0.022 A 
BRANCH  78  82
ATOM     82  S   UNL A   1      38.812  33.011  40.801  1.00  0.00     0.124 S 
ATOM     83  O   UNL A   1      39.159  33.848  41.943  1.00  0.00    -0.237 OA
ATOM     84  O   UNL A   1      37.582  33.362  40.098  1.00  0.00    -0.237 OA
ATOM     85  O   UNL A   1      39.037  31.579  40.985  1.00  0.00    -0.744 OA
ENDBRANCH  78  82
ENDBRANCH  51  75
BRANCH  63  86
ATOM     86  C   UNL A   1      44.711  27.769  34.995  1.00  0.00     0.023 A 
ATOM     87  C   UNL A   1      44.446  26.551  35.645  1.00  0.00     0.031 A 
ATOM     88  C   UNL A   1      46.041  28.224  34.949  1.00  0.00     0.131 A 
ATOM     89  C   UNL A   1      45.490  25.855  36.270  1.00  0.00     0.055 A 
ATOM     90  C   UNL A   1      47.083  27.499  35.528  1.00  0.00     0.041 A 
ATOM     91  F   UNL A   1      46.345  29.381  34.341  1.00  0.00    -0.206 F 
ATOM     92  C   UNL A   1      46.809  26.314  36.204  1.00  0.00     0.022 A 
BRANCH  89  93
ATOM     93  S   UNL A   1      45.092  24.380  37.248  1.00  0.00     0.124 S 
ATOM     94  O   UNL A   1      44.164  24.915  38.239  1.00  0.00    -0.237 OA
ATOM     95  O   UNL A   1      44.513  23.489  36.247  1.00  0.00    -0.237 OA
ATOM     96  O   UNL A   1      46.388  23.958  37.777  1.00  0.00    -0.744 OA
ENDBRANCH  89  93
ENDBRANCH  63  86
ENDBRANCH  37  38
ENDBRANCH  30  32
ENDBRANCH  29  30
ENDBRANCH  28  29
ENDBRANCH  27  28
ENDBRANCH  26  27
ENDBRANCH  25  26
ENDBRANCH   1  25
TORSDOF 23
ENDMDL
