MODEL 1
REMARK VINA RESULT:     -10.5      0.000      0.000
REMARK SMILES O=C(OCCOCCOCCOC(=O)c1ccc(-c2c3nc(c(-c4cc(S(=O)(=O)[O-])ccc4F)c4ccc([nH]4)c(-c4cc(S(=O)(=O)[O-])ccc4F)c4nc(c(-c5cc(S(=O)(=O)[O-])ccc5F)c5ccc2[nH]5)C=C4)C=C3)cc1)C1=Cc2ccc(Cl)c(Cl)c2O[C@@H]1C(F)(F)F
REMARK SMILES IDX 8 1 7 2 6 3 5 4 4 5 3 6 2 7 1 8 78 9 79 10 89 11 80 12 88 13
REMARK SMILES IDX 81 14 87 15 82 16 85 17 83 18 86 19 84 20 90 21 91 22 92 23
REMARK SMILES IDX 93 24 9 25 10 26 11 27 12 28 13 29 14 30 15 31 16 32 77 33
REMARK SMILES IDX 17 34 76 35 18 36 19 37 20 38 70 39 21 40 75 41 69 42 71 43
REMARK SMILES IDX 22 44 74 45 68 46 67 47 23 49 55 50 35 51 54 52 36 53 39 54
REMARK SMILES IDX 53 55 72 56 37 57 38 58 52 60 73 61 40 62 24 63 25 64 33 65
REMARK SMILES IDX 26 66 32 67 34 68 31 69 27 70 28 71 29 72 30 73 56 74 57 75
REMARK SMILES IDX 65 76 58 77 64 78 66 79 63 80 59 81 60 82 61 83 62 84 41 85
REMARK SMILES IDX 42 86 50 87 43 88 49 89 51 90 48 91 44 92 45 93 46 94 47 95
REMARK H PARENT 71 48 39 59
REMARK Flexibility Score: inf
ROOT
ATOM      1  C   UNL A   1      34.503  33.328  28.660  1.00  0.00     0.188 C 
ENDROOT
BRANCH   1   2
ATOM      2  C   UNL A   1      34.560  31.936  28.005  1.00  0.00     0.188 C 
BRANCH   2   3
ATOM      3  O   UNL A   1      33.407  31.175  27.522  1.00  0.00    -0.376 OA
BRANCH   3   4
ATOM      4  C   UNL A   1      33.292  29.606  27.000  1.00  0.00     0.202 C 
BRANCH   4   5
ATOM      5  C   UNL A   1      31.525  28.358  26.880  1.00  0.00     0.261 C 
BRANCH   5   6
ATOM      6  O   UNL A   1      31.460  26.845  27.099  1.00  0.00    -0.460 OA
BRANCH   6   7
ATOM      7  C   UNL A   1      31.108  26.187  25.988  1.00  0.00     0.338 C 
ATOM      8  O   UNL A   1      30.019  25.813  25.638  1.00  0.00    -0.246 OA
BRANCH   7   9
ATOM      9  C   UNL A   1      32.446  25.775  25.614  1.00  0.00     0.087 C 
ATOM     10  C   UNL A   1      32.914  24.585  26.344  1.00  0.00     0.027 C 
ATOM     11  C   UNL A   1      32.110  25.844  23.718  1.00  0.00     0.316 C 
ATOM     12  C   UNL A   1      32.996  22.929  25.620  1.00  0.00     0.019 A 
ATOM     13  O   UNL A   1      32.071  24.063  22.946  1.00  0.00    -0.474 OA
ATOM     14  C   UNL A   1      33.309  21.869  26.425  1.00  0.00     0.013 A 
ATOM     15  C   UNL A   1      32.526  22.616  23.975  1.00  0.00     0.148 A 
ATOM     16  C   UNL A   1      33.228  20.611  25.800  1.00  0.00     0.023 A 
ATOM     17  C   UNL A   1      32.446  21.346  23.460  1.00  0.00     0.102 A 
ATOM     18  C   UNL A   1      32.825  20.359  24.413  1.00  0.00     0.063 A 
ATOM     19  Cl  UNL A   1      31.855  20.980  21.906  1.00  0.00    -0.079 Cl
ATOM     20  Cl  UNL A   1      32.809  18.667  23.985  1.00  0.00    -0.083 Cl
BRANCH  11  21
ATOM     21  C   UNL A   1      33.081  27.140  23.460  1.00  0.00     0.430 C 
ATOM     22  F   UNL A   1      32.721  28.334  23.936  1.00  0.00    -0.167 F 
ATOM     23  F   UNL A   1      34.265  26.866  24.087  1.00  0.00    -0.167 F 
ATOM     24  F   UNL A   1      33.423  27.310  22.155  1.00  0.00    -0.167 F 
ENDBRANCH  11  21
ENDBRANCH   7   9
ENDBRANCH   6   7
ENDBRANCH   5   6
ENDBRANCH   4   5
ENDBRANCH   3   4
ENDBRANCH   2   3
ENDBRANCH   1   2
BRANCH   1  25
ATOM     25  O   UNL A   1      35.269  33.622  29.798  1.00  0.00    -0.376 OA
BRANCH  25  26
ATOM     26  C   UNL A   1      34.683  33.356  31.058  1.00  0.00     0.202 C 
BRANCH  26  27
ATOM     27  C   UNL A   1      35.373  32.326  31.961  1.00  0.00     0.261 C 
BRANCH  27  28
ATOM     28  O   UNL A   1      36.122  31.330  31.238  1.00  0.00    -0.460 OA
BRANCH  28  29
ATOM     29  C   UNL A   1      36.983  30.577  31.968  1.00  0.00     0.338 C 
ATOM     30  O   UNL A   1      36.697  29.813  32.873  1.00  0.00    -0.246 OA
BRANCH  29  31
ATOM     31  C   UNL A   1      38.345  30.678  31.398  1.00  0.00     0.060 A 
ATOM     32  C   UNL A   1      39.423  30.877  32.274  1.00  0.00     0.016 A 
ATOM     33  C   UNL A   1      38.552  30.628  30.019  1.00  0.00     0.016 A 
ATOM     34  C   UNL A   1      40.710  31.054  31.772  1.00  0.00     0.010 A 
ATOM     35  C   UNL A   1      39.837  30.852  29.512  1.00  0.00     0.010 A 
ATOM     36  C   UNL A   1      40.908  31.111  30.386  1.00  0.00    -0.014 A 
BRANCH  36  37
ATOM     37  C   UNL A   1      42.137  31.774  29.886  1.00  0.00     0.031 A 
ATOM     38  C   UNL A   1      43.282  30.877  29.494  1.00  0.00     0.074 A 
ATOM     39  C   UNL A   1      42.216  33.106  29.720  1.00  0.00     0.049 A 
ATOM     40  N   UNL A   1      44.448  31.183  28.987  1.00  0.00    -0.248 NA
ATOM     41  C   UNL A   1      43.078  29.434  29.706  1.00  0.00     0.031 C 
ATOM     42  C   UNL A   1      41.149  34.060  30.011  1.00  0.00     0.029 A 
ATOM     43  N   UNL A   1      43.245  33.883  29.251  1.00  0.00    -0.354 N 
ATOM     44  C   UNL A   1      45.110  29.971  28.816  1.00  0.00     0.074 A 
ATOM     45  C   UNL A   1      44.238  28.933  29.316  1.00  0.00     0.031 C 
ATOM     46  C   UNL A   1      41.581  35.299  29.711  1.00  0.00     0.029 A 
ATOM     47  C   UNL A   1      42.962  35.229  29.235  1.00  0.00     0.049 A 
ATOM     48  H   UNL A   1      44.107  33.511  28.954  1.00  0.00     0.167 HD
ATOM     49  C   UNL A   1      46.334  29.742  28.281  1.00  0.00     0.034 A 
ATOM     50  C   UNL A   1      43.738  36.275  28.884  1.00  0.00     0.034 A 
ATOM     51  C   UNL A   1      47.202  30.795  27.819  1.00  0.00     0.049 A 
ATOM     52  C   UNL A   1      45.142  36.003  28.385  1.00  0.00     0.074 A 
ATOM     53  C   UNL A   1      48.461  30.688  27.258  1.00  0.00     0.029 A 
ATOM     54  N   UNL A   1      46.909  32.153  27.885  1.00  0.00    -0.354 N 
ATOM     55  N   UNL A   1      45.754  34.853  28.210  1.00  0.00    -0.248 NA
ATOM     56  C   UNL A   1      45.951  37.173  28.021  1.00  0.00     0.031 C 
ATOM     57  C   UNL A   1      48.969  31.978  27.079  1.00  0.00     0.029 A 
ATOM     58  C   UNL A   1      47.982  32.893  27.416  1.00  0.00     0.049 A 
ATOM     59  H   UNL A   1      46.063  32.532  28.217  1.00  0.00     0.167 HD
ATOM     60  C   UNL A   1      47.001  35.162  27.667  1.00  0.00     0.074 A 
ATOM     61  C   UNL A   1      47.045  36.604  27.538  1.00  0.00     0.031 C 
ATOM     62  C   UNL A   1      48.012  34.333  27.298  1.00  0.00     0.034 A 
BRANCH  49  63
ATOM     63  C   UNL A   1      46.820  28.313  28.246  1.00  0.00     0.023 A 
ATOM     64  C   UNL A   1      46.516  27.446  27.181  1.00  0.00     0.031 A 
ATOM     65  C   UNL A   1      47.560  27.795  29.324  1.00  0.00     0.131 A 
ATOM     66  C   UNL A   1      46.882  26.094  27.254  1.00  0.00     0.055 A 
ATOM     67  C   UNL A   1      48.001  26.472  29.347  1.00  0.00     0.041 A 
ATOM     68  F   UNL A   1      47.851  28.563  30.386  1.00  0.00    -0.206 F 
ATOM     69  C   UNL A   1      47.649  25.607  28.315  1.00  0.00     0.022 A 
BRANCH  66  70
ATOM     70  S   UNL A   1      46.199  24.941  26.030  1.00  0.00     0.124 S 
ATOM     71  O   UNL A   1      44.844  24.740  26.538  1.00  0.00    -0.237 OA
ATOM     72  O   UNL A   1      46.310  25.698  24.788  1.00  0.00    -0.237 OA
ATOM     73  O   UNL A   1      47.074  23.775  26.131  1.00  0.00    -0.744 OA
ENDBRANCH  66  70
ENDBRANCH  49  63
BRANCH  50  74
ATOM     74  C   UNL A   1      43.234  37.677  29.001  1.00  0.00     0.023 A 
ATOM     75  C   UNL A   1      42.465  38.265  27.983  1.00  0.00     0.031 A 
ATOM     76  C   UNL A   1      43.583  38.479  30.103  1.00  0.00     0.131 A 
ATOM     77  C   UNL A   1      42.120  39.624  28.058  1.00  0.00     0.055 A 
ATOM     78  C   UNL A   1      43.182  39.813  30.206  1.00  0.00     0.041 A 
ATOM     79  F   UNL A   1      44.329  37.977  31.101  1.00  0.00    -0.206 F 
ATOM     80  C   UNL A   1      42.458  40.397  29.171  1.00  0.00     0.022 A 
BRANCH  77  81
ATOM     81  S   UNL A   1      41.323  40.402  26.625  1.00  0.00     0.124 S 
ATOM     82  O   UNL A   1      40.816  39.242  25.903  1.00  0.00    -0.237 OA
ATOM     83  O   UNL A   1      40.321  41.252  27.259  1.00  0.00    -0.237 OA
ATOM     84  O   UNL A   1      42.419  41.114  25.972  1.00  0.00    -0.744 OA
ENDBRANCH  77  81
ENDBRANCH  50  74
BRANCH  62  85
ATOM     85  C   UNL A   1      49.225  34.963  26.650  1.00  0.00     0.023 A 
ATOM     86  C   UNL A   1      50.371  35.315  27.384  1.00  0.00     0.031 A 
ATOM     87  C   UNL A   1      49.221  35.237  25.269  1.00  0.00     0.131 A 
ATOM     88  C   UNL A   1      51.424  35.994  26.753  1.00  0.00     0.055 A 
ATOM     89  C   UNL A   1      50.309  35.833  24.630  1.00  0.00     0.041 A 
ATOM     90  F   UNL A   1      48.154  34.930  24.513  1.00  0.00    -0.206 F 
ATOM     91  C   UNL A   1      51.410  36.233  25.377  1.00  0.00     0.022 A 
BRANCH  88  92
ATOM     92  S   UNL A   1      52.745  36.692  27.782  1.00  0.00     0.124 S 
ATOM     93  O   UNL A   1      52.194  37.994  28.139  1.00  0.00    -0.237 OA
ATOM     94  O   UNL A   1      52.842  35.721  28.867  1.00  0.00    -0.237 OA
ATOM     95  O   UNL A   1      53.896  36.731  26.881  1.00  0.00    -0.744 OA
ENDBRANCH  88  92
ENDBRANCH  62  85
ENDBRANCH  36  37
ENDBRANCH  29  31
ENDBRANCH  28  29
ENDBRANCH  27  28
ENDBRANCH  26  27
ENDBRANCH  25  26
ENDBRANCH   1  25
TORSDOF 21
ENDMDL
MODEL 2
REMARK VINA RESULT:     -10.3      8.435     13.936
REMARK SMILES O=C(OCCOCCOCCOC(=O)c1ccc(-c2c3nc(c(-c4cc(S(=O)(=O)[O-])ccc4F)c4ccc([nH]4)c(-c4cc(S(=O)(=O)[O-])ccc4F)c4nc(c(-c5cc(S(=O)(=O)[O-])ccc5F)c5ccc2[nH]5)C=C4)C=C3)cc1)C1=Cc2ccc(Cl)c(Cl)c2O[C@@H]1C(F)(F)F
REMARK SMILES IDX 8 1 7 2 6 3 5 4 4 5 3 6 2 7 1 8 78 9 79 10 89 11 80 12 88 13
REMARK SMILES IDX 81 14 87 15 82 16 85 17 83 18 86 19 84 20 90 21 91 22 92 23
REMARK SMILES IDX 93 24 9 25 10 26 11 27 12 28 13 29 14 30 15 31 16 32 77 33
REMARK SMILES IDX 17 34 76 35 18 36 19 37 20 38 70 39 21 40 75 41 69 42 71 43
REMARK SMILES IDX 22 44 74 45 68 46 67 47 23 49 55 50 35 51 54 52 36 53 39 54
REMARK SMILES IDX 53 55 72 56 37 57 38 58 52 60 73 61 40 62 24 63 25 64 33 65
REMARK SMILES IDX 26 66 32 67 34 68 31 69 27 70 28 71 29 72 30 73 56 74 57 75
REMARK SMILES IDX 65 76 58 77 64 78 66 79 63 80 59 81 60 82 61 83 62 84 41 85
REMARK SMILES IDX 42 86 50 87 43 88 49 89 51 90 48 91 44 92 45 93 46 94 47 95
REMARK H PARENT 71 48 39 59
REMARK Flexibility Score: inf
ROOT
ATOM      1  C   UNL A   1      30.768  36.376  32.951  1.00  0.00     0.188 C 
ENDROOT
BRANCH   1   2
ATOM      2  C   UNL A   1      30.044  36.894  34.207  1.00  0.00     0.188 C 
BRANCH   2   3
ATOM      3  O   UNL A   1      30.683  37.224  35.481  1.00  0.00    -0.376 OA
BRANCH   3   4
ATOM      4  C   UNL A   1      30.061  37.286  37.016  1.00  0.00     0.202 C 
BRANCH   4   5
ATOM      5  C   UNL A   1      31.129  37.268  38.900  1.00  0.00     0.261 C 
BRANCH   5   6
ATOM      6  O   UNL A   1      31.906  36.093  39.497  1.00  0.00    -0.460 OA
BRANCH   6   7
ATOM      7  C   UNL A   1      31.916  36.120  40.836  1.00  0.00     0.338 C 
ATOM      8  O   UNL A   1      32.213  37.021  41.576  1.00  0.00    -0.246 OA
BRANCH   7   9
ATOM      9  C   UNL A   1      31.847  34.685  41.026  1.00  0.00     0.087 C 
ATOM     10  C   UNL A   1      32.867  33.946  40.263  1.00  0.00     0.027 C 
ATOM     11  C   UNL A   1      31.764  34.783  42.948  1.00  0.00     0.316 C 
ATOM     12  C   UNL A   1      34.355  33.232  41.004  1.00  0.00     0.019 A 
ATOM     13  O   UNL A   1      33.407  34.135  43.757  1.00  0.00    -0.474 OA
ATOM     14  C   UNL A   1      35.308  32.691  40.186  1.00  0.00     0.013 A 
ATOM     15  C   UNL A   1      34.693  33.362  42.706  1.00  0.00     0.148 A 
ATOM     16  C   UNL A   1      36.480  32.273  40.843  1.00  0.00     0.023 A 
ATOM     17  C   UNL A   1      35.883  32.953  43.254  1.00  0.00     0.102 A 
ATOM     18  C   UNL A   1      36.755  32.393  42.279  1.00  0.00     0.063 A 
ATOM     19  Cl  UNL A   1      36.317  33.189  44.883  1.00  0.00    -0.079 Cl
ATOM     20  Cl  UNL A   1      38.330  31.796  42.740  1.00  0.00    -0.083 Cl
BRANCH  11  21
ATOM     21  C   UNL A   1      30.209  34.270  43.039  1.00  0.00     0.430 C 
ATOM     22  F   UNL A   1      29.713  33.884  44.216  1.00  0.00    -0.167 F 
ATOM     23  F   UNL A   1      29.431  35.334  42.675  1.00  0.00    -0.167 F 
ATOM     24  F   UNL A   1      29.903  33.304  42.133  1.00  0.00    -0.167 F 
ENDBRANCH  11  21
ENDBRANCH   7   9
ENDBRANCH   6   7
ENDBRANCH   5   6
ENDBRANCH   4   5
ENDBRANCH   3   4
ENDBRANCH   2   3
ENDBRANCH   1   2
BRANCH   1  25
ATOM     25  O   UNL A   1      32.076  36.785  32.650  1.00  0.00    -0.376 OA
BRANCH  25  26
ATOM     26  C   UNL A   1      32.476  36.726  31.294  1.00  0.00     0.202 C 
BRANCH  26  27
ATOM     27  C   UNL A   1      32.823  35.351  30.713  1.00  0.00     0.261 C 
BRANCH  27  28
ATOM     28  O   UNL A   1      33.548  35.412  29.469  1.00  0.00    -0.460 OA
BRANCH  28  29
ATOM     29  C   UNL A   1      33.397  34.356  28.631  1.00  0.00     0.338 C 
ATOM     30  O   UNL A   1      32.507  34.195  27.814  1.00  0.00    -0.246 OA
BRANCH  29  31
ATOM     31  C   UNL A   1      34.578  33.470  28.721  1.00  0.00     0.060 A 
ATOM     32  C   UNL A   1      34.414  32.188  29.265  1.00  0.00     0.016 A 
ATOM     33  C   UNL A   1      35.840  33.914  28.322  1.00  0.00     0.016 A 
ATOM     34  C   UNL A   1      35.515  31.353  29.438  1.00  0.00     0.010 A 
ATOM     35  C   UNL A   1      36.953  33.094  28.537  1.00  0.00     0.010 A 
ATOM     36  C   UNL A   1      36.797  31.832  29.138  1.00  0.00    -0.014 A 
BRANCH  36  37
ATOM     37  C   UNL A   1      37.957  31.156  29.770  1.00  0.00     0.031 A 
ATOM     38  C   UNL A   1      38.255  31.514  31.203  1.00  0.00     0.074 A 
ATOM     39  C   UNL A   1      38.675  30.217  29.130  1.00  0.00     0.049 A 
ATOM     40  N   UNL A   1      39.172  31.047  32.008  1.00  0.00    -0.248 NA
ATOM     41  C   UNL A   1      37.393  32.545  31.807  1.00  0.00     0.031 C 
ATOM     42  C   UNL A   1      38.437  29.753  27.765  1.00  0.00     0.029 A 
ATOM     43  N   UNL A   1      39.749  29.476  29.556  1.00  0.00    -0.354 N 
ATOM     44  C   UNL A   1      38.993  31.722  33.211  1.00  0.00     0.074 A 
ATOM     45  C   UNL A   1      37.914  32.663  33.016  1.00  0.00     0.031 C 
ATOM     46  C   UNL A   1      39.341  28.801  27.467  1.00  0.00     0.029 A 
ATOM     47  C   UNL A   1      40.238  28.610  28.607  1.00  0.00     0.049 A 
ATOM     48  H   UNL A   1      40.133  29.558  30.460  1.00  0.00     0.167 HD
ATOM     49  C   UNL A   1      39.663  31.566  34.379  1.00  0.00     0.034 A 
ATOM     50  C   UNL A   1      41.292  27.771  28.658  1.00  0.00     0.034 A 
ATOM     51  C   UNL A   1      40.758  30.645  34.542  1.00  0.00     0.049 A 
ATOM     52  C   UNL A   1      42.093  27.687  29.942  1.00  0.00     0.074 A 
ATOM     53  C   UNL A   1      41.513  30.398  35.674  1.00  0.00     0.029 A 
ATOM     54  N   UNL A   1      41.272  29.834  33.536  1.00  0.00    -0.354 N 
ATOM     55  N   UNL A   1      41.906  28.317  31.081  1.00  0.00    -0.248 NA
ATOM     56  C   UNL A   1      43.235  26.766  29.948  1.00  0.00     0.031 C 
ATOM     57  C   UNL A   1      42.542  29.517  35.327  1.00  0.00     0.029 A 
ATOM     58  C   UNL A   1      42.360  29.120  34.010  1.00  0.00     0.049 A 
ATOM     59  H   UNL A   1      40.915  29.777  32.620  1.00  0.00     0.167 HD
ATOM     60  C   UNL A   1      42.878  27.827  31.952  1.00  0.00     0.074 A 
ATOM     61  C   UNL A   1      43.639  26.845  31.208  1.00  0.00     0.031 C 
ATOM     62  C   UNL A   1      43.113  28.148  33.252  1.00  0.00     0.034 A 
BRANCH  49  63
ATOM     63  C   UNL A   1      39.272  32.464  35.528  1.00  0.00     0.023 A 
ATOM     64  C   UNL A   1      39.697  33.802  35.608  1.00  0.00     0.031 A 
ATOM     65  C   UNL A   1      38.502  31.954  36.589  1.00  0.00     0.131 A 
ATOM     66  C   UNL A   1      39.414  34.558  36.756  1.00  0.00     0.055 A 
ATOM     67  C   UNL A   1      38.146  32.740  37.685  1.00  0.00     0.041 A 
ATOM     68  F   UNL A   1      38.098  30.674  36.587  1.00  0.00    -0.206 F 
ATOM     69  C   UNL A   1      38.616  34.047  37.782  1.00  0.00     0.022 A 
BRANCH  66  70
ATOM     70  S   UNL A   1      40.244  36.158  36.969  1.00  0.00     0.124 S 
ATOM     71  O   UNL A   1      40.054  36.766  35.655  1.00  0.00    -0.237 OA
ATOM     72  O   UNL A   1      39.494  36.759  38.065  1.00  0.00    -0.237 OA
ATOM     73  O   UNL A   1      41.623  35.789  37.283  1.00  0.00    -0.744 OA
ENDBRANCH  66  70
ENDBRANCH  49  63
BRANCH  50  74
ATOM     74  C   UNL A   1      41.680  26.952  27.470  1.00  0.00     0.023 A 
ATOM     75  C   UNL A   1      41.387  25.580  27.400  1.00  0.00     0.031 A 
ATOM     76  C   UNL A   1      42.423  27.516  26.417  1.00  0.00     0.131 A 
ATOM     77  C   UNL A   1      41.881  24.809  26.336  1.00  0.00     0.055 A 
ATOM     78  C   UNL A   1      42.856  26.759  25.326  1.00  0.00     0.041 A 
ATOM     79  F   UNL A   1      42.746  28.820  26.434  1.00  0.00    -0.206 F 
ATOM     80  C   UNL A   1      42.598  25.392  25.289  1.00  0.00     0.022 A 
BRANCH  77  81
ATOM     81  S   UNL A   1      41.675  23.006  26.395  1.00  0.00     0.124 S 
ATOM     82  O   UNL A   1      42.517  22.577  25.285  1.00  0.00    -0.237 OA
ATOM     83  O   UNL A   1      42.165  22.689  27.732  1.00  0.00    -0.237 OA
ATOM     84  O   UNL A   1      40.240  22.821  26.198  1.00  0.00    -0.744 OA
ENDBRANCH  77  81
ENDBRANCH  50  74
BRANCH  62  85
ATOM     85  C   UNL A   1      44.196  27.375  33.972  1.00  0.00     0.023 A 
ATOM     86  C   UNL A   1      44.059  26.012  34.292  1.00  0.00     0.031 A 
ATOM     87  C   UNL A   1      45.381  28.025  34.364  1.00  0.00     0.131 A 
ATOM     88  C   UNL A   1      45.047  25.370  35.053  1.00  0.00     0.055 A 
ATOM     89  C   UNL A   1      46.401  27.357  35.044  1.00  0.00     0.041 A 
ATOM     90  F   UNL A   1      45.570  29.326  34.091  1.00  0.00    -0.206 F 
ATOM     91  C   UNL A   1      46.227  26.028  35.410  1.00  0.00     0.022 A 
BRANCH  88  92
ATOM     92  S   UNL A   1      44.703  23.710  35.698  1.00  0.00     0.124 S 
ATOM     93  O   UNL A   1      45.159  22.860  34.604  1.00  0.00    -0.237 OA
ATOM     94  O   UNL A   1      45.512  23.675  36.913  1.00  0.00    -0.237 OA
ATOM     95  O   UNL A   1      43.259  23.721  35.917  1.00  0.00    -0.744 OA
ENDBRANCH  88  92
ENDBRANCH  62  85
ENDBRANCH  36  37
ENDBRANCH  29  31
ENDBRANCH  28  29
ENDBRANCH  27  28
ENDBRANCH  26  27
ENDBRANCH  25  26
ENDBRANCH   1  25
TORSDOF 21
ENDMDL
MODEL 3
REMARK VINA RESULT:     -10.1      5.397      7.987
REMARK SMILES O=C(OCCOCCOCCOC(=O)c1ccc(-c2c3nc(c(-c4cc(S(=O)(=O)[O-])ccc4F)c4ccc([nH]4)c(-c4cc(S(=O)(=O)[O-])ccc4F)c4nc(c(-c5cc(S(=O)(=O)[O-])ccc5F)c5ccc2[nH]5)C=C4)C=C3)cc1)C1=Cc2ccc(Cl)c(Cl)c2O[C@@H]1C(F)(F)F
REMARK SMILES IDX 8 1 7 2 6 3 5 4 4 5 3 6 2 7 1 8 78 9 79 10 89 11 80 12 88 13
REMARK SMILES IDX 81 14 87 15 82 16 85 17 83 18 86 19 84 20 90 21 91 22 92 23
REMARK SMILES IDX 93 24 9 25 10 26 11 27 12 28 13 29 14 30 15 31 16 32 77 33
REMARK SMILES IDX 17 34 76 35 18 36 19 37 20 38 70 39 21 40 75 41 69 42 71 43
REMARK SMILES IDX 22 44 74 45 68 46 67 47 23 49 55 50 35 51 54 52 36 53 39 54
REMARK SMILES IDX 53 55 72 56 37 57 38 58 52 60 73 61 40 62 24 63 25 64 33 65
REMARK SMILES IDX 26 66 32 67 34 68 31 69 27 70 28 71 29 72 30 73 56 74 57 75
REMARK SMILES IDX 65 76 58 77 64 78 66 79 63 80 59 81 60 82 61 83 62 84 41 85
REMARK SMILES IDX 42 86 50 87 43 88 49 89 51 90 48 91 44 92 45 93 46 94 47 95
REMARK H PARENT 71 48 39 59
REMARK Flexibility Score: inf
ROOT
ATOM      1  C   UNL A   1      34.506  33.921  29.813  1.00  0.00     0.188 C 
ENDROOT
BRANCH   1   2
ATOM      2  C   UNL A   1      34.096  33.036  28.622  1.00  0.00     0.188 C 
BRANCH   2   3
ATOM      3  O   UNL A   1      35.010  32.457  27.638  1.00  0.00    -0.376 OA
BRANCH   3   4
ATOM      4  C   UNL A   1      35.789  30.994  27.619  1.00  0.00     0.202 C 
BRANCH   4   5
ATOM      5  C   UNL A   1      36.277  29.711  29.295  1.00  0.00     0.261 C 
BRANCH   5   6
ATOM      6  O   UNL A   1      37.397  29.928  30.314  1.00  0.00    -0.460 OA
BRANCH   6   7
ATOM      7  C   UNL A   1      38.611  29.864  29.753  1.00  0.00     0.338 C 
ATOM      8  O   UNL A   1      39.207  30.704  29.131  1.00  0.00    -0.246 OA
BRANCH   7   9
ATOM      9  C   UNL A   1      38.739  28.421  29.811  1.00  0.00     0.087 C 
ATOM     10  C   UNL A   1      38.871  27.794  28.485  1.00  0.00     0.027 C 
ATOM     11  C   UNL A   1      40.111  28.437  31.164  1.00  0.00     0.316 C 
ATOM     12  C   UNL A   1      40.432  27.169  27.819  1.00  0.00     0.019 A 
ATOM     13  O   UNL A   1      41.825  27.887  30.434  1.00  0.00    -0.474 OA
ATOM     14  C   UNL A   1      40.473  26.735  26.524  1.00  0.00     0.013 A 
ATOM     15  C   UNL A   1      41.920  27.257  28.716  1.00  0.00     0.148 A 
ATOM     16  C   UNL A   1      41.754  26.384  26.060  1.00  0.00     0.023 A 
ATOM     17  C   UNL A   1      43.133  26.920  28.168  1.00  0.00     0.102 A 
ATOM     18  C   UNL A   1      43.003  26.467  26.825  1.00  0.00     0.063 A 
ATOM     19  Cl  UNL A   1      44.628  27.125  28.954  1.00  0.00    -0.079 Cl
ATOM     20  Cl  UNL A   1      44.412  25.976  25.918  1.00  0.00    -0.083 Cl
BRANCH  11  21
ATOM     21  C   UNL A   1      39.151  27.803  32.332  1.00  0.00     0.430 C 
ATOM     22  F   UNL A   1      38.148  28.532  32.825  1.00  0.00    -0.167 F 
ATOM     23  F   UNL A   1      38.538  26.713  31.777  1.00  0.00    -0.167 F 
ATOM     24  F   UNL A   1      39.843  27.298  33.387  1.00  0.00    -0.167 F 
ENDBRANCH  11  21
ENDBRANCH   7   9
ENDBRANCH   6   7
ENDBRANCH   5   6
ENDBRANCH   4   5
ENDBRANCH   3   4
ENDBRANCH   2   3
ENDBRANCH   1   2
BRANCH   1  25
ATOM     25  O   UNL A   1      35.318  33.417  30.841  1.00  0.00    -0.376 OA
BRANCH  25  26
ATOM     26  C   UNL A   1      36.164  34.336  31.506  1.00  0.00     0.202 C 
BRANCH  26  27
ATOM     27  C   UNL A   1      35.641  34.984  32.792  1.00  0.00     0.261 C 
BRANCH  27  28
ATOM     28  O   UNL A   1      36.610  35.025  33.858  1.00  0.00    -0.460 OA
BRANCH  28  29
ATOM     29  C   UNL A   1      36.615  33.968  34.708  1.00  0.00     0.338 C 
ATOM     30  O   UNL A   1      35.727  33.647  35.478  1.00  0.00    -0.246 OA
BRANCH  29  31
ATOM     31  C   UNL A   1      37.806  33.127  34.456  1.00  0.00     0.060 A 
ATOM     32  C   UNL A   1      39.029  33.511  35.028  1.00  0.00     0.016 A 
ATOM     33  C   UNL A   1      37.732  32.006  33.628  1.00  0.00     0.016 A 
ATOM     34  C   UNL A   1      40.188  32.790  34.752  1.00  0.00     0.010 A 
ATOM     35  C   UNL A   1      38.904  31.309  33.313  1.00  0.00     0.010 A 
ATOM     36  C   UNL A   1      40.140  31.729  33.839  1.00  0.00    -0.014 A 
BRANCH  36  37
ATOM     37  C   UNL A   1      41.407  31.309  33.193  1.00  0.00     0.031 A 
ATOM     38  C   UNL A   1      42.139  30.150  33.818  1.00  0.00     0.074 A 
ATOM     39  C   UNL A   1      41.859  31.881  32.062  1.00  0.00     0.049 A 
ATOM     40  N   UNL A   1      43.237  29.551  33.439  1.00  0.00    -0.248 NA
ATOM     41  C   UNL A   1      41.543  29.593  35.045  1.00  0.00     0.031 C 
ATOM     42  C   UNL A   1      41.201  32.968  31.342  1.00  0.00     0.029 A 
ATOM     43  N   UNL A   1      42.980  31.611  31.318  1.00  0.00    -0.354 N 
ATOM     44  C   UNL A   1      43.457  28.546  34.376  1.00  0.00     0.074 A 
ATOM     45  C   UNL A   1      42.409  28.647  35.365  1.00  0.00     0.031 C 
ATOM     46  C   UNL A   1      41.933  33.272  30.253  1.00  0.00     0.029 A 
ATOM     47  C   UNL A   1      43.123  32.422  30.217  1.00  0.00     0.049 A 
ATOM     48  H   UNL A   1      43.623  30.902  31.551  1.00  0.00     0.167 HD
ATOM     49  C   UNL A   1      44.441  27.615  34.404  1.00  0.00     0.034 A 
ATOM     50  C   UNL A   1      44.109  32.472  29.297  1.00  0.00     0.034 A 
ATOM     51  C   UNL A   1      45.496  27.553  33.425  1.00  0.00     0.049 A 
ATOM     52  C   UNL A   1      45.255  31.488  29.407  1.00  0.00     0.074 A 
ATOM     53  C   UNL A   1      46.547  26.656  33.348  1.00  0.00     0.029 A 
ATOM     54  N   UNL A   1      45.648  28.437  32.363  1.00  0.00    -0.354 N 
ATOM     55  N   UNL A   1      45.447  30.530  30.286  1.00  0.00    -0.248 NA
ATOM     56  C   UNL A   1      46.307  31.584  28.388  1.00  0.00     0.031 C 
ATOM     57  C   UNL A   1      47.385  27.058  32.304  1.00  0.00     0.029 A 
ATOM     58  C   UNL A   1      46.798  28.133  31.653  1.00  0.00     0.049 A 
ATOM     59  H   UNL A   1      45.028  29.172  32.147  1.00  0.00     0.167 HD
ATOM     60  C   UNL A   1      46.616  29.879  29.893  1.00  0.00     0.074 A 
ATOM     61  C   UNL A   1      47.075  30.549  28.695  1.00  0.00     0.031 C 
ATOM     62  C   UNL A   1      47.246  28.816  30.461  1.00  0.00     0.034 A 
BRANCH  49  63
ATOM     63  C   UNL A   1      44.454  26.654  35.568  1.00  0.00     0.023 A 
ATOM     64  C   UNL A   1      45.043  26.983  36.803  1.00  0.00     0.031 A 
ATOM     65  C   UNL A   1      43.909  25.365  35.423  1.00  0.00     0.131 A 
ATOM     66  C   UNL A   1      45.141  26.012  37.811  1.00  0.00     0.055 A 
ATOM     67  C   UNL A   1      43.929  24.435  36.463  1.00  0.00     0.041 A 
ATOM     68  F   UNL A   1      43.365  24.980  34.257  1.00  0.00    -0.206 F 
ATOM     69  C   UNL A   1      44.561  24.750  37.661  1.00  0.00     0.022 A 
BRANCH  66  70
ATOM     70  S   UNL A   1      46.185  26.361  39.254  1.00  0.00     0.124 S 
ATOM     71  O   UNL A   1      47.250  27.164  38.660  1.00  0.00    -0.237 OA
ATOM     72  O   UNL A   1      45.269  27.069  40.141  1.00  0.00    -0.237 OA
ATOM     73  O   UNL A   1      46.595  25.034  39.710  1.00  0.00    -0.744 OA
ENDBRANCH  66  70
ENDBRANCH  49  63
BRANCH  50  74
ATOM     74  C   UNL A   1      44.085  33.488  28.201  1.00  0.00     0.023 A 
ATOM     75  C   UNL A   1      44.180  34.863  28.477  1.00  0.00     0.031 A 
ATOM     76  C   UNL A   1      43.887  33.101  26.864  1.00  0.00     0.131 A 
ATOM     77  C   UNL A   1      44.019  35.799  27.443  1.00  0.00     0.055 A 
ATOM     78  C   UNL A   1      43.794  34.034  25.828  1.00  0.00     0.041 A 
ATOM     79  F   UNL A   1      43.774  31.802  26.540  1.00  0.00    -0.206 F 
ATOM     80  C   UNL A   1      43.844  35.394  26.119  1.00  0.00     0.022 A 
BRANCH  77  81
ATOM     81  S   UNL A   1      43.922  37.561  27.870  1.00  0.00     0.124 S 
ATOM     82  O   UNL A   1      44.669  38.170  26.776  1.00  0.00    -0.237 OA
ATOM     83  O   UNL A   1      42.482  37.794  27.873  1.00  0.00    -0.237 OA
ATOM     84  O   UNL A   1      44.566  37.629  29.179  1.00  0.00    -0.744 OA
ENDBRANCH  77  81
ENDBRANCH  50  74
BRANCH  62  85
ATOM     85  C   UNL A   1      48.463  28.270  29.748  1.00  0.00     0.023 A 
ATOM     86  C   UNL A   1      48.364  27.313  28.722  1.00  0.00     0.031 A 
ATOM     87  C   UNL A   1      49.749  28.703  30.120  1.00  0.00     0.131 A 
ATOM     88  C   UNL A   1      49.529  26.761  28.168  1.00  0.00     0.055 A 
ATOM     89  C   UNL A   1      50.902  28.215  29.503  1.00  0.00     0.041 A 
ATOM     90  F   UNL A   1      49.910  29.612  31.096  1.00  0.00    -0.206 F 
ATOM     91  C   UNL A   1      50.795  27.223  28.534  1.00  0.00     0.022 A 
BRANCH  88  92
ATOM     92  S   UNL A   1      49.371  25.326  27.069  1.00  0.00     0.124 S 
ATOM     93  O   UNL A   1      47.925  25.146  27.014  1.00  0.00    -0.237 OA
ATOM     94  O   UNL A   1      50.002  25.803  25.842  1.00  0.00    -0.237 OA
ATOM     95  O   UNL A   1      50.102  24.275  27.773  1.00  0.00    -0.744 OA
ENDBRANCH  88  92
ENDBRANCH  62  85
ENDBRANCH  36  37
ENDBRANCH  29  31
ENDBRANCH  28  29
ENDBRANCH  27  28
ENDBRANCH  26  27
ENDBRANCH  25  26
ENDBRANCH   1  25
TORSDOF 21
ENDMDL
