MODEL 1
REMARK VINA RESULT:     -10.0      0.000      0.000
REMARK SMILES CC(C)C[C@H](NC(=O)[C@H](Cc1ccccc1)NC(=O)CNC(=O)CNC(=O)OCc1ccccc1)C(=O)OCCOCCOCCOC(=O)c1ccc(-c2c3nc(c(-c4cc(S(=O)(=O)[O-])ccc4F)c4ccc([nH]4)c(-c4cc(S(=O)(=O)[O-])ccc4F)c4nc(c(-c5cc(S(=O)(=O)[O-])ccc5F)c5ccc2[nH]5)C=C4)C=C3)cc1
REMARK SMILES IDX 39 1 38 2 36 3 37 4 5 5 4 6 2 7 1 8 3 9 6 10 7 11 8 13 9 14
REMARK SMILES IDX 17 15 18 16 19 18 20 19 21 20 22 21 23 23 24 24 25 25 26 26
REMARK SMILES IDX 27 28 28 29 29 30 30 31 31 32 35 33 32 34 34 35 33 36 10 37
REMARK SMILES IDX 11 38 12 39 16 40 13 41 15 42 14 43 40 44 41 45 42 46 43 47
REMARK SMILES IDX 44 48 45 49 46 50 47 51 48 52 49 53 50 54 51 55 112 56 52 57
REMARK SMILES IDX 111 58 53 59 54 60 55 61 105 62 56 63 110 64 104 65 106 66
REMARK SMILES IDX 57 67 109 68 103 69 102 70 58 72 90 73 70 74 89 75 71 76
REMARK SMILES IDX 74 77 88 78 107 79 72 80 73 81 87 83 108 84 75 85 59 86
REMARK SMILES IDX 60 87 68 88 61 89 67 90 69 91 66 92 62 93 63 94 64 95 65 96
REMARK SMILES IDX 91 97 92 98 100 99 93 100 99 101 101 102 98 103 94 104
REMARK SMILES IDX 95 105 96 106 97 107 76 108 77 109 85 110 78 111 84 112
REMARK SMILES IDX 86 113 83 114 79 115 80 116 81 117 82 118
REMARK H PARENT 6 12 17 17 21 22 25 27 106 71 74 82
REMARK Flexibility Score: inf
ROOT
ATOM      1  C   UNL A   1      28.283  30.209  22.464  1.00  0.00     0.261 C 
ENDROOT
BRANCH   1   2
ATOM      2  O   UNL A   1      29.119  29.616  23.475  1.00  0.00    -0.462 OA
BRANCH   2   3
ATOM      3  C   UNL A   1      30.271  29.060  22.989  1.00  0.00     0.328 C 
ATOM      4  O   UNL A   1      30.481  28.914  21.786  1.00  0.00    -0.250 OA
BRANCH   3   5
ATOM      5  C   UNL A   1      31.103  28.282  24.039  1.00  0.00     0.192 C 
BRANCH   5   6
ATOM      6  C   UNL A   1      30.026  27.541  24.792  1.00  0.00     0.040 C 
BRANCH   6   7
ATOM      7  C   UNL A   1      29.071  26.720  23.849  1.00  0.00    -0.015 C 
ATOM      8  C   UNL A   1      29.977  25.713  23.141  1.00  0.00     0.007 C 
ATOM      9  C   UNL A   1      27.717  26.121  24.316  1.00  0.00     0.007 C 
ENDBRANCH   6   7
ENDBRANCH   5   6
BRANCH   5  10
ATOM     10  N   UNL A   1      32.108  28.748  24.993  1.00  0.00    -0.341 N 
ATOM     11  C   UNL A   1      33.318  28.120  25.303  1.00  0.00     0.243 C 
ATOM     12  H   UNL A   1      31.915  29.591  25.464  1.00  0.00     0.164 HD
ATOM     13  O   UNL A   1      34.249  28.885  25.586  1.00  0.00    -0.273 OA
BRANCH  11  14
ATOM     14  C   UNL A   1      33.419  26.529  25.688  1.00  0.00     0.175 C 
BRANCH  14  15
ATOM     15  N   UNL A   1      32.385  25.511  26.337  1.00  0.00    -0.342 N 
ATOM     16  C   UNL A   1      31.496  24.452  26.144  1.00  0.00     0.240 C 
ATOM     17  H   UNL A   1      32.360  25.720  27.299  1.00  0.00     0.164 HD
ATOM     18  O   UNL A   1      31.096  24.024  27.252  1.00  0.00    -0.273 OA
BRANCH  16  19
ATOM     19  C   UNL A   1      30.992  23.472  24.813  1.00  0.00     0.216 C 
BRANCH  19  20
ATOM     20  N   UNL A   1      31.659  22.328  23.945  1.00  0.00    -0.346 N 
ATOM     21  C   UNL A   1      32.155  21.038  23.810  1.00  0.00     0.239 C 
ATOM     22  H   UNL A   1      31.788  22.735  23.058  1.00  0.00     0.164 HD
ATOM     23  O   UNL A   1      32.533  20.847  22.632  1.00  0.00    -0.273 OA
BRANCH  21  24
ATOM     24  C   UNL A   1      32.363  19.678  24.817  1.00  0.00     0.219 C 
BRANCH  24  25
ATOM     25  N   UNL A   1      32.875  18.319  24.431  1.00  0.00    -0.312 N 
ATOM     26  C   UNL A   1      34.144  17.791  24.331  1.00  0.00     0.407 C 
ATOM     27  H   UNL A   1      32.163  17.678  24.205  1.00  0.00     0.167 HD
ATOM     28  O   UNL A   1      34.335  16.923  23.476  1.00  0.00    -0.225 OA
BRANCH  26  29
ATOM     29  O   UNL A   1      35.105  18.261  25.173  1.00  0.00    -0.445 OA
BRANCH  29  30
ATOM     30  C   UNL A   1      36.068  19.216  24.623  1.00  0.00     0.270 C 
BRANCH  30  31
ATOM     31  C   UNL A   1      36.275  20.673  25.080  1.00  0.00    -0.011 A 
ATOM     32  C   UNL A   1      37.355  21.497  24.787  1.00  0.00     0.007 A 
ATOM     33  C   UNL A   1      35.265  21.260  25.886  1.00  0.00     0.007 A 
ATOM     34  C   UNL A   1      37.391  22.831  25.269  1.00  0.00     0.000 A 
ATOM     35  C   UNL A   1      35.279  22.574  26.358  1.00  0.00     0.000 A 
ATOM     36  C   UNL A   1      36.357  23.370  26.046  1.00  0.00     0.000 A 
ENDBRANCH  30  31
ENDBRANCH  29  30
ENDBRANCH  26  29
ENDBRANCH  24  25
ENDBRANCH  21  24
ENDBRANCH  19  20
ENDBRANCH  16  19
ENDBRANCH  14  15
BRANCH  14  37
ATOM     37  C   UNL A   1      34.366  25.750  24.713  1.00  0.00     0.070 C 
BRANCH  37  38
ATOM     38  C   UNL A   1      33.791  25.554  23.305  1.00  0.00    -0.045 A 
ATOM     39  C   UNL A   1      33.680  24.272  22.739  1.00  0.00     0.004 A 
ATOM     40  C   UNL A   1      33.412  26.654  22.519  1.00  0.00     0.004 A 
ATOM     41  C   UNL A   1      33.245  24.098  21.418  1.00  0.00     0.000 A 
ATOM     42  C   UNL A   1      32.951  26.478  21.206  1.00  0.00     0.000 A 
ATOM     43  C   UNL A   1      32.882  25.202  20.651  1.00  0.00     0.000 A 
ENDBRANCH  37  38
ENDBRANCH  14  37
ENDBRANCH  11  14
ENDBRANCH   5  10
ENDBRANCH   3   5
ENDBRANCH   2   3
ENDBRANCH   1   2
BRANCH   1  44
ATOM     44  C   UNL A   1      28.646  31.608  21.994  1.00  0.00     0.202 C 
BRANCH  44  45
ATOM     45  O   UNL A   1      27.998  32.784  22.442  1.00  0.00    -0.376 OA
BRANCH  45  46
ATOM     46  C   UNL A   1      28.699  33.814  23.116  1.00  0.00     0.188 C 
BRANCH  46  47
ATOM     47  C   UNL A   1      30.120  33.523  23.638  1.00  0.00     0.188 C 
BRANCH  47  48
ATOM     48  O   UNL A   1      30.307  33.341  25.033  1.00  0.00    -0.376 OA
BRANCH  48  49
ATOM     49  C   UNL A   1      30.662  31.995  25.440  1.00  0.00     0.202 C 
BRANCH  49  50
ATOM     50  C   UNL A   1      31.266  31.749  26.840  1.00  0.00     0.261 C 
BRANCH  50  51
ATOM     51  O   UNL A   1      32.687  31.670  26.830  1.00  0.00    -0.460 OA
BRANCH  51  52
ATOM     52  C   UNL A   1      33.305  32.624  27.546  1.00  0.00     0.338 C 
ATOM     53  O   UNL A   1      32.818  33.697  27.920  1.00  0.00    -0.246 OA
BRANCH  52  54
ATOM     54  C   UNL A   1      34.518  32.010  28.102  1.00  0.00     0.060 A 
ATOM     55  C   UNL A   1      34.495  30.628  28.323  1.00  0.00     0.016 A 
ATOM     56  C   UNL A   1      35.713  32.738  28.229  1.00  0.00     0.016 A 
ATOM     57  C   UNL A   1      35.640  29.996  28.773  1.00  0.00     0.010 A 
ATOM     58  C   UNL A   1      36.872  32.098  28.649  1.00  0.00     0.010 A 
ATOM     59  C   UNL A   1      36.802  30.746  29.006  1.00  0.00    -0.014 A 
BRANCH  59  60
ATOM     60  C   UNL A   1      37.796  30.161  29.924  1.00  0.00     0.031 A 
ATOM     61  C   UNL A   1      38.777  29.185  29.333  1.00  0.00     0.074 A 
ATOM     62  C   UNL A   1      37.918  30.638  31.172  1.00  0.00     0.049 A 
ATOM     63  N   UNL A   1      39.868  28.693  29.851  1.00  0.00    -0.248 NA
ATOM     64  C   UNL A   1      38.497  28.707  27.966  1.00  0.00     0.031 C 
ATOM     65  C   UNL A   1      37.019  31.608  31.799  1.00  0.00     0.029 A 
ATOM     66  N   UNL A   1      38.880  30.406  32.116  1.00  0.00    -0.354 N 
ATOM     67  C   UNL A   1      40.415  27.878  28.864  1.00  0.00     0.074 A 
ATOM     68  C   UNL A   1      39.501  27.876  27.750  1.00  0.00     0.031 C 
ATOM     69  C   UNL A   1      37.494  31.914  33.018  1.00  0.00     0.029 A 
ATOM     70  C   UNL A   1      38.713  31.148  33.261  1.00  0.00     0.049 A 
ATOM     71  H   UNL A   1      39.619  29.769  31.989  1.00  0.00     0.167 HD
ATOM     72  C   UNL A   1      41.596  27.219  28.877  1.00  0.00     0.034 A 
ATOM     73  C   UNL A   1      39.472  31.194  34.373  1.00  0.00     0.034 A 
ATOM     74  C   UNL A   1      42.480  27.228  30.011  1.00  0.00     0.049 A 
ATOM     75  C   UNL A   1      40.749  30.386  34.390  1.00  0.00     0.074 A 
ATOM     76  C   UNL A   1      43.686  26.575  30.170  1.00  0.00     0.029 A 
ATOM     77  N   UNL A   1      42.241  27.926  31.189  1.00  0.00    -0.354 N 
ATOM     78  N   UNL A   1      41.263  29.628  33.445  1.00  0.00    -0.248 NA
ATOM     79  C   UNL A   1      41.559  30.461  35.609  1.00  0.00     0.031 C 
ATOM     80  C   UNL A   1      44.143  26.822  31.470  1.00  0.00     0.029 A 
ATOM     81  C   UNL A   1      43.265  27.698  32.092  1.00  0.00     0.049 A 
ATOM     82  H   UNL A   1      41.459  28.500  31.357  1.00  0.00     0.167 HD
ATOM     83  C   UNL A   1      42.467  29.150  33.955  1.00  0.00     0.074 A 
ATOM     84  C   UNL A   1      42.618  29.745  35.269  1.00  0.00     0.031 C 
ATOM     85  C   UNL A   1      43.367  28.293  33.403  1.00  0.00     0.034 A 
BRANCH  72  86
ATOM     86  C   UNL A   1      41.953  26.413  27.652  1.00  0.00     0.023 A 
ATOM     87  C   UNL A   1      41.678  25.035  27.565  1.00  0.00     0.031 A 
ATOM     88  C   UNL A   1      42.613  27.022  26.573  1.00  0.00     0.131 A 
ATOM     89  C   UNL A   1      42.115  24.303  26.449  1.00  0.00     0.055 A 
ATOM     90  C   UNL A   1      42.975  26.305  25.431  1.00  0.00     0.041 A 
ATOM     91  F   UNL A   1      42.935  28.325  26.617  1.00  0.00    -0.206 F 
ATOM     92  C   UNL A   1      42.737  24.936  25.369  1.00  0.00     0.022 A 
BRANCH  89  93
ATOM     93  S   UNL A   1      41.978  22.495  26.484  1.00  0.00     0.124 S 
ATOM     94  O   UNL A   1      40.531  22.310  26.538  1.00  0.00    -0.237 OA
ATOM     95  O   UNL A   1      42.628  22.104  25.238  1.00  0.00    -0.237 OA
ATOM     96  O   UNL A   1      42.694  22.121  27.703  1.00  0.00    -0.744 OA
ENDBRANCH  89  93
ENDBRANCH  72  86
BRANCH  73  97
ATOM     97  C   UNL A   1      39.043  31.995  35.556  1.00  0.00     0.023 A 
ATOM     98  C   UNL A   1      38.415  31.403  36.663  1.00  0.00     0.031 A 
ATOM     99  C   UNL A   1      39.197  33.394  35.561  1.00  0.00     0.131 A 
ATOM    100  C   UNL A   1      37.908  32.210  37.694  1.00  0.00     0.055 A 
ATOM    101  C   UNL A   1      38.752  34.186  36.620  1.00  0.00     0.041 A 
ATOM    102  F   UNL A   1      39.789  34.016  34.528  1.00  0.00    -0.206 F 
ATOM    103  C   UNL A   1      38.085  33.595  37.687  1.00  0.00     0.022 A 
BRANCH 100 104
ATOM    104  S   UNL A   1      36.902  31.436  38.991  1.00  0.00     0.124 S 
ATOM    105  O   UNL A   1      37.771  31.558  40.156  1.00  0.00    -0.237 OA
ATOM    106  O   UNL A   1      35.708  32.275  38.988  1.00  0.00    -0.237 OA
ATOM    107  O   UNL A   1      36.705  30.073  38.499  1.00  0.00    -0.744 OA
ENDBRANCH 100 104
ENDBRANCH  73  97
BRANCH  85 108
ATOM    108  C   UNL A   1      44.590  27.977  34.230  1.00  0.00     0.023 A 
ATOM    109  C   UNL A   1      44.586  26.931  35.167  1.00  0.00     0.031 A 
ATOM    110  C   UNL A   1      45.754  28.753  34.106  1.00  0.00     0.131 A 
ATOM    111  C   UNL A   1      45.688  26.750  36.013  1.00  0.00     0.055 A 
ATOM    112  C   UNL A   1      46.881  28.512  34.892  1.00  0.00     0.041 A 
ATOM    113  F   UNL A   1      45.816  29.763  33.223  1.00  0.00    -0.206 F 
ATOM    114  C   UNL A   1      46.844  27.520  35.868  1.00  0.00     0.022 A 
BRANCH 111 115
ATOM    115  S   UNL A   1      45.529  25.592  37.399  1.00  0.00     0.124 S 
ATOM    116  O   UNL A   1      44.119  25.732  37.748  1.00  0.00    -0.237 OA
ATOM    117  O   UNL A   1      45.911  24.323  36.790  1.00  0.00    -0.237 OA
ATOM    118  O   UNL A   1      46.470  26.114  38.389  1.00  0.00    -0.744 OA
ENDBRANCH 111 115
ENDBRANCH  85 108
ENDBRANCH  59  60
ENDBRANCH  52  54
ENDBRANCH  51  52
ENDBRANCH  50  51
ENDBRANCH  49  50
ENDBRANCH  48  49
ENDBRANCH  47  48
ENDBRANCH  46  47
ENDBRANCH  45  46
ENDBRANCH  44  45
ENDBRANCH   1  44
TORSDOF 34
ENDMDL
MODEL 2
REMARK VINA RESULT:      -9.1      1.868      2.172
REMARK SMILES CC(C)C[C@H](NC(=O)[C@H](Cc1ccccc1)NC(=O)CNC(=O)CNC(=O)OCc1ccccc1)C(=O)OCCOCCOCCOC(=O)c1ccc(-c2c3nc(c(-c4cc(S(=O)(=O)[O-])ccc4F)c4ccc([nH]4)c(-c4cc(S(=O)(=O)[O-])ccc4F)c4nc(c(-c5cc(S(=O)(=O)[O-])ccc5F)c5ccc2[nH]5)C=C4)C=C3)cc1
REMARK SMILES IDX 39 1 38 2 36 3 37 4 5 5 4 6 2 7 1 8 3 9 6 10 7 11 8 13 9 14
REMARK SMILES IDX 17 15 18 16 19 18 20 19 21 20 22 21 23 23 24 24 25 25 26 26
REMARK SMILES IDX 27 28 28 29 29 30 30 31 31 32 35 33 32 34 34 35 33 36 10 37
REMARK SMILES IDX 11 38 12 39 16 40 13 41 15 42 14 43 40 44 41 45 42 46 43 47
REMARK SMILES IDX 44 48 45 49 46 50 47 51 48 52 49 53 50 54 51 55 112 56 52 57
REMARK SMILES IDX 111 58 53 59 54 60 55 61 105 62 56 63 110 64 104 65 106 66
REMARK SMILES IDX 57 67 109 68 103 69 102 70 58 72 90 73 70 74 89 75 71 76
REMARK SMILES IDX 74 77 88 78 107 79 72 80 73 81 87 83 108 84 75 85 59 86
REMARK SMILES IDX 60 87 68 88 61 89 67 90 69 91 66 92 62 93 63 94 64 95 65 96
REMARK SMILES IDX 91 97 92 98 100 99 93 100 99 101 101 102 98 103 94 104
REMARK SMILES IDX 95 105 96 106 97 107 76 108 77 109 85 110 78 111 84 112
REMARK SMILES IDX 86 113 83 114 79 115 80 116 81 117 82 118
REMARK H PARENT 6 12 17 17 21 22 25 27 106 71 74 82
REMARK Flexibility Score: inf
ROOT
ATOM      1  C   UNL A   1      28.113  29.858  22.495  1.00  0.00     0.261 C 
ENDROOT
BRANCH   1   2
ATOM      2  O   UNL A   1      28.826  29.089  23.482  1.00  0.00    -0.462 OA
BRANCH   2   3
ATOM      3  C   UNL A   1      30.051  28.647  23.064  1.00  0.00     0.328 C 
ATOM      4  O   UNL A   1      30.340  28.520  21.875  1.00  0.00    -0.250 OA
BRANCH   3   5
ATOM      5  C   UNL A   1      30.896  27.957  24.164  1.00  0.00     0.192 C 
BRANCH   5   6
ATOM      6  C   UNL A   1      29.886  27.023  24.782  1.00  0.00     0.040 C 
BRANCH   6   7
ATOM      7  C   UNL A   1      28.827  26.491  23.747  1.00  0.00    -0.015 C 
ATOM      8  C   UNL A   1      29.463  25.245  23.132  1.00  0.00     0.007 C 
ATOM      9  C   UNL A   1      27.319  26.325  24.077  1.00  0.00     0.007 C 
ENDBRANCH   6   7
ENDBRANCH   5   6
BRANCH   5  10
ATOM     10  N   UNL A   1      31.724  28.527  25.227  1.00  0.00    -0.341 N 
ATOM     11  C   UNL A   1      32.996  28.095  25.614  1.00  0.00     0.243 C 
ATOM     12  H   UNL A   1      31.348  29.292  25.718  1.00  0.00     0.164 HD
ATOM     13  O   UNL A   1      33.752  28.989  26.018  1.00  0.00    -0.273 OA
BRANCH  11  14
ATOM     14  C   UNL A   1      33.342  26.524  25.929  1.00  0.00     0.175 C 
BRANCH  14  15
ATOM     15  N   UNL A   1      32.465  25.316  26.475  1.00  0.00    -0.342 N 
ATOM     16  C   UNL A   1      31.618  24.247  26.177  1.00  0.00     0.240 C 
ATOM     17  H   UNL A   1      32.559  25.329  27.455  1.00  0.00     0.164 HD
ATOM     18  O   UNL A   1      31.398  23.578  27.213  1.00  0.00    -0.273 OA
BRANCH  16  19
ATOM     19  C   UNL A   1      30.994  23.511  24.744  1.00  0.00     0.216 C 
BRANCH  19  20
ATOM     20  N   UNL A   1      31.478  22.360  23.770  1.00  0.00    -0.346 N 
ATOM     21  C   UNL A   1      31.875  21.050  23.541  1.00  0.00     0.239 C 
ATOM     22  H   UNL A   1      31.518  22.788  22.884  1.00  0.00     0.164 HD
ATOM     23  O   UNL A   1      32.091  20.876  22.319  1.00  0.00    -0.273 OA
BRANCH  21  24
ATOM     24  C   UNL A   1      32.126  19.648  24.479  1.00  0.00     0.219 C 
BRANCH  24  25
ATOM     25  N   UNL A   1      32.617  18.306  24.013  1.00  0.00    -0.312 N 
ATOM     26  C   UNL A   1      33.877  17.799  23.783  1.00  0.00     0.407 C 
ATOM     27  H   UNL A   1      31.895  17.661  23.837  1.00  0.00     0.167 HD
ATOM     28  O   UNL A   1      33.998  16.956  22.891  1.00  0.00    -0.225 OA
BRANCH  26  29
ATOM     29  O   UNL A   1      34.906  18.262  24.544  1.00  0.00    -0.445 OA
BRANCH  29  30
ATOM     30  C   UNL A   1      34.831  19.650  24.999  1.00  0.00     0.270 C 
BRANCH  30  31
ATOM     31  C   UNL A   1      36.007  20.640  25.119  1.00  0.00    -0.011 A 
ATOM     32  C   UNL A   1      37.362  20.338  25.096  1.00  0.00     0.007 A 
ATOM     33  C   UNL A   1      35.695  22.017  25.266  1.00  0.00     0.007 A 
ATOM     34  C   UNL A   1      38.330  21.371  25.198  1.00  0.00     0.000 A 
ATOM     35  C   UNL A   1      36.634  23.047  25.356  1.00  0.00     0.000 A 
ATOM     36  C   UNL A   1      37.970  22.719  25.322  1.00  0.00     0.000 A 
ENDBRANCH  30  31
ENDBRANCH  29  30
ENDBRANCH  26  29
ENDBRANCH  24  25
ENDBRANCH  21  24
ENDBRANCH  19  20
ENDBRANCH  16  19
ENDBRANCH  14  15
BRANCH  14  37
ATOM     37  C   UNL A   1      34.448  25.966  24.969  1.00  0.00     0.070 C 
BRANCH  37  38
ATOM     38  C   UNL A   1      33.938  25.609  23.568  1.00  0.00    -0.045 A 
ATOM     39  C   UNL A   1      33.334  26.578  22.747  1.00  0.00     0.004 A 
ATOM     40  C   UNL A   1      34.008  24.292  23.086  1.00  0.00     0.004 A 
ATOM     41  C   UNL A   1      32.782  26.234  21.506  1.00  0.00     0.000 A 
ATOM     42  C   UNL A   1      33.479  23.954  21.832  1.00  0.00     0.000 A 
ATOM     43  C   UNL A   1      32.852  24.921  21.049  1.00  0.00     0.000 A 
ENDBRANCH  37  38
ENDBRANCH  14  37
ENDBRANCH  11  14
ENDBRANCH   5  10
ENDBRANCH   3   5
ENDBRANCH   2   3
ENDBRANCH   1   2
BRANCH   1  44
ATOM     44  C   UNL A   1      28.607  31.269  22.223  1.00  0.00     0.202 C 
BRANCH  44  45
ATOM     45  O   UNL A   1      27.860  32.437  22.509  1.00  0.00    -0.376 OA
BRANCH  45  46
ATOM     46  C   UNL A   1      28.468  33.607  23.026  1.00  0.00     0.188 C 
BRANCH  46  47
ATOM     47  C   UNL A   1      29.937  33.534  23.491  1.00  0.00     0.188 C 
BRANCH  47  48
ATOM     48  O   UNL A   1      30.208  33.517  24.883  1.00  0.00    -0.376 OA
BRANCH  48  49
ATOM     49  C   UNL A   1      30.700  32.255  25.402  1.00  0.00     0.202 C 
BRANCH  49  50
ATOM     50  C   UNL A   1      31.309  32.192  26.820  1.00  0.00     0.261 C 
BRANCH  50  51
ATOM     51  O   UNL A   1      32.732  32.170  26.817  1.00  0.00    -0.460 OA
BRANCH  51  52
ATOM     52  C   UNL A   1      33.306  33.087  27.614  1.00  0.00     0.338 C 
ATOM     53  O   UNL A   1      32.775  34.108  28.065  1.00  0.00    -0.246 OA
BRANCH  52  54
ATOM     54  C   UNL A   1      34.536  32.476  28.136  1.00  0.00     0.060 A 
ATOM     55  C   UNL A   1      34.504  31.105  28.415  1.00  0.00     0.016 A 
ATOM     56  C   UNL A   1      35.748  33.189  28.171  1.00  0.00     0.016 A 
ATOM     57  C   UNL A   1      35.661  30.473  28.835  1.00  0.00     0.010 A 
ATOM     58  C   UNL A   1      36.916  32.547  28.561  1.00  0.00     0.010 A 
ATOM     59  C   UNL A   1      36.844  31.212  28.978  1.00  0.00    -0.014 A 
BRANCH  59  60
ATOM     60  C   UNL A   1      37.874  30.650  29.870  1.00  0.00     0.031 A 
ATOM     61  C   UNL A   1      38.871  29.709  29.250  1.00  0.00     0.074 A 
ATOM     62  C   UNL A   1      38.008  31.120  31.120  1.00  0.00     0.049 A 
ATOM     63  N   UNL A   1      39.987  29.245  29.740  1.00  0.00    -0.248 NA
ATOM     64  C   UNL A   1      38.577  29.235  27.884  1.00  0.00     0.031 C 
ATOM     65  C   UNL A   1      37.094  32.057  31.774  1.00  0.00     0.029 A 
ATOM     66  N   UNL A   1      38.995  30.908  32.042  1.00  0.00    -0.354 N 
ATOM     67  C   UNL A   1      40.537  28.456  28.735  1.00  0.00     0.074 A 
ATOM     68  C   UNL A   1      39.601  28.436  27.640  1.00  0.00     0.031 C 
ATOM     69  C   UNL A   1      37.585  32.367  32.985  1.00  0.00     0.029 A 
ATOM     70  C   UNL A   1      38.830  31.635  33.197  1.00  0.00     0.049 A 
ATOM     71  H   UNL A   1      39.751  30.295  31.893  1.00  0.00     0.167 HD
ATOM     72  C   UNL A   1      41.737  27.832  28.717  1.00  0.00     0.034 A 
ATOM     73  C   UNL A   1      39.611  31.694  34.293  1.00  0.00     0.034 A 
ATOM     74  C   UNL A   1      42.644  27.859  29.833  1.00  0.00     0.049 A 
ATOM     75  C   UNL A   1      40.912  30.925  34.276  1.00  0.00     0.074 A 
ATOM     76  C   UNL A   1      43.873  27.241  29.961  1.00  0.00     0.029 A 
ATOM     77  N   UNL A   1      42.410  28.539  31.022  1.00  0.00    -0.354 N 
ATOM     78  N   UNL A   1      41.428  30.191  33.313  1.00  0.00    -0.248 NA
ATOM     79  C   UNL A   1      41.744  31.014  35.479  1.00  0.00     0.031 C 
ATOM     80  C   UNL A   1      44.349  27.490  31.253  1.00  0.00     0.029 A 
ATOM     81  C   UNL A   1      43.459  28.334  31.901  1.00  0.00     0.049 A 
ATOM     82  H   UNL A   1      41.614  29.088  31.212  1.00  0.00     0.167 HD
ATOM     83  C   UNL A   1      42.657  29.745  33.794  1.00  0.00     0.074 A 
ATOM     84  C   UNL A   1      42.817  30.332  35.110  1.00  0.00     0.031 C 
ATOM     85  C   UNL A   1      43.570  28.920  33.215  1.00  0.00     0.034 A 
BRANCH  72  86
ATOM     86  C   UNL A   1      42.092  27.049  27.478  1.00  0.00     0.023 A 
ATOM     87  C   UNL A   1      41.995  25.645  27.435  1.00  0.00     0.031 A 
ATOM     88  C   UNL A   1      42.574  27.710  26.337  1.00  0.00     0.131 A 
ATOM     89  C   UNL A   1      42.428  24.947  26.296  1.00  0.00     0.055 A 
ATOM     90  C   UNL A   1      42.930  27.017  25.179  1.00  0.00     0.041 A 
ATOM     91  F   UNL A   1      42.725  29.044  26.334  1.00  0.00    -0.206 F 
ATOM     92  C   UNL A   1      42.868  25.627  25.157  1.00  0.00     0.022 A 
BRANCH  89  93
ATOM     93  S   UNL A   1      42.533  23.138  26.369  1.00  0.00     0.124 S 
ATOM     94  O   UNL A   1      43.712  22.945  27.210  1.00  0.00    -0.237 OA
ATOM     95  O   UNL A   1      41.254  22.771  26.965  1.00  0.00    -0.237 OA
ATOM     96  O   UNL A   1      42.703  22.748  24.970  1.00  0.00    -0.744 OA
ENDBRANCH  89  93
ENDBRANCH  72  86
BRANCH  73  97
ATOM     97  C   UNL A   1      39.183  32.471  35.492  1.00  0.00     0.023 A 
ATOM     98  C   UNL A   1      39.580  33.801  35.694  1.00  0.00     0.031 A 
ATOM     99  C   UNL A   1      38.416  31.856  36.500  1.00  0.00     0.131 A 
ATOM    100  C   UNL A   1      39.266  34.451  36.899  1.00  0.00     0.055 A 
ATOM    101  C   UNL A   1      38.048  32.528  37.666  1.00  0.00     0.041 A 
ATOM    102  F   UNL A   1      38.009  30.584  36.364  1.00  0.00    -0.206 F 
ATOM    103  C   UNL A   1      38.491  33.829  37.879  1.00  0.00     0.022 A 
BRANCH 100 104
ATOM    104  S   UNL A   1      39.990  36.084  37.222  1.00  0.00     0.124 S 
ATOM    105  O   UNL A   1      39.985  36.681  35.891  1.00  0.00    -0.237 OA
ATOM    106  O   UNL A   1      39.046  36.647  38.181  1.00  0.00    -0.237 OA
ATOM    107  O   UNL A   1      41.312  35.769  37.760  1.00  0.00    -0.744 OA
ENDBRANCH 100 104
ENDBRANCH  73  97
BRANCH  85 108
ATOM    108  C   UNL A   1      44.819  28.634  34.014  1.00  0.00     0.023 A 
ATOM    109  C   UNL A   1      45.980  29.408  33.854  1.00  0.00     0.031 A 
ATOM    110  C   UNL A   1      44.859  27.554  34.912  1.00  0.00     0.131 A 
ATOM    111  C   UNL A   1      47.161  29.034  34.508  1.00  0.00     0.055 A 
ATOM    112  C   UNL A   1      46.015  27.239  35.627  1.00  0.00     0.041 A 
ATOM    113  F   UNL A   1      43.778  26.783  35.107  1.00  0.00    -0.206 F 
ATOM    114  C   UNL A   1      47.181  27.967  35.409  1.00  0.00     0.022 A 
BRANCH 111 115
ATOM    115  S   UNL A   1      48.702  29.873  34.050  1.00  0.00     0.124 S 
ATOM    116  O   UNL A   1      48.976  30.669  35.242  1.00  0.00    -0.237 OA
ATOM    117  O   UNL A   1      49.606  28.753  33.811  1.00  0.00    -0.237 OA
ATOM    118  O   UNL A   1      48.334  30.639  32.862  1.00  0.00    -0.744 OA
ENDBRANCH 111 115
ENDBRANCH  85 108
ENDBRANCH  59  60
ENDBRANCH  52  54
ENDBRANCH  51  52
ENDBRANCH  50  51
ENDBRANCH  49  50
ENDBRANCH  48  49
ENDBRANCH  47  48
ENDBRANCH  46  47
ENDBRANCH  45  46
ENDBRANCH  44  45
ENDBRANCH   1  44
TORSDOF 34
ENDMDL
MODEL 3
REMARK VINA RESULT:      -8.1      1.628      2.065
REMARK SMILES CC(C)C[C@H](NC(=O)[C@H](Cc1ccccc1)NC(=O)CNC(=O)CNC(=O)OCc1ccccc1)C(=O)OCCOCCOCCOC(=O)c1ccc(-c2c3nc(c(-c4cc(S(=O)(=O)[O-])ccc4F)c4ccc([nH]4)c(-c4cc(S(=O)(=O)[O-])ccc4F)c4nc(c(-c5cc(S(=O)(=O)[O-])ccc5F)c5ccc2[nH]5)C=C4)C=C3)cc1
REMARK SMILES IDX 39 1 38 2 36 3 37 4 5 5 4 6 2 7 1 8 3 9 6 10 7 11 8 13 9 14
REMARK SMILES IDX 17 15 18 16 19 18 20 19 21 20 22 21 23 23 24 24 25 25 26 26
REMARK SMILES IDX 27 28 28 29 29 30 30 31 31 32 35 33 32 34 34 35 33 36 10 37
REMARK SMILES IDX 11 38 12 39 16 40 13 41 15 42 14 43 40 44 41 45 42 46 43 47
REMARK SMILES IDX 44 48 45 49 46 50 47 51 48 52 49 53 50 54 51 55 112 56 52 57
REMARK SMILES IDX 111 58 53 59 54 60 55 61 105 62 56 63 110 64 104 65 106 66
REMARK SMILES IDX 57 67 109 68 103 69 102 70 58 72 90 73 70 74 89 75 71 76
REMARK SMILES IDX 74 77 88 78 107 79 72 80 73 81 87 83 108 84 75 85 59 86
REMARK SMILES IDX 60 87 68 88 61 89 67 90 69 91 66 92 62 93 63 94 64 95 65 96
REMARK SMILES IDX 91 97 92 98 100 99 93 100 99 101 101 102 98 103 94 104
REMARK SMILES IDX 95 105 96 106 97 107 76 108 77 109 85 110 78 111 84 112
REMARK SMILES IDX 86 113 83 114 79 115 80 116 81 117 82 118
REMARK H PARENT 6 12 17 17 21 22 25 27 106 71 74 82
REMARK Flexibility Score: inf
ROOT
ATOM      1  C   UNL A   1      28.195  29.328  22.973  1.00  0.00     0.261 C 
ENDROOT
BRANCH   1   2
ATOM      2  O   UNL A   1      28.741  28.473  23.995  1.00  0.00    -0.462 OA
BRANCH   2   3
ATOM      3  C   UNL A   1      29.965  27.946  23.683  1.00  0.00     0.328 C 
ATOM      4  O   UNL A   1      30.423  27.964  22.541  1.00  0.00    -0.250 OA
BRANCH   3   5
ATOM      5  C   UNL A   1      30.549  26.995  24.758  1.00  0.00     0.192 C 
BRANCH   5   6
ATOM      6  C   UNL A   1      29.664  25.783  24.605  1.00  0.00     0.040 C 
BRANCH   6   7
ATOM      7  C   UNL A   1      30.471  24.468  24.301  1.00  0.00    -0.015 C 
ATOM      8  C   UNL A   1      30.081  23.494  25.412  1.00  0.00     0.007 C 
ATOM      9  C   UNL A   1      30.542  23.815  22.894  1.00  0.00     0.007 C 
ENDBRANCH   6   7
ENDBRANCH   5   6
BRANCH   5  10
ATOM     10  N   UNL A   1      30.810  27.212  26.180  1.00  0.00    -0.341 N 
ATOM     11  C   UNL A   1      31.888  27.909  26.733  1.00  0.00     0.243 C 
ATOM     12  H   UNL A   1      30.159  26.830  26.813  1.00  0.00     0.164 HD
ATOM     13  O   UNL A   1      31.639  28.510  27.786  1.00  0.00    -0.273 OA
BRANCH  11  14
ATOM     14  C   UNL A   1      33.444  27.626  26.299  1.00  0.00     0.175 C 
BRANCH  14  15
ATOM     15  N   UNL A   1      34.335  26.310  26.282  1.00  0.00    -0.342 N 
ATOM     16  C   UNL A   1      34.387  24.924  26.120  1.00  0.00     0.240 C 
ATOM     17  H   UNL A   1      35.258  26.600  26.470  1.00  0.00     0.164 HD
ATOM     18  O   UNL A   1      35.579  24.541  26.105  1.00  0.00    -0.273 OA
BRANCH  16  19
ATOM     19  C   UNL A   1      33.263  23.671  25.730  1.00  0.00     0.216 C 
BRANCH  19  20
ATOM     20  N   UNL A   1      33.150  22.579  24.588  1.00  0.00    -0.346 N 
ATOM     21  C   UNL A   1      32.861  21.289  24.165  1.00  0.00     0.239 C 
ATOM     22  H   UNL A   1      33.423  23.052  23.768  1.00  0.00     0.164 HD
ATOM     23  O   UNL A   1      33.001  21.205  22.923  1.00  0.00    -0.273 OA
BRANCH  21  24
ATOM     24  C   UNL A   1      32.364  19.828  24.891  1.00  0.00     0.219 C 
BRANCH  24  25
ATOM     25  N   UNL A   1      32.309  18.463  24.265  1.00  0.00    -0.312 N 
ATOM     26  C   UNL A   1      33.255  17.480  24.079  1.00  0.00     0.407 C 
ATOM     27  H   UNL A   1      31.419  18.225  23.918  1.00  0.00     0.167 HD
ATOM     28  O   UNL A   1      33.147  16.766  23.079  1.00  0.00    -0.225 OA
BRANCH  26  29
ATOM     29  O   UNL A   1      34.250  17.361  25.000  1.00  0.00    -0.445 OA
BRANCH  29  30
ATOM     30  C   UNL A   1      35.603  17.719  24.575  1.00  0.00     0.270 C 
BRANCH  30  31
ATOM     31  C   UNL A   1      36.323  19.056  24.838  1.00  0.00    -0.011 A 
ATOM     32  C   UNL A   1      35.735  20.299  25.031  1.00  0.00     0.007 A 
ATOM     33  C   UNL A   1      37.741  19.040  24.897  1.00  0.00     0.007 A 
ATOM     34  C   UNL A   1      36.539  21.442  25.283  1.00  0.00     0.000 A 
ATOM     35  C   UNL A   1      38.546  20.151  25.156  1.00  0.00     0.000 A 
ATOM     36  C   UNL A   1      37.936  21.369  25.352  1.00  0.00     0.000 A 
ENDBRANCH  30  31
ENDBRANCH  29  30
ENDBRANCH  26  29
ENDBRANCH  24  25
ENDBRANCH  21  24
ENDBRANCH  19  20
ENDBRANCH  16  19
ENDBRANCH  14  15
BRANCH  14  37
ATOM     37  C   UNL A   1      33.912  28.580  25.147  1.00  0.00     0.070 C 
BRANCH  37  38
ATOM     38  C   UNL A   1      33.841  27.955  23.749  1.00  0.00    -0.045 A 
ATOM     39  C   UNL A   1      33.987  28.743  22.594  1.00  0.00     0.004 A 
ATOM     40  C   UNL A   1      33.573  26.587  23.581  1.00  0.00     0.004 A 
ATOM     41  C   UNL A   1      33.827  28.191  21.315  1.00  0.00     0.000 A 
ATOM     42  C   UNL A   1      33.440  26.030  22.301  1.00  0.00     0.000 A 
ATOM     43  C   UNL A   1      33.552  26.834  21.169  1.00  0.00     0.000 A 
ENDBRANCH  37  38
ENDBRANCH  14  37
ENDBRANCH  11  14
ENDBRANCH   5  10
ENDBRANCH   3   5
ENDBRANCH   2   3
ENDBRANCH   1   2
BRANCH   1  44
ATOM     44  C   UNL A   1      28.777  30.727  22.854  1.00  0.00     0.202 C 
BRANCH  44  45
ATOM     45  O   UNL A   1      27.998  31.893  22.657  1.00  0.00    -0.376 OA
BRANCH  45  46
ATOM     46  C   UNL A   1      28.489  33.183  22.975  1.00  0.00     0.188 C 
BRANCH  46  47
ATOM     47  C   UNL A   1      29.941  33.320  23.477  1.00  0.00     0.188 C 
BRANCH  47  48
ATOM     48  O   UNL A   1      30.177  33.334  24.876  1.00  0.00    -0.376 OA
BRANCH  48  49
ATOM     49  C   UNL A   1      30.691  32.096  25.429  1.00  0.00     0.202 C 
BRANCH  49  50
ATOM     50  C   UNL A   1      31.292  32.081  26.852  1.00  0.00     0.261 C 
BRANCH  50  51
ATOM     51  O   UNL A   1      32.715  32.048  26.858  1.00  0.00    -0.460 OA
BRANCH  51  52
ATOM     52  C   UNL A   1      33.292  32.991  27.621  1.00  0.00     0.338 C 
ATOM     53  O   UNL A   1      32.758  34.021  28.050  1.00  0.00    -0.246 OA
BRANCH  52  54
ATOM     54  C   UNL A   1      34.533  32.405  28.143  1.00  0.00     0.060 A 
ATOM     55  C   UNL A   1      34.561  31.018  28.326  1.00  0.00     0.016 A 
ATOM     56  C   UNL A   1      35.705  33.171  28.272  1.00  0.00     0.016 A 
ATOM     57  C   UNL A   1      35.734  30.414  28.743  1.00  0.00     0.010 A 
ATOM     58  C   UNL A   1      36.891  32.560  28.659  1.00  0.00     0.010 A 
ATOM     59  C   UNL A   1      36.873  31.198  28.980  1.00  0.00    -0.014 A 
BRANCH  59  60
ATOM     60  C   UNL A   1      37.900  30.624  29.867  1.00  0.00     0.031 A 
ATOM     61  C   UNL A   1      38.879  29.665  29.245  1.00  0.00     0.074 A 
ATOM     62  C   UNL A   1      38.050  31.097  31.114  1.00  0.00     0.049 A 
ATOM     63  N   UNL A   1      39.991  29.186  29.730  1.00  0.00    -0.248 NA
ATOM     64  C   UNL A   1      38.569  29.189  27.884  1.00  0.00     0.031 C 
ATOM     65  C   UNL A   1      37.154  32.051  31.770  1.00  0.00     0.029 A 
ATOM     66  N   UNL A   1      39.040  30.875  32.030  1.00  0.00    -0.354 N 
ATOM     67  C   UNL A   1      40.522  28.384  28.725  1.00  0.00     0.074 A 
ATOM     68  C   UNL A   1      39.578  28.374  27.636  1.00  0.00     0.031 C 
ATOM     69  C   UNL A   1      37.658  32.359  32.977  1.00  0.00     0.029 A 
ATOM     70  C   UNL A   1      38.894  31.609  33.183  1.00  0.00     0.049 A 
ATOM     71  H   UNL A   1      39.785  30.249  31.880  1.00  0.00     0.167 HD
ATOM     72  C   UNL A   1      41.712  27.742  28.702  1.00  0.00     0.034 A 
ATOM     73  C   UNL A   1      39.683  31.662  34.274  1.00  0.00     0.034 A 
ATOM     74  C   UNL A   1      42.627  27.760  29.812  1.00  0.00     0.049 A 
ATOM     75  C   UNL A   1      40.971  30.872  34.252  1.00  0.00     0.074 A 
ATOM     76  C   UNL A   1      43.847  27.124  29.935  1.00  0.00     0.029 A 
ATOM     77  N   UNL A   1      42.411  28.449  31.000  1.00  0.00    -0.354 N 
ATOM     78  N   UNL A   1      41.470  30.127  33.289  1.00  0.00    -0.248 NA
ATOM     79  C   UNL A   1      41.813  30.954  35.449  1.00  0.00     0.031 C 
ATOM     80  C   UNL A   1      44.335  27.372  31.223  1.00  0.00     0.029 A 
ATOM     81  C   UNL A   1      43.462  28.232  31.873  1.00  0.00     0.049 A 
ATOM     82  H   UNL A   1      41.625  29.011  31.192  1.00  0.00     0.167 HD
ATOM     83  C   UNL A   1      42.695  29.664  33.764  1.00  0.00     0.074 A 
ATOM     84  C   UNL A   1      42.873  30.255  35.076  1.00  0.00     0.031 C 
ATOM     85  C   UNL A   1      43.592  28.822  33.183  1.00  0.00     0.034 A 
BRANCH  72  86
ATOM     86  C   UNL A   1      42.047  26.948  27.465  1.00  0.00     0.023 A 
ATOM     87  C   UNL A   1      41.947  25.544  27.435  1.00  0.00     0.031 A 
ATOM     88  C   UNL A   1      42.512  27.598  26.310  1.00  0.00     0.131 A 
ATOM     89  C   UNL A   1      42.362  24.836  26.295  1.00  0.00     0.055 A 
ATOM     90  C   UNL A   1      42.849  26.895  25.153  1.00  0.00     0.041 A 
ATOM     91  F   UNL A   1      42.665  28.932  26.294  1.00  0.00    -0.206 F 
ATOM     92  C   UNL A   1      42.785  25.505  25.144  1.00  0.00     0.022 A 
BRANCH  89  93
ATOM     93  S   UNL A   1      42.466  23.027  26.382  1.00  0.00     0.124 S 
ATOM     94  O   UNL A   1      41.075  22.641  26.156  1.00  0.00    -0.237 OA
ATOM     95  O   UNL A   1      43.400  22.712  25.308  1.00  0.00    -0.237 OA
ATOM     96  O   UNL A   1      42.963  22.777  27.734  1.00  0.00    -0.744 OA
ENDBRANCH  89  93
ENDBRANCH  72  86
BRANCH  73  97
ATOM     97  C   UNL A   1      39.274  32.451  35.472  1.00  0.00     0.023 A 
ATOM     98  C   UNL A   1      39.793  33.728  35.730  1.00  0.00     0.031 A 
ATOM     99  C   UNL A   1      38.399  31.894  36.424  1.00  0.00     0.131 A 
ATOM    100  C   UNL A   1      39.484  34.379  36.936  1.00  0.00     0.055 A 
ATOM    101  C   UNL A   1      38.041  32.573  37.590  1.00  0.00     0.041 A 
ATOM    102  F   UNL A   1      37.873  30.674  36.233  1.00  0.00    -0.206 F 
ATOM    103  C   UNL A   1      38.602  33.817  37.860  1.00  0.00     0.022 A 
BRANCH 100 104
ATOM    104  S   UNL A   1      40.352  35.921  37.339  1.00  0.00     0.124 S 
ATOM    105  O   UNL A   1      41.041  36.212  36.087  1.00  0.00    -0.237 OA
ATOM    106  O   UNL A   1      39.245  36.808  37.684  1.00  0.00    -0.237 OA
ATOM    107  O   UNL A   1      41.217  35.543  38.455  1.00  0.00    -0.744 OA
ENDBRANCH 100 104
ENDBRANCH  73  97
BRANCH  85 108
ATOM    108  C   UNL A   1      44.841  28.521  33.975  1.00  0.00     0.023 A 
ATOM    109  C   UNL A   1      44.873  27.481  34.920  1.00  0.00     0.031 A 
ATOM    110  C   UNL A   1      45.996  29.304  33.811  1.00  0.00     0.131 A 
ATOM    111  C   UNL A   1      46.001  27.314  35.732  1.00  0.00     0.055 A 
ATOM    112  C   UNL A   1      47.148  29.077  34.563  1.00  0.00     0.041 A 
ATOM    113  F   UNL A   1      46.023  30.308  32.919  1.00  0.00    -0.206 F 
ATOM    114  C   UNL A   1      47.147  28.092  35.547  1.00  0.00     0.022 A 
BRANCH 111 115
ATOM    115  S   UNL A   1      45.893  26.165  37.131  1.00  0.00     0.124 S 
ATOM    116  O   UNL A   1      46.658  25.023  36.641  1.00  0.00    -0.237 OA
ATOM    117  O   UNL A   1      46.509  26.930  38.210  1.00  0.00    -0.237 OA
ATOM    118  O   UNL A   1      44.457  25.936  37.274  1.00  0.00    -0.744 OA
ENDBRANCH 111 115
ENDBRANCH  85 108
ENDBRANCH  59  60
ENDBRANCH  52  54
ENDBRANCH  51  52
ENDBRANCH  50  51
ENDBRANCH  49  50
ENDBRANCH  48  49
ENDBRANCH  47  48
ENDBRANCH  46  47
ENDBRANCH  45  46
ENDBRANCH  44  45
ENDBRANCH   1  44
TORSDOF 34
ENDMDL
