MODEL 1
REMARK VINA RESULT:     -10.2      0.000      0.000
REMARK SMILES O=C(CCS(=O)(=O)c1ccc2[nH]c(=O)oc2c1)OCCOCCOCCOC(=O)c1ccc(-c2c3nc(c(-c4cc(S(=O)(=O)[O-])ccc4F)c4ccc([nH]4)c(-c4cc(S(=O)(=O)[O-])ccc4F)c4nc(c(-c5cc(S(=O)(=O)[O-])ccc5F)c5ccc2[nH]5)C=C4)C=C3)cc1
REMARK SMILES IDX 22 1 21 2 20 3 19 4 18 5 2 6 1 7 3 8 4 9 5 10 6 11 7 12 8 13
REMARK SMILES IDX 9 14 17 15 10 16 16 17 11 18 15 19 12 20 13 21 14 23 23 24
REMARK SMILES IDX 24 25 25 26 26 27 27 28 28 29 29 30 30 31 31 32 92 33 32 34
REMARK SMILES IDX 91 35 33 36 34 37 35 38 85 39 36 40 90 41 84 42 86 43 37 44
REMARK SMILES IDX 89 45 83 46 82 47 38 49 70 50 50 51 69 52 51 53 54 54 68 55
REMARK SMILES IDX 87 56 52 57 53 58 67 60 88 61 55 62 39 63 40 64 48 65 41 66
REMARK SMILES IDX 47 67 49 68 46 69 42 70 43 71 44 72 45 73 71 74 72 75 80 76
REMARK SMILES IDX 73 77 79 78 81 79 78 80 74 81 75 82 76 83 77 84 56 85 57 86
REMARK SMILES IDX 65 87 58 88 64 89 66 90 63 91 59 92 60 93 61 94 62 95
REMARK H PARENT 12 22 86 48 54 59
REMARK Flexibility Score: inf
ROOT
ATOM      1  C   UNL A   1      33.627  23.415  24.676  1.00  0.00     0.188 C 
ENDROOT
BRANCH   1   2
ATOM      2  O   UNL A   1      32.308  22.903  24.576  1.00  0.00    -0.376 OA
BRANCH   2   3
ATOM      3  C   UNL A   1      31.651  22.345  25.694  1.00  0.00     0.202 C 
BRANCH   3   4
ATOM      4  C   UNL A   1      31.242  23.273  26.835  1.00  0.00     0.261 C 
BRANCH   4   5
ATOM      5  O   UNL A   1      30.199  24.236  26.587  1.00  0.00    -0.463 OA
BRANCH   5   6
ATOM      6  C   UNL A   1      30.310  25.502  26.151  1.00  0.00     0.306 C 
ATOM      7  O   UNL A   1      30.917  26.328  26.832  1.00  0.00    -0.252 OA
BRANCH   6   8
ATOM      8  C   UNL A   1      29.755  25.888  24.818  1.00  0.00     0.139 C 
BRANCH   8   9
ATOM      9  C   UNL A   1      30.814  25.805  23.739  1.00  0.00     0.154 C 
BRANCH   9  10
ATOM     10  S   UNL A   1      31.238  27.366  22.998  1.00  0.00     0.179 S 
ATOM     11  O   UNL A   1      32.283  27.098  22.025  1.00  0.00    -0.224 OA
ATOM     12  O   UNL A   1      30.012  28.022  22.592  1.00  0.00    -0.224 OA
BRANCH  10  13
ATOM     13  C   UNL A   1      31.963  28.432  24.234  1.00  0.00     0.071 A 
ATOM     14  C   UNL A   1      31.264  29.555  24.727  1.00  0.00     0.023 A 
ATOM     15  C   UNL A   1      33.190  28.039  24.796  1.00  0.00     0.069 A 
ATOM     16  C   UNL A   1      31.725  30.233  25.861  1.00  0.00     0.031 A 
ATOM     17  C   UNL A   1      33.634  28.747  25.892  1.00  0.00     0.157 A 
ATOM     18  C   UNL A   1      32.903  29.793  26.414  1.00  0.00     0.087 A 
ATOM     19  O   UNL A   1      34.783  28.485  26.622  1.00  0.00    -0.408 OA
ATOM     20  N   UNL A   1      33.578  30.215  27.522  1.00  0.00    -0.287 N 
ATOM     21  C   UNL A   1      34.709  29.441  27.646  1.00  0.00     0.417 A 
ATOM     22  H   UNL A   1      33.305  30.943  28.125  1.00  0.00     0.173 HD
ATOM     23  O   UNL A   1      35.547  29.563  28.524  1.00  0.00    -0.224 OA
ENDBRANCH  10  13
ENDBRANCH   9  10
ENDBRANCH   8   9
ENDBRANCH   6   8
ENDBRANCH   5   6
ENDBRANCH   4   5
ENDBRANCH   3   4
ENDBRANCH   2   3
ENDBRANCH   1   2
BRANCH   1  24
ATOM     24  C   UNL A   1      34.624  23.331  23.509  1.00  0.00     0.188 C 
BRANCH  24  25
ATOM     25  O   UNL A   1      35.767  22.531  23.778  1.00  0.00    -0.376 OA
BRANCH  25  26
ATOM     26  C   UNL A   1      35.579  21.506  24.744  1.00  0.00     0.202 C 
BRANCH  26  27
ATOM     27  C   UNL A   1      36.870  20.933  25.341  1.00  0.00     0.261 C 
BRANCH  27  28
ATOM     28  O   UNL A   1      38.027  21.784  25.303  1.00  0.00    -0.460 OA
BRANCH  28  29
ATOM     29  C   UNL A   1      39.091  21.442  26.067  1.00  0.00     0.338 C 
ATOM     30  O   UNL A   1      39.589  20.338  26.159  1.00  0.00    -0.246 OA
BRANCH  29  31
ATOM     31  C   UNL A   1      39.666  22.696  26.623  1.00  0.00     0.060 A 
ATOM     32  C   UNL A   1      39.122  23.928  26.230  1.00  0.00     0.016 A 
ATOM     33  C   UNL A   1      40.674  22.653  27.590  1.00  0.00     0.016 A 
ATOM     34  C   UNL A   1      39.596  25.118  26.797  1.00  0.00     0.010 A 
ATOM     35  C   UNL A   1      41.170  23.845  28.131  1.00  0.00     0.010 A 
ATOM     36  C   UNL A   1      40.653  25.086  27.718  1.00  0.00    -0.014 A 
BRANCH  36  37
ATOM     37  C   UNL A   1      41.393  26.335  28.043  1.00  0.00     0.031 A 
ATOM     38  C   UNL A   1      40.633  27.420  28.761  1.00  0.00     0.074 A 
ATOM     39  C   UNL A   1      42.687  26.520  27.723  1.00  0.00     0.049 A 
ATOM     40  N   UNL A   1      41.014  28.622  29.106  1.00  0.00    -0.248 NA
ATOM     41  C   UNL A   1      39.245  27.097  29.131  1.00  0.00     0.031 C 
ATOM     42  C   UNL A   1      43.549  25.538  27.070  1.00  0.00     0.029 A 
ATOM     43  N   UNL A   1      43.502  27.615  27.901  1.00  0.00    -0.354 N 
ATOM     44  C   UNL A   1      39.915  29.198  29.735  1.00  0.00     0.074 A 
ATOM     45  C   UNL A   1      38.842  28.229  29.686  1.00  0.00     0.031 C 
ATOM     46  C   UNL A   1      44.769  26.080  26.890  1.00  0.00     0.029 A 
ATOM     47  C   UNL A   1      44.766  27.459  27.379  1.00  0.00     0.049 A 
ATOM     48  H   UNL A   1      43.207  28.434  28.359  1.00  0.00     0.167 HD
ATOM     49  C   UNL A   1      39.808  30.420  30.310  1.00  0.00     0.034 A 
ATOM     50  C   UNL A   1      45.788  28.336  27.285  1.00  0.00     0.034 A 
ATOM     51  C   UNL A   1      40.872  31.393  30.329  1.00  0.00     0.049 A 
ATOM     52  C   UNL A   1      45.614  29.736  27.840  1.00  0.00     0.074 A 
ATOM     53  C   UNL A   1      40.870  32.659  30.885  1.00  0.00     0.029 A 
ATOM     54  N   UNL A   1      42.120  31.215  29.747  1.00  0.00    -0.354 N 
ATOM     55  N   UNL A   1      44.575  30.265  28.446  1.00  0.00    -0.248 NA
ATOM     56  C   UNL A   1      46.753  30.654  27.701  1.00  0.00     0.031 C 
ATOM     57  C   UNL A   1      42.086  33.275  30.572  1.00  0.00     0.029 A 
ATOM     58  C   UNL A   1      42.883  32.363  29.900  1.00  0.00     0.049 A 
ATOM     59  H   UNL A   1      42.420  30.395  29.293  1.00  0.00     0.167 HD
ATOM     60  C   UNL A   1      44.954  31.561  28.794  1.00  0.00     0.074 A 
ATOM     61  C   UNL A   1      46.317  31.731  28.337  1.00  0.00     0.031 C 
ATOM     62  C   UNL A   1      44.242  32.523  29.438  1.00  0.00     0.034 A 
BRANCH  49  63
ATOM     63  C   UNL A   1      38.472  30.784  30.909  1.00  0.00     0.023 A 
ATOM     64  C   UNL A   1      37.533  31.558  30.204  1.00  0.00     0.031 A 
ATOM     65  C   UNL A   1      38.150  30.389  32.219  1.00  0.00     0.131 A 
ATOM     66  C   UNL A   1      36.353  31.974  30.839  1.00  0.00     0.055 A 
ATOM     67  C   UNL A   1      36.937  30.735  32.815  1.00  0.00     0.041 A 
ATOM     68  F   UNL A   1      39.019  29.673  32.950  1.00  0.00    -0.206 F 
ATOM     69  C   UNL A   1      36.036  31.545  32.130  1.00  0.00     0.022 A 
BRANCH  66  70
ATOM     70  S   UNL A   1      35.312  33.206  30.010  1.00  0.00     0.124 S 
ATOM     71  O   UNL A   1      36.174  33.629  28.908  1.00  0.00    -0.237 OA
ATOM     72  O   UNL A   1      34.136  32.428  29.638  1.00  0.00    -0.237 OA
ATOM     73  O   UNL A   1      35.090  34.218  31.042  1.00  0.00    -0.744 OA
ENDBRANCH  66  70
ENDBRANCH  49  63
BRANCH  50  74
ATOM     74  C   UNL A   1      47.063  27.958  26.603  1.00  0.00     0.023 A 
ATOM     75  C   UNL A   1      47.198  28.039  25.206  1.00  0.00     0.031 A 
ATOM     76  C   UNL A   1      48.142  27.430  27.334  1.00  0.00     0.131 A 
ATOM     77  C   UNL A   1      48.359  27.553  24.583  1.00  0.00     0.055 A 
ATOM     78  C   UNL A   1      49.319  27.001  26.714  1.00  0.00     0.041 A 
ATOM     79  F   UNL A   1      48.069  27.319  28.670  1.00  0.00    -0.206 F 
ATOM     80  C   UNL A   1      49.426  27.047  25.329  1.00  0.00     0.022 A 
BRANCH  77  81
ATOM     81  S   UNL A   1      48.418  27.501  22.769  1.00  0.00     0.124 S 
ATOM     82  O   UNL A   1      47.247  28.292  22.411  1.00  0.00    -0.237 OA
ATOM     83  O   UNL A   1      49.715  28.110  22.492  1.00  0.00    -0.237 OA
ATOM     84  O   UNL A   1      48.326  26.073  22.468  1.00  0.00    -0.744 OA
ENDBRANCH  77  81
ENDBRANCH  50  74
BRANCH  62  85
ATOM     85  C   UNL A   1      44.945  33.825  29.742  1.00  0.00     0.023 A 
ATOM     86  C   UNL A   1      44.913  34.918  28.857  1.00  0.00     0.031 A 
ATOM     87  C   UNL A   1      45.657  33.976  30.947  1.00  0.00     0.131 A 
ATOM     88  C   UNL A   1      45.622  36.089  29.166  1.00  0.00     0.055 A 
ATOM     89  C   UNL A   1      46.305  35.166  31.278  1.00  0.00     0.041 A 
ATOM     90  F   UNL A   1      45.724  32.967  31.831  1.00  0.00    -0.206 F 
ATOM     91  C   UNL A   1      46.301  36.227  30.379  1.00  0.00     0.022 A 
BRANCH  88  92
ATOM     92  S   UNL A   1      45.721  37.404  27.919  1.00  0.00     0.124 S 
ATOM     93  O   UNL A   1      46.114  36.660  26.726  1.00  0.00    -0.237 OA
ATOM     94  O   UNL A   1      44.364  37.939  27.919  1.00  0.00    -0.237 OA
ATOM     95  O   UNL A   1      46.742  38.306  28.451  1.00  0.00    -0.744 OA
ENDBRANCH  88  92
ENDBRANCH  62  85
ENDBRANCH  36  37
ENDBRANCH  29  31
ENDBRANCH  28  29
ENDBRANCH  27  28
ENDBRANCH  26  27
ENDBRANCH  25  26
ENDBRANCH  24  25
ENDBRANCH   1  24
TORSDOF 23
ENDMDL
MODEL 2
REMARK VINA RESULT:      -9.7      4.844      9.565
REMARK SMILES O=C(CCS(=O)(=O)c1ccc2[nH]c(=O)oc2c1)OCCOCCOCCOC(=O)c1ccc(-c2c3nc(c(-c4cc(S(=O)(=O)[O-])ccc4F)c4ccc([nH]4)c(-c4cc(S(=O)(=O)[O-])ccc4F)c4nc(c(-c5cc(S(=O)(=O)[O-])ccc5F)c5ccc2[nH]5)C=C4)C=C3)cc1
REMARK SMILES IDX 22 1 21 2 20 3 19 4 18 5 2 6 1 7 3 8 4 9 5 10 6 11 7 12 8 13
REMARK SMILES IDX 9 14 17 15 10 16 16 17 11 18 15 19 12 20 13 21 14 23 23 24
REMARK SMILES IDX 24 25 25 26 26 27 27 28 28 29 29 30 30 31 31 32 92 33 32 34
REMARK SMILES IDX 91 35 33 36 34 37 35 38 85 39 36 40 90 41 84 42 86 43 37 44
REMARK SMILES IDX 89 45 83 46 82 47 38 49 70 50 50 51 69 52 51 53 54 54 68 55
REMARK SMILES IDX 87 56 52 57 53 58 67 60 88 61 55 62 39 63 40 64 48 65 41 66
REMARK SMILES IDX 47 67 49 68 46 69 42 70 43 71 44 72 45 73 71 74 72 75 80 76
REMARK SMILES IDX 73 77 79 78 81 79 78 80 74 81 75 82 76 83 77 84 56 85 57 86
REMARK SMILES IDX 65 87 58 88 64 89 66 90 63 91 59 92 60 93 61 94 62 95
REMARK H PARENT 12 22 86 48 54 59
REMARK Flexibility Score: inf
ROOT
ATOM      1  C   UNL A   1      42.236  20.336  26.085  1.00  0.00     0.188 C 
ENDROOT
BRANCH   1   2
ATOM      2  O   UNL A   1      42.323  21.435  26.978  1.00  0.00    -0.376 OA
BRANCH   2   3
ATOM      3  C   UNL A   1      41.165  22.099  27.439  1.00  0.00     0.202 C 
BRANCH   3   4
ATOM      4  C   UNL A   1      39.801  21.566  27.008  1.00  0.00     0.261 C 
BRANCH   4   5
ATOM      5  O   UNL A   1      39.127  22.225  25.918  1.00  0.00    -0.463 OA
BRANCH   5   6
ATOM      6  C   UNL A   1      37.968  21.895  25.324  1.00  0.00     0.306 C 
ATOM      7  O   UNL A   1      37.636  20.713  25.256  1.00  0.00    -0.252 OA
BRANCH   6   8
ATOM      8  C   UNL A   1      37.059  22.963  24.807  1.00  0.00     0.139 C 
BRANCH   8   9
ATOM      9  C   UNL A   1      35.945  22.374  23.966  1.00  0.00     0.154 C 
BRANCH   9  10
ATOM     10  S   UNL A   1      34.721  23.550  23.435  1.00  0.00     0.179 S 
ATOM     11  O   UNL A   1      35.390  24.837  23.337  1.00  0.00    -0.224 OA
ATOM     12  O   UNL A   1      34.030  22.997  22.288  1.00  0.00    -0.224 OA
BRANCH  10  13
ATOM     13  C   UNL A   1      33.476  23.725  24.704  1.00  0.00     0.071 A 
ATOM     14  C   UNL A   1      33.253  24.967  25.335  1.00  0.00     0.023 A 
ATOM     15  C   UNL A   1      32.639  22.624  24.954  1.00  0.00     0.069 A 
ATOM     16  C   UNL A   1      32.122  25.159  26.139  1.00  0.00     0.031 A 
ATOM     17  C   UNL A   1      31.553  22.835  25.774  1.00  0.00     0.157 A 
ATOM     18  C   UNL A   1      31.299  24.075  26.324  1.00  0.00     0.087 A 
ATOM     19  O   UNL A   1      30.581  21.902  26.098  1.00  0.00    -0.408 OA
ATOM     20  N   UNL A   1      30.125  23.956  27.008  1.00  0.00    -0.287 N 
ATOM     21  C   UNL A   1      29.695  22.655  26.883  1.00  0.00     0.417 A 
ATOM     22  H   UNL A   1      29.667  24.673  27.502  1.00  0.00     0.173 HD
ATOM     23  O   UNL A   1      28.681  22.202  27.389  1.00  0.00    -0.224 OA
ENDBRANCH  10  13
ENDBRANCH   9  10
ENDBRANCH   8   9
ENDBRANCH   6   8
ENDBRANCH   5   6
ENDBRANCH   4   5
ENDBRANCH   3   4
ENDBRANCH   2   3
ENDBRANCH   1   2
BRANCH   1  24
ATOM     24  C   UNL A   1      43.484  19.589  25.589  1.00  0.00     0.188 C 
BRANCH  24  25
ATOM     25  O   UNL A   1      44.087  20.164  24.438  1.00  0.00    -0.376 OA
BRANCH  25  26
ATOM     26  C   UNL A   1      44.973  21.246  24.693  1.00  0.00     0.202 C 
BRANCH  26  27
ATOM     27  C   UNL A   1      44.596  22.567  24.011  1.00  0.00     0.261 C 
BRANCH  27  28
ATOM     28  O   UNL A   1      44.001  23.573  24.846  1.00  0.00    -0.460 OA
BRANCH  28  29
ATOM     29  C   UNL A   1      44.700  24.713  25.063  1.00  0.00     0.338 C 
ATOM     30  O   UNL A   1      45.712  25.059  24.486  1.00  0.00    -0.246 OA
BRANCH  29  31
ATOM     31  C   UNL A   1      43.904  25.558  25.991  1.00  0.00     0.060 A 
ATOM     32  C   UNL A   1      44.218  26.920  26.112  1.00  0.00     0.016 A 
ATOM     33  C   UNL A   1      42.802  25.031  26.671  1.00  0.00     0.016 A 
ATOM     34  C   UNL A   1      43.436  27.753  26.923  1.00  0.00     0.010 A 
ATOM     35  C   UNL A   1      42.042  25.857  27.507  1.00  0.00     0.010 A 
ATOM     36  C   UNL A   1      42.369  27.216  27.659  1.00  0.00    -0.014 A 
BRANCH  36  37
ATOM     37  C   UNL A   1      41.774  27.995  28.778  1.00  0.00     0.031 A 
ATOM     38  C   UNL A   1      42.508  27.982  30.094  1.00  0.00     0.074 A 
ATOM     39  C   UNL A   1      40.629  28.692  28.653  1.00  0.00     0.049 A 
ATOM     40  N   UNL A   1      42.182  28.519  31.240  1.00  0.00    -0.248 NA
ATOM     41  C   UNL A   1      43.785  27.251  30.111  1.00  0.00     0.031 C 
ATOM     42  C   UNL A   1      39.845  28.825  27.428  1.00  0.00     0.029 A 
ATOM     43  N   UNL A   1      39.921  29.417  29.585  1.00  0.00    -0.354 N 
ATOM     44  C   UNL A   1      43.213  28.193  32.114  1.00  0.00     0.074 A 
ATOM     45  C   UNL A   1      44.152  27.378  31.376  1.00  0.00     0.031 C 
ATOM     46  C   UNL A   1      38.756  29.575  27.687  1.00  0.00     0.029 A 
ATOM     47  C   UNL A   1      38.745  29.944  29.103  1.00  0.00     0.049 A 
ATOM     48  H   UNL A   1      40.228  29.547  30.511  1.00  0.00     0.167 HD
ATOM     49  C   UNL A   1      43.371  28.546  33.414  1.00  0.00     0.034 A 
ATOM     50  C   UNL A   1      37.764  30.621  29.738  1.00  0.00     0.034 A 
ATOM     51  C   UNL A   1      42.415  29.333  34.152  1.00  0.00     0.049 A 
ATOM     52  C   UNL A   1      37.908  30.915  31.218  1.00  0.00     0.074 A 
ATOM     53  C   UNL A   1      42.478  29.748  35.469  1.00  0.00     0.029 A 
ATOM     54  N   UNL A   1      41.214  29.807  33.641  1.00  0.00    -0.354 N 
ATOM     55  N   UNL A   1      38.895  30.615  32.031  1.00  0.00    -0.248 NA
ATOM     56  C   UNL A   1      36.806  31.644  31.862  1.00  0.00     0.031 C 
ATOM     57  C   UNL A   1      41.281  30.404  35.778  1.00  0.00     0.029 A 
ATOM     58  C   UNL A   1      40.511  30.478  34.629  1.00  0.00     0.049 A 
ATOM     59  H   UNL A   1      40.906  29.684  32.715  1.00  0.00     0.167 HD
ATOM     60  C   UNL A   1      38.548  31.154  33.270  1.00  0.00     0.074 A 
ATOM     61  C   UNL A   1      37.267  31.804  33.094  1.00  0.00     0.031 C 
ATOM     62  C   UNL A   1      39.230  31.120  34.445  1.00  0.00     0.034 A 
BRANCH  49  63
ATOM     63  C   UNL A   1      44.596  28.027  34.124  1.00  0.00     0.023 A 
ATOM     64  C   UNL A   1      44.576  26.819  34.844  1.00  0.00     0.031 A 
ATOM     65  C   UNL A   1      45.789  28.769  34.116  1.00  0.00     0.131 A 
ATOM     66  C   UNL A   1      45.700  26.429  35.587  1.00  0.00     0.055 A 
ATOM     67  C   UNL A   1      46.932  28.333  34.788  1.00  0.00     0.041 A 
ATOM     68  F   UNL A   1      45.859  29.943  33.469  1.00  0.00    -0.206 F 
ATOM     69  C   UNL A   1      46.888  27.165  35.542  1.00  0.00     0.022 A 
BRANCH  66  70
ATOM     70  S   UNL A   1      45.540  25.033  36.733  1.00  0.00     0.124 S 
ATOM     71  O   UNL A   1      46.417  25.446  37.827  1.00  0.00    -0.237 OA
ATOM     72  O   UNL A   1      44.112  25.027  37.027  1.00  0.00    -0.237 OA
ATOM     73  O   UNL A   1      46.021  23.893  35.954  1.00  0.00    -0.744 OA
ENDBRANCH  66  70
ENDBRANCH  49  63
BRANCH  50  74
ATOM     74  C   UNL A   1      36.525  31.038  29.012  1.00  0.00     0.023 A 
ATOM     75  C   UNL A   1      35.633  30.090  28.482  1.00  0.00     0.031 A 
ATOM     76  C   UNL A   1      36.259  32.397  28.765  1.00  0.00     0.131 A 
ATOM     77  C   UNL A   1      34.550  30.510  27.693  1.00  0.00     0.055 A 
ATOM     78  C   UNL A   1      35.147  32.812  28.027  1.00  0.00     0.041 A 
ATOM     79  F   UNL A   1      37.080  33.348  29.239  1.00  0.00    -0.206 F 
ATOM     80  C   UNL A   1      34.294  31.865  27.473  1.00  0.00     0.022 A 
BRANCH  77  81
ATOM     81  S   UNL A   1      33.531  29.252  26.871  1.00  0.00     0.124 S 
ATOM     82  O   UNL A   1      32.365  29.197  27.744  1.00  0.00    -0.237 OA
ATOM     83  O   UNL A   1      33.322  29.846  25.555  1.00  0.00    -0.237 OA
ATOM     84  O   UNL A   1      34.382  28.063  26.886  1.00  0.00    -0.744 OA
ENDBRANCH  77  81
ENDBRANCH  50  74
BRANCH  62  85
ATOM     85  C   UNL A   1      38.632  31.860  35.619  1.00  0.00     0.023 A 
ATOM     86  C   UNL A   1      38.089  31.187  36.729  1.00  0.00     0.031 A 
ATOM     87  C   UNL A   1      38.610  33.267  35.628  1.00  0.00     0.131 A 
ATOM     88  C   UNL A   1      37.503  31.920  37.773  1.00  0.00     0.055 A 
ATOM     89  C   UNL A   1      38.085  33.991  36.698  1.00  0.00     0.041 A 
ATOM     90  F   UNL A   1      39.112  33.964  34.595  1.00  0.00    -0.206 F 
ATOM     91  C   UNL A   1      37.516  33.318  37.774  1.00  0.00     0.022 A 
BRANCH  88  92
ATOM     92  S   UNL A   1      36.642  31.022  39.094  1.00  0.00     0.124 S 
ATOM     93  O   UNL A   1      37.614  31.077  40.181  1.00  0.00    -0.237 OA
ATOM     94  O   UNL A   1      35.433  31.819  39.278  1.00  0.00    -0.237 OA
ATOM     95  O   UNL A   1      36.427  29.694  38.522  1.00  0.00    -0.744 OA
ENDBRANCH  88  92
ENDBRANCH  62  85
ENDBRANCH  36  37
ENDBRANCH  29  31
ENDBRANCH  28  29
ENDBRANCH  27  28
ENDBRANCH  26  27
ENDBRANCH  25  26
ENDBRANCH  24  25
ENDBRANCH   1  24
TORSDOF 23
ENDMDL
MODEL 3
REMARK VINA RESULT:      -9.7      2.346      3.598
REMARK SMILES O=C(CCS(=O)(=O)c1ccc2[nH]c(=O)oc2c1)OCCOCCOCCOC(=O)c1ccc(-c2c3nc(c(-c4cc(S(=O)(=O)[O-])ccc4F)c4ccc([nH]4)c(-c4cc(S(=O)(=O)[O-])ccc4F)c4nc(c(-c5cc(S(=O)(=O)[O-])ccc5F)c5ccc2[nH]5)C=C4)C=C3)cc1
REMARK SMILES IDX 22 1 21 2 20 3 19 4 18 5 2 6 1 7 3 8 4 9 5 10 6 11 7 12 8 13
REMARK SMILES IDX 9 14 17 15 10 16 16 17 11 18 15 19 12 20 13 21 14 23 23 24
REMARK SMILES IDX 24 25 25 26 26 27 27 28 28 29 29 30 30 31 31 32 92 33 32 34
REMARK SMILES IDX 91 35 33 36 34 37 35 38 85 39 36 40 90 41 84 42 86 43 37 44
REMARK SMILES IDX 89 45 83 46 82 47 38 49 70 50 50 51 69 52 51 53 54 54 68 55
REMARK SMILES IDX 87 56 52 57 53 58 67 60 88 61 55 62 39 63 40 64 48 65 41 66
REMARK SMILES IDX 47 67 49 68 46 69 42 70 43 71 44 72 45 73 71 74 72 75 80 76
REMARK SMILES IDX 73 77 79 78 81 79 78 80 74 81 75 82 76 83 77 84 56 85 57 86
REMARK SMILES IDX 65 87 58 88 64 89 66 90 63 91 59 92 60 93 61 94 62 95
REMARK H PARENT 12 22 86 48 54 59
REMARK Flexibility Score: inf
ROOT
ATOM      1  C   UNL A   1      36.399  22.006  25.762  1.00  0.00     0.188 C 
ENDROOT
BRANCH   1   2
ATOM      2  O   UNL A   1      35.483  21.974  24.679  1.00  0.00    -0.376 OA
BRANCH   2   3
ATOM      3  C   UNL A   1      34.183  21.444  24.834  1.00  0.00     0.202 C 
BRANCH   3   4
ATOM      4  C   UNL A   1      33.404  21.787  26.101  1.00  0.00     0.261 C 
BRANCH   4   5
ATOM      5  O   UNL A   1      31.974  21.940  26.000  1.00  0.00    -0.463 OA
BRANCH   5   6
ATOM      6  C   UNL A   1      31.198  22.925  26.480  1.00  0.00     0.306 C 
ATOM      7  O   UNL A   1      30.781  22.862  27.635  1.00  0.00    -0.252 OA
BRANCH   6   8
ATOM      8  C   UNL A   1      30.897  24.123  25.637  1.00  0.00     0.139 C 
BRANCH   8   9
ATOM      9  C   UNL A   1      31.571  25.363  26.185  1.00  0.00     0.154 C 
BRANCH   9  10
ATOM     10  S   UNL A   1      32.904  25.982  25.184  1.00  0.00     0.179 S 
ATOM     11  O   UNL A   1      33.917  26.484  26.099  1.00  0.00    -0.224 OA
ATOM     12  O   UNL A   1      33.243  24.971  24.204  1.00  0.00    -0.224 OA
BRANCH  10  13
ATOM     13  C   UNL A   1      32.335  27.389  24.243  1.00  0.00     0.071 A 
ATOM     14  C   UNL A   1      33.249  28.244  23.589  1.00  0.00     0.023 A 
ATOM     15  C   UNL A   1      30.949  27.537  24.062  1.00  0.00     0.069 A 
ATOM     16  C   UNL A   1      32.795  29.185  22.657  1.00  0.00     0.031 A 
ATOM     17  C   UNL A   1      30.532  28.494  23.163  1.00  0.00     0.157 A 
ATOM     18  C   UNL A   1      31.436  29.270  22.470  1.00  0.00     0.087 A 
ATOM     19  O   UNL A   1      29.220  28.757  22.802  1.00  0.00    -0.408 OA
ATOM     20  N   UNL A   1      30.703  30.047  21.622  1.00  0.00    -0.287 N 
ATOM     21  C   UNL A   1      29.374  29.749  21.823  1.00  0.00     0.417 A 
ATOM     22  H   UNL A   1      31.060  30.702  20.981  1.00  0.00     0.173 HD
ATOM     23  O   UNL A   1      28.443  30.276  21.236  1.00  0.00    -0.224 OA
ENDBRANCH  10  13
ENDBRANCH   9  10
ENDBRANCH   8   9
ENDBRANCH   6   8
ENDBRANCH   5   6
ENDBRANCH   4   5
ENDBRANCH   3   4
ENDBRANCH   2   3
ENDBRANCH   1   2
BRANCH   1  24
ATOM     24  C   UNL A   1      37.755  22.721  25.660  1.00  0.00     0.188 C 
BRANCH  24  25
ATOM     25  O   UNL A   1      38.873  21.890  25.939  1.00  0.00    -0.376 OA
BRANCH  25  26
ATOM     26  C   UNL A   1      38.807  20.579  25.397  1.00  0.00     0.202 C 
BRANCH  26  27
ATOM     27  C   UNL A   1      39.767  19.565  26.032  1.00  0.00     0.261 C 
BRANCH  27  28
ATOM     28  O   UNL A   1      41.029  19.378  25.372  1.00  0.00    -0.460 OA
BRANCH  28  29
ATOM     29  C   UNL A   1      42.150  19.381  26.133  1.00  0.00     0.338 C 
ATOM     30  O   UNL A   1      42.851  18.422  26.388  1.00  0.00    -0.246 OA
BRANCH  29  31
ATOM     31  C   UNL A   1      42.481  20.798  26.440  1.00  0.00     0.060 A 
ATOM     32  C   UNL A   1      42.706  21.690  25.381  1.00  0.00     0.016 A 
ATOM     33  C   UNL A   1      42.484  21.262  27.758  1.00  0.00     0.016 A 
ATOM     34  C   UNL A   1      42.945  23.045  25.642  1.00  0.00     0.010 A 
ATOM     35  C   UNL A   1      42.757  22.610  28.019  1.00  0.00     0.010 A 
ATOM     36  C   UNL A   1      43.015  23.504  26.965  1.00  0.00    -0.014 A 
BRANCH  36  37
ATOM     37  C   UNL A   1      43.616  24.833  27.260  1.00  0.00     0.031 A 
ATOM     38  C   UNL A   1      42.689  25.917  27.745  1.00  0.00     0.074 A 
ATOM     39  C   UNL A   1      44.930  25.088  27.110  1.00  0.00     0.049 A 
ATOM     40  N   UNL A   1      42.936  27.172  28.013  1.00  0.00    -0.248 NA
ATOM     41  C   UNL A   1      41.286  25.521  27.945  1.00  0.00     0.031 C 
ATOM     42  C   UNL A   1      45.941  24.120  26.692  1.00  0.00     0.029 A 
ATOM     43  N   UNL A   1      45.636  26.256  27.287  1.00  0.00    -0.354 N 
ATOM     44  C   UNL A   1      41.721  27.716  28.415  1.00  0.00     0.074 A 
ATOM     45  C   UNL A   1      40.732  26.665  28.315  1.00  0.00     0.031 C 
ATOM     46  C   UNL A   1      47.136  24.738  26.632  1.00  0.00     0.029 A 
ATOM     47  C   UNL A   1      46.971  26.152  26.969  1.00  0.00     0.049 A 
ATOM     48  H   UNL A   1      45.224  27.089  27.610  1.00  0.00     0.167 HD
ATOM     49  C   UNL A   1      41.451  28.975  28.838  1.00  0.00     0.034 A 
ATOM     50  C   UNL A   1      47.938  27.095  26.931  1.00  0.00     0.034 A 
ATOM     51  C   UNL A   1      42.435  30.026  28.906  1.00  0.00     0.049 A 
ATOM     52  C   UNL A   1      47.593  28.522  27.305  1.00  0.00     0.074 A 
ATOM     53  C   UNL A   1      42.269  31.335  29.321  1.00  0.00     0.029 A 
ATOM     54  N   UNL A   1      43.765  29.893  28.530  1.00  0.00    -0.354 N 
ATOM     55  N   UNL A   1      46.443  29.022  27.699  1.00  0.00    -0.248 NA
ATOM     56  C   UNL A   1      48.678  29.510  27.235  1.00  0.00     0.031 C 
ATOM     57  C   UNL A   1      43.476  32.013  29.122  1.00  0.00     0.029 A 
ATOM     58  C   UNL A   1      44.421  31.107  28.670  1.00  0.00     0.049 A 
ATOM     59  H   UNL A   1      44.182  29.061  28.212  1.00  0.00     0.167 HD
ATOM     60  C   UNL A   1      46.681  30.371  27.959  1.00  0.00     0.074 A 
ATOM     61  C   UNL A   1      48.084  30.604  27.686  1.00  0.00     0.031 C 
ATOM     62  C   UNL A   1      45.821  31.330  28.391  1.00  0.00     0.034 A 
BRANCH  49  63
ATOM     63  C   UNL A   1      40.020  29.287  29.200  1.00  0.00     0.023 A 
ATOM     64  C   UNL A   1      39.601  29.385  30.539  1.00  0.00     0.031 A 
ATOM     65  C   UNL A   1      39.052  29.446  28.193  1.00  0.00     0.131 A 
ATOM     66  C   UNL A   1      38.241  29.560  30.834  1.00  0.00     0.055 A 
ATOM     67  C   UNL A   1      37.714  29.703  28.493  1.00  0.00     0.041 A 
ATOM     68  F   UNL A   1      39.388  29.334  26.898  1.00  0.00    -0.206 F 
ATOM     69  C   UNL A   1      37.298  29.747  29.820  1.00  0.00     0.022 A 
BRANCH  66  70
ATOM     70  S   UNL A   1      37.700  29.387  32.556  1.00  0.00     0.124 S 
ATOM     71  O   UNL A   1      38.719  30.157  33.266  1.00  0.00    -0.237 OA
ATOM     72  O   UNL A   1      36.363  29.970  32.528  1.00  0.00    -0.237 OA
ATOM     73  O   UNL A   1      37.745  27.944  32.787  1.00  0.00    -0.744 OA
ENDBRANCH  66  70
ENDBRANCH  49  63
BRANCH  50  74
ATOM     74  C   UNL A   1      49.322  26.756  26.480  1.00  0.00     0.023 A 
ATOM     75  C   UNL A   1      49.818  27.200  25.242  1.00  0.00     0.031 A 
ATOM     76  C   UNL A   1      50.142  25.910  27.248  1.00  0.00     0.131 A 
ATOM     77  C   UNL A   1      51.072  26.757  24.788  1.00  0.00     0.055 A 
ATOM     78  C   UNL A   1      51.413  25.518  26.818  1.00  0.00     0.041 A 
ATOM     79  F   UNL A   1      49.719  25.447  28.435  1.00  0.00    -0.206 F 
ATOM     80  C   UNL A   1      51.877  25.930  25.574  1.00  0.00     0.022 A 
BRANCH  77  81
ATOM     81  S   UNL A   1      51.596  27.198  23.107  1.00  0.00     0.124 S 
ATOM     82  O   UNL A   1      52.678  26.249  22.874  1.00  0.00    -0.237 OA
ATOM     83  O   UNL A   1      50.372  26.980  22.343  1.00  0.00    -0.237 OA
ATOM     84  O   UNL A   1      52.005  28.596  23.235  1.00  0.00    -0.744 OA
ENDBRANCH  77  81
ENDBRANCH  50  74
BRANCH  62  85
ATOM     85  C   UNL A   1      46.385  32.706  28.654  1.00  0.00     0.023 A 
ATOM     86  C   UNL A   1      46.445  33.695  27.655  1.00  0.00     0.031 A 
ATOM     87  C   UNL A   1      46.868  33.036  29.935  1.00  0.00     0.131 A 
ATOM     88  C   UNL A   1      47.022  34.943  27.939  1.00  0.00     0.055 A 
ATOM     89  C   UNL A   1      47.381  34.299  30.228  1.00  0.00     0.041 A 
ATOM     90  F   UNL A   1      46.839  32.133  30.929  1.00  0.00    -0.206 F 
ATOM     91  C   UNL A   1      47.472  35.258  29.224  1.00  0.00     0.022 A 
BRANCH  88  92
ATOM     92  S   UNL A   1      47.260  36.124  26.582  1.00  0.00     0.124 S 
ATOM     93  O   UNL A   1      48.266  37.023  27.138  1.00  0.00    -0.237 OA
ATOM     94  O   UNL A   1      47.705  35.262  25.492  1.00  0.00    -0.237 OA
ATOM     95  O   UNL A   1      45.934  36.713  26.403  1.00  0.00    -0.744 OA
ENDBRANCH  88  92
ENDBRANCH  62  85
ENDBRANCH  36  37
ENDBRANCH  29  31
ENDBRANCH  28  29
ENDBRANCH  27  28
ENDBRANCH  26  27
ENDBRANCH  25  26
ENDBRANCH  24  25
ENDBRANCH   1  24
TORSDOF 23
ENDMDL
