MODEL 1
REMARK VINA RESULT:     -10.2      0.000      0.000
REMARK SMILES O=C(OCCOCCOCCOC(=O)c1coc2c1/C(=N\Nc1ccccc1)CCC2)c1ccc(-c2c3nc(c(-c4cc(S(=O)(=O)[O-])ccc4F)c4ccc([nH]4)c(-c4cc(S(=O)(=O)[O-])ccc4F)c4nc(c(-c5cc(S(=O)(=O)[O-])ccc5F)c5ccc2[nH]5)C=C4)C=C3)cc1
REMARK SMILES IDX 7 1 6 2 5 3 4 4 3 5 2 6 1 7 32 8 33 9 94 10 34 11 93 12
REMARK SMILES IDX 35 13 36 14 37 15 87 16 38 17 92 18 86 19 88 20 39 21 91 22
REMARK SMILES IDX 85 23 84 24 40 26 72 27 52 28 71 29 53 30 56 31 70 32 89 33
REMARK SMILES IDX 54 34 55 35 69 37 90 38 57 39 41 40 42 41 50 42 43 43 49 44
REMARK SMILES IDX 51 45 48 46 44 47 45 48 46 49 47 50 73 51 74 52 82 53 75 54
REMARK SMILES IDX 81 55 83 56 80 57 76 58 77 59 78 60 79 61 58 62 59 63 67 64
REMARK SMILES IDX 60 65 66 66 68 67 65 68 61 69 62 70 63 71 64 72 8 73 9 74
REMARK SMILES IDX 10 75 11 76 12 77 13 78 14 79 15 80 16 81 19 82 17 83 18 84
REMARK SMILES IDX 20 85 31 86 21 87 29 88 30 89 22 90 23 92 24 93 28 94 25 95
REMARK SMILES IDX 27 96 26 97
REMARK H PARENT 88 25 56 36 22 91
REMARK Flexibility Score: inf
ROOT
ATOM      1  C   UNL A   1      48.803  20.533  39.269  1.00  0.00     0.188 C 
ENDROOT
BRANCH   1   2
ATOM      2  O   UNL A   1      48.364  20.301  37.963  1.00  0.00    -0.376 OA
BRANCH   2   3
ATOM      3  C   UNL A   1      46.981  20.420  37.731  1.00  0.00     0.202 C 
BRANCH   3   4
ATOM      4  C   UNL A   1      46.341  21.750  37.278  1.00  0.00     0.261 C 
BRANCH   4   5
ATOM      5  O   UNL A   1      46.839  22.438  36.111  1.00  0.00    -0.460 OA
BRANCH   5   6
ATOM      6  C   UNL A   1      47.103  23.731  35.812  1.00  0.00     0.338 C 
ATOM      7  O   UNL A   1      48.101  24.252  36.312  1.00  0.00    -0.246 OA
BRANCH   6   8
ATOM      8  C   UNL A   1      46.199  24.620  35.021  1.00  0.00     0.060 A 
ATOM      9  C   UNL A   1      44.808  24.540  34.984  1.00  0.00     0.016 A 
ATOM     10  C   UNL A   1      46.845  25.566  34.201  1.00  0.00     0.016 A 
ATOM     11  C   UNL A   1      44.134  25.093  33.909  1.00  0.00     0.010 A 
ATOM     12  C   UNL A   1      46.176  26.137  33.141  1.00  0.00     0.010 A 
ATOM     13  C   UNL A   1      44.866  25.752  32.921  1.00  0.00    -0.014 A 
BRANCH  13  14
ATOM     14  C   UNL A   1      44.224  26.100  31.667  1.00  0.00     0.031 A 
ATOM     15  C   UNL A   1      44.441  25.059  30.639  1.00  0.00     0.074 A 
ATOM     16  C   UNL A   1      43.491  27.230  31.529  1.00  0.00     0.049 A 
ATOM     17  N   UNL A   1      45.312  25.094  29.686  1.00  0.00    -0.248 NA
ATOM     18  C   UNL A   1      43.852  23.725  30.847  1.00  0.00     0.031 C 
ATOM     19  C   UNL A   1      43.122  28.216  32.550  1.00  0.00     0.029 A 
ATOM     20  N   UNL A   1      42.861  27.720  30.419  1.00  0.00    -0.354 N 
ATOM     21  C   UNL A   1      45.127  23.913  28.980  1.00  0.00     0.074 A 
ATOM     22  C   UNL A   1      44.448  23.023  29.880  1.00  0.00     0.031 C 
ATOM     23  C   UNL A   1      42.155  29.039  32.073  1.00  0.00     0.029 A 
ATOM     24  C   UNL A   1      41.927  28.742  30.669  1.00  0.00     0.049 A 
ATOM     25  H   UNL A   1      43.048  27.384  29.512  1.00  0.00     0.167 HD
ATOM     26  C   UNL A   1      45.248  23.905  27.625  1.00  0.00     0.034 A 
ATOM     27  C   UNL A   1      41.022  29.257  29.775  1.00  0.00     0.034 A 
ATOM     28  C   UNL A   1      45.938  25.093  27.171  1.00  0.00     0.049 A 
ATOM     29  C   UNL A   1      41.586  28.967  28.426  1.00  0.00     0.074 A 
ATOM     30  C   UNL A   1      47.189  25.632  27.398  1.00  0.00     0.029 A 
ATOM     31  N   UNL A   1      45.162  26.130  26.699  1.00  0.00    -0.354 N 
ATOM     32  N   UNL A   1      42.696  29.513  28.003  1.00  0.00    -0.248 NA
ATOM     33  C   UNL A   1      41.266  27.674  27.834  1.00  0.00     0.031 C 
ATOM     34  C   UNL A   1      46.964  27.034  27.532  1.00  0.00     0.029 A 
ATOM     35  C   UNL A   1      45.622  27.300  27.255  1.00  0.00     0.049 A 
ATOM     36  H   UNL A   1      44.408  26.047  26.071  1.00  0.00     0.167 HD
ATOM     37  C   UNL A   1      43.425  28.466  27.458  1.00  0.00     0.074 A 
ATOM     38  C   UNL A   1      42.470  27.360  27.343  1.00  0.00     0.031 C 
ATOM     39  C   UNL A   1      44.793  28.477  27.457  1.00  0.00     0.034 A 
BRANCH  26  40
ATOM     40  C   UNL A   1      44.378  23.089  26.694  1.00  0.00     0.023 A 
ATOM     41  C   UNL A   1      43.006  23.035  27.000  1.00  0.00     0.031 A 
ATOM     42  C   UNL A   1      44.836  22.142  25.751  1.00  0.00     0.131 A 
ATOM     43  C   UNL A   1      42.192  22.015  26.480  1.00  0.00     0.055 A 
ATOM     44  C   UNL A   1      44.007  21.170  25.186  1.00  0.00     0.041 A 
ATOM     45  F   UNL A   1      46.120  22.032  25.388  1.00  0.00    -0.206 F 
ATOM     46  C   UNL A   1      42.684  21.080  25.574  1.00  0.00     0.022 A 
BRANCH  43  47
ATOM     47  S   UNL A   1      40.523  21.829  27.154  1.00  0.00     0.124 S 
ATOM     48  O   UNL A   1      39.854  21.109  26.076  1.00  0.00    -0.237 OA
ATOM     49  O   UNL A   1      40.777  21.072  28.375  1.00  0.00    -0.237 OA
ATOM     50  O   UNL A   1      40.085  23.207  27.355  1.00  0.00    -0.744 OA
ENDBRANCH  43  47
ENDBRANCH  26  40
BRANCH  27  51
ATOM     51  C   UNL A   1      39.563  29.554  30.007  1.00  0.00     0.023 A 
ATOM     52  C   UNL A   1      38.899  30.746  29.606  1.00  0.00     0.031 A 
ATOM     53  C   UNL A   1      38.723  28.497  30.428  1.00  0.00     0.131 A 
ATOM     54  C   UNL A   1      37.476  30.833  29.643  1.00  0.00     0.055 A 
ATOM     55  C   UNL A   1      37.328  28.583  30.448  1.00  0.00     0.041 A 
ATOM     56  F   UNL A   1      39.231  27.298  30.756  1.00  0.00    -0.206 F 
ATOM     57  C   UNL A   1      36.697  29.747  30.047  1.00  0.00     0.022 A 
BRANCH  54  58
ATOM     58  S   UNL A   1      36.575  32.342  29.114  1.00  0.00     0.124 S 
ATOM     59  O   UNL A   1      35.805  32.683  30.304  1.00  0.00    -0.237 OA
ATOM     60  O   UNL A   1      37.657  33.251  28.755  1.00  0.00    -0.237 OA
ATOM     61  O   UNL A   1      35.769  31.882  27.979  1.00  0.00    -0.744 OA
ENDBRANCH  54  58
ENDBRANCH  27  51
BRANCH  39  62
ATOM     62  C   UNL A   1      45.512  29.763  27.825  1.00  0.00     0.023 A 
ATOM     63  C   UNL A   1      45.612  30.924  27.017  1.00  0.00     0.031 A 
ATOM     64  C   UNL A   1      46.016  29.839  29.135  1.00  0.00     0.131 A 
ATOM     65  C   UNL A   1      46.212  32.093  27.538  1.00  0.00     0.055 A 
ATOM     66  C   UNL A   1      46.581  31.001  29.652  1.00  0.00     0.041 A 
ATOM     67  F   UNL A   1      45.929  28.780  29.956  1.00  0.00    -0.206 F 
ATOM     68  C   UNL A   1      46.688  32.132  28.853  1.00  0.00     0.022 A 
BRANCH  65  69
ATOM     69  S   UNL A   1      46.421  33.589  26.511  1.00  0.00     0.124 S 
ATOM     70  O   UNL A   1      47.862  33.658  26.304  1.00  0.00    -0.237 OA
ATOM     71  O   UNL A   1      45.619  33.275  25.331  1.00  0.00    -0.237 OA
ATOM     72  O   UNL A   1      45.872  34.656  27.350  1.00  0.00    -0.744 OA
ENDBRANCH  65  69
ENDBRANCH  39  62
ENDBRANCH  13  14
ENDBRANCH   6   8
ENDBRANCH   5   6
ENDBRANCH   4   5
ENDBRANCH   3   4
ENDBRANCH   2   3
ENDBRANCH   1   2
BRANCH   1  73
ATOM     73  C   UNL A   1      48.896  19.292  40.169  1.00  0.00     0.188 C 
BRANCH  73  74
ATOM     74  O   UNL A   1      48.250  18.101  39.754  1.00  0.00    -0.376 OA
BRANCH  74  75
ATOM     75  C   UNL A   1      46.928  17.893  40.220  1.00  0.00     0.202 C 
BRANCH  75  76
ATOM     76  C   UNL A   1      46.178  18.929  41.104  1.00  0.00     0.261 C 
BRANCH  76  77
ATOM     77  O   UNL A   1      44.720  18.935  41.116  1.00  0.00    -0.460 OA
BRANCH  77  78
ATOM     78  C   UNL A   1      43.958  17.828  41.863  1.00  0.00     0.342 C 
ATOM     79  O   UNL A   1      43.832  18.320  43.025  1.00  0.00    -0.246 OA
BRANCH  78  80
ATOM     80  C   UNL A   1      43.257  16.020  41.047  1.00  0.00     0.107 A 
ATOM     81  C   UNL A   1      43.027  15.509  39.691  1.00  0.00     0.211 A 
ATOM     82  C   UNL A   1      42.566  14.629  41.772  1.00  0.00     0.054 A 
ATOM     83  O   UNL A   1      42.329  14.356  39.565  1.00  0.00    -0.468 OA
ATOM     84  C   UNL A   1      42.036  13.862  40.768  1.00  0.00     0.113 A 
ATOM     85  C   UNL A   1      42.265  14.154  43.175  1.00  0.00     0.072 C 
ATOM     86  C   UNL A   1      41.147  12.672  40.875  1.00  0.00     0.076 C 
ATOM     87  N   UNL A   1      42.890  14.489  44.268  1.00  0.00    -0.179 NA
ATOM     88  C   UNL A   1      41.110  13.178  43.346  1.00  0.00     0.059 C 
ATOM     89  C   UNL A   1      41.225  12.082  42.292  1.00  0.00     0.014 C 
BRANCH  87  90
ATOM     90  N   UNL A   1      43.896  15.352  44.153  1.00  0.00    -0.278 N 
ATOM     91  H   UNL A   1      43.928  16.020  43.432  1.00  0.00     0.190 HD
BRANCH  90  92
ATOM     92  C   UNL A   1      44.895  15.255  45.105  1.00  0.00     0.056 A 
ATOM     93  C   UNL A   1      44.718  16.178  46.658  1.00  0.00     0.027 A 
ATOM     94  C   UNL A   1      46.051  13.806  45.017  1.00  0.00     0.027 A 
ATOM     95  C   UNL A   1      45.851  15.816  48.041  1.00  0.00     0.002 A 
ATOM     96  C   UNL A   1      47.178  13.462  46.414  1.00  0.00     0.002 A 
ATOM     97  C   UNL A   1      47.137  14.535  47.870  1.00  0.00     0.000 A 
ENDBRANCH  90  92
ENDBRANCH  87  90
ENDBRANCH  78  80
ENDBRANCH  77  78
ENDBRANCH  76  77
ENDBRANCH  75  76
ENDBRANCH  74  75
ENDBRANCH  73  74
ENDBRANCH   1  73
TORSDOF 22
ENDMDL
MODEL 2
REMARK VINA RESULT:      -9.9      8.013     12.457
REMARK SMILES O=C(OCCOCCOCCOC(=O)c1coc2c1/C(=N\Nc1ccccc1)CCC2)c1ccc(-c2c3nc(c(-c4cc(S(=O)(=O)[O-])ccc4F)c4ccc([nH]4)c(-c4cc(S(=O)(=O)[O-])ccc4F)c4nc(c(-c5cc(S(=O)(=O)[O-])ccc5F)c5ccc2[nH]5)C=C4)C=C3)cc1
REMARK SMILES IDX 7 1 6 2 5 3 4 4 3 5 2 6 1 7 32 8 33 9 94 10 34 11 93 12
REMARK SMILES IDX 35 13 36 14 37 15 87 16 38 17 92 18 86 19 88 20 39 21 91 22
REMARK SMILES IDX 85 23 84 24 40 26 72 27 52 28 71 29 53 30 56 31 70 32 89 33
REMARK SMILES IDX 54 34 55 35 69 37 90 38 57 39 41 40 42 41 50 42 43 43 49 44
REMARK SMILES IDX 51 45 48 46 44 47 45 48 46 49 47 50 73 51 74 52 82 53 75 54
REMARK SMILES IDX 81 55 83 56 80 57 76 58 77 59 78 60 79 61 58 62 59 63 67 64
REMARK SMILES IDX 60 65 66 66 68 67 65 68 61 69 62 70 63 71 64 72 8 73 9 74
REMARK SMILES IDX 10 75 11 76 12 77 13 78 14 79 15 80 16 81 19 82 17 83 18 84
REMARK SMILES IDX 20 85 31 86 21 87 29 88 30 89 22 90 23 92 24 93 28 94 25 95
REMARK SMILES IDX 27 96 26 97
REMARK H PARENT 88 25 56 36 22 91
REMARK Flexibility Score: inf
ROOT
ATOM      1  C   UNL A   1      46.855  27.679  29.645  1.00  0.00     0.188 C 
ENDROOT
BRANCH   1   2
ATOM      2  O   UNL A   1      45.841  27.138  30.440  1.00  0.00    -0.376 OA
BRANCH   2   3
ATOM      3  C   UNL A   1      46.166  25.987  31.181  1.00  0.00     0.202 C 
BRANCH   3   4
ATOM      4  C   UNL A   1      45.121  24.894  31.492  1.00  0.00     0.261 C 
BRANCH   4   5
ATOM      5  O   UNL A   1      44.096  25.127  32.483  1.00  0.00    -0.460 OA
BRANCH   5   6
ATOM      6  C   UNL A   1      44.103  25.421  33.804  1.00  0.00     0.338 C 
ATOM      7  O   UNL A   1      44.447  24.541  34.594  1.00  0.00    -0.246 OA
BRANCH   6   8
ATOM      8  C   UNL A   1      43.597  26.699  34.390  1.00  0.00     0.060 A 
ATOM      9  C   UNL A   1      42.556  26.817  35.309  1.00  0.00     0.016 A 
ATOM     10  C   UNL A   1      44.202  27.872  33.898  1.00  0.00     0.016 A 
ATOM     11  C   UNL A   1      41.899  28.030  35.424  1.00  0.00     0.010 A 
ATOM     12  C   UNL A   1      43.566  29.088  34.027  1.00  0.00     0.010 A 
ATOM     13  C   UNL A   1      42.332  29.108  34.652  1.00  0.00    -0.014 A 
BRANCH  13  14
ATOM     14  C   UNL A   1      41.505  30.296  34.555  1.00  0.00     0.031 A 
ATOM     15  C   UNL A   1      40.793  30.358  33.261  1.00  0.00     0.074 A 
ATOM     16  C   UNL A   1      41.404  31.181  35.575  1.00  0.00     0.049 A 
ATOM     17  N   UNL A   1      41.135  31.057  32.230  1.00  0.00    -0.248 NA
ATOM     18  C   UNL A   1      39.775  29.335  32.964  1.00  0.00     0.031 C 
ATOM     19  C   UNL A   1      41.969  31.094  36.926  1.00  0.00     0.029 A 
ATOM     20  N   UNL A   1      40.710  32.358  35.632  1.00  0.00    -0.354 N 
ATOM     21  C   UNL A   1      40.160  30.801  31.276  1.00  0.00     0.074 A 
ATOM     22  C   UNL A   1      39.546  29.563  31.669  1.00  0.00     0.031 C 
ATOM     23  C   UNL A   1      41.407  32.035  37.726  1.00  0.00     0.029 A 
ATOM     24  C   UNL A   1      40.547  32.889  36.925  1.00  0.00     0.049 A 
ATOM     25  H   UNL A   1      40.353  32.800  34.828  1.00  0.00     0.167 HD
ATOM     26  C   UNL A   1      39.732  31.798  30.456  1.00  0.00     0.034 A 
ATOM     27  C   UNL A   1      39.729  33.932  37.281  1.00  0.00     0.034 A 
ATOM     28  C   UNL A   1      40.667  32.904  30.473  1.00  0.00     0.049 A 
ATOM     29  C   UNL A   1      39.522  34.720  36.033  1.00  0.00     0.074 A 
ATOM     30  C   UNL A   1      42.001  33.047  30.148  1.00  0.00     0.029 A 
ATOM     31  N   UNL A   1      40.359  33.976  31.282  1.00  0.00    -0.354 N 
ATOM     32  N   UNL A   1      40.499  35.358  35.442  1.00  0.00    -0.248 NA
ATOM     33  C   UNL A   1      38.431  34.309  35.158  1.00  0.00     0.031 C 
ATOM     34  C   UNL A   1      42.536  33.892  31.166  1.00  0.00     0.029 A 
ATOM     35  C   UNL A   1      41.490  34.326  31.981  1.00  0.00     0.049 A 
ATOM     36  H   UNL A   1      39.481  34.416  31.348  1.00  0.00     0.167 HD
ATOM     37  C   UNL A   1      40.375  35.036  34.098  1.00  0.00     0.074 A 
ATOM     38  C   UNL A   1      39.050  34.419  33.978  1.00  0.00     0.031 C 
ATOM     39  C   UNL A   1      41.465  34.993  33.273  1.00  0.00     0.034 A 
BRANCH  26  40
ATOM     40  C   UNL A   1      38.300  31.979  30.005  1.00  0.00     0.023 A 
ATOM     41  C   UNL A   1      37.489  32.811  30.799  1.00  0.00     0.031 A 
ATOM     42  C   UNL A   1      37.619  31.171  29.066  1.00  0.00     0.131 A 
ATOM     43  C   UNL A   1      36.088  32.731  30.728  1.00  0.00     0.055 A 
ATOM     44  C   UNL A   1      36.227  31.144  28.954  1.00  0.00     0.041 A 
ATOM     45  F   UNL A   1      38.240  30.294  28.269  1.00  0.00    -0.206 F 
ATOM     46  C   UNL A   1      35.450  31.902  29.811  1.00  0.00     0.022 A 
BRANCH  43  47
ATOM     47  S   UNL A   1      35.121  33.600  31.986  1.00  0.00     0.124 S 
ATOM     48  O   UNL A   1      36.022  34.689  32.345  1.00  0.00    -0.237 OA
ATOM     49  O   UNL A   1      33.924  33.973  31.238  1.00  0.00    -0.237 OA
ATOM     50  O   UNL A   1      34.920  32.587  33.017  1.00  0.00    -0.744 OA
ENDBRANCH  43  47
ENDBRANCH  26  40
BRANCH  27  51
ATOM     51  C   UNL A   1      38.800  34.012  38.464  1.00  0.00     0.023 A 
ATOM     52  C   UNL A   1      37.792  33.058  38.777  1.00  0.00     0.031 A 
ATOM     53  C   UNL A   1      39.088  34.954  39.479  1.00  0.00     0.131 A 
ATOM     54  C   UNL A   1      37.134  33.083  40.042  1.00  0.00     0.055 A 
ATOM     55  C   UNL A   1      38.449  34.964  40.723  1.00  0.00     0.041 A 
ATOM     56  F   UNL A   1      40.072  35.854  39.329  1.00  0.00    -0.206 F 
ATOM     57  C   UNL A   1      37.477  34.025  41.014  1.00  0.00     0.022 A 
BRANCH  54  58
ATOM     58  S   UNL A   1      35.846  31.859  40.498  1.00  0.00     0.124 S 
ATOM     59  O   UNL A   1      36.451  31.173  41.633  1.00  0.00    -0.237 OA
ATOM     60  O   UNL A   1      34.691  32.700  40.785  1.00  0.00    -0.237 OA
ATOM     61  O   UNL A   1      35.711  31.035  39.293  1.00  0.00    -0.744 OA
ENDBRANCH  54  58
ENDBRANCH  27  51
BRANCH  39  62
ATOM     62  C   UNL A   1      42.784  35.551  33.779  1.00  0.00     0.023 A 
ATOM     63  C   UNL A   1      43.151  36.920  33.818  1.00  0.00     0.031 A 
ATOM     64  C   UNL A   1      43.663  34.626  34.369  1.00  0.00     0.131 A 
ATOM     65  C   UNL A   1      44.368  37.303  34.426  1.00  0.00     0.055 A 
ATOM     66  C   UNL A   1      44.847  35.012  34.992  1.00  0.00     0.041 A 
ATOM     67  F   UNL A   1      43.360  33.318  34.385  1.00  0.00    -0.206 F 
ATOM     68  C   UNL A   1      45.208  36.353  35.017  1.00  0.00     0.022 A 
BRANCH  65  69
ATOM     69  S   UNL A   1      44.911  39.047  34.441  1.00  0.00     0.124 S 
ATOM     70  O   UNL A   1      44.425  39.541  35.724  1.00  0.00    -0.237 OA
ATOM     71  O   UNL A   1      46.360  38.927  34.309  1.00  0.00    -0.237 OA
ATOM     72  O   UNL A   1      44.241  39.621  33.272  1.00  0.00    -0.744 OA
ENDBRANCH  65  69
ENDBRANCH  39  62
ENDBRANCH  13  14
ENDBRANCH   6   8
ENDBRANCH   5   6
ENDBRANCH   4   5
ENDBRANCH   3   4
ENDBRANCH   2   3
ENDBRANCH   1   2
BRANCH   1  73
ATOM     73  C   UNL A   1      47.611  26.678  28.760  1.00  0.00     0.188 C 
BRANCH  73  74
ATOM     74  O   UNL A   1      46.983  26.200  27.583  1.00  0.00    -0.376 OA
BRANCH  74  75
ATOM     75  C   UNL A   1      46.465  27.174  26.692  1.00  0.00     0.202 C 
BRANCH  75  76
ATOM     76  C   UNL A   1      45.265  26.889  25.746  1.00  0.00     0.261 C 
BRANCH  76  77
ATOM     77  O   UNL A   1      44.101  26.179  26.264  1.00  0.00    -0.460 OA
BRANCH  77  78
ATOM     78  C   UNL A   1      43.357  25.177  25.366  1.00  0.00     0.342 C 
ATOM     79  O   UNL A   1      42.545  25.923  24.739  1.00  0.00    -0.246 OA
BRANCH  78  80
ATOM     80  C   UNL A   1      43.732  23.112  25.216  1.00  0.00     0.107 A 
ATOM     81  C   UNL A   1      44.453  22.251  24.272  1.00  0.00     0.211 A 
ATOM     82  C   UNL A   1      43.132  21.774  26.102  1.00  0.00     0.054 A 
ATOM     83  O   UNL A   1      44.272  20.913  24.380  1.00  0.00    -0.468 OA
ATOM     84  C   UNL A   1      43.483  20.638  25.420  1.00  0.00     0.113 A 
ATOM     85  C   UNL A   1      42.219  21.558  27.287  1.00  0.00     0.072 C 
ATOM     86  C   UNL A   1      43.029  19.238  25.645  1.00  0.00     0.076 C 
ATOM     87  N   UNL A   1      42.002  22.384  28.271  1.00  0.00    -0.179 NA
ATOM     88  C   UNL A   1      41.467  20.236  27.354  1.00  0.00     0.059 C 
ATOM     89  C   UNL A   1      42.434  19.096  27.055  1.00  0.00     0.014 C 
BRANCH  87  90
ATOM     90  N   UNL A   1      42.635  23.553  28.234  1.00  0.00    -0.278 N 
ATOM     91  H   UNL A   1      43.592  23.620  28.014  1.00  0.00     0.190 HD
BRANCH  90  92
ATOM     92  C   UNL A   1      41.873  24.671  28.523  1.00  0.00     0.056 A 
ATOM     93  C   UNL A   1      42.688  26.125  29.239  1.00  0.00     0.027 A 
ATOM     94  C   UNL A   1      40.230  24.853  27.679  1.00  0.00     0.027 A 
ATOM     95  C   UNL A   1      41.775  27.703  29.328  1.00  0.00     0.002 A 
ATOM     96  C   UNL A   1      39.332  26.442  27.781  1.00  0.00     0.002 A 
ATOM     97  C   UNL A   1      40.069  27.819  28.694  1.00  0.00     0.000 A 
ENDBRANCH  90  92
ENDBRANCH  87  90
ENDBRANCH  78  80
ENDBRANCH  77  78
ENDBRANCH  76  77
ENDBRANCH  75  76
ENDBRANCH  74  75
ENDBRANCH  73  74
ENDBRANCH   1  73
TORSDOF 22
ENDMDL
MODEL 3
REMARK VINA RESULT:      -9.9      2.878      7.758
REMARK SMILES O=C(OCCOCCOCCOC(=O)c1coc2c1/C(=N\Nc1ccccc1)CCC2)c1ccc(-c2c3nc(c(-c4cc(S(=O)(=O)[O-])ccc4F)c4ccc([nH]4)c(-c4cc(S(=O)(=O)[O-])ccc4F)c4nc(c(-c5cc(S(=O)(=O)[O-])ccc5F)c5ccc2[nH]5)C=C4)C=C3)cc1
REMARK SMILES IDX 7 1 6 2 5 3 4 4 3 5 2 6 1 7 32 8 33 9 94 10 34 11 93 12
REMARK SMILES IDX 35 13 36 14 37 15 87 16 38 17 92 18 86 19 88 20 39 21 91 22
REMARK SMILES IDX 85 23 84 24 40 26 72 27 52 28 71 29 53 30 56 31 70 32 89 33
REMARK SMILES IDX 54 34 55 35 69 37 90 38 57 39 41 40 42 41 50 42 43 43 49 44
REMARK SMILES IDX 51 45 48 46 44 47 45 48 46 49 47 50 73 51 74 52 82 53 75 54
REMARK SMILES IDX 81 55 83 56 80 57 76 58 77 59 78 60 79 61 58 62 59 63 67 64
REMARK SMILES IDX 60 65 66 66 68 67 65 68 61 69 62 70 63 71 64 72 8 73 9 74
REMARK SMILES IDX 10 75 11 76 12 77 13 78 14 79 15 80 16 81 19 82 17 83 18 84
REMARK SMILES IDX 20 85 31 86 21 87 29 88 30 89 22 90 23 92 24 93 28 94 25 95
REMARK SMILES IDX 27 96 26 97
REMARK H PARENT 88 25 56 36 22 91
REMARK Flexibility Score: inf
ROOT
ATOM      1  C   UNL A   1      47.995  20.888  37.561  1.00  0.00     0.188 C 
ENDROOT
BRANCH   1   2
ATOM      2  O   UNL A   1      47.554  20.957  36.236  1.00  0.00    -0.376 OA
BRANCH   2   3
ATOM      3  C   UNL A   1      46.391  21.712  35.997  1.00  0.00     0.202 C 
BRANCH   3   4
ATOM      4  C   UNL A   1      45.689  22.508  37.118  1.00  0.00     0.261 C 
BRANCH   4   5
ATOM      5  O   UNL A   1      45.418  23.917  36.952  1.00  0.00    -0.460 OA
BRANCH   5   6
ATOM      6  C   UNL A   1      44.649  24.819  37.604  1.00  0.00     0.338 C 
ATOM      7  O   UNL A   1      44.597  24.759  38.833  1.00  0.00    -0.246 OA
BRANCH   6   8
ATOM      8  C   UNL A   1      43.747  25.805  36.934  1.00  0.00     0.060 A 
ATOM      9  C   UNL A   1      42.677  25.492  36.098  1.00  0.00     0.016 A 
ATOM     10  C   UNL A   1      44.079  27.160  37.133  1.00  0.00     0.016 A 
ATOM     11  C   UNL A   1      42.221  26.449  35.208  1.00  0.00     0.010 A 
ATOM     12  C   UNL A   1      43.613  28.122  36.264  1.00  0.00     0.010 A 
ATOM     13  C   UNL A   1      42.817  27.711  35.210  1.00  0.00    -0.014 A 
BRANCH  13  14
ATOM     14  C   UNL A   1      42.546  28.631  34.122  1.00  0.00     0.031 A 
ATOM     15  C   UNL A   1      41.272  29.354  34.327  1.00  0.00     0.074 A 
ATOM     16  C   UNL A   1      43.412  28.798  33.094  1.00  0.00     0.049 A 
ATOM     17  N   UNL A   1      40.136  29.076  33.780  1.00  0.00    -0.248 NA
ATOM     18  C   UNL A   1      41.163  30.288  35.462  1.00  0.00     0.031 C 
ATOM     19  C   UNL A   1      44.748  28.220  32.917  1.00  0.00     0.029 A 
ATOM     20  N   UNL A   1      43.291  29.584  31.983  1.00  0.00    -0.354 N 
ATOM     21  C   UNL A   1      39.254  30.032  34.263  1.00  0.00     0.074 A 
ATOM     22  C   UNL A   1      39.852  30.542  35.465  1.00  0.00     0.031 C 
ATOM     23  C   UNL A   1      45.396  28.852  31.907  1.00  0.00     0.029 A 
ATOM     24  C   UNL A   1      44.484  29.783  31.264  1.00  0.00     0.049 A 
ATOM     25  H   UNL A   1      42.434  29.981  31.706  1.00  0.00     0.167 HD
ATOM     26  C   UNL A   1      38.292  30.544  33.449  1.00  0.00     0.034 A 
ATOM     27  C   UNL A   1      44.683  30.680  30.245  1.00  0.00     0.034 A 
ATOM     28  C   UNL A   1      38.113  29.702  32.285  1.00  0.00     0.049 A 
ATOM     29  C   UNL A   1      43.329  30.958  29.688  1.00  0.00     0.074 A 
ATOM     30  C   UNL A   1      37.744  28.385  32.091  1.00  0.00     0.029 A 
ATOM     31  N   UNL A   1      38.745  30.091  31.123  1.00  0.00    -0.354 N 
ATOM     32  N   UNL A   1      42.624  30.038  29.080  1.00  0.00    -0.248 NA
ATOM     33  C   UNL A   1      42.552  32.017  30.320  1.00  0.00     0.031 C 
ATOM     34  C   UNL A   1      38.603  27.915  31.053  1.00  0.00     0.029 A 
ATOM     35  C   UNL A   1      39.357  28.988  30.576  1.00  0.00     0.049 A 
ATOM     36  H   UNL A   1      38.755  31.001  30.749  1.00  0.00     0.167 HD
ATOM     37  C   UNL A   1      41.352  30.145  29.624  1.00  0.00     0.074 A 
ATOM     38  C   UNL A   1      41.358  31.415  30.354  1.00  0.00     0.031 C 
ATOM     39  C   UNL A   1      40.525  29.059  29.714  1.00  0.00     0.034 A 
BRANCH  26  40
ATOM     40  C   UNL A   1      37.845  31.989  33.457  1.00  0.00     0.023 A 
ATOM     41  C   UNL A   1      36.480  32.227  33.209  1.00  0.00     0.031 A 
ATOM     42  C   UNL A   1      38.691  33.118  33.379  1.00  0.00     0.131 A 
ATOM     43  C   UNL A   1      36.034  33.492  32.792  1.00  0.00     0.055 A 
ATOM     44  C   UNL A   1      38.231  34.389  33.027  1.00  0.00     0.041 A 
ATOM     45  F   UNL A   1      40.017  33.052  33.542  1.00  0.00    -0.206 F 
ATOM     46  C   UNL A   1      36.901  34.576  32.697  1.00  0.00     0.022 A 
BRANCH  43  47
ATOM     47  S   UNL A   1      34.331  33.643  32.200  1.00  0.00     0.124 S 
ATOM     48  O   UNL A   1      34.286  35.044  31.799  1.00  0.00    -0.237 OA
ATOM     49  O   UNL A   1      34.302  32.662  31.120  1.00  0.00    -0.237 OA
ATOM     50  O   UNL A   1      33.534  33.301  33.374  1.00  0.00    -0.744 OA
ENDBRANCH  43  47
ENDBRANCH  26  40
BRANCH  27  51
ATOM     51  C   UNL A   1      45.856  31.606  30.048  1.00  0.00     0.023 A 
ATOM     52  C   UNL A   1      46.629  31.700  28.857  1.00  0.00     0.031 A 
ATOM     53  C   UNL A   1      46.069  32.629  31.000  1.00  0.00     0.131 A 
ATOM     54  C   UNL A   1      47.553  32.772  28.674  1.00  0.00     0.055 A 
ATOM     55  C   UNL A   1      46.966  33.684  30.808  1.00  0.00     0.041 A 
ATOM     56  F   UNL A   1      45.343  32.688  32.127  1.00  0.00    -0.206 F 
ATOM     57  C   UNL A   1      47.705  33.766  29.642  1.00  0.00     0.022 A 
BRANCH  54  58
ATOM     58  S   UNL A   1      48.554  32.947  27.147  1.00  0.00     0.124 S 
ATOM     59  O   UNL A   1      49.013  34.329  27.228  1.00  0.00    -0.237 OA
ATOM     60  O   UNL A   1      49.569  31.913  27.307  1.00  0.00    -0.237 OA
ATOM     61  O   UNL A   1      47.591  32.690  26.072  1.00  0.00    -0.744 OA
ENDBRANCH  54  58
ENDBRANCH  27  51
BRANCH  39  62
ATOM     62  C   UNL A   1      40.909  27.787  28.978  1.00  0.00     0.023 A 
ATOM     63  C   UNL A   1      42.020  26.956  29.272  1.00  0.00     0.031 A 
ATOM     64  C   UNL A   1      40.006  27.340  27.998  1.00  0.00     0.131 A 
ATOM     65  C   UNL A   1      42.188  25.737  28.577  1.00  0.00     0.055 A 
ATOM     66  C   UNL A   1      40.162  26.125  27.337  1.00  0.00     0.041 A 
ATOM     67  F   UNL A   1      38.922  28.071  27.692  1.00  0.00    -0.206 F 
ATOM     68  C   UNL A   1      41.258  25.321  27.619  1.00  0.00     0.022 A 
BRANCH  65  69
ATOM     69  S   UNL A   1      43.639  24.669  28.877  1.00  0.00     0.124 S 
ATOM     70  O   UNL A   1      43.936  24.890  30.287  1.00  0.00    -0.237 OA
ATOM     71  O   UNL A   1      43.132  23.344  28.529  1.00  0.00    -0.237 OA
ATOM     72  O   UNL A   1      44.645  25.195  27.952  1.00  0.00    -0.744 OA
ENDBRANCH  65  69
ENDBRANCH  39  62
ENDBRANCH  13  14
ENDBRANCH   6   8
ENDBRANCH   5   6
ENDBRANCH   4   5
ENDBRANCH   3   4
ENDBRANCH   2   3
ENDBRANCH   1   2
BRANCH   1  73
ATOM     73  C   UNL A   1      47.644  19.596  38.311  1.00  0.00     0.188 C 
BRANCH  73  74
ATOM     74  O   UNL A   1      46.564  18.808  37.842  1.00  0.00    -0.376 OA
BRANCH  74  75
ATOM     75  C   UNL A   1      45.920  17.972  38.789  1.00  0.00     0.202 C 
BRANCH  75  76
ATOM     76  C   UNL A   1      46.535  17.655  40.180  1.00  0.00     0.261 C 
BRANCH  76  77
ATOM     77  O   UNL A   1      45.787  17.992  41.386  1.00  0.00    -0.460 OA
BRANCH  77  78
ATOM     78  C   UNL A   1      44.283  17.682  41.462  1.00  0.00     0.342 C 
ATOM     79  O   UNL A   1      43.809  18.752  41.949  1.00  0.00    -0.246 OA
BRANCH  78  80
ATOM     80  C   UNL A   1      43.332  15.924  40.806  1.00  0.00     0.107 A 
ATOM     81  C   UNL A   1      42.904  15.394  39.507  1.00  0.00     0.211 A 
ATOM     82  C   UNL A   1      42.603  14.630  41.661  1.00  0.00     0.054 A 
ATOM     83  O   UNL A   1      42.094  14.309  39.507  1.00  0.00    -0.468 OA
ATOM     84  C   UNL A   1      41.895  13.884  40.755  1.00  0.00     0.113 A 
ATOM     85  C   UNL A   1      42.420  14.232  43.108  1.00  0.00     0.072 C 
ATOM     86  C   UNL A   1      40.919  12.790  41.010  1.00  0.00     0.076 C 
ATOM     87  N   UNL A   1      43.193  14.540  44.111  1.00  0.00    -0.179 NA
ATOM     88  C   UNL A   1      41.207  13.376  43.446  1.00  0.00     0.059 C 
ATOM     89  C   UNL A   1      41.101  12.241  42.434  1.00  0.00     0.014 C 
BRANCH  87  90
ATOM     90  N   UNL A   1      44.254  15.299  43.849  1.00  0.00    -0.278 N 
ATOM     91  H   UNL A   1      44.394  15.711  42.967  1.00  0.00     0.190 HD
BRANCH  90  92
ATOM     92  C   UNL A   1      45.151  15.473  44.888  1.00  0.00     0.056 A 
ATOM     93  C   UNL A   1      46.929  15.426  44.527  1.00  0.00     0.027 A 
ATOM     94  C   UNL A   1      44.544  16.287  46.442  1.00  0.00     0.027 A 
ATOM     95  C   UNL A   1      48.111  15.968  45.806  1.00  0.00     0.002 A 
ATOM     96  C   UNL A   1      45.745  16.822  47.711  1.00  0.00     0.002 A 
ATOM     97  C   UNL A   1      47.513  16.562  47.424  1.00  0.00     0.000 A 
ENDBRANCH  90  92
ENDBRANCH  87  90
ENDBRANCH  78  80
ENDBRANCH  77  78
ENDBRANCH  76  77
ENDBRANCH  75  76
ENDBRANCH  74  75
ENDBRANCH  73  74
ENDBRANCH   1  73
TORSDOF 22
ENDMDL
