MODEL 1
REMARK VINA RESULT:     -10.6      0.000      0.000
REMARK SMILES Cc1ccc(C(=O)N[C@@H]2C=C[C@H](C(=O)OCCOCCOCCOC(=O)c3ccc(-c4c5nc(c(-c6cc(S(=O)(=O)[O-])ccc6F)c6ccc([nH]6)c(-c6cc(S(=O)(=O)[O-])ccc6F)c6nc(c(-c7cc(S(=O)(=O)[O-])ccc7F)c7ccc4[nH]7)C=C6)C=C5)cc3)C2)c(F)c1
REMARK SMILES IDX 20 1 19 2 18 3 17 4 16 5 15 6 13 7 14 8 12 9 9 10 10 11
REMARK SMILES IDX 90 12 11 13 8 14 6 15 7 16 5 18 1 19 2 20 3 21 93 22 4 23
REMARK SMILES IDX 91 24 92 25 21 26 22 27 23 28 24 29 25 30 26 31 27 32 28 33
REMARK SMILES IDX 89 34 29 35 88 36 30 37 31 38 32 39 82 40 33 41 87 42 81 43
REMARK SMILES IDX 83 44 34 45 86 46 80 47 79 48 35 50 67 51 47 52 66 53 48 54
REMARK SMILES IDX 51 55 65 56 84 57 49 58 50 59 64 61 85 62 52 63 36 64 37 65
REMARK SMILES IDX 45 66 38 67 44 68 46 69 43 70 39 71 40 72 41 73 42 74 68 75
REMARK SMILES IDX 69 76 77 77 70 78 76 79 78 80 75 81 71 82 72 83 73 84 74 85
REMARK SMILES IDX 53 86 54 87 62 88 55 89 61 90 63 91 60 92 56 93 57 94 58 95
REMARK SMILES IDX 59 96
REMARK H PARENT 8 17 83 49 51 60
REMARK Flexibility Score: inf
ROOT
ATOM      1  C   UNL A   1      32.114  29.509  26.377  1.00  0.00     0.188 C 
ENDROOT
BRANCH   1   2
ATOM      2  C   UNL A   1      32.068  29.515  24.843  1.00  0.00     0.188 C 
BRANCH   2   3
ATOM      3  O   UNL A   1      30.820  29.262  24.194  1.00  0.00    -0.376 OA
BRANCH   3   4
ATOM      4  C   UNL A   1      30.483  27.921  23.897  1.00  0.00     0.202 C 
BRANCH   4   5
ATOM      5  C   UNL A   1      30.922  27.406  22.528  1.00  0.00     0.261 C 
BRANCH   5   6
ATOM      6  O   UNL A   1      32.333  27.168  22.396  1.00  0.00    -0.463 OA
BRANCH   6   7
ATOM      7  C   UNL A   1      32.827  26.198  23.229  1.00  0.00     0.312 C 
ATOM      8  O   UNL A   1      33.588  26.408  24.165  1.00  0.00    -0.252 OA
BRANCH   7   9
ATOM      9  C   UNL A   1      32.467  24.810  22.704  1.00  0.00     0.124 C 
ATOM     10  C   UNL A   1      32.477  22.686  23.980  1.00  0.00     0.106 C 
ATOM     11  C   UNL A   1      33.703  22.852  23.152  1.00  0.00    -0.006 C 
ATOM     12  C   UNL A   1      31.655  23.954  23.681  1.00  0.00     0.048 C 
ATOM     13  C   UNL A   1      33.694  23.989  22.451  1.00  0.00    -0.014 C 
BRANCH  10  14
ATOM     14  N   UNL A   1      32.875  22.533  25.358  1.00  0.00    -0.346 N 
ATOM     15  C   UNL A   1      33.424  21.441  25.978  1.00  0.00     0.254 C 
ATOM     16  O   UNL A   1      33.802  21.509  27.142  1.00  0.00    -0.269 OA
ATOM     17  H   UNL A   1      32.733  23.320  25.931  1.00  0.00     0.164 HD
BRANCH  15  18
ATOM     18  C   UNL A   1      33.474  20.150  25.279  1.00  0.00     0.075 A 
ATOM     19  C   UNL A   1      34.018  16.238  23.566  1.00  0.00     0.044 C 
ATOM     20  C   UNL A   1      33.797  17.614  24.119  1.00  0.00    -0.048 A 
ATOM     21  C   UNL A   1      32.524  18.075  24.482  1.00  0.00     0.004 A 
ATOM     22  C   UNL A   1      34.887  18.469  24.266  1.00  0.00     0.043 A 
ATOM     23  C   UNL A   1      32.357  19.349  25.041  1.00  0.00     0.017 A 
ATOM     24  C   UNL A   1      34.725  19.706  24.881  1.00  0.00     0.136 A 
ATOM     25  F   UNL A   1      35.820  20.418  25.182  1.00  0.00    -0.206 F 
ENDBRANCH  15  18
ENDBRANCH  10  14
ENDBRANCH   7   9
ENDBRANCH   6   7
ENDBRANCH   5   6
ENDBRANCH   4   5
ENDBRANCH   3   4
ENDBRANCH   2   3
ENDBRANCH   1   2
BRANCH   1  26
ATOM     26  O   UNL A   1      32.302  30.814  26.927  1.00  0.00    -0.376 OA
BRANCH  26  27
ATOM     27  C   UNL A   1      31.333  31.772  26.493  1.00  0.00     0.202 C 
BRANCH  27  28
ATOM     28  C   UNL A   1      31.787  33.186  26.855  1.00  0.00     0.261 C 
BRANCH  28  29
ATOM     29  O   UNL A   1      32.615  33.219  28.032  1.00  0.00    -0.460 OA
BRANCH  29  30
ATOM     30  C   UNL A   1      33.752  33.953  27.943  1.00  0.00     0.338 C 
ATOM     31  O   UNL A   1      33.832  35.104  27.542  1.00  0.00    -0.246 OA
BRANCH  30  32
ATOM     32  C   UNL A   1      34.877  33.188  28.530  1.00  0.00     0.060 A 
ATOM     33  C   UNL A   1      34.586  31.989  29.188  1.00  0.00     0.016 A 
ATOM     34  C   UNL A   1      36.204  33.606  28.400  1.00  0.00     0.016 A 
ATOM     35  C   UNL A   1      35.625  31.159  29.615  1.00  0.00     0.010 A 
ATOM     36  C   UNL A   1      37.239  32.816  28.919  1.00  0.00     0.010 A 
ATOM     37  C   UNL A   1      36.961  31.578  29.521  1.00  0.00    -0.014 A 
BRANCH  37  38
ATOM     38  C   UNL A   1      38.039  30.790  30.183  1.00  0.00     0.031 A 
ATOM     39  C   UNL A   1      38.368  31.079  31.626  1.00  0.00     0.074 A 
ATOM     40  C   UNL A   1      38.720  29.831  29.525  1.00  0.00     0.049 A 
ATOM     41  N   UNL A   1      39.252  30.514  32.407  1.00  0.00    -0.248 NA
ATOM     42  C   UNL A   1      37.572  32.128  32.287  1.00  0.00     0.031 C 
ATOM     43  C   UNL A   1      38.442  29.378  28.162  1.00  0.00     0.029 A 
ATOM     44  N   UNL A   1      39.797  29.067  29.913  1.00  0.00    -0.354 N 
ATOM     45  C   UNL A   1      39.077  31.095  33.658  1.00  0.00     0.074 A 
ATOM     46  C   UNL A   1      38.008  32.060  33.534  1.00  0.00     0.031 C 
ATOM     47  C   UNL A   1      39.349  28.448  27.814  1.00  0.00     0.029 A 
ATOM     48  C   UNL A   1      40.291  28.255  28.915  1.00  0.00     0.049 A 
ATOM     49  H   UNL A   1      40.181  29.099  30.818  1.00  0.00     0.167 HD
ATOM     50  C   UNL A   1      39.765  30.876  34.805  1.00  0.00     0.034 A 
ATOM     51  C   UNL A   1      41.393  27.473  28.887  1.00  0.00     0.034 A 
ATOM     52  C   UNL A   1      40.933  30.042  34.890  1.00  0.00     0.049 A 
ATOM     53  C   UNL A   1      42.268  27.405  30.122  1.00  0.00     0.074 A 
ATOM     54  C   UNL A   1      41.777  29.847  35.968  1.00  0.00     0.029 A 
ATOM     55  N   UNL A   1      41.458  29.311  33.833  1.00  0.00    -0.354 N 
ATOM     56  N   UNL A   1      42.083  27.955  31.301  1.00  0.00    -0.248 NA
ATOM     57  C   UNL A   1      43.506  26.618  30.019  1.00  0.00     0.031 C 
ATOM     58  C   UNL A   1      42.854  29.063  35.542  1.00  0.00     0.029 A 
ATOM     59  C   UNL A   1      42.642  28.704  34.220  1.00  0.00     0.049 A 
ATOM     60  H   UNL A   1      41.049  29.234  32.941  1.00  0.00     0.167 HD
ATOM     61  C   UNL A   1      43.168  27.560  32.081  1.00  0.00     0.074 A 
ATOM     62  C   UNL A   1      43.993  26.712  31.248  1.00  0.00     0.031 C 
ATOM     63  C   UNL A   1      43.458  27.869  33.371  1.00  0.00     0.034 A 
BRANCH  50  64
ATOM     64  C   UNL A   1      39.325  31.666  36.007  1.00  0.00     0.023 A 
ATOM     65  C   UNL A   1      38.464  31.114  36.974  1.00  0.00     0.031 A 
ATOM     66  C   UNL A   1      39.701  33.013  36.141  1.00  0.00     0.131 A 
ATOM     67  C   UNL A   1      37.964  31.927  38.003  1.00  0.00     0.055 A 
ATOM     68  C   UNL A   1      39.245  33.799  37.199  1.00  0.00     0.041 A 
ATOM     69  F   UNL A   1      40.489  33.596  35.223  1.00  0.00    -0.206 F 
ATOM     70  C   UNL A   1      38.364  33.260  38.132  1.00  0.00     0.022 A 
BRANCH  67  71
ATOM     71  S   UNL A   1      36.688  31.256  39.105  1.00  0.00     0.124 S 
ATOM     72  O   UNL A   1      37.404  31.173  40.375  1.00  0.00    -0.237 OA
ATOM     73  O   UNL A   1      35.638  32.266  39.028  1.00  0.00    -0.237 OA
ATOM     74  O   UNL A   1      36.355  29.967  38.500  1.00  0.00    -0.744 OA
ENDBRANCH  67  71
ENDBRANCH  50  64
BRANCH  51  75
ATOM     75  C   UNL A   1      41.806  26.758  27.638  1.00  0.00     0.023 A 
ATOM     76  C   UNL A   1      41.673  25.365  27.509  1.00  0.00     0.031 A 
ATOM     77  C   UNL A   1      42.453  27.452  26.598  1.00  0.00     0.131 A 
ATOM     78  C   UNL A   1      42.229  24.705  26.400  1.00  0.00     0.055 A 
ATOM     79  C   UNL A   1      42.951  26.799  25.469  1.00  0.00     0.041 A 
ATOM     80  F   UNL A   1      42.629  28.781  26.673  1.00  0.00    -0.206 F 
ATOM     81  C   UNL A   1      42.856  25.414  25.373  1.00  0.00     0.022 A 
BRANCH  78  82
ATOM     82  S   UNL A   1      42.238  22.889  26.375  1.00  0.00     0.124 S 
ATOM     83  O   UNL A   1      42.635  22.612  24.999  1.00  0.00    -0.237 OA
ATOM     84  O   UNL A   1      43.223  22.575  27.403  1.00  0.00    -0.237 OA
ATOM     85  O   UNL A   1      40.859  22.536  26.708  1.00  0.00    -0.744 OA
ENDBRANCH  78  82
ENDBRANCH  51  75
BRANCH  63  86
ATOM     86  C   UNL A   1      44.703  27.259  33.965  1.00  0.00     0.023 A 
ATOM     87  C   UNL A   1      44.680  26.011  34.612  1.00  0.00     0.031 A 
ATOM     88  C   UNL A   1      45.934  27.930  33.861  1.00  0.00     0.131 A 
ATOM     89  C   UNL A   1      45.860  25.491  35.166  1.00  0.00     0.055 A 
ATOM     90  C   UNL A   1      47.113  27.385  34.368  1.00  0.00     0.041 A 
ATOM     91  F   UNL A   1      46.012  29.124  33.251  1.00  0.00    -0.206 F 
ATOM     92  C   UNL A   1      47.079  26.163  35.034  1.00  0.00     0.022 A 
BRANCH  89  93
ATOM     93  S   UNL A   1      45.776  23.948  36.116  1.00  0.00     0.124 S 
ATOM     94  O   UNL A   1      46.989  23.260  35.687  1.00  0.00    -0.237 OA
ATOM     95  O   UNL A   1      45.768  24.428  37.494  1.00  0.00    -0.237 OA
ATOM     96  O   UNL A   1      44.526  23.336  35.668  1.00  0.00    -0.744 OA
ENDBRANCH  89  93
ENDBRANCH  63  86
ENDBRANCH  37  38
ENDBRANCH  30  32
ENDBRANCH  29  30
ENDBRANCH  28  29
ENDBRANCH  27  28
ENDBRANCH  26  27
ENDBRANCH   1  26
TORSDOF 22
ENDMDL
MODEL 2
REMARK VINA RESULT:     -10.5      4.936      8.044
REMARK SMILES Cc1ccc(C(=O)N[C@@H]2C=C[C@H](C(=O)OCCOCCOCCOC(=O)c3ccc(-c4c5nc(c(-c6cc(S(=O)(=O)[O-])ccc6F)c6ccc([nH]6)c(-c6cc(S(=O)(=O)[O-])ccc6F)c6nc(c(-c7cc(S(=O)(=O)[O-])ccc7F)c7ccc4[nH]7)C=C6)C=C5)cc3)C2)c(F)c1
REMARK SMILES IDX 20 1 19 2 18 3 17 4 16 5 15 6 13 7 14 8 12 9 9 10 10 11
REMARK SMILES IDX 90 12 11 13 8 14 6 15 7 16 5 18 1 19 2 20 3 21 93 22 4 23
REMARK SMILES IDX 91 24 92 25 21 26 22 27 23 28 24 29 25 30 26 31 27 32 28 33
REMARK SMILES IDX 89 34 29 35 88 36 30 37 31 38 32 39 82 40 33 41 87 42 81 43
REMARK SMILES IDX 83 44 34 45 86 46 80 47 79 48 35 50 67 51 47 52 66 53 48 54
REMARK SMILES IDX 51 55 65 56 84 57 49 58 50 59 64 61 85 62 52 63 36 64 37 65
REMARK SMILES IDX 45 66 38 67 44 68 46 69 43 70 39 71 40 72 41 73 42 74 68 75
REMARK SMILES IDX 69 76 77 77 70 78 76 79 78 80 75 81 71 82 72 83 73 84 74 85
REMARK SMILES IDX 53 86 54 87 62 88 55 89 61 90 63 91 60 92 56 93 57 94 58 95
REMARK SMILES IDX 59 96
REMARK H PARENT 8 17 83 49 51 60
REMARK Flexibility Score: inf
ROOT
ATOM      1  C   UNL A   1      33.096  35.679  30.273  1.00  0.00     0.188 C 
ENDROOT
BRANCH   1   2
ATOM      2  C   UNL A   1      33.255  35.399  28.773  1.00  0.00     0.188 C 
BRANCH   2   3
ATOM      3  O   UNL A   1      34.543  35.030  28.277  1.00  0.00    -0.376 OA
BRANCH   3   4
ATOM      4  C   UNL A   1      34.789  33.661  28.015  1.00  0.00     0.202 C 
BRANCH   4   5
ATOM      5  C   UNL A   1      33.563  32.749  28.003  1.00  0.00     0.261 C 
BRANCH   5   6
ATOM      6  O   UNL A   1      33.857  31.344  27.937  1.00  0.00    -0.463 OA
BRANCH   6   7
ATOM      7  C   UNL A   1      32.970  30.611  27.193  1.00  0.00     0.312 C 
ATOM      8  O   UNL A   1      32.036  31.087  26.559  1.00  0.00    -0.252 OA
BRANCH   7   9
ATOM      9  C   UNL A   1      33.179  29.117  27.432  1.00  0.00     0.124 C 
ATOM     10  C   UNL A   1      33.243  27.330  25.717  1.00  0.00     0.106 C 
ATOM     11  C   UNL A   1      31.922  27.412  26.398  1.00  0.00    -0.006 C 
ATOM     12  C   UNL A   1      34.078  28.431  26.399  1.00  0.00     0.048 C 
ATOM     13  C   UNL A   1      31.889  28.364  27.333  1.00  0.00    -0.014 C 
BRANCH  10  14
ATOM     14  N   UNL A   1      33.040  27.513  24.302  1.00  0.00    -0.346 N 
ATOM     15  C   UNL A   1      32.840  26.565  23.332  1.00  0.00     0.254 C 
ATOM     16  O   UNL A   1      32.579  26.895  22.181  1.00  0.00    -0.269 OA
ATOM     17  H   UNL A   1      33.043  28.446  23.989  1.00  0.00     0.164 HD
BRANCH  15  18
ATOM     18  C   UNL A   1      33.035  25.143  23.647  1.00  0.00     0.075 A 
ATOM     19  C   UNL A   1      33.185  20.883  24.252  1.00  0.00     0.044 C 
ATOM     20  C   UNL A   1      33.168  22.373  24.083  1.00  0.00    -0.048 A 
ATOM     21  C   UNL A   1      34.320  23.097  23.742  1.00  0.00     0.004 A 
ATOM     22  C   UNL A   1      31.976  23.064  24.284  1.00  0.00     0.043 A 
ATOM     23  C   UNL A   1      34.260  24.484  23.545  1.00  0.00     0.017 A 
ATOM     24  C   UNL A   1      31.909  24.430  24.025  1.00  0.00     0.136 A 
ATOM     25  F   UNL A   1      30.707  25.024  24.039  1.00  0.00    -0.206 F 
ENDBRANCH  15  18
ENDBRANCH  10  14
ENDBRANCH   7   9
ENDBRANCH   6   7
ENDBRANCH   5   6
ENDBRANCH   4   5
ENDBRANCH   3   4
ENDBRANCH   2   3
ENDBRANCH   1   2
BRANCH   1  26
ATOM     26  O   UNL A   1      33.216  34.499  31.069  1.00  0.00    -0.376 OA
BRANCH  26  27
ATOM     27  C   UNL A   1      34.146  34.620  32.149  1.00  0.00     0.202 C 
BRANCH  27  28
ATOM     28  C   UNL A   1      34.285  33.284  32.879  1.00  0.00     0.261 C 
BRANCH  28  29
ATOM     29  O   UNL A   1      35.322  32.454  32.326  1.00  0.00    -0.460 OA
BRANCH  29  30
ATOM     30  C   UNL A   1      36.384  32.208  33.132  1.00  0.00     0.338 C 
ATOM     31  O   UNL A   1      36.409  32.340  34.346  1.00  0.00    -0.246 OA
BRANCH  30  32
ATOM     32  C   UNL A   1      37.485  31.627  32.328  1.00  0.00     0.060 A 
ATOM     33  C   UNL A   1      38.472  30.895  32.993  1.00  0.00     0.016 A 
ATOM     34  C   UNL A   1      37.529  31.749  30.936  1.00  0.00     0.016 A 
ATOM     35  C   UNL A   1      39.436  30.198  32.261  1.00  0.00     0.010 A 
ATOM     36  C   UNL A   1      38.557  31.130  30.213  1.00  0.00     0.010 A 
ATOM     37  C   UNL A   1      39.515  30.337  30.868  1.00  0.00    -0.014 A 
BRANCH  37  38
ATOM     38  C   UNL A   1      40.679  29.775  30.126  1.00  0.00     0.031 A 
ATOM     39  C   UNL A   1      41.881  30.654  29.888  1.00  0.00     0.074 A 
ATOM     40  C   UNL A   1      40.681  28.508  29.667  1.00  0.00     0.049 A 
ATOM     41  N   UNL A   1      43.008  30.377  29.283  1.00  0.00    -0.248 NA
ATOM     42  C   UNL A   1      41.817  32.022  30.432  1.00  0.00     0.031 C 
ATOM     43  C   UNL A   1      39.632  27.517  29.910  1.00  0.00     0.029 A 
ATOM     44  N   UNL A   1      41.596  27.835  28.889  1.00  0.00    -0.354 N 
ATOM     45  C   UNL A   1      43.802  31.510  29.427  1.00  0.00     0.074 A 
ATOM     46  C   UNL A   1      43.029  32.480  30.169  1.00  0.00     0.031 C 
ATOM     47  C   UNL A   1      39.942  26.381  29.260  1.00  0.00     0.029 A 
ATOM     48  C   UNL A   1      41.196  26.565  28.532  1.00  0.00     0.049 A 
ATOM     49  H   UNL A   1      42.456  28.225  28.612  1.00  0.00     0.167 HD
ATOM     50  C   UNL A   1      45.049  31.743  28.954  1.00  0.00     0.034 A 
ATOM     51  C   UNL A   1      41.763  25.673  27.692  1.00  0.00     0.034 A 
ATOM     52  C   UNL A   1      45.753  30.848  28.076  1.00  0.00     0.049 A 
ATOM     53  C   UNL A   1      43.064  26.041  27.008  1.00  0.00     0.074 A 
ATOM     54  C   UNL A   1      46.966  31.038  27.440  1.00  0.00     0.029 A 
ATOM     55  N   UNL A   1      45.273  29.613  27.661  1.00  0.00    -0.354 N 
ATOM     56  N   UNL A   1      43.806  27.114  27.161  1.00  0.00    -0.248 NA
ATOM     57  C   UNL A   1      43.598  25.082  26.030  1.00  0.00     0.031 C 
ATOM     58  C   UNL A   1      47.182  29.956  26.580  1.00  0.00     0.029 A 
ATOM     59  C   UNL A   1      46.141  29.053  26.738  1.00  0.00     0.049 A 
ATOM     60  H   UNL A   1      44.439  29.196  27.976  1.00  0.00     0.167 HD
ATOM     61  C   UNL A   1      44.902  26.944  26.318  1.00  0.00     0.074 A 
ATOM     62  C   UNL A   1      44.736  25.661  25.673  1.00  0.00     0.031 C 
ATOM     63  C   UNL A   1      45.953  27.775  26.096  1.00  0.00     0.034 A 
BRANCH  50  64
ATOM     64  C   UNL A   1      45.650  33.082  29.288  1.00  0.00     0.023 A 
ATOM     65  C   UNL A   1      45.609  34.153  28.375  1.00  0.00     0.031 A 
ATOM     66  C   UNL A   1      46.345  33.261  30.495  1.00  0.00     0.131 A 
ATOM     67  C   UNL A   1      46.302  35.338  28.665  1.00  0.00     0.055 A 
ATOM     68  C   UNL A   1      46.984  34.462  30.801  1.00  0.00     0.041 A 
ATOM     69  F   UNL A   1      46.445  32.256  31.380  1.00  0.00    -0.206 F 
ATOM     70  C   UNL A   1      46.973  35.506  29.880  1.00  0.00     0.022 A 
BRANCH  67  71
ATOM     71  S   UNL A   1      46.420  36.618  27.384  1.00  0.00     0.124 S 
ATOM     72  O   UNL A   1      47.609  36.196  26.648  1.00  0.00    -0.237 OA
ATOM     73  O   UNL A   1      45.150  36.481  26.680  1.00  0.00    -0.237 OA
ATOM     74  O   UNL A   1      46.576  37.854  28.148  1.00  0.00    -0.744 OA
ENDBRANCH  67  71
ENDBRANCH  50  64
BRANCH  51  75
ATOM     75  C   UNL A   1      41.083  24.381  27.358  1.00  0.00     0.023 A 
ATOM     76  C   UNL A   1      39.891  24.347  26.614  1.00  0.00     0.031 A 
ATOM     77  C   UNL A   1      41.560  23.165  27.884  1.00  0.00     0.131 A 
ATOM     78  C   UNL A   1      39.187  23.140  26.468  1.00  0.00     0.055 A 
ATOM     79  C   UNL A   1      40.888  21.957  27.685  1.00  0.00     0.041 A 
ATOM     80  F   UNL A   1      42.681  23.136  28.621  1.00  0.00    -0.206 F 
ATOM     81  C   UNL A   1      39.684  21.943  26.988  1.00  0.00     0.022 A 
BRANCH  78  82
ATOM     82  S   UNL A   1      37.543  23.171  25.698  1.00  0.00     0.124 S 
ATOM     83  O   UNL A   1      37.766  24.050  24.555  1.00  0.00    -0.237 OA
ATOM     84  O   UNL A   1      37.323  21.763  25.391  1.00  0.00    -0.237 OA
ATOM     85  O   UNL A   1      36.684  23.719  26.746  1.00  0.00    -0.744 OA
ENDBRANCH  78  82
ENDBRANCH  51  75
BRANCH  63  86
ATOM     86  C   UNL A   1      47.018  27.300  25.138  1.00  0.00     0.023 A 
ATOM     87  C   UNL A   1      47.114  27.802  23.829  1.00  0.00     0.031 A 
ATOM     88  C   UNL A   1      47.964  26.346  25.555  1.00  0.00     0.131 A 
ATOM     89  C   UNL A   1      48.111  27.318  22.967  1.00  0.00     0.055 A 
ATOM     90  C   UNL A   1      48.983  25.905  24.711  1.00  0.00     0.041 A 
ATOM     91  F   UNL A   1      47.918  25.836  26.796  1.00  0.00    -0.206 F 
ATOM     92  C   UNL A   1      49.055  26.384  23.406  1.00  0.00     0.022 A 
BRANCH  89  93
ATOM     93  S   UNL A   1      48.126  27.878  21.243  1.00  0.00     0.124 S 
ATOM     94  O   UNL A   1      48.634  26.702  20.544  1.00  0.00    -0.237 OA
ATOM     95  O   UNL A   1      46.723  28.204  21.006  1.00  0.00    -0.237 OA
ATOM     96  O   UNL A   1      49.031  29.027  21.262  1.00  0.00    -0.744 OA
ENDBRANCH  89  93
ENDBRANCH  63  86
ENDBRANCH  37  38
ENDBRANCH  30  32
ENDBRANCH  29  30
ENDBRANCH  28  29
ENDBRANCH  27  28
ENDBRANCH  26  27
ENDBRANCH   1  26
TORSDOF 22
ENDMDL
MODEL 3
REMARK VINA RESULT:      -9.8      1.202      7.355
REMARK SMILES Cc1ccc(C(=O)N[C@@H]2C=C[C@H](C(=O)OCCOCCOCCOC(=O)c3ccc(-c4c5nc(c(-c6cc(S(=O)(=O)[O-])ccc6F)c6ccc([nH]6)c(-c6cc(S(=O)(=O)[O-])ccc6F)c6nc(c(-c7cc(S(=O)(=O)[O-])ccc7F)c7ccc4[nH]7)C=C6)C=C5)cc3)C2)c(F)c1
REMARK SMILES IDX 20 1 19 2 18 3 17 4 16 5 15 6 13 7 14 8 12 9 9 10 10 11
REMARK SMILES IDX 90 12 11 13 8 14 6 15 7 16 5 18 1 19 2 20 3 21 93 22 4 23
REMARK SMILES IDX 91 24 92 25 21 26 22 27 23 28 24 29 25 30 26 31 27 32 28 33
REMARK SMILES IDX 89 34 29 35 88 36 30 37 31 38 32 39 82 40 33 41 87 42 81 43
REMARK SMILES IDX 83 44 34 45 86 46 80 47 79 48 35 50 67 51 47 52 66 53 48 54
REMARK SMILES IDX 51 55 65 56 84 57 49 58 50 59 64 61 85 62 52 63 36 64 37 65
REMARK SMILES IDX 45 66 38 67 44 68 46 69 43 70 39 71 40 72 41 73 42 74 68 75
REMARK SMILES IDX 69 76 77 77 70 78 76 79 78 80 75 81 71 82 72 83 73 84 74 85
REMARK SMILES IDX 53 86 54 87 62 88 55 89 61 90 63 91 60 92 56 93 57 94 58 95
REMARK SMILES IDX 59 96
REMARK H PARENT 8 17 83 49 51 60
REMARK Flexibility Score: inf
ROOT
ATOM      1  C   UNL A   1      31.673  29.474  26.069  1.00  0.00     0.188 C 
ENDROOT
BRANCH   1   2
ATOM      2  C   UNL A   1      31.250  29.787  24.628  1.00  0.00     0.188 C 
BRANCH   2   3
ATOM      3  O   UNL A   1      30.314  28.919  23.985  1.00  0.00    -0.376 OA
BRANCH   3   4
ATOM      4  C   UNL A   1      30.297  27.557  24.366  1.00  0.00     0.202 C 
BRANCH   4   5
ATOM      5  C   UNL A   1      30.289  26.541  23.226  1.00  0.00     0.261 C 
BRANCH   5   6
ATOM      6  O   UNL A   1      31.445  26.581  22.373  1.00  0.00    -0.463 OA
BRANCH   6   7
ATOM      7  C   UNL A   1      32.564  25.992  22.902  1.00  0.00     0.312 C 
ATOM      8  O   UNL A   1      33.404  26.576  23.574  1.00  0.00    -0.252 OA
BRANCH   7   9
ATOM      9  C   UNL A   1      32.722  24.571  22.366  1.00  0.00     0.124 C 
ATOM     10  C   UNL A   1      33.004  22.501  23.697  1.00  0.00     0.106 C 
ATOM     11  C   UNL A   1      34.298  23.011  23.166  1.00  0.00    -0.006 C 
ATOM     12  C   UNL A   1      31.965  23.505  23.165  1.00  0.00     0.048 C 
ATOM     13  C   UNL A   1      34.147  24.118  22.436  1.00  0.00    -0.014 C 
BRANCH  10  14
ATOM     14  N   UNL A   1      33.097  22.429  25.134  1.00  0.00    -0.346 N 
ATOM     15  C   UNL A   1      33.403  21.352  25.924  1.00  0.00     0.254 C 
ATOM     16  O   UNL A   1      33.542  21.485  27.134  1.00  0.00    -0.269 OA
ATOM     17  H   UNL A   1      32.916  23.269  25.614  1.00  0.00     0.164 HD
BRANCH  15  18
ATOM     18  C   UNL A   1      33.473  20.008  25.334  1.00  0.00     0.075 A 
ATOM     19  C   UNL A   1      34.099  15.988  23.927  1.00  0.00     0.044 C 
ATOM     20  C   UNL A   1      33.846  17.396  24.375  1.00  0.00    -0.048 A 
ATOM     21  C   UNL A   1      32.575  17.835  24.771  1.00  0.00     0.004 A 
ATOM     22  C   UNL A   1      34.903  18.304  24.386  1.00  0.00     0.043 A 
ATOM     23  C   UNL A   1      32.382  19.145  25.230  1.00  0.00     0.017 A 
ATOM     24  C   UNL A   1      34.719  19.582  24.902  1.00  0.00     0.136 A 
ATOM     25  F   UNL A   1      35.797  20.360  25.078  1.00  0.00    -0.206 F 
ENDBRANCH  15  18
ENDBRANCH  10  14
ENDBRANCH   7   9
ENDBRANCH   6   7
ENDBRANCH   5   6
ENDBRANCH   4   5
ENDBRANCH   3   4
ENDBRANCH   2   3
ENDBRANCH   1   2
BRANCH   1  26
ATOM     26  O   UNL A   1      32.171  30.622  26.758  1.00  0.00    -0.376 OA
BRANCH  26  27
ATOM     27  C   UNL A   1      31.415  31.813  26.522  1.00  0.00     0.202 C 
BRANCH  27  28
ATOM     28  C   UNL A   1      32.161  33.030  27.069  1.00  0.00     0.261 C 
BRANCH  28  29
ATOM     29  O   UNL A   1      33.236  32.670  27.956  1.00  0.00    -0.460 OA
BRANCH  29  30
ATOM     30  C   UNL A   1      34.172  33.625  28.179  1.00  0.00     0.338 C 
ATOM     31  O   UNL A   1      34.042  34.820  27.964  1.00  0.00    -0.246 OA
BRANCH  30  32
ATOM     32  C   UNL A   1      35.345  33.015  28.848  1.00  0.00     0.060 A 
ATOM     33  C   UNL A   1      36.620  33.398  28.423  1.00  0.00     0.016 A 
ATOM     34  C   UNL A   1      35.206  32.116  29.910  1.00  0.00     0.016 A 
ATOM     35  C   UNL A   1      37.747  32.972  29.128  1.00  0.00     0.010 A 
ATOM     36  C   UNL A   1      36.346  31.613  30.552  1.00  0.00     0.010 A 
ATOM     37  C   UNL A   1      37.629  32.046  30.175  1.00  0.00    -0.014 A 
BRANCH  37  38
ATOM     38  C   UNL A   1      38.849  31.427  30.767  1.00  0.00     0.031 A 
ATOM     39  C   UNL A   1      39.490  30.262  30.055  1.00  0.00     0.074 A 
ATOM     40  C   UNL A   1      39.388  31.884  31.915  1.00  0.00     0.049 A 
ATOM     41  N   UNL A   1      40.559  29.579  30.375  1.00  0.00    -0.248 NA
ATOM     42  C   UNL A   1      38.857  29.827  28.798  1.00  0.00     0.031 C 
ATOM     43  C   UNL A   1      38.934  33.062  32.655  1.00  0.00     0.029 A 
ATOM     44  N   UNL A   1      40.435  31.405  32.669  1.00  0.00    -0.354 N 
ATOM     45  C   UNL A   1      40.757  28.679  29.333  1.00  0.00     0.074 A 
ATOM     46  C   UNL A   1      39.697  28.898  28.375  1.00  0.00     0.031 C 
ATOM     47  C   UNL A   1      39.669  33.188  33.774  1.00  0.00     0.029 A 
ATOM     48  C   UNL A   1      40.629  32.088  33.849  1.00  0.00     0.049 A 
ATOM     49  H   UNL A   1      40.993  30.643  32.391  1.00  0.00     0.167 HD
ATOM     50  C   UNL A   1      41.712  27.728  29.196  1.00  0.00     0.034 A 
ATOM     51  C   UNL A   1      41.463  31.834  34.882  1.00  0.00     0.034 A 
ATOM     52  C   UNL A   1      42.664  27.398  30.221  1.00  0.00     0.049 A 
ATOM     53  C   UNL A   1      42.384  30.635  34.795  1.00  0.00     0.074 A 
ATOM     54  C   UNL A   1      43.594  26.374  30.238  1.00  0.00     0.029 A 
ATOM     55  N   UNL A   1      42.766  28.051  31.442  1.00  0.00    -0.354 N 
ATOM     56  N   UNL A   1      42.565  29.798  33.798  1.00  0.00    -0.248 NA
ATOM     57  C   UNL A   1      43.207  30.339  35.977  1.00  0.00     0.031 C 
ATOM     58  C   UNL A   1      44.202  26.358  31.498  1.00  0.00     0.029 A 
ATOM     59  C   UNL A   1      43.708  27.420  32.239  1.00  0.00     0.049 A 
ATOM     60  H   UNL A   1      42.247  28.845  31.703  1.00  0.00     0.167 HD
ATOM     61  C   UNL A   1      43.536  28.897  34.226  1.00  0.00     0.074 A 
ATOM     62  C   UNL A   1      43.917  29.299  35.563  1.00  0.00     0.031 C 
ATOM     63  C   UNL A   1      44.067  27.830  33.575  1.00  0.00     0.034 A 
BRANCH  50  64
ATOM     64  C   UNL A   1      41.661  26.909  27.935  1.00  0.00     0.023 A 
ATOM     65  C   UNL A   1      41.169  25.591  27.935  1.00  0.00     0.031 A 
ATOM     66  C   UNL A   1      42.192  27.423  26.740  1.00  0.00     0.131 A 
ATOM     67  C   UNL A   1      41.270  24.812  26.772  1.00  0.00     0.055 A 
ATOM     68  C   UNL A   1      42.237  26.662  25.573  1.00  0.00     0.041 A 
ATOM     69  F   UNL A   1      42.710  28.661  26.700  1.00  0.00    -0.206 F 
ATOM     70  C   UNL A   1      41.784  25.345  25.586  1.00  0.00     0.022 A 
BRANCH  67  71
ATOM     71  S   UNL A   1      40.833  23.053  26.856  1.00  0.00     0.124 S 
ATOM     72  O   UNL A   1      39.388  23.094  26.648  1.00  0.00    -0.237 OA
ATOM     73  O   UNL A   1      41.620  22.478  25.771  1.00  0.00    -0.237 OA
ATOM     74  O   UNL A   1      41.250  22.660  28.201  1.00  0.00    -0.744 OA
ENDBRANCH  67  71
ENDBRANCH  50  64
BRANCH  51  75
ATOM     75  C   UNL A   1      41.421  32.655  36.133  1.00  0.00     0.023 A 
ATOM     76  C   UNL A   1      40.512  32.374  37.168  1.00  0.00     0.031 A 
ATOM     77  C   UNL A   1      42.216  33.810  36.257  1.00  0.00     0.131 A 
ATOM     78  C   UNL A   1      40.379  33.264  38.247  1.00  0.00     0.055 A 
ATOM     79  C   UNL A   1      42.122  34.660  37.362  1.00  0.00     0.041 A 
ATOM     80  F   UNL A   1      43.087  34.144  35.292  1.00  0.00    -0.206 F 
ATOM     81  C   UNL A   1      41.186  34.398  38.357  1.00  0.00     0.022 A 
BRANCH  78  82
ATOM     82  S   UNL A   1      39.044  32.991  39.448  1.00  0.00     0.124 S 
ATOM     83  O   UNL A   1      38.615  34.355  39.733  1.00  0.00    -0.237 OA
ATOM     84  O   UNL A   1      38.111  32.171  38.684  1.00  0.00    -0.237 OA
ATOM     85  O   UNL A   1      39.712  32.305  40.552  1.00  0.00    -0.744 OA
ENDBRANCH  78  82
ENDBRANCH  51  75
BRANCH  63  86
ATOM     86  C   UNL A   1      45.140  27.047  34.291  1.00  0.00     0.023 A 
ATOM     87  C   UNL A   1      44.840  25.904  35.052  1.00  0.00     0.031 A 
ATOM     88  C   UNL A   1      46.486  27.443  34.189  1.00  0.00     0.131 A 
ATOM     89  C   UNL A   1      45.870  25.219  35.716  1.00  0.00     0.055 A 
ATOM     90  C   UNL A   1      47.511  26.728  34.808  1.00  0.00     0.041 A 
ATOM     91  F   UNL A   1      46.827  28.526  33.472  1.00  0.00    -0.206 F 
ATOM     92  C   UNL A   1      47.204  25.615  35.585  1.00  0.00     0.022 A 
BRANCH  89  93
ATOM     93  S   UNL A   1      45.440  23.832  36.803  1.00  0.00     0.124 S 
ATOM     94  O   UNL A   1      46.752  23.371  37.243  1.00  0.00    -0.237 OA
ATOM     95  O   UNL A   1      44.615  24.476  37.821  1.00  0.00    -0.237 OA
ATOM     96  O   UNL A   1      44.723  22.912  35.921  1.00  0.00    -0.744 OA
ENDBRANCH  89  93
ENDBRANCH  63  86
ENDBRANCH  37  38
ENDBRANCH  30  32
ENDBRANCH  29  30
ENDBRANCH  28  29
ENDBRANCH  27  28
ENDBRANCH  26  27
ENDBRANCH   1  26
TORSDOF 22
ENDMDL
