MODEL 1
REMARK VINA RESULT:     -12.5      0.000      0.000
REMARK SMILES COc1cccc([C@@H]2CC(c3cccc(C)c3)=NN2C(=O)CCC(=O)OCCOCCOCCOC(=O)c2ccc(-c3c4nc(c(-c5cc(S(=O)(=O)[O-])ccc5F)c5ccc([nH]5)c(-c5cc(S(=O)(=O)[O-])ccc5F)c5nc(c(-c6cc(S(=O)(=O)[O-])ccc6F)c6ccc3[nH]6)C=C5)C=C4)cc2)c1
REMARK SMILES IDX 30 1 29 2 28 3 27 4 26 5 24 6 25 7 23 8 22 9 20 10 21 11
REMARK SMILES IDX 19 12 8 13 9 14 10 15 18 16 7 17 3 18 4 19 101 20 5 21 6 22
REMARK SMILES IDX 2 23 1 24 11 25 12 26 17 27 13 28 15 29 14 30 16 31 31 32
REMARK SMILES IDX 32 33 33 34 34 35 35 36 36 37 37 38 38 39 39 40 100 41 40 42
REMARK SMILES IDX 99 43 41 44 42 45 43 46 93 47 44 48 98 49 92 50 94 51 45 52
REMARK SMILES IDX 97 53 91 54 90 55 46 57 78 58 58 59 77 60 59 61 62 62 76 63
REMARK SMILES IDX 95 64 60 65 61 66 75 68 96 69 63 70 47 71 48 72 56 73 49 74
REMARK SMILES IDX 55 75 57 76 54 77 50 78 51 79 52 80 53 81 79 82 80 83 88 84
REMARK SMILES IDX 81 85 87 86 89 87 86 88 82 89 83 90 84 91 85 92 64 93 65 94
REMARK SMILES IDX 73 95 66 96 72 97 74 98 71 99 67 100 68 101 69 102 70 103
REMARK H PARENT 94 56 62 67
REMARK Flexibility Score: inf
ROOT
ATOM      1  C   UNL A   1      31.101  28.524  23.964  1.00  0.00     0.188 C 
ENDROOT
BRANCH   1   2
ATOM      2  O   UNL A   1      29.933  27.712  23.668  1.00  0.00    -0.376 OA
BRANCH   2   3
ATOM      3  C   UNL A   1      29.585  26.286  23.683  1.00  0.00     0.202 C 
BRANCH   3   4
ATOM      4  C   UNL A   1      30.300  25.081  24.368  1.00  0.00     0.261 C 
BRANCH   4   5
ATOM      5  O   UNL A   1      30.342  25.186  25.767  1.00  0.00    -0.463 OA
BRANCH   5   6
ATOM      6  C   UNL A   1      30.851  24.076  26.321  1.00  0.00     0.306 C 
ATOM      7  O   UNL A   1      30.377  22.956  26.188  1.00  0.00    -0.252 OA
BRANCH   6   8
ATOM      8  C   UNL A   1      32.161  24.377  26.973  1.00  0.00     0.132 C 
BRANCH   8   9
ATOM      9  C   UNL A   1      32.990  23.208  27.575  1.00  0.00     0.114 C 
BRANCH   9  10
ATOM     10  C   UNL A   1      33.501  21.900  26.757  1.00  0.00     0.243 C 
ATOM     11  O   UNL A   1      33.997  21.079  27.568  1.00  0.00    -0.273 OA
BRANCH  10  12
ATOM     12  N   UNL A   1      33.305  21.479  25.355  1.00  0.00    -0.225 N 
ATOM     13  C   UNL A   1      32.420  20.488  24.160  1.00  0.00     0.147 C 
ATOM     14  C   UNL A   1      32.210  21.591  23.072  1.00  0.00     0.091 C 
ATOM     15  C   UNL A   1      33.217  22.647  23.474  1.00  0.00     0.071 C 
ATOM     16  N   UNL A   1      33.799  22.536  24.613  1.00  0.00    -0.174 NA
BRANCH  13  17
ATOM     17  C   UNL A   1      32.440  18.733  23.749  1.00  0.00    -0.019 A 
ATOM     18  C   UNL A   1      33.016  16.606  24.854  1.00  0.00     0.119 A 
ATOM     19  C   UNL A   1      34.034  16.302  23.946  1.00  0.00     0.046 A 
ATOM     20  C   UNL A   1      32.155  17.766  24.733  1.00  0.00     0.052 A 
ATOM     21  C   UNL A   1      34.027  16.961  22.773  1.00  0.00     0.004 A 
ATOM     22  C   UNL A   1      33.179  18.061  22.693  1.00  0.00     0.006 A 
BRANCH  18  23
ATOM     23  O   UNL A   1      33.099  15.740  25.900  1.00  0.00    -0.497 OA
ATOM     24  C   UNL A   1      32.660  14.430  25.683  1.00  0.00     0.278 C 
ENDBRANCH  18  23
ENDBRANCH  13  17
BRANCH  15  25
ATOM     25  C   UNL A   1      33.444  23.929  22.774  1.00  0.00    -0.002 A 
ATOM     26  C   UNL A   1      33.817  25.060  23.505  1.00  0.00     0.010 A 
ATOM     27  C   UNL A   1      32.901  24.081  21.489  1.00  0.00     0.013 A 
ATOM     28  C   UNL A   1      33.758  26.325  22.911  1.00  0.00     0.001 A 
ATOM     29  C   UNL A   1      32.817  25.350  20.896  1.00  0.00    -0.050 A 
ATOM     30  C   UNL A   1      33.278  26.466  21.606  1.00  0.00     0.003 A 
ATOM     31  C   UNL A   1      32.209  25.531  19.534  1.00  0.00     0.044 C 
ENDBRANCH  15  25
ENDBRANCH  10  12
ENDBRANCH   9  10
ENDBRANCH   8   9
ENDBRANCH   6   8
ENDBRANCH   5   6
ENDBRANCH   4   5
ENDBRANCH   3   4
ENDBRANCH   2   3
ENDBRANCH   1   2
BRANCH   1  32
ATOM     32  C   UNL A   1      31.825  29.531  25.345  1.00  0.00     0.188 C 
BRANCH  32  33
ATOM     33  O   UNL A   1      31.267  30.556  26.355  1.00  0.00    -0.376 OA
BRANCH  33  34
ATOM     34  C   UNL A   1      31.444  31.991  26.830  1.00  0.00     0.202 C 
BRANCH  34  35
ATOM     35  C   UNL A   1      32.678  33.061  27.386  1.00  0.00     0.261 C 
BRANCH  35  36
ATOM     36  O   UNL A   1      32.428  34.382  28.036  1.00  0.00    -0.460 OA
BRANCH  36  37
ATOM     37  C   UNL A   1      33.272  34.826  29.050  1.00  0.00     0.338 C 
ATOM     38  O   UNL A   1      32.973  35.688  29.830  1.00  0.00    -0.246 OA
BRANCH  37  39
ATOM     39  C   UNL A   1      34.541  33.974  29.263  1.00  0.00     0.060 A 
ATOM     40  C   UNL A   1      34.475  32.979  30.249  1.00  0.00     0.016 A 
ATOM     41  C   UNL A   1      35.788  34.129  28.634  1.00  0.00     0.016 A 
ATOM     42  C   UNL A   1      35.530  32.048  30.459  1.00  0.00     0.010 A 
ATOM     43  C   UNL A   1      36.898  33.250  28.930  1.00  0.00     0.010 A 
ATOM     44  C   UNL A   1      36.781  32.164  29.824  1.00  0.00    -0.014 A 
BRANCH  44  45
ATOM     45  C   UNL A   1      37.956  31.321  30.337  1.00  0.00     0.031 A 
ATOM     46  C   UNL A   1      38.476  31.654  31.732  1.00  0.00     0.074 A 
ATOM     47  C   UNL A   1      38.522  30.241  29.733  1.00  0.00     0.049 A 
ATOM     48  N   UNL A   1      39.394  31.064  32.460  1.00  0.00    -0.248 NA
ATOM     49  C   UNL A   1      37.813  32.775  32.414  1.00  0.00     0.031 C 
ATOM     50  C   UNL A   1      38.067  29.608  28.497  1.00  0.00     0.029 A 
ATOM     51  N   UNL A   1      39.608  29.450  30.098  1.00  0.00    -0.354 N 
ATOM     52  C   UNL A   1      39.356  31.694  33.702  1.00  0.00     0.074 A 
ATOM     53  C   UNL A   1      38.324  32.703  33.628  1.00  0.00     0.031 C 
ATOM     54  C   UNL A   1      38.878  28.576  28.187  1.00  0.00     0.029 A 
ATOM     55  C   UNL A   1      39.944  28.464  29.183  1.00  0.00     0.049 A 
ATOM     56  H   UNL A   1      40.099  29.580  30.941  1.00  0.00     0.167 HD
ATOM     57  C   UNL A   1      40.121  31.503  34.806  1.00  0.00     0.034 A 
ATOM     58  C   UNL A   1      40.985  27.590  29.131  1.00  0.00     0.034 A 
ATOM     59  C   UNL A   1      41.274  30.646  34.852  1.00  0.00     0.049 A 
ATOM     60  C   UNL A   1      42.003  27.581  30.261  1.00  0.00     0.074 A 
ATOM     61  C   UNL A   1      42.222  30.526  35.853  1.00  0.00     0.029 A 
ATOM     62  N   UNL A   1      41.670  29.799  33.826  1.00  0.00    -0.354 N 
ATOM     63  N   UNL A   1      41.986  28.243  31.395  1.00  0.00    -0.248 NA
ATOM     64  C   UNL A   1      43.181  26.708  30.106  1.00  0.00     0.031 C 
ATOM     65  C   UNL A   1      43.232  29.669  35.400  1.00  0.00     0.029 A 
ATOM     66  C   UNL A   1      42.865  29.182  34.157  1.00  0.00     0.049 A 
ATOM     67  H   UNL A   1      41.175  29.659  32.987  1.00  0.00     0.167 HD
ATOM     68  C   UNL A   1      43.117  27.829  32.101  1.00  0.00     0.074 A 
ATOM     69  C   UNL A   1      43.796  26.860  31.271  1.00  0.00     0.031 C 
ATOM     70  C   UNL A   1      43.546  28.212  33.332  1.00  0.00     0.034 A 
BRANCH  57  71
ATOM     71  C   UNL A   1      39.794  32.380  35.990  1.00  0.00     0.023 A 
ATOM     72  C   UNL A   1      38.907  31.951  36.996  1.00  0.00     0.031 A 
ATOM     73  C   UNL A   1      40.252  33.707  36.032  1.00  0.00     0.131 A 
ATOM     74  C   UNL A   1      38.433  32.872  37.943  1.00  0.00     0.055 A 
ATOM     75  C   UNL A   1      39.842  34.594  37.028  1.00  0.00     0.041 A 
ATOM     76  F   UNL A   1      41.065  34.181  35.075  1.00  0.00    -0.206 F 
ATOM     77  C   UNL A   1      38.911  34.184  37.979  1.00  0.00     0.022 A 
BRANCH  74  78
ATOM     78  S   UNL A   1      37.037  32.390  38.999  1.00  0.00     0.124 S 
ATOM     79  O   UNL A   1      35.902  32.923  38.251  1.00  0.00    -0.237 OA
ATOM     80  O   UNL A   1      37.154  30.937  39.035  1.00  0.00    -0.237 OA
ATOM     81  O   UNL A   1      37.314  33.070  40.264  1.00  0.00    -0.744 OA
ENDBRANCH  74  78
ENDBRANCH  57  71
BRANCH  58  82
ATOM     82  C   UNL A   1      41.227  26.696  27.935  1.00  0.00     0.023 A 
ATOM     83  C   UNL A   1      41.053  25.295  27.986  1.00  0.00     0.031 A 
ATOM     84  C   UNL A   1      41.786  27.227  26.757  1.00  0.00     0.131 A 
ATOM     85  C   UNL A   1      41.471  24.485  26.908  1.00  0.00     0.055 A 
ATOM     86  C   UNL A   1      42.151  26.424  25.671  1.00  0.00     0.041 A 
ATOM     87  F   UNL A   1      42.017  28.545  26.650  1.00  0.00    -0.206 F 
ATOM     88  C   UNL A   1      42.006  25.044  25.746  1.00  0.00     0.022 A 
BRANCH  85  89
ATOM     89  S   UNL A   1      41.410  22.672  27.073  1.00  0.00     0.124 S 
ATOM     90  O   UNL A   1      40.031  22.457  27.494  1.00  0.00    -0.237 OA
ATOM     91  O   UNL A   1      41.748  22.233  25.723  1.00  0.00    -0.237 OA
ATOM     92  O   UNL A   1      42.423  22.386  28.088  1.00  0.00    -0.744 OA
ENDBRANCH  85  89
ENDBRANCH  58  82
BRANCH  70  93
ATOM     93  C   UNL A   1      44.774  27.536  33.896  1.00  0.00     0.023 A 
ATOM     94  C   UNL A   1      46.075  28.001  33.635  1.00  0.00     0.031 A 
ATOM     95  C   UNL A   1      44.632  26.408  34.726  1.00  0.00     0.131 A 
ATOM     96  C   UNL A   1      47.182  27.309  34.152  1.00  0.00     0.055 A 
ATOM     97  C   UNL A   1      45.734  25.761  35.288  1.00  0.00     0.041 A 
ATOM     98  F   UNL A   1      43.415  25.918  35.011  1.00  0.00    -0.206 F 
ATOM     99  C   UNL A   1      47.019  26.203  34.991  1.00  0.00     0.022 A 
BRANCH  96 100
ATOM    100  S   UNL A   1      48.848  27.816  33.640  1.00  0.00     0.124 S 
ATOM    101  O   UNL A   1      48.720  27.859  32.187  1.00  0.00    -0.237 OA
ATOM    102  O   UNL A   1      48.999  29.106  34.305  1.00  0.00    -0.237 OA
ATOM    103  O   UNL A   1      49.705  26.751  34.156  1.00  0.00    -0.744 OA
ENDBRANCH  96 100
ENDBRANCH  70  93
ENDBRANCH  44  45
ENDBRANCH  37  39
ENDBRANCH  36  37
ENDBRANCH  35  36
ENDBRANCH  34  35
ENDBRANCH  33  34
ENDBRANCH  32  33
ENDBRANCH   1  32
TORSDOF 26
ENDMDL
MODEL 2
REMARK VINA RESULT:     -12.3      1.723      1.988
REMARK SMILES COc1cccc([C@@H]2CC(c3cccc(C)c3)=NN2C(=O)CCC(=O)OCCOCCOCCOC(=O)c2ccc(-c3c4nc(c(-c5cc(S(=O)(=O)[O-])ccc5F)c5ccc([nH]5)c(-c5cc(S(=O)(=O)[O-])ccc5F)c5nc(c(-c6cc(S(=O)(=O)[O-])ccc6F)c6ccc3[nH]6)C=C5)C=C4)cc2)c1
REMARK SMILES IDX 30 1 29 2 28 3 27 4 26 5 24 6 25 7 23 8 22 9 20 10 21 11
REMARK SMILES IDX 19 12 8 13 9 14 10 15 18 16 7 17 3 18 4 19 101 20 5 21 6 22
REMARK SMILES IDX 2 23 1 24 11 25 12 26 17 27 13 28 15 29 14 30 16 31 31 32
REMARK SMILES IDX 32 33 33 34 34 35 35 36 36 37 37 38 38 39 39 40 100 41 40 42
REMARK SMILES IDX 99 43 41 44 42 45 43 46 93 47 44 48 98 49 92 50 94 51 45 52
REMARK SMILES IDX 97 53 91 54 90 55 46 57 78 58 58 59 77 60 59 61 62 62 76 63
REMARK SMILES IDX 95 64 60 65 61 66 75 68 96 69 63 70 47 71 48 72 56 73 49 74
REMARK SMILES IDX 55 75 57 76 54 77 50 78 51 79 52 80 53 81 79 82 80 83 88 84
REMARK SMILES IDX 81 85 87 86 89 87 86 88 82 89 83 90 84 91 85 92 64 93 65 94
REMARK SMILES IDX 73 95 66 96 72 97 74 98 71 99 67 100 68 101 69 102 70 103
REMARK H PARENT 94 56 62 67
REMARK Flexibility Score: inf
ROOT
ATOM      1  C   UNL A   1      31.383  28.494  23.950  1.00  0.00     0.188 C 
ENDROOT
BRANCH   1   2
ATOM      2  O   UNL A   1      30.285  27.670  23.475  1.00  0.00    -0.376 OA
BRANCH   2   3
ATOM      3  C   UNL A   1      29.750  26.331  23.751  1.00  0.00     0.202 C 
BRANCH   3   4
ATOM      4  C   UNL A   1      30.402  25.115  24.478  1.00  0.00     0.261 C 
BRANCH   4   5
ATOM      5  O   UNL A   1      30.690  25.368  25.829  1.00  0.00    -0.463 OA
BRANCH   5   6
ATOM      6  C   UNL A   1      31.126  24.261  26.447  1.00  0.00     0.306 C 
ATOM      7  O   UNL A   1      30.482  23.225  26.545  1.00  0.00    -0.252 OA
BRANCH   6   8
ATOM      8  C   UNL A   1      32.558  24.418  26.841  1.00  0.00     0.132 C 
BRANCH   8   9
ATOM      9  C   UNL A   1      33.314  23.199  27.441  1.00  0.00     0.114 C 
BRANCH   9  10
ATOM     10  C   UNL A   1      33.526  21.769  26.699  1.00  0.00     0.243 C 
ATOM     11  O   UNL A   1      33.720  20.882  27.569  1.00  0.00    -0.273 OA
BRANCH  10  12
ATOM     12  N   UNL A   1      33.340  21.352  25.294  1.00  0.00    -0.225 N 
ATOM     13  C   UNL A   1      32.471  20.360  24.090  1.00  0.00     0.147 C 
ATOM     14  C   UNL A   1      32.256  21.466  23.006  1.00  0.00     0.091 C 
ATOM     15  C   UNL A   1      33.252  22.528  23.418  1.00  0.00     0.071 C 
ATOM     16  N   UNL A   1      33.829  22.418  24.559  1.00  0.00    -0.174 NA
BRANCH  13  17
ATOM     17  C   UNL A   1      32.507  18.607  23.671  1.00  0.00    -0.019 A 
ATOM     18  C   UNL A   1      33.104  16.480  24.766  1.00  0.00     0.119 A 
ATOM     19  C   UNL A   1      34.125  16.191  23.857  1.00  0.00     0.046 A 
ATOM     20  C   UNL A   1      32.231  17.633  24.650  1.00  0.00     0.052 A 
ATOM     21  C   UNL A   1      34.112  16.855  22.687  1.00  0.00     0.004 A 
ATOM     22  C   UNL A   1      33.253  17.947  22.612  1.00  0.00     0.006 A 
BRANCH  18  23
ATOM     23  O   UNL A   1      33.195  15.611  25.808  1.00  0.00    -0.497 OA
ATOM     24  C   UNL A   1      32.006  15.039  26.270  1.00  0.00     0.278 C 
ENDBRANCH  18  23
ENDBRANCH  13  17
BRANCH  15  25
ATOM     25  C   UNL A   1      33.472  23.816  22.725  1.00  0.00    -0.002 A 
ATOM     26  C   UNL A   1      33.865  24.939  23.459  1.00  0.00     0.010 A 
ATOM     27  C   UNL A   1      32.906  23.982  21.453  1.00  0.00     0.013 A 
ATOM     28  C   UNL A   1      33.800  26.209  22.878  1.00  0.00     0.001 A 
ATOM     29  C   UNL A   1      32.816  25.257  20.872  1.00  0.00    -0.050 A 
ATOM     30  C   UNL A   1      33.296  26.364  21.584  1.00  0.00     0.003 A 
ATOM     31  C   UNL A   1      32.183  25.452  19.525  1.00  0.00     0.044 C 
ENDBRANCH  15  25
ENDBRANCH  10  12
ENDBRANCH   9  10
ENDBRANCH   8   9
ENDBRANCH   6   8
ENDBRANCH   5   6
ENDBRANCH   4   5
ENDBRANCH   3   4
ENDBRANCH   2   3
ENDBRANCH   1   2
BRANCH   1  32
ATOM     32  C   UNL A   1      31.816  29.614  25.365  1.00  0.00     0.188 C 
BRANCH  32  33
ATOM     33  O   UNL A   1      31.094  30.754  26.115  1.00  0.00    -0.376 OA
BRANCH  33  34
ATOM     34  C   UNL A   1      31.276  32.193  26.573  1.00  0.00     0.202 C 
BRANCH  34  35
ATOM     35  C   UNL A   1      32.492  33.235  27.216  1.00  0.00     0.261 C 
BRANCH  35  36
ATOM     36  O   UNL A   1      32.226  34.556  27.860  1.00  0.00    -0.460 OA
BRANCH  36  37
ATOM     37  C   UNL A   1      33.072  35.021  28.863  1.00  0.00     0.338 C 
ATOM     38  O   UNL A   1      32.779  35.908  29.617  1.00  0.00    -0.246 OA
BRANCH  37  39
ATOM     39  C   UNL A   1      34.332  34.165  29.102  1.00  0.00     0.060 A 
ATOM     40  C   UNL A   1      34.238  33.161  30.077  1.00  0.00     0.016 A 
ATOM     41  C   UNL A   1      35.597  34.323  28.509  1.00  0.00     0.016 A 
ATOM     42  C   UNL A   1      35.285  32.226  30.307  1.00  0.00     0.010 A 
ATOM     43  C   UNL A   1      36.696  33.438  28.828  1.00  0.00     0.010 A 
ATOM     44  C   UNL A   1      36.553  32.344  29.708  1.00  0.00    -0.014 A 
BRANCH  44  45
ATOM     45  C   UNL A   1      37.711  31.494  30.245  1.00  0.00     0.031 A 
ATOM     46  C   UNL A   1      38.143  31.762  31.683  1.00  0.00     0.074 A 
ATOM     47  C   UNL A   1      38.332  30.456  29.620  1.00  0.00     0.049 A 
ATOM     48  N   UNL A   1      39.028  31.149  32.433  1.00  0.00    -0.248 NA
ATOM     49  C   UNL A   1      37.421  32.834  32.382  1.00  0.00     0.031 C 
ATOM     50  C   UNL A   1      37.962  29.882  28.329  1.00  0.00     0.029 A 
ATOM     51  N   UNL A   1      39.409  29.665  30.008  1.00  0.00    -0.354 N 
ATOM     52  C   UNL A   1      38.906  31.712  33.701  1.00  0.00     0.074 A 
ATOM     53  C   UNL A   1      37.862  32.707  33.619  1.00  0.00     0.031 C 
ATOM     54  C   UNL A   1      38.809  28.881  28.014  1.00  0.00     0.029 A 
ATOM     55  C   UNL A   1      39.817  28.733  29.064  1.00  0.00     0.049 A 
ATOM     56  H   UNL A   1      39.848  29.758  30.884  1.00  0.00     0.167 HD
ATOM     57  C   UNL A   1      39.609  31.474  34.838  1.00  0.00     0.034 A 
ATOM     58  C   UNL A   1      40.875  27.880  29.029  1.00  0.00     0.034 A 
ATOM     59  C   UNL A   1      40.774  30.634  34.907  1.00  0.00     0.049 A 
ATOM     60  C   UNL A   1      41.826  27.827  30.215  1.00  0.00     0.074 A 
ATOM     61  C   UNL A   1      41.664  30.477  35.955  1.00  0.00     0.029 A 
ATOM     62  N   UNL A   1      41.244  29.850  33.864  1.00  0.00    -0.354 N 
ATOM     63  N   UNL A   1      41.730  28.429  31.378  1.00  0.00    -0.248 NA
ATOM     64  C   UNL A   1      43.027  26.982  30.085  1.00  0.00     0.031 C 
ATOM     65  C   UNL A   1      42.714  29.661  35.519  1.00  0.00     0.029 A 
ATOM     66  C   UNL A   1      42.430  29.234  34.233  1.00  0.00     0.049 A 
ATOM     67  H   UNL A   1      40.802  29.745  32.991  1.00  0.00     0.167 HD
ATOM     68  C   UNL A   1      42.826  27.996  32.128  1.00  0.00     0.074 A 
ATOM     69  C   UNL A   1      43.570  27.083  31.290  1.00  0.00     0.031 C 
ATOM     70  C   UNL A   1      43.175  28.320  33.400  1.00  0.00     0.034 A 
BRANCH  57  71
ATOM     71  C   UNL A   1      39.198  32.283  36.044  1.00  0.00     0.023 A 
ATOM     72  C   UNL A   1      39.790  33.529  36.327  1.00  0.00     0.031 A 
ATOM     73  C   UNL A   1      38.322  31.734  36.996  1.00  0.00     0.131 A 
ATOM     74  C   UNL A   1      39.572  34.134  37.573  1.00  0.00     0.055 A 
ATOM     75  C   UNL A   1      38.044  32.385  38.198  1.00  0.00     0.041 A 
ATOM     76  F   UNL A   1      37.764  30.530  36.797  1.00  0.00    -0.206 F 
ATOM     77  C   UNL A   1      38.685  33.582  38.502  1.00  0.00     0.022 A 
BRANCH  74  78
ATOM     78  S   UNL A   1      40.611  35.546  38.047  1.00  0.00     0.124 S 
ATOM     79  O   UNL A   1      41.919  35.132  37.543  1.00  0.00    -0.237 OA
ATOM     80  O   UNL A   1      39.977  36.656  37.344  1.00  0.00    -0.237 OA
ATOM     81  O   UNL A   1      40.497  35.583  39.503  1.00  0.00    -0.744 OA
ENDBRANCH  74  78
ENDBRANCH  57  71
BRANCH  58  82
ATOM     82  C   UNL A   1      41.202  27.054  27.805  1.00  0.00     0.023 A 
ATOM     83  C   UNL A   1      41.022  25.654  27.762  1.00  0.00     0.031 A 
ATOM     84  C   UNL A   1      41.848  27.648  26.703  1.00  0.00     0.131 A 
ATOM     85  C   UNL A   1      41.517  24.904  26.673  1.00  0.00     0.055 A 
ATOM     86  C   UNL A   1      42.291  26.906  25.603  1.00  0.00     0.041 A 
ATOM     87  F   UNL A   1      42.089  28.968  26.690  1.00  0.00    -0.206 F 
ATOM     88  C   UNL A   1      42.138  25.524  25.588  1.00  0.00     0.022 A 
BRANCH  85  89
ATOM     89  S   UNL A   1      41.441  23.085  26.729  1.00  0.00     0.124 S 
ATOM     90  O   UNL A   1      42.044  22.801  28.027  1.00  0.00    -0.237 OA
ATOM     91  O   UNL A   1      40.007  22.837  26.617  1.00  0.00    -0.237 OA
ATOM     92  O   UNL A   1      42.232  22.673  25.571  1.00  0.00    -0.744 OA
ENDBRANCH  85  89
ENDBRANCH  58  82
BRANCH  70  93
ATOM     93  C   UNL A   1      44.381  27.635  34.000  1.00  0.00     0.023 A 
ATOM     94  C   UNL A   1      44.338  26.310  34.466  1.00  0.00     0.031 A 
ATOM     95  C   UNL A   1      45.604  28.326  34.093  1.00  0.00     0.131 A 
ATOM     96  C   UNL A   1      45.478  25.736  35.052  1.00  0.00     0.055 A 
ATOM     97  C   UNL A   1      46.751  27.730  34.620  1.00  0.00     0.041 A 
ATOM     98  F   UNL A   1      45.707  29.594  33.664  1.00  0.00    -0.206 F 
ATOM     99  C   UNL A   1      46.689  26.432  35.116  1.00  0.00     0.022 A 
BRANCH  96 100
ATOM    100  S   UNL A   1      45.338  24.097  35.818  1.00  0.00     0.124 S 
ATOM    101  O   UNL A   1      46.000  23.244  34.836  1.00  0.00    -0.237 OA
ATOM    102  O   UNL A   1      46.046  24.281  37.081  1.00  0.00    -0.237 OA
ATOM    103  O   UNL A   1      43.896  23.897  35.941  1.00  0.00    -0.744 OA
ENDBRANCH  96 100
ENDBRANCH  70  93
ENDBRANCH  44  45
ENDBRANCH  37  39
ENDBRANCH  36  37
ENDBRANCH  35  36
ENDBRANCH  34  35
ENDBRANCH  33  34
ENDBRANCH  32  33
ENDBRANCH   1  32
TORSDOF 26
ENDMDL
MODEL 3
REMARK VINA RESULT:     -11.3      2.471      7.774
REMARK SMILES COc1cccc([C@@H]2CC(c3cccc(C)c3)=NN2C(=O)CCC(=O)OCCOCCOCCOC(=O)c2ccc(-c3c4nc(c(-c5cc(S(=O)(=O)[O-])ccc5F)c5ccc([nH]5)c(-c5cc(S(=O)(=O)[O-])ccc5F)c5nc(c(-c6cc(S(=O)(=O)[O-])ccc6F)c6ccc3[nH]6)C=C5)C=C4)cc2)c1
REMARK SMILES IDX 30 1 29 2 28 3 27 4 26 5 24 6 25 7 23 8 22 9 20 10 21 11
REMARK SMILES IDX 19 12 8 13 9 14 10 15 18 16 7 17 3 18 4 19 101 20 5 21 6 22
REMARK SMILES IDX 2 23 1 24 11 25 12 26 17 27 13 28 15 29 14 30 16 31 31 32
REMARK SMILES IDX 32 33 33 34 34 35 35 36 36 37 37 38 38 39 39 40 100 41 40 42
REMARK SMILES IDX 99 43 41 44 42 45 43 46 93 47 44 48 98 49 92 50 94 51 45 52
REMARK SMILES IDX 97 53 91 54 90 55 46 57 78 58 58 59 77 60 59 61 62 62 76 63
REMARK SMILES IDX 95 64 60 65 61 66 75 68 96 69 63 70 47 71 48 72 56 73 49 74
REMARK SMILES IDX 55 75 57 76 54 77 50 78 51 79 52 80 53 81 79 82 80 83 88 84
REMARK SMILES IDX 81 85 87 86 89 87 86 88 82 89 83 90 84 91 85 92 64 93 65 94
REMARK SMILES IDX 73 95 66 96 72 97 74 98 71 99 67 100 68 101 69 102 70 103
REMARK H PARENT 94 56 62 67
REMARK Flexibility Score: inf
ROOT
ATOM      1  C   UNL A   1      31.883  28.848  23.906  1.00  0.00     0.188 C 
ENDROOT
BRANCH   1   2
ATOM      2  O   UNL A   1      30.432  28.804  23.852  1.00  0.00    -0.376 OA
BRANCH   2   3
ATOM      3  C   UNL A   1      29.401  27.850  23.423  1.00  0.00     0.202 C 
BRANCH   3   4
ATOM      4  C   UNL A   1      29.144  26.377  23.866  1.00  0.00     0.261 C 
BRANCH   4   5
ATOM      5  O   UNL A   1      29.792  26.039  25.065  1.00  0.00    -0.463 OA
BRANCH   5   6
ATOM      6  C   UNL A   1      30.738  25.112  24.860  1.00  0.00     0.306 C 
ATOM      7  O   UNL A   1      30.545  24.037  24.309  1.00  0.00    -0.252 OA
BRANCH   6   8
ATOM      8  C   UNL A   1      32.079  25.649  25.241  1.00  0.00     0.132 C 
BRANCH   8   9
ATOM      9  C   UNL A   1      32.792  25.073  26.497  1.00  0.00     0.114 C 
BRANCH   9  10
ATOM     10  C   UNL A   1      32.970  23.494  26.834  1.00  0.00     0.243 C 
ATOM     11  O   UNL A   1      32.249  23.204  27.823  1.00  0.00    -0.273 OA
BRANCH  10  12
ATOM     12  N   UNL A   1      33.634  22.399  26.098  1.00  0.00    -0.225 N 
ATOM     13  C   UNL A   1      33.652  21.274  24.711  1.00  0.00     0.147 C 
ATOM     14  C   UNL A   1      35.150  21.451  24.303  1.00  0.00     0.091 C 
ATOM     15  C   UNL A   1      35.754  22.089  25.535  1.00  0.00     0.071 C 
ATOM     16  N   UNL A   1      34.965  22.511  26.455  1.00  0.00    -0.174 NA
BRANCH  13  17
ATOM     17  C   UNL A   1      32.725  19.778  24.318  1.00  0.00    -0.019 A 
ATOM     18  C   UNL A   1      32.726  17.403  24.979  1.00  0.00     0.119 A 
ATOM     19  C   UNL A   1      33.011  16.947  23.689  1.00  0.00     0.046 A 
ATOM     20  C   UNL A   1      32.499  18.798  25.304  1.00  0.00     0.052 A 
ATOM     21  C   UNL A   1      32.790  17.802  22.673  1.00  0.00     0.004 A 
ATOM     22  C   UNL A   1      32.565  19.128  23.027  1.00  0.00     0.006 A 
BRANCH  18  23
ATOM     23  O   UNL A   1      32.862  16.362  25.844  1.00  0.00    -0.497 OA
ATOM     24  C   UNL A   1      33.127  15.103  25.294  1.00  0.00     0.278 C 
ENDBRANCH  18  23
ENDBRANCH  13  17
BRANCH  15  25
ATOM     25  C   UNL A   1      37.171  22.479  25.694  1.00  0.00    -0.002 A 
ATOM     26  C   UNL A   1      38.169  21.501  25.638  1.00  0.00     0.010 A 
ATOM     27  C   UNL A   1      37.449  23.719  26.287  1.00  0.00     0.013 A 
ATOM     28  C   UNL A   1      39.466  21.803  26.065  1.00  0.00     0.001 A 
ATOM     29  C   UNL A   1      38.743  24.021  26.739  1.00  0.00    -0.050 A 
ATOM     30  C   UNL A   1      39.755  23.063  26.595  1.00  0.00     0.003 A 
ATOM     31  C   UNL A   1      39.046  25.333  27.404  1.00  0.00     0.044 C 
ENDBRANCH  15  25
ENDBRANCH  10  12
ENDBRANCH   9  10
ENDBRANCH   8   9
ENDBRANCH   6   8
ENDBRANCH   5   6
ENDBRANCH   4   5
ENDBRANCH   3   4
ENDBRANCH   2   3
ENDBRANCH   1   2
BRANCH   1  32
ATOM     32  C   UNL A   1      33.256  29.136  25.121  1.00  0.00     0.188 C 
BRANCH  32  33
ATOM     33  O   UNL A   1      33.328  29.505  26.618  1.00  0.00    -0.376 OA
BRANCH  33  34
ATOM     34  C   UNL A   1      33.544  30.685  27.554  1.00  0.00     0.202 C 
BRANCH  34  35
ATOM     35  C   UNL A   1      34.024  32.342  27.509  1.00  0.00     0.261 C 
BRANCH  35  36
ATOM     36  O   UNL A   1      33.168  33.486  27.943  1.00  0.00    -0.460 OA
BRANCH  36  37
ATOM     37  C   UNL A   1      33.463  34.165  29.121  1.00  0.00     0.338 C 
ATOM     38  O   UNL A   1      32.668  34.844  29.711  1.00  0.00    -0.246 OA
BRANCH  37  39
ATOM     39  C   UNL A   1      34.820  33.803  29.760  1.00  0.00     0.060 A 
ATOM     40  C   UNL A   1      34.791  32.907  30.839  1.00  0.00     0.016 A 
ATOM     41  C   UNL A   1      36.083  34.328  29.436  1.00  0.00     0.016 A 
ATOM     42  C   UNL A   1      35.979  32.399  31.436  1.00  0.00     0.010 A 
ATOM     43  C   UNL A   1      37.280  33.892  30.120  1.00  0.00     0.010 A 
ATOM     44  C   UNL A   1      37.258  32.887  31.112  1.00  0.00    -0.014 A 
BRANCH  44  45
ATOM     45  C   UNL A   1      38.443  32.521  32.014  1.00  0.00     0.031 A 
ATOM     46  C   UNL A   1      39.511  31.617  31.405  1.00  0.00     0.074 A 
ATOM     47  C   UNL A   1      38.706  32.993  33.264  1.00  0.00     0.049 A 
ATOM     48  N   UNL A   1      40.660  31.211  31.891  1.00  0.00    -0.248 NA
ATOM     49  C   UNL A   1      39.263  31.169  30.027  1.00  0.00     0.031 C 
ATOM     50  C   UNL A   1      37.946  34.018  33.975  1.00  0.00     0.029 A 
ATOM     51  N   UNL A   1      39.721  32.687  34.165  1.00  0.00    -0.354 N 
ATOM     52  C   UNL A   1      41.292  30.532  30.853  1.00  0.00     0.074 A 
ATOM     53  C   UNL A   1      40.404  30.586  29.714  1.00  0.00     0.031 C 
ATOM     54  C   UNL A   1      38.481  34.219  35.196  1.00  0.00     0.029 A 
ATOM     55  C   UNL A   1      39.623  33.325  35.393  1.00  0.00     0.049 A 
ATOM     56  H   UNL A   1      40.453  32.065  33.949  1.00  0.00     0.167 HD
ATOM     57  C   UNL A   1      42.481  29.878  30.829  1.00  0.00     0.034 A 
ATOM     58  C   UNL A   1      40.340  33.200  36.542  1.00  0.00     0.034 A 
ATOM     59  C   UNL A   1      43.297  29.641  31.988  1.00  0.00     0.049 A 
ATOM     60  C   UNL A   1      41.519  32.240  36.580  1.00  0.00     0.074 A 
ATOM     61  C   UNL A   1      44.415  28.834  32.107  1.00  0.00     0.029 A 
ATOM     62  N   UNL A   1      43.051  30.168  33.247  1.00  0.00    -0.354 N 
ATOM     63  N   UNL A   1      42.053  31.548  35.600  1.00  0.00    -0.248 NA
ATOM     64  C   UNL A   1      42.191  32.042  37.877  1.00  0.00     0.031 C 
ATOM     65  C   UNL A   1      44.796  28.809  33.454  1.00  0.00     0.029 A 
ATOM     66  C   UNL A   1      43.975  29.676  34.155  1.00  0.00     0.049 A 
ATOM     67  H   UNL A   1      42.327  30.799  33.465  1.00  0.00     0.167 HD
ATOM     68  C   UNL A   1      43.147  30.878  36.152  1.00  0.00     0.074 A 
ATOM     69  C   UNL A   1      43.199  31.247  37.549  1.00  0.00     0.031 C 
ATOM     70  C   UNL A   1      44.032  30.042  35.551  1.00  0.00     0.034 A 
BRANCH  57  71
ATOM     71  C   UNL A   1      42.855  29.246  29.510  1.00  0.00     0.023 A 
ATOM     72  C   UNL A   1      42.716  27.861  29.296  1.00  0.00     0.031 A 
ATOM     73  C   UNL A   1      43.496  30.008  28.519  1.00  0.00     0.131 A 
ATOM     74  C   UNL A   1      43.298  27.270  28.165  1.00  0.00     0.055 A 
ATOM     75  C   UNL A   1      43.997  29.425  27.355  1.00  0.00     0.041 A 
ATOM     76  F   UNL A   1      43.694  31.324  28.690  1.00  0.00    -0.206 F 
ATOM     77  C   UNL A   1      43.918  28.046  27.181  1.00  0.00     0.022 A 
BRANCH  74  78
ATOM     78  S   UNL A   1      43.410  25.460  28.090  1.00  0.00     0.124 S 
ATOM     79  O   UNL A   1      42.648  25.068  29.273  1.00  0.00    -0.237 OA
ATOM     80  O   UNL A   1      42.793  25.157  26.803  1.00  0.00    -0.237 OA
ATOM     81  O   UNL A   1      44.846  25.202  28.170  1.00  0.00    -0.744 OA
ENDBRANCH  74  78
ENDBRANCH  57  71
BRANCH  58  82
ATOM     82  C   UNL A   1      39.942  33.906  37.819  1.00  0.00     0.023 A 
ATOM     83  C   UNL A   1      39.076  33.325  38.771  1.00  0.00     0.031 A 
ATOM     84  C   UNL A   1      40.312  35.249  38.028  1.00  0.00     0.131 A 
ATOM     85  C   UNL A   1      38.584  34.092  39.849  1.00  0.00     0.055 A 
ATOM     86  C   UNL A   1      39.862  35.989  39.128  1.00  0.00     0.041 A 
ATOM     87  F   UNL A   1      41.102  35.881  37.146  1.00  0.00    -0.206 F 
ATOM     88  C   UNL A   1      38.983  35.416  40.039  1.00  0.00     0.022 A 
BRANCH  85  89
ATOM     89  S   UNL A   1      37.324  33.379  40.954  1.00  0.00     0.124 S 
ATOM     90  O   UNL A   1      38.087  32.353  41.655  1.00  0.00    -0.237 OA
ATOM     91  O   UNL A   1      36.924  34.538  41.746  1.00  0.00    -0.237 OA
ATOM     92  O   UNL A   1      36.305  32.878  40.034  1.00  0.00    -0.744 OA
ENDBRANCH  85  89
ENDBRANCH  58  82
BRANCH  70  93
ATOM     93  C   UNL A   1      45.181  29.514  36.377  1.00  0.00     0.023 A 
ATOM     94  C   UNL A   1      45.147  28.250  36.991  1.00  0.00     0.031 A 
ATOM     95  C   UNL A   1      46.343  30.293  36.540  1.00  0.00     0.131 A 
ATOM     96  C   UNL A   1      46.228  27.826  37.782  1.00  0.00     0.055 A 
ATOM     97  C   UNL A   1      47.439  29.842  37.276  1.00  0.00     0.041 A 
ATOM     98  F   UNL A   1      46.433  31.509  35.977  1.00  0.00    -0.206 F 
ATOM     99  C   UNL A   1      47.380  28.606  37.914  1.00  0.00     0.022 A 
BRANCH  96 100
ATOM    100  S   UNL A   1      46.075  26.278  38.717  1.00  0.00     0.124 S 
ATOM    101  O   UNL A   1      45.541  25.366  37.710  1.00  0.00    -0.237 OA
ATOM    102  O   UNL A   1      47.450  26.030  39.136  1.00  0.00    -0.237 OA
ATOM    103  O   UNL A   1      45.151  26.619  39.797  1.00  0.00    -0.744 OA
ENDBRANCH  96 100
ENDBRANCH  70  93
ENDBRANCH  44  45
ENDBRANCH  37  39
ENDBRANCH  36  37
ENDBRANCH  35  36
ENDBRANCH  34  35
ENDBRANCH  33  34
ENDBRANCH  32  33
ENDBRANCH   1  32
TORSDOF 26
ENDMDL
