MODEL 1
REMARK VINA RESULT:     -12.1      0.000      0.000
REMARK SMILES O=C(OCCOCCOCCOC(=O)c1nnn(-c2cccc(C(F)(F)F)c2)c1[C@@H]1COc2ccccc2O1)c1ccc(-c2c3nc(c(-c4cc(S(=O)(=O)[O-])ccc4F)c4ccc([nH]4)c(-c4cc(S(=O)(=O)[O-])ccc4F)c4nc(c(-c5cc(S(=O)(=O)[O-])ccc5F)c5ccc2[nH]5)C=C4)C=C3)cc1
REMARK SMILES IDX 7 1 6 2 5 3 4 4 3 5 2 6 1 7 40 8 41 9 102 10 42 11 101 12
REMARK SMILES IDX 43 13 44 14 45 15 95 16 46 17 100 18 94 19 96 20 47 21 99 22
REMARK SMILES IDX 93 23 92 24 48 26 80 27 60 28 79 29 61 30 64 31 78 32 97 33
REMARK SMILES IDX 62 34 63 35 77 37 98 38 65 39 49 40 50 41 58 42 51 43 57 44
REMARK SMILES IDX 59 45 56 46 52 47 53 48 54 49 55 50 81 51 82 52 90 53 83 54
REMARK SMILES IDX 89 55 91 56 88 57 84 58 85 59 86 60 87 61 66 62 67 63 75 64
REMARK SMILES IDX 68 65 74 66 76 67 73 68 69 69 70 70 71 71 72 72 8 73 9 74
REMARK SMILES IDX 10 75 11 76 12 77 13 78 14 79 15 80 16 81 29 82 17 83 18 84
REMARK SMILES IDX 30 85 31 86 39 87 32 88 38 89 33 90 37 91 34 92 36 93 35 94
REMARK SMILES IDX 19 95 20 96 28 97 21 98 23 99 22 100 24 101 25 102 26 103
REMARK SMILES IDX 27 104
REMARK H PARENT 96 25 64 36
REMARK Flexibility Score: inf
ROOT
ATOM      1  C   UNL A   1      31.695  30.758  26.414  1.00  0.00     0.188 C 
ENDROOT
BRANCH   1   2
ATOM      2  O   UNL A   1      32.872  30.141  25.899  1.00  0.00    -0.376 OA
BRANCH   2   3
ATOM      3  C   UNL A   1      33.734  29.539  26.858  1.00  0.00     0.202 C 
BRANCH   3   4
ATOM      4  C   UNL A   1      34.687  30.499  27.577  1.00  0.00     0.261 C 
BRANCH   4   5
ATOM      5  O   UNL A   1      35.293  29.988  28.773  1.00  0.00    -0.460 OA
BRANCH   5   6
ATOM      6  C   UNL A   1      36.538  30.132  29.266  1.00  0.00     0.338 C 
ATOM      7  O   UNL A   1      36.821  31.160  29.877  1.00  0.00    -0.246 OA
BRANCH   6   8
ATOM      8  C   UNL A   1      37.641  29.210  28.909  1.00  0.00     0.060 A 
ATOM      9  C   UNL A   1      38.177  28.249  29.765  1.00  0.00     0.016 A 
ATOM     10  C   UNL A   1      38.247  29.444  27.657  1.00  0.00     0.016 A 
ATOM     11  C   UNL A   1      39.373  27.628  29.436  1.00  0.00     0.010 A 
ATOM     12  C   UNL A   1      39.445  28.831  27.329  1.00  0.00     0.010 A 
ATOM     13  C   UNL A   1      40.040  27.995  28.267  1.00  0.00    -0.014 A 
BRANCH  13  14
ATOM     14  C   UNL A   1      41.430  27.580  28.143  1.00  0.00     0.031 A 
ATOM     15  C   UNL A   1      41.675  26.268  27.498  1.00  0.00     0.074 A 
ATOM     16  C   UNL A   1      42.430  28.372  28.578  1.00  0.00     0.049 A 
ATOM     17  N   UNL A   1      42.218  25.213  28.008  1.00  0.00    -0.248 NA
ATOM     18  C   UNL A   1      41.153  26.074  26.138  1.00  0.00     0.031 C 
ATOM     19  C   UNL A   1      42.336  29.769  29.017  1.00  0.00     0.029 A 
ATOM     20  N   UNL A   1      43.768  28.129  28.612  1.00  0.00    -0.354 N 
ATOM     21  C   UNL A   1      42.310  24.288  26.971  1.00  0.00     0.074 A 
ATOM     22  C   UNL A   1      41.494  24.807  25.905  1.00  0.00     0.031 C 
ATOM     23  C   UNL A   1      43.571  30.313  29.034  1.00  0.00     0.029 A 
ATOM     24  C   UNL A   1      44.544  29.274  28.741  1.00  0.00     0.049 A 
ATOM     25  H   UNL A   1      44.152  27.224  28.550  1.00  0.00     0.167 HD
ATOM     26  C   UNL A   1      43.222  23.278  26.991  1.00  0.00     0.034 A 
ATOM     27  C   UNL A   1      45.878  29.387  28.524  1.00  0.00     0.034 A 
ATOM     28  C   UNL A   1      43.686  23.009  28.332  1.00  0.00     0.049 A 
ATOM     29  C   UNL A   1      46.463  28.032  28.675  1.00  0.00     0.074 A 
ATOM     30  C   UNL A   1      43.072  22.636  29.513  1.00  0.00     0.029 A 
ATOM     31  N   UNL A   1      44.940  23.445  28.699  1.00  0.00    -0.354 N 
ATOM     32  N   UNL A   1      46.475  27.380  29.806  1.00  0.00    -0.248 NA
ATOM     33  C   UNL A   1      46.612  27.205  27.487  1.00  0.00     0.031 C 
ATOM     34  C   UNL A   1      43.776  23.340  30.534  1.00  0.00     0.029 A 
ATOM     35  C   UNL A   1      44.810  24.053  29.924  1.00  0.00     0.049 A 
ATOM     36  H   UNL A   1      45.771  23.341  28.181  1.00  0.00     0.167 HD
ATOM     37  C   UNL A   1      46.197  26.065  29.467  1.00  0.00     0.074 A 
ATOM     38  C   UNL A   1      46.405  25.998  28.022  1.00  0.00     0.031 C 
ATOM     39  C   UNL A   1      45.555  25.227  30.336  1.00  0.00     0.034 A 
BRANCH  26  40
ATOM     40  C   UNL A   1      43.947  22.757  25.767  1.00  0.00     0.023 A 
ATOM     41  C   UNL A   1      43.962  21.363  25.560  1.00  0.00     0.031 A 
ATOM     42  C   UNL A   1      44.854  23.501  24.976  1.00  0.00     0.131 A 
ATOM     43  C   UNL A   1      44.902  20.769  24.701  1.00  0.00     0.055 A 
ATOM     44  C   UNL A   1      45.737  22.910  24.069  1.00  0.00     0.041 A 
ATOM     45  F   UNL A   1      45.006  24.824  25.097  1.00  0.00    -0.206 F 
ATOM     46  C   UNL A   1      45.792  21.533  23.952  1.00  0.00     0.022 A 
BRANCH  43  47
ATOM     47  S   UNL A   1      45.076  18.965  24.732  1.00  0.00     0.124 S 
ATOM     48  O   UNL A   1      46.403  18.807  25.316  1.00  0.00    -0.237 OA
ATOM     49  O   UNL A   1      43.950  18.572  25.573  1.00  0.00    -0.237 OA
ATOM     50  O   UNL A   1      44.964  18.590  23.324  1.00  0.00    -0.744 OA
ENDBRANCH  43  47
ENDBRANCH  26  40
BRANCH  27  51
ATOM     51  C   UNL A   1      46.541  30.528  27.837  1.00  0.00     0.023 A 
ATOM     52  C   UNL A   1      45.840  31.465  27.054  1.00  0.00     0.031 A 
ATOM     53  C   UNL A   1      47.896  30.826  28.122  1.00  0.00     0.131 A 
ATOM     54  C   UNL A   1      46.499  32.623  26.578  1.00  0.00     0.055 A 
ATOM     55  C   UNL A   1      48.545  31.960  27.635  1.00  0.00     0.041 A 
ATOM     56  F   UNL A   1      48.617  30.061  28.956  1.00  0.00    -0.206 F 
ATOM     57  C   UNL A   1      47.844  32.870  26.863  1.00  0.00     0.022 A 
BRANCH  54  58
ATOM     58  S   UNL A   1      45.575  33.888  25.649  1.00  0.00     0.124 S 
ATOM     59  O   UNL A   1      46.644  34.682  25.056  1.00  0.00    -0.237 OA
ATOM     60  O   UNL A   1      44.779  33.081  24.730  1.00  0.00    -0.237 OA
ATOM     61  O   UNL A   1      44.801  34.574  26.685  1.00  0.00    -0.744 OA
ENDBRANCH  54  58
ENDBRANCH  27  51
BRANCH  39  62
ATOM     62  C   UNL A   1      45.387  25.672  31.775  1.00  0.00     0.023 A 
ATOM     63  C   UNL A   1      46.360  25.484  32.783  1.00  0.00     0.031 A 
ATOM     64  C   UNL A   1      44.256  26.442  32.096  1.00  0.00     0.131 A 
ATOM     65  C   UNL A   1      46.172  26.050  34.059  1.00  0.00     0.055 A 
ATOM     66  C   UNL A   1      44.081  27.012  33.358  1.00  0.00     0.041 A 
ATOM     67  F   UNL A   1      43.317  26.694  31.169  1.00  0.00    -0.206 F 
ATOM     68  C   UNL A   1      45.037  26.812  34.347  1.00  0.00     0.022 A 
BRANCH  65  69
ATOM     69  S   UNL A   1      47.414  25.806  35.370  1.00  0.00     0.124 S 
ATOM     70  O   UNL A   1      46.779  24.850  36.269  1.00  0.00    -0.237 OA
ATOM     71  O   UNL A   1      48.569  25.314  34.621  1.00  0.00    -0.237 OA
ATOM     72  O   UNL A   1      47.584  27.148  35.931  1.00  0.00    -0.744 OA
ENDBRANCH  65  69
ENDBRANCH  39  62
ENDBRANCH  13  14
ENDBRANCH   6   8
ENDBRANCH   5   6
ENDBRANCH   4   5
ENDBRANCH   3   4
ENDBRANCH   2   3
ENDBRANCH   1   2
BRANCH   1  73
ATOM     73  C   UNL A   1      30.641  31.171  25.358  1.00  0.00     0.188 C 
BRANCH  73  74
ATOM     74  O   UNL A   1      30.312  30.353  24.236  1.00  0.00    -0.376 OA
BRANCH  74  75
ATOM     75  C   UNL A   1      29.164  30.649  23.466  1.00  0.00     0.202 C 
BRANCH  75  76
ATOM     76  C   UNL A   1      28.512  29.378  22.912  1.00  0.00     0.261 C 
BRANCH  76  77
ATOM     77  O   UNL A   1      29.451  28.344  22.575  1.00  0.00    -0.458 OA
BRANCH  77  78
ATOM     78  C   UNL A   1      29.507  27.281  23.434  1.00  0.00     0.361 C 
ATOM     79  O   UNL A   1      28.525  26.698  23.884  1.00  0.00    -0.244 OA
BRANCH  78  80
ATOM     80  C   UNL A   1      30.875  26.913  23.775  1.00  0.00     0.198 A 
ATOM     81  N   UNL A   1      31.921  27.782  23.592  1.00  0.00    -0.122 NA
ATOM     82  C   UNL A   1      31.363  25.737  24.334  1.00  0.00     0.123 A 
ATOM     83  N   UNL A   1      33.033  27.190  23.998  1.00  0.00    -0.061 NA
ATOM     84  N   UNL A   1      32.741  25.898  24.277  1.00  0.00    -0.213 N 
BRANCH  82  85
ATOM     85  C   UNL A   1      30.653  24.568  24.951  1.00  0.00     0.262 C 
ATOM     86  C   UNL A   1      30.492  24.685  26.472  1.00  0.00     0.281 C 
ATOM     87  O   UNL A   1      31.236  23.337  24.513  1.00  0.00    -0.477 OA
ATOM     88  O   UNL A   1      31.708  24.399  27.163  1.00  0.00    -0.485 OA
ATOM     89  C   UNL A   1      31.935  22.665  25.482  1.00  0.00     0.162 A 
ATOM     90  C   UNL A   1      32.202  23.192  26.748  1.00  0.00     0.161 A 
ATOM     91  C   UNL A   1      32.465  21.428  25.119  1.00  0.00     0.050 A 
ATOM     92  C   UNL A   1      33.053  22.523  27.623  1.00  0.00     0.050 A 
ATOM     93  C   UNL A   1      33.294  20.741  26.006  1.00  0.00     0.004 A 
ATOM     94  C   UNL A   1      33.601  21.295  27.250  1.00  0.00     0.004 A 
ENDBRANCH  82  85
BRANCH  84  95
ATOM     95  C   UNL A   1      33.714  24.935  23.947  1.00  0.00     0.067 A 
ATOM     96  C   UNL A   1      33.646  24.261  22.728  1.00  0.00     0.028 A 
ATOM     97  C   UNL A   1      34.705  24.631  24.890  1.00  0.00     0.041 A 
ATOM     98  C   UNL A   1      34.641  23.334  22.415  1.00  0.00     0.003 A 
ATOM     99  C   UNL A   1      35.672  23.661  24.601  1.00  0.00     0.058 A 
ATOM    100  C   UNL A   1      35.648  23.039  23.341  1.00  0.00     0.013 A 
BRANCH  99 101
ATOM    101  C   UNL A   1      36.727  23.303  25.615  1.00  0.00     0.416 C 
ATOM    102  F   UNL A   1      36.286  23.414  26.899  1.00  0.00    -0.166 F 
ATOM    103  F   UNL A   1      37.169  22.022  25.482  1.00  0.00    -0.166 F 
ATOM    104  F   UNL A   1      37.841  24.088  25.540  1.00  0.00    -0.166 F 
ENDBRANCH  99 101
ENDBRANCH  84  95
ENDBRANCH  78  80
ENDBRANCH  77  78
ENDBRANCH  76  77
ENDBRANCH  75  76
ENDBRANCH  74  75
ENDBRANCH  73  74
ENDBRANCH   1  73
TORSDOF 23
ENDMDL
MODEL 2
REMARK VINA RESULT:     -11.6      2.171      6.526
REMARK SMILES O=C(OCCOCCOCCOC(=O)c1nnn(-c2cccc(C(F)(F)F)c2)c1[C@@H]1COc2ccccc2O1)c1ccc(-c2c3nc(c(-c4cc(S(=O)(=O)[O-])ccc4F)c4ccc([nH]4)c(-c4cc(S(=O)(=O)[O-])ccc4F)c4nc(c(-c5cc(S(=O)(=O)[O-])ccc5F)c5ccc2[nH]5)C=C4)C=C3)cc1
REMARK SMILES IDX 7 1 6 2 5 3 4 4 3 5 2 6 1 7 40 8 41 9 102 10 42 11 101 12
REMARK SMILES IDX 43 13 44 14 45 15 95 16 46 17 100 18 94 19 96 20 47 21 99 22
REMARK SMILES IDX 93 23 92 24 48 26 80 27 60 28 79 29 61 30 64 31 78 32 97 33
REMARK SMILES IDX 62 34 63 35 77 37 98 38 65 39 49 40 50 41 58 42 51 43 57 44
REMARK SMILES IDX 59 45 56 46 52 47 53 48 54 49 55 50 81 51 82 52 90 53 83 54
REMARK SMILES IDX 89 55 91 56 88 57 84 58 85 59 86 60 87 61 66 62 67 63 75 64
REMARK SMILES IDX 68 65 74 66 76 67 73 68 69 69 70 70 71 71 72 72 8 73 9 74
REMARK SMILES IDX 10 75 11 76 12 77 13 78 14 79 15 80 16 81 29 82 17 83 18 84
REMARK SMILES IDX 30 85 31 86 39 87 32 88 38 89 33 90 37 91 34 92 36 93 35 94
REMARK SMILES IDX 19 95 20 96 28 97 21 98 23 99 22 100 24 101 25 102 26 103
REMARK SMILES IDX 27 104
REMARK H PARENT 96 25 64 36
REMARK Flexibility Score: inf
ROOT
ATOM      1  C   UNL A   1      30.144  31.790  25.127  1.00  0.00     0.188 C 
ENDROOT
BRANCH   1   2
ATOM      2  O   UNL A   1      31.093  30.741  25.299  1.00  0.00    -0.376 OA
BRANCH   2   3
ATOM      3  C   UNL A   1      31.835  30.760  26.512  1.00  0.00     0.202 C 
BRANCH   3   4
ATOM      4  C   UNL A   1      33.293  30.304  26.397  1.00  0.00     0.261 C 
BRANCH   4   5
ATOM      5  O   UNL A   1      34.074  30.421  27.594  1.00  0.00    -0.460 OA
BRANCH   5   6
ATOM      6  C   UNL A   1      35.075  31.261  27.921  1.00  0.00     0.338 C 
ATOM      7  O   UNL A   1      35.104  32.378  27.410  1.00  0.00    -0.246 OA
BRANCH   6   8
ATOM      8  C   UNL A   1      36.261  30.818  28.689  1.00  0.00     0.060 A 
ATOM      9  C   UNL A   1      37.463  31.519  28.761  1.00  0.00     0.016 A 
ATOM     10  C   UNL A   1      36.167  29.533  29.262  1.00  0.00     0.016 A 
ATOM     11  C   UNL A   1      38.591  30.896  29.276  1.00  0.00     0.010 A 
ATOM     12  C   UNL A   1      37.293  28.905  29.771  1.00  0.00     0.010 A 
ATOM     13  C   UNL A   1      38.514  29.565  29.688  1.00  0.00    -0.014 A 
BRANCH  13  14
ATOM     14  C   UNL A   1      39.773  28.863  29.890  1.00  0.00     0.031 A 
ATOM     15  C   UNL A   1      40.227  28.706  31.292  1.00  0.00     0.074 A 
ATOM     16  C   UNL A   1      40.465  28.370  28.844  1.00  0.00     0.049 A 
ATOM     17  N   UNL A   1      41.296  29.174  31.846  1.00  0.00    -0.248 NA
ATOM     18  C   UNL A   1      39.320  28.024  32.225  1.00  0.00     0.031 C 
ATOM     19  C   UNL A   1      40.019  28.258  27.450  1.00  0.00     0.029 A 
ATOM     20  N   UNL A   1      41.679  27.755  28.828  1.00  0.00    -0.354 N 
ATOM     21  C   UNL A   1      41.313  28.664  33.141  1.00  0.00     0.074 A 
ATOM     22  C   UNL A   1      40.003  28.112  33.366  1.00  0.00     0.031 C 
ATOM     23  C   UNL A   1      40.832  27.407  26.791  1.00  0.00     0.029 A 
ATOM     24  C   UNL A   1      41.923  27.025  27.671  1.00  0.00     0.049 A 
ATOM     25  H   UNL A   1      42.325  27.821  29.568  1.00  0.00     0.167 HD
ATOM     26  C   UNL A   1      42.470  28.543  33.849  1.00  0.00     0.034 A 
ATOM     27  C   UNL A   1      42.892  26.095  27.481  1.00  0.00     0.034 A 
ATOM     28  C   UNL A   1      43.503  29.406  33.327  1.00  0.00     0.049 A 
ATOM     29  C   UNL A   1      43.966  26.373  28.464  1.00  0.00     0.074 A 
ATOM     30  C   UNL A   1      43.622  30.771  33.140  1.00  0.00     0.029 A 
ATOM     31  N   UNL A   1      44.516  28.850  32.578  1.00  0.00    -0.354 N 
ATOM     32  N   UNL A   1      44.692  27.459  28.443  1.00  0.00    -0.248 NA
ATOM     33  C   UNL A   1      43.931  25.683  29.744  1.00  0.00     0.031 C 
ATOM     34  C   UNL A   1      44.343  30.915  31.917  1.00  0.00     0.029 A 
ATOM     35  C   UNL A   1      44.668  29.636  31.462  1.00  0.00     0.049 A 
ATOM     36  H   UNL A   1      45.032  28.042  32.801  1.00  0.00     0.167 HD
ATOM     37  C   UNL A   1      44.840  27.820  29.773  1.00  0.00     0.074 A 
ATOM     38  C   UNL A   1      44.450  26.632  30.530  1.00  0.00     0.031 C 
ATOM     39  C   UNL A   1      44.991  29.127  30.143  1.00  0.00     0.034 A 
BRANCH  26  40
ATOM     40  C   UNL A   1      42.775  27.403  34.799  1.00  0.00     0.023 A 
ATOM     41  C   UNL A   1      43.567  26.344  34.314  1.00  0.00     0.031 A 
ATOM     42  C   UNL A   1      42.106  27.156  36.021  1.00  0.00     0.131 A 
ATOM     43  C   UNL A   1      43.585  25.097  34.963  1.00  0.00     0.055 A 
ATOM     44  C   UNL A   1      42.185  25.937  36.700  1.00  0.00     0.041 A 
ATOM     45  F   UNL A   1      41.268  28.035  36.580  1.00  0.00    -0.206 F 
ATOM     46  C   UNL A   1      42.898  24.885  36.155  1.00  0.00     0.022 A 
BRANCH  43  47
ATOM     47  S   UNL A   1      44.359  23.696  34.113  1.00  0.00     0.124 S 
ATOM     48  O   UNL A   1      45.775  24.026  34.229  1.00  0.00    -0.237 OA
ATOM     49  O   UNL A   1      43.892  22.568  34.912  1.00  0.00    -0.237 OA
ATOM     50  O   UNL A   1      43.808  23.774  32.762  1.00  0.00    -0.744 OA
ENDBRANCH  43  47
ENDBRANCH  26  40
BRANCH  27  51
ATOM     51  C   UNL A   1      42.713  24.807  26.759  1.00  0.00     0.023 A 
ATOM     52  C   UNL A   1      43.730  24.206  25.993  1.00  0.00     0.031 A 
ATOM     53  C   UNL A   1      41.552  24.029  26.992  1.00  0.00     0.131 A 
ATOM     54  C   UNL A   1      43.554  22.898  25.482  1.00  0.00     0.055 A 
ATOM     55  C   UNL A   1      41.376  22.748  26.471  1.00  0.00     0.041 A 
ATOM     56  F   UNL A   1      40.576  24.460  27.807  1.00  0.00    -0.206 F 
ATOM     57  C   UNL A   1      42.383  22.173  25.716  1.00  0.00     0.022 A 
BRANCH  54  58
ATOM     58  S   UNL A   1      44.904  22.078  24.576  1.00  0.00     0.124 S 
ATOM     59  O   UNL A   1      45.153  23.008  23.481  1.00  0.00    -0.237 OA
ATOM     60  O   UNL A   1      45.946  21.977  25.592  1.00  0.00    -0.237 OA
ATOM     61  O   UNL A   1      44.317  20.799  24.174  1.00  0.00    -0.744 OA
ENDBRANCH  54  58
ENDBRANCH  27  51
BRANCH  39  62
ATOM     62  C   UNL A   1      45.263  30.155  29.063  1.00  0.00     0.023 A 
ATOM     63  C   UNL A   1      46.555  30.567  28.666  1.00  0.00     0.031 A 
ATOM     64  C   UNL A   1      44.170  30.624  28.313  1.00  0.00     0.131 A 
ATOM     65  C   UNL A   1      46.714  31.428  27.562  1.00  0.00     0.055 A 
ATOM     66  C   UNL A   1      44.333  31.465  27.212  1.00  0.00     0.041 A 
ATOM     67  F   UNL A   1      42.920  30.233  28.613  1.00  0.00    -0.206 F 
ATOM     68  C   UNL A   1      45.607  31.875  26.835  1.00  0.00     0.022 A 
BRANCH  65  69
ATOM     69  S   UNL A   1      48.374  31.974  27.047  1.00  0.00     0.124 S 
ATOM     70  O   UNL A   1      48.993  30.756  26.540  1.00  0.00    -0.237 OA
ATOM     71  O   UNL A   1      48.072  33.002  26.053  1.00  0.00    -0.237 OA
ATOM     72  O   UNL A   1      48.963  32.486  28.287  1.00  0.00    -0.744 OA
ENDBRANCH  65  69
ENDBRANCH  39  62
ENDBRANCH  13  14
ENDBRANCH   6   8
ENDBRANCH   5   6
ENDBRANCH   4   5
ENDBRANCH   3   4
ENDBRANCH   2   3
ENDBRANCH   1   2
BRANCH   1  73
ATOM     73  C   UNL A   1      29.331  31.748  23.811  1.00  0.00     0.188 C 
BRANCH  73  74
ATOM     74  O   UNL A   1      28.151  30.959  23.659  1.00  0.00    -0.376 OA
BRANCH  74  75
ATOM     75  C   UNL A   1      28.183  29.801  22.849  1.00  0.00     0.202 C 
BRANCH  75  76
ATOM     76  C   UNL A   1      29.566  29.583  22.227  1.00  0.00     0.261 C 
BRANCH  76  77
ATOM     77  O   UNL A   1      29.908  28.200  22.046  1.00  0.00    -0.458 OA
BRANCH  77  78
ATOM     78  C   UNL A   1      29.878  27.423  23.171  1.00  0.00     0.361 C 
ATOM     79  O   UNL A   1      28.854  27.083  23.755  1.00  0.00    -0.244 OA
BRANCH  78  80
ATOM     80  C   UNL A   1      31.212  27.041  23.619  1.00  0.00     0.198 A 
ATOM     81  N   UNL A   1      32.279  27.897  23.512  1.00  0.00    -0.122 NA
ATOM     82  C   UNL A   1      31.641  25.863  24.222  1.00  0.00     0.123 A 
ATOM     83  N   UNL A   1      33.349  27.295  24.007  1.00  0.00    -0.061 NA
ATOM     84  N   UNL A   1      33.021  26.009  24.270  1.00  0.00    -0.213 N 
BRANCH  82  85
ATOM     85  C   UNL A   1      30.872  24.708  24.789  1.00  0.00     0.262 C 
ATOM     86  C   UNL A   1      30.604  24.832  26.294  1.00  0.00     0.281 C 
ATOM     87  O   UNL A   1      31.466  23.466  24.397  1.00  0.00    -0.477 OA
ATOM     88  O   UNL A   1      31.763  24.531  27.071  1.00  0.00    -0.485 OA
ATOM     89  C   UNL A   1      32.084  22.788  25.415  1.00  0.00     0.162 A 
ATOM     90  C   UNL A   1      32.267  23.315  26.695  1.00  0.00     0.161 A 
ATOM     91  C   UNL A   1      32.620  21.542  25.094  1.00  0.00     0.050 A 
ATOM     92  C   UNL A   1      33.044  22.637  27.630  1.00  0.00     0.050 A 
ATOM     93  C   UNL A   1      33.373  20.846  26.039  1.00  0.00     0.004 A 
ATOM     94  C   UNL A   1      33.599  21.400  27.301  1.00  0.00     0.004 A 
ENDBRANCH  82  85
BRANCH  84  95
ATOM     95  C   UNL A   1      34.005  25.032  24.022  1.00  0.00     0.067 A 
ATOM     96  C   UNL A   1      34.010  24.334  22.815  1.00  0.00     0.028 A 
ATOM     97  C   UNL A   1      34.931  24.740  25.033  1.00  0.00     0.041 A 
ATOM     98  C   UNL A   1      35.015  23.394  22.585  1.00  0.00     0.003 A 
ATOM     99  C   UNL A   1      35.906  23.758  24.826  1.00  0.00     0.058 A 
ATOM    100  C   UNL A   1      35.958  23.111  23.580  1.00  0.00     0.013 A 
BRANCH  99 101
ATOM    101  C   UNL A   1      36.891  23.413  25.912  1.00  0.00     0.416 C 
ATOM    102  F   UNL A   1      37.391  22.150  25.791  1.00  0.00    -0.166 F 
ATOM    103  F   UNL A   1      37.972  24.242  25.924  1.00  0.00    -0.166 F 
ATOM    104  F   UNL A   1      36.361  23.479  27.168  1.00  0.00    -0.166 F 
ENDBRANCH  99 101
ENDBRANCH  84  95
ENDBRANCH  78  80
ENDBRANCH  77  78
ENDBRANCH  76  77
ENDBRANCH  75  76
ENDBRANCH  74  75
ENDBRANCH  73  74
ENDBRANCH   1  73
TORSDOF 23
ENDMDL
MODEL 3
REMARK VINA RESULT:     -11.5      1.239      2.195
REMARK SMILES O=C(OCCOCCOCCOC(=O)c1nnn(-c2cccc(C(F)(F)F)c2)c1[C@@H]1COc2ccccc2O1)c1ccc(-c2c3nc(c(-c4cc(S(=O)(=O)[O-])ccc4F)c4ccc([nH]4)c(-c4cc(S(=O)(=O)[O-])ccc4F)c4nc(c(-c5cc(S(=O)(=O)[O-])ccc5F)c5ccc2[nH]5)C=C4)C=C3)cc1
REMARK SMILES IDX 7 1 6 2 5 3 4 4 3 5 2 6 1 7 40 8 41 9 102 10 42 11 101 12
REMARK SMILES IDX 43 13 44 14 45 15 95 16 46 17 100 18 94 19 96 20 47 21 99 22
REMARK SMILES IDX 93 23 92 24 48 26 80 27 60 28 79 29 61 30 64 31 78 32 97 33
REMARK SMILES IDX 62 34 63 35 77 37 98 38 65 39 49 40 50 41 58 42 51 43 57 44
REMARK SMILES IDX 59 45 56 46 52 47 53 48 54 49 55 50 81 51 82 52 90 53 83 54
REMARK SMILES IDX 89 55 91 56 88 57 84 58 85 59 86 60 87 61 66 62 67 63 75 64
REMARK SMILES IDX 68 65 74 66 76 67 73 68 69 69 70 70 71 71 72 72 8 73 9 74
REMARK SMILES IDX 10 75 11 76 12 77 13 78 14 79 15 80 16 81 29 82 17 83 18 84
REMARK SMILES IDX 30 85 31 86 39 87 32 88 38 89 33 90 37 91 34 92 36 93 35 94
REMARK SMILES IDX 19 95 20 96 28 97 21 98 23 99 22 100 24 101 25 102 26 103
REMARK SMILES IDX 27 104
REMARK H PARENT 96 25 64 36
REMARK Flexibility Score: inf
ROOT
ATOM      1  C   UNL A   1      31.817  30.258  25.816  1.00  0.00     0.188 C 
ENDROOT
BRANCH   1   2
ATOM      2  O   UNL A   1      33.209  30.463  26.039  1.00  0.00    -0.376 OA
BRANCH   2   3
ATOM      3  C   UNL A   1      33.724  29.981  27.274  1.00  0.00     0.202 C 
BRANCH   3   4
ATOM      4  C   UNL A   1      34.842  30.825  27.893  1.00  0.00     0.261 C 
BRANCH   4   5
ATOM      5  O   UNL A   1      35.427  30.295  29.090  1.00  0.00    -0.460 OA
BRANCH   5   6
ATOM      6  C   UNL A   1      36.682  30.374  29.574  1.00  0.00     0.338 C 
ATOM      7  O   UNL A   1      37.012  31.371  30.212  1.00  0.00    -0.246 OA
BRANCH   6   8
ATOM      8  C   UNL A   1      37.743  29.420  29.178  1.00  0.00     0.060 A 
ATOM      9  C   UNL A   1      38.268  28.431  30.009  1.00  0.00     0.016 A 
ATOM     10  C   UNL A   1      38.324  29.650  27.914  1.00  0.00     0.016 A 
ATOM     11  C   UNL A   1      39.433  27.774  29.642  1.00  0.00     0.010 A 
ATOM     12  C   UNL A   1      39.492  29.000  27.548  1.00  0.00     0.010 A 
ATOM     13  C   UNL A   1      40.083  28.133  28.460  1.00  0.00    -0.014 A 
BRANCH  13  14
ATOM     14  C   UNL A   1      41.454  27.673  28.295  1.00  0.00     0.031 A 
ATOM     15  C   UNL A   1      41.638  26.363  27.628  1.00  0.00     0.074 A 
ATOM     16  C   UNL A   1      42.490  28.426  28.713  1.00  0.00     0.049 A 
ATOM     17  N   UNL A   1      42.158  25.283  28.112  1.00  0.00    -0.248 NA
ATOM     18  C   UNL A   1      41.075  26.204  26.281  1.00  0.00     0.031 C 
ATOM     19  C   UNL A   1      42.455  29.820  29.172  1.00  0.00     0.029 A 
ATOM     20  N   UNL A   1      43.821  28.137  28.710  1.00  0.00    -0.354 N 
ATOM     21  C   UNL A   1      42.192  24.370  27.062  1.00  0.00     0.074 A 
ATOM     22  C   UNL A   1      41.367  24.929  26.023  1.00  0.00     0.031 C 
ATOM     23  C   UNL A   1      43.708  30.321  29.163  1.00  0.00     0.029 A 
ATOM     24  C   UNL A   1      44.637  29.254  28.833  1.00  0.00     0.049 A 
ATOM     25  H   UNL A   1      44.172  27.221  28.627  1.00  0.00     0.167 HD
ATOM     26  C   UNL A   1      43.069  23.329  27.046  1.00  0.00     0.034 A 
ATOM     27  C   UNL A   1      45.969  29.325  28.583  1.00  0.00     0.034 A 
ATOM     28  C   UNL A   1      43.558  23.027  28.371  1.00  0.00     0.049 A 
ATOM     29  C   UNL A   1      46.511  27.950  28.702  1.00  0.00     0.074 A 
ATOM     30  C   UNL A   1      42.962  22.660  29.564  1.00  0.00     0.029 A 
ATOM     31  N   UNL A   1      44.835  23.417  28.711  1.00  0.00    -0.354 N 
ATOM     32  N   UNL A   1      46.530  27.283  29.825  1.00  0.00    -0.248 NA
ATOM     33  C   UNL A   1      46.602  27.133  27.501  1.00  0.00     0.031 C 
ATOM     34  C   UNL A   1      43.715  23.327  30.574  1.00  0.00     0.029 A 
ATOM     35  C   UNL A   1      44.756  24.013  29.946  1.00  0.00     0.049 A 
ATOM     36  H   UNL A   1      45.648  23.291  28.171  1.00  0.00     0.167 HD
ATOM     37  C   UNL A   1      46.199  25.983  29.477  1.00  0.00     0.074 A 
ATOM     38  C   UNL A   1      46.367  25.927  28.027  1.00  0.00     0.031 C 
ATOM     39  C   UNL A   1      45.551  25.156  30.352  1.00  0.00     0.034 A 
BRANCH  26  40
ATOM     40  C   UNL A   1      43.745  22.800  25.798  1.00  0.00     0.023 A 
ATOM     41  C   UNL A   1      43.833  21.402  25.645  1.00  0.00     0.031 A 
ATOM     42  C   UNL A   1      44.550  23.561  24.918  1.00  0.00     0.131 A 
ATOM     43  C   UNL A   1      44.752  20.827  24.749  1.00  0.00     0.055 A 
ATOM     44  C   UNL A   1      45.409  22.986  23.979  1.00  0.00     0.041 A 
ATOM     45  F   UNL A   1      44.627  24.895  24.977  1.00  0.00    -0.206 F 
ATOM     46  C   UNL A   1      45.542  21.611  23.913  1.00  0.00     0.022 A 
BRANCH  43  47
ATOM     47  S   UNL A   1      45.040  19.041  24.840  1.00  0.00     0.124 S 
ATOM     48  O   UNL A   1      44.940  18.654  23.437  1.00  0.00    -0.237 OA
ATOM     49  O   UNL A   1      46.372  18.984  25.432  1.00  0.00    -0.237 OA
ATOM     50  O   UNL A   1      43.955  18.567  25.697  1.00  0.00    -0.744 OA
ENDBRANCH  43  47
ENDBRANCH  26  40
BRANCH  27  51
ATOM     51  C   UNL A   1      46.652  30.452  27.892  1.00  0.00     0.023 A 
ATOM     52  C   UNL A   1      45.966  31.414  27.127  1.00  0.00     0.031 A 
ATOM     53  C   UNL A   1      48.020  30.710  28.157  1.00  0.00     0.131 A 
ATOM     54  C   UNL A   1      46.649  32.557  26.648  1.00  0.00     0.055 A 
ATOM     55  C   UNL A   1      48.692  31.828  27.666  1.00  0.00     0.041 A 
ATOM     56  F   UNL A   1      48.733  29.918  28.974  1.00  0.00    -0.206 F 
ATOM     57  C   UNL A   1      48.005  32.763  26.912  1.00  0.00     0.022 A 
BRANCH  54  58
ATOM     58  S   UNL A   1      45.745  33.853  25.743  1.00  0.00     0.124 S 
ATOM     59  O   UNL A   1      46.822  34.570  25.071  1.00  0.00    -0.237 OA
ATOM     60  O   UNL A   1      44.852  33.075  24.892  1.00  0.00    -0.237 OA
ATOM     61  O   UNL A   1      45.075  34.606  26.805  1.00  0.00    -0.744 OA
ENDBRANCH  54  58
ENDBRANCH  27  51
BRANCH  39  62
ATOM     62  C   UNL A   1      45.435  25.588  31.800  1.00  0.00     0.023 A 
ATOM     63  C   UNL A   1      46.441  25.384  32.773  1.00  0.00     0.031 A 
ATOM     64  C   UNL A   1      44.321  26.362  32.168  1.00  0.00     0.131 A 
ATOM     65  C   UNL A   1      46.300  25.938  34.061  1.00  0.00     0.055 A 
ATOM     66  C   UNL A   1      44.192  26.920  33.440  1.00  0.00     0.041 A 
ATOM     67  F   UNL A   1      43.352  26.628  31.275  1.00  0.00    -0.206 F 
ATOM     68  C   UNL A   1      45.180  26.705  34.394  1.00  0.00     0.022 A 
BRANCH  65  69
ATOM     69  S   UNL A   1      47.583  25.673  35.326  1.00  0.00     0.124 S 
ATOM     70  O   UNL A   1      47.282  24.346  35.847  1.00  0.00    -0.237 OA
ATOM     71  O   UNL A   1      48.817  25.794  34.552  1.00  0.00    -0.237 OA
ATOM     72  O   UNL A   1      47.355  26.765  36.275  1.00  0.00    -0.744 OA
ENDBRANCH  65  69
ENDBRANCH  39  62
ENDBRANCH  13  14
ENDBRANCH   6   8
ENDBRANCH   5   6
ENDBRANCH   4   5
ENDBRANCH   3   4
ENDBRANCH   2   3
ENDBRANCH   1   2
BRANCH   1  73
ATOM     73  C   UNL A   1      30.945  31.538  25.810  1.00  0.00     0.188 C 
BRANCH  73  74
ATOM     74  O   UNL A   1      30.256  31.995  24.647  1.00  0.00    -0.376 OA
BRANCH  74  75
ATOM     75  C   UNL A   1      28.984  31.465  24.333  1.00  0.00     0.202 C 
BRANCH  75  76
ATOM     76  C   UNL A   1      29.033  30.580  23.082  1.00  0.00     0.261 C 
BRANCH  76  77
ATOM     77  O   UNL A   1      29.190  29.181  23.369  1.00  0.00    -0.458 OA
BRANCH  77  78
ATOM     78  C   UNL A   1      30.352  28.606  22.932  1.00  0.00     0.361 C 
ATOM     79  O   UNL A   1      31.257  29.210  22.366  1.00  0.00    -0.244 OA
BRANCH  78  80
ATOM     80  C   UNL A   1      30.401  27.175  23.204  1.00  0.00     0.198 A 
ATOM     81  N   UNL A   1      29.267  26.402  23.196  1.00  0.00    -0.122 NA
ATOM     82  C   UNL A   1      31.496  26.360  23.469  1.00  0.00     0.123 A 
ATOM     83  N   UNL A   1      29.612  25.151  23.459  1.00  0.00    -0.061 NA
ATOM     84  N   UNL A   1      30.920  25.142  23.803  1.00  0.00    -0.213 N 
BRANCH  82  85
ATOM     85  C   UNL A   1      32.969  26.621  23.362  1.00  0.00     0.262 C 
ATOM     86  C   UNL A   1      33.588  26.104  22.057  1.00  0.00     0.281 C 
ATOM     87  O   UNL A   1      33.645  26.189  24.547  1.00  0.00    -0.477 OA
ATOM     88  O   UNL A   1      33.770  24.688  22.076  1.00  0.00    -0.485 OA
ATOM     89  C   UNL A   1      34.431  25.079  24.377  1.00  0.00     0.162 A 
ATOM     90  C   UNL A   1      34.462  24.327  23.201  1.00  0.00     0.161 A 
ATOM     91  C   UNL A   1      35.160  24.659  25.489  1.00  0.00     0.050 A 
ATOM     92  C   UNL A   1      35.159  23.122  23.154  1.00  0.00     0.050 A 
ATOM     93  C   UNL A   1      35.884  23.468  25.435  1.00  0.00     0.004 A 
ATOM     94  C   UNL A   1      35.870  22.692  24.274  1.00  0.00     0.004 A 
ENDBRANCH  82  85
BRANCH  84  95
ATOM     95  C   UNL A   1      31.309  24.249  24.821  1.00  0.00     0.067 A 
ATOM     96  C   UNL A   1      31.260  24.646  26.157  1.00  0.00     0.028 A 
ATOM     97  C   UNL A   1      31.800  22.988  24.456  1.00  0.00     0.041 A 
ATOM     98  C   UNL A   1      31.623  23.730  27.144  1.00  0.00     0.003 A 
ATOM     99  C   UNL A   1      32.217  22.088  25.443  1.00  0.00     0.058 A 
ATOM    100  C   UNL A   1      32.093  22.460  26.792  1.00  0.00     0.013 A 
BRANCH  99 101
ATOM    101  C   UNL A   1      32.772  20.739  25.066  1.00  0.00     0.416 C 
ATOM    102  F   UNL A   1      31.832  19.752  25.096  1.00  0.00    -0.166 F 
ATOM    103  F   UNL A   1      33.293  20.718  23.808  1.00  0.00    -0.166 F 
ATOM    104  F   UNL A   1      33.775  20.314  25.888  1.00  0.00    -0.166 F 
ENDBRANCH  99 101
ENDBRANCH  84  95
ENDBRANCH  78  80
ENDBRANCH  77  78
ENDBRANCH  76  77
ENDBRANCH  75  76
ENDBRANCH  74  75
ENDBRANCH  73  74
ENDBRANCH   1  73
TORSDOF 23
ENDMDL
