MODEL 1
REMARK VINA RESULT:     -11.1      0.000      0.000
REMARK SMILES CC(C)N1C[C@@]2(CCCN(c3ccc(C(=O)OCCOCCOCCOC(=O)c4ccc(-c5c6nc(c(-c7cc(S(=O)(=O)[O-])ccc7F)c7ccc([nH]7)c(-c7cc(S(=O)(=O)[O-])ccc7F)c7nc(c(-c8cc(S(=O)(=O)[O-])ccc8F)c8ccc5[nH]8)C=C7)C=C6)cc4)cn3)C2)CCC1=O
REMARK SMILES IDX 22 1 21 2 20 3 19 4 18 5 17 6 15 7 16 8 14 9 11 10 12 11
REMARK SMILES IDX 93 12 13 13 92 14 10 15 4 16 5 17 97 18 6 19 96 20 98 21
REMARK SMILES IDX 7 22 94 23 95 24 8 25 9 26 2 27 1 28 3 29 23 30 24 31 25 32
REMARK SMILES IDX 26 33 27 34 28 35 29 36 30 37 91 38 31 39 90 40 32 41 33 42
REMARK SMILES IDX 34 43 84 44 35 45 89 46 83 47 85 48 36 49 88 50 82 51 81 52
REMARK SMILES IDX 37 54 69 55 49 56 68 57 50 58 53 59 67 60 86 61 51 62 52 63
REMARK SMILES IDX 66 65 87 66 54 67 38 68 39 69 47 70 40 71 46 72 48 73 45 74
REMARK SMILES IDX 41 75 42 76 43 77 44 78 70 79 71 80 79 81 72 82 78 83 80 84
REMARK SMILES IDX 77 85 73 86 74 87 75 88 76 89 55 90 56 91 64 92 57 93 63 94
REMARK SMILES IDX 65 95 62 96 58 97 59 98 60 99 61 100
REMARK H PARENT 85 53 53 64
REMARK Flexibility Score: inf
ROOT
ATOM      1  C   UNL A   1      37.328  22.129  24.612  1.00  0.00     0.188 C 
ENDROOT
BRANCH   1   2
ATOM      2  C   UNL A   1      35.932  21.488  24.471  1.00  0.00     0.188 C 
BRANCH   2   3
ATOM      3  O   UNL A   1      35.027  21.432  25.569  1.00  0.00    -0.376 OA
BRANCH   3   4
ATOM      4  C   UNL A   1      34.064  20.399  25.652  1.00  0.00     0.202 C 
BRANCH   4   5
ATOM      5  C   UNL A   1      33.028  20.312  24.532  1.00  0.00     0.261 C 
BRANCH   5   6
ATOM      6  O   UNL A   1      32.367  21.549  24.240  1.00  0.00    -0.460 OA
BRANCH   6   7
ATOM      7  C   UNL A   1      32.401  21.948  22.943  1.00  0.00     0.339 C 
ATOM      8  O   UNL A   1      32.154  21.290  21.950  1.00  0.00    -0.246 OA
BRANCH   7   9
ATOM      9  C   UNL A   1      32.719  23.378  22.929  1.00  0.00     0.078 A 
ATOM     10  C   UNL A   1      33.111  26.116  22.850  1.00  0.00     0.128 A 
ATOM     11  C   UNL A   1      33.315  25.405  24.037  1.00  0.00     0.048 A 
ATOM     12  N   UNL A   1      32.758  25.465  21.722  1.00  0.00    -0.238 NA
ATOM     13  C   UNL A   1      33.070  24.037  24.095  1.00  0.00     0.021 A 
ATOM     14  C   UNL A   1      32.624  24.114  21.762  1.00  0.00     0.129 A 
BRANCH  10  15
ATOM     15  N   UNL A   1      33.191  27.494  22.815  1.00  0.00    -0.356 N 
ATOM     16  N   UNL A   1      29.039  29.218  23.283  1.00  0.00    -0.340 N 
ATOM     17  C   UNL A   1      30.278  29.718  23.860  1.00  0.00     0.128 C 
ATOM     18  C   UNL A   1      28.583  27.926  23.505  1.00  0.00     0.222 C 
ATOM     19  C   UNL A   1      31.397  28.676  24.026  1.00  0.00     0.006 C 
ATOM     20  C   UNL A   1      29.577  26.917  24.052  1.00  0.00     0.101 C 
ATOM     21  O   UNL A   1      27.460  27.536  23.195  1.00  0.00    -0.275 OA
ATOM     22  C   UNL A   1      32.527  29.359  24.859  1.00  0.00     0.012 C 
ATOM     23  C   UNL A   1      31.953  28.251  22.632  1.00  0.00     0.127 C 
ATOM     24  C   UNL A   1      30.756  27.512  24.804  1.00  0.00     0.020 C 
ATOM     25  C   UNL A   1      33.899  28.679  24.815  1.00  0.00     0.022 C 
ATOM     26  C   UNL A   1      34.289  28.227  23.412  1.00  0.00     0.118 C 
BRANCH  16  27
ATOM     27  C   UNL A   1      28.272  30.181  22.465  1.00  0.00     0.078 C 
ATOM     28  C   UNL A   1      27.675  31.259  23.368  1.00  0.00     0.031 C 
ATOM     29  C   UNL A   1      29.018  30.791  21.278  1.00  0.00     0.031 C 
ENDBRANCH  16  27
ENDBRANCH  10  15
ENDBRANCH   7   9
ENDBRANCH   6   7
ENDBRANCH   5   6
ENDBRANCH   4   5
ENDBRANCH   3   4
ENDBRANCH   2   3
ENDBRANCH   1   2
BRANCH   1  30
ATOM     30  O   UNL A   1      38.246  21.396  25.414  1.00  0.00    -0.376 OA
BRANCH  30  31
ATOM     31  C   UNL A   1      38.428  20.033  25.050  1.00  0.00     0.202 C 
BRANCH  31  32
ATOM     32  C   UNL A   1      39.402  19.285  25.966  1.00  0.00     0.261 C 
BRANCH  32  33
ATOM     33  O   UNL A   1      40.753  19.235  25.480  1.00  0.00    -0.460 OA
BRANCH  33  34
ATOM     34  C   UNL A   1      41.731  19.452  26.391  1.00  0.00     0.338 C 
ATOM     35  O   UNL A   1      42.513  18.627  26.824  1.00  0.00    -0.246 OA
BRANCH  34  36
ATOM     36  C   UNL A   1      41.780  20.904  26.664  1.00  0.00     0.060 A 
ATOM     37  C   UNL A   1      41.683  21.806  25.599  1.00  0.00     0.016 A 
ATOM     38  C   UNL A   1      41.912  21.370  27.975  1.00  0.00     0.016 A 
ATOM     39  C   UNL A   1      41.748  23.183  25.844  1.00  0.00     0.010 A 
ATOM     40  C   UNL A   1      41.990  22.746  28.217  1.00  0.00     0.010 A 
ATOM     41  C   UNL A   1      41.938  23.660  27.150  1.00  0.00    -0.014 A 
BRANCH  41  42
ATOM     42  C   UNL A   1      42.266  25.092  27.390  1.00  0.00     0.031 A 
ATOM     43  C   UNL A   1      43.614  25.599  26.949  1.00  0.00     0.074 A 
ATOM     44  C   UNL A   1      41.397  25.928  27.986  1.00  0.00     0.049 A 
ATOM     45  N   UNL A   1      44.144  26.788  27.089  1.00  0.00    -0.248 NA
ATOM     46  C   UNL A   1      44.482  24.628  26.266  1.00  0.00     0.031 C 
ATOM     47  C   UNL A   1      40.054  25.570  28.437  1.00  0.00     0.029 A 
ATOM     48  N   UNL A   1      41.523  27.253  28.325  1.00  0.00    -0.354 N 
ATOM     49  C   UNL A   1      45.406  26.709  26.507  1.00  0.00     0.074 A 
ATOM     50  C   UNL A   1      45.575  25.343  26.056  1.00  0.00     0.031 C 
ATOM     51  C   UNL A   1      39.482  26.651  29.001  1.00  0.00     0.029 A 
ATOM     52  C   UNL A   1      40.428  27.766  28.982  1.00  0.00     0.049 A 
ATOM     53  H   UNL A   1      42.324  27.788  28.116  1.00  0.00     0.167 HD
ATOM     54  C   UNL A   1      46.335  27.685  26.352  1.00  0.00     0.034 A 
ATOM     55  C   UNL A   1      40.223  28.985  29.525  1.00  0.00     0.034 A 
ATOM     56  C   UNL A   1      46.169  29.038  26.826  1.00  0.00     0.049 A 
ATOM     57  C   UNL A   1      41.307  30.035  29.420  1.00  0.00     0.074 A 
ATOM     58  C   UNL A   1      47.043  30.105  26.708  1.00  0.00     0.029 A 
ATOM     59  N   UNL A   1      45.063  29.508  27.522  1.00  0.00    -0.354 N 
ATOM     60  N   UNL A   1      42.488  29.954  28.847  1.00  0.00    -0.248 NA
ATOM     61  C   UNL A   1      41.027  31.343  30.027  1.00  0.00     0.031 C 
ATOM     62  C   UNL A   1      46.498  31.197  27.393  1.00  0.00     0.029 A 
ATOM     63  C   UNL A   1      45.247  30.838  27.870  1.00  0.00     0.049 A 
ATOM     64  H   UNL A   1      44.264  28.975  27.737  1.00  0.00     0.167 HD
ATOM     65  C   UNL A   1      43.071  31.211  28.998  1.00  0.00     0.074 A 
ATOM     66  C   UNL A   1      42.111  32.032  29.704  1.00  0.00     0.031 C 
ATOM     67  C   UNL A   1      44.288  31.649  28.583  1.00  0.00     0.034 A 
BRANCH  54  68
ATOM     68  C   UNL A   1      47.634  27.300  25.685  1.00  0.00     0.023 A 
ATOM     69  C   UNL A   1      48.730  26.819  26.425  1.00  0.00     0.031 A 
ATOM     70  C   UNL A   1      47.790  27.450  24.297  1.00  0.00     0.131 A 
ATOM     71  C   UNL A   1      49.953  26.574  25.783  1.00  0.00     0.055 A 
ATOM     72  C   UNL A   1      48.987  27.130  23.652  1.00  0.00     0.041 A 
ATOM     73  F   UNL A   1      46.787  27.925  23.543  1.00  0.00    -0.206 F 
ATOM     74  C   UNL A   1      50.082  26.703  24.398  1.00  0.00     0.022 A 
BRANCH  71  75
ATOM     75  S   UNL A   1      51.413  26.220  26.801  1.00  0.00     0.124 S 
ATOM     76  O   UNL A   1      51.696  24.833  26.440  1.00  0.00    -0.237 OA
ATOM     77  O   UNL A   1      52.373  27.212  26.331  1.00  0.00    -0.237 OA
ATOM     78  O   UNL A   1      50.933  26.416  28.168  1.00  0.00    -0.744 OA
ENDBRANCH  71  75
ENDBRANCH  54  68
BRANCH  55  79
ATOM     79  C   UNL A   1      38.958  29.288  30.258  1.00  0.00     0.023 A 
ATOM     80  C   UNL A   1      37.990  30.152  29.720  1.00  0.00     0.031 A 
ATOM     81  C   UNL A   1      38.734  28.772  31.548  1.00  0.00     0.131 A 
ATOM     82  C   UNL A   1      36.869  30.513  30.486  1.00  0.00     0.055 A 
ATOM     83  C   UNL A   1      37.592  29.090  32.283  1.00  0.00     0.041 A 
ATOM     84  F   UNL A   1      39.631  27.948  32.114  1.00  0.00    -0.206 F 
ATOM     85  C   UNL A   1      36.657  29.975  31.758  1.00  0.00     0.022 A 
BRANCH  82  86
ATOM     86  S   UNL A   1      35.734  31.769  29.834  1.00  0.00     0.124 S 
ATOM     87  O   UNL A   1      36.657  32.827  29.437  1.00  0.00    -0.237 OA
ATOM     88  O   UNL A   1      35.077  31.051  28.746  1.00  0.00    -0.237 OA
ATOM     89  O   UNL A   1      34.878  32.083  30.975  1.00  0.00    -0.744 OA
ENDBRANCH  82  86
ENDBRANCH  55  79
BRANCH  67  90
ATOM     90  C   UNL A   1      44.625  33.101  28.835  1.00  0.00     0.023 A 
ATOM     91  C   UNL A   1      44.030  34.144  28.104  1.00  0.00     0.031 A 
ATOM     92  C   UNL A   1      45.564  33.443  29.826  1.00  0.00     0.131 A 
ATOM     93  C   UNL A   1      44.419  35.472  28.335  1.00  0.00     0.055 A 
ATOM     94  C   UNL A   1      45.904  34.770  30.092  1.00  0.00     0.041 A 
ATOM     95  F   UNL A   1      46.166  32.490  30.556  1.00  0.00    -0.206 F 
ATOM     96  C   UNL A   1      45.341  35.793  29.336  1.00  0.00     0.022 A 
BRANCH  93  97
ATOM     97  S   UNL A   1      43.773  36.776  27.251  1.00  0.00     0.124 S 
ATOM     98  O   UNL A   1      42.809  37.444  28.119  1.00  0.00    -0.237 OA
ATOM     99  O   UNL A   1      44.975  37.538  26.928  1.00  0.00    -0.237 OA
ATOM    100  O   UNL A   1      43.191  36.037  26.132  1.00  0.00    -0.744 OA
ENDBRANCH  93  97
ENDBRANCH  67  90
ENDBRANCH  41  42
ENDBRANCH  34  36
ENDBRANCH  33  34
ENDBRANCH  32  33
ENDBRANCH  31  32
ENDBRANCH  30  31
ENDBRANCH   1  30
TORSDOF 22
ENDMDL
MODEL 2
REMARK VINA RESULT:     -10.7      1.487      7.319
REMARK SMILES CC(C)N1C[C@@]2(CCCN(c3ccc(C(=O)OCCOCCOCCOC(=O)c4ccc(-c5c6nc(c(-c7cc(S(=O)(=O)[O-])ccc7F)c7ccc([nH]7)c(-c7cc(S(=O)(=O)[O-])ccc7F)c7nc(c(-c8cc(S(=O)(=O)[O-])ccc8F)c8ccc5[nH]8)C=C7)C=C6)cc4)cn3)C2)CCC1=O
REMARK SMILES IDX 22 1 21 2 20 3 19 4 18 5 17 6 15 7 16 8 14 9 11 10 12 11
REMARK SMILES IDX 93 12 13 13 92 14 10 15 4 16 5 17 97 18 6 19 96 20 98 21
REMARK SMILES IDX 7 22 94 23 95 24 8 25 9 26 2 27 1 28 3 29 23 30 24 31 25 32
REMARK SMILES IDX 26 33 27 34 28 35 29 36 30 37 91 38 31 39 90 40 32 41 33 42
REMARK SMILES IDX 34 43 84 44 35 45 89 46 83 47 85 48 36 49 88 50 82 51 81 52
REMARK SMILES IDX 37 54 69 55 49 56 68 57 50 58 53 59 67 60 86 61 51 62 52 63
REMARK SMILES IDX 66 65 87 66 54 67 38 68 39 69 47 70 40 71 46 72 48 73 45 74
REMARK SMILES IDX 41 75 42 76 43 77 44 78 70 79 71 80 79 81 72 82 78 83 80 84
REMARK SMILES IDX 77 85 73 86 74 87 75 88 76 89 55 90 56 91 64 92 57 93 63 94
REMARK SMILES IDX 65 95 62 96 58 97 59 98 60 99 61 100
REMARK H PARENT 85 53 53 64
REMARK Flexibility Score: inf
ROOT
ATOM      1  C   UNL A   1      35.998  22.267  25.636  1.00  0.00     0.188 C 
ENDROOT
BRANCH   1   2
ATOM      2  C   UNL A   1      35.479  20.887  25.182  1.00  0.00     0.188 C 
BRANCH   2   3
ATOM      3  O   UNL A   1      34.276  20.337  25.709  1.00  0.00    -0.376 OA
BRANCH   3   4
ATOM      4  C   UNL A   1      33.411  19.582  24.882  1.00  0.00     0.202 C 
BRANCH   4   5
ATOM      5  C   UNL A   1      32.194  20.299  24.298  1.00  0.00     0.261 C 
BRANCH   5   6
ATOM      6  O   UNL A   1      32.384  21.700  24.072  1.00  0.00    -0.460 OA
BRANCH   6   7
ATOM      7  C   UNL A   1      32.420  22.092  22.773  1.00  0.00     0.339 C 
ATOM      8  O   UNL A   1      32.179  21.427  21.783  1.00  0.00    -0.246 OA
BRANCH   7   9
ATOM      9  C   UNL A   1      32.731  23.523  22.752  1.00  0.00     0.078 A 
ATOM     10  C   UNL A   1      33.107  26.265  22.738  1.00  0.00     0.128 A 
ATOM     11  C   UNL A   1      33.702  25.473  23.725  1.00  0.00     0.048 A 
ATOM     12  N   UNL A   1      32.374  25.692  21.760  1.00  0.00    -0.238 NA
ATOM     13  C   UNL A   1      33.475  24.101  23.767  1.00  0.00     0.021 A 
ATOM     14  C   UNL A   1      32.245  24.339  21.747  1.00  0.00     0.129 A 
BRANCH  10  15
ATOM     15  N   UNL A   1      33.186  27.643  22.777  1.00  0.00    -0.356 N 
ATOM     16  N   UNL A   1      29.036  29.340  23.347  1.00  0.00    -0.340 N 
ATOM     17  C   UNL A   1      30.277  29.807  23.947  1.00  0.00     0.128 C 
ATOM     18  C   UNL A   1      28.580  28.037  23.501  1.00  0.00     0.222 C 
ATOM     19  C   UNL A   1      31.396  28.759  24.054  1.00  0.00     0.006 C 
ATOM     20  C   UNL A   1      29.576  27.000  23.989  1.00  0.00     0.101 C 
ATOM     21  O   UNL A   1      27.456  27.665  23.173  1.00  0.00    -0.275 OA
ATOM     22  C   UNL A   1      32.528  29.395  24.920  1.00  0.00     0.012 C 
ATOM     23  C   UNL A   1      31.948  28.409  22.638  1.00  0.00     0.127 C 
ATOM     24  C   UNL A   1      30.756  27.554  24.770  1.00  0.00     0.020 C 
ATOM     25  C   UNL A   1      33.899  28.719  24.837  1.00  0.00     0.022 C 
ATOM     26  C   UNL A   1      34.287  28.342  23.410  1.00  0.00     0.118 C 
BRANCH  16  27
ATOM     27  C   UNL A   1      28.268  30.345  22.584  1.00  0.00     0.078 C 
ATOM     28  C   UNL A   1      27.565  31.296  23.551  1.00  0.00     0.031 C 
ATOM     29  C   UNL A   1      29.047  31.108  21.512  1.00  0.00     0.031 C 
ENDBRANCH  16  27
ENDBRANCH  10  15
ENDBRANCH   7   9
ENDBRANCH   6   7
ENDBRANCH   5   6
ENDBRANCH   4   5
ENDBRANCH   3   4
ENDBRANCH   2   3
ENDBRANCH   1   2
BRANCH   1  30
ATOM     30  O   UNL A   1      37.411  22.426  25.570  1.00  0.00    -0.376 OA
BRANCH  30  31
ATOM     31  C   UNL A   1      38.158  21.225  25.413  1.00  0.00     0.202 C 
BRANCH  31  32
ATOM     32  C   UNL A   1      39.557  21.295  26.034  1.00  0.00     0.261 C 
BRANCH  32  33
ATOM     33  O   UNL A   1      40.099  20.022  26.418  1.00  0.00    -0.460 OA
BRANCH  33  34
ATOM     34  C   UNL A   1      41.433  19.858  26.249  1.00  0.00     0.338 C 
ATOM     35  O   UNL A   1      41.991  18.869  25.813  1.00  0.00    -0.246 OA
BRANCH  34  36
ATOM     36  C   UNL A   1      42.089  21.147  26.553  1.00  0.00     0.060 A 
ATOM     37  C   UNL A   1      42.348  21.488  27.886  1.00  0.00     0.016 A 
ATOM     38  C   UNL A   1      42.456  22.013  25.519  1.00  0.00     0.016 A 
ATOM     39  C   UNL A   1      42.952  22.715  28.186  1.00  0.00     0.010 A 
ATOM     40  C   UNL A   1      43.046  23.243  25.822  1.00  0.00     0.010 A 
ATOM     41  C   UNL A   1      43.272  23.615  27.159  1.00  0.00    -0.014 A 
BRANCH  41  42
ATOM     42  C   UNL A   1      43.669  25.014  27.479  1.00  0.00     0.031 A 
ATOM     43  C   UNL A   1      42.634  25.932  28.073  1.00  0.00     0.074 A 
ATOM     44  C   UNL A   1      44.914  25.467  27.247  1.00  0.00     0.049 A 
ATOM     45  N   UNL A   1      42.725  27.198  28.392  1.00  0.00    -0.248 NA
ATOM     46  C   UNL A   1      41.313  25.340  28.333  1.00  0.00     0.031 C 
ATOM     47  C   UNL A   1      46.014  24.676  26.700  1.00  0.00     0.029 A 
ATOM     48  N   UNL A   1      45.459  26.715  27.435  1.00  0.00    -0.354 N 
ATOM     49  C   UNL A   1      41.478  27.553  28.895  1.00  0.00     0.074 A 
ATOM     50  C   UNL A   1      40.636  26.379  28.794  1.00  0.00     0.031 C 
ATOM     51  C   UNL A   1      47.102  25.462  26.591  1.00  0.00     0.029 A 
ATOM     52  C   UNL A   1      46.768  26.817  27.027  1.00  0.00     0.049 A 
ATOM     53  H   UNL A   1      44.958  27.467  27.828  1.00  0.00     0.167 HD
ATOM     54  C   UNL A   1      41.071  28.743  29.404  1.00  0.00     0.034 A 
ATOM     55  C   UNL A   1      47.594  27.885  26.987  1.00  0.00     0.034 A 
ATOM     56  C   UNL A   1      41.909  29.915  29.480  1.00  0.00     0.049 A 
ATOM     57  C   UNL A   1      47.093  29.226  27.478  1.00  0.00     0.074 A 
ATOM     58  C   UNL A   1      41.600  31.164  29.990  1.00  0.00     0.029 A 
ATOM     59  N   UNL A   1      43.218  29.990  29.018  1.00  0.00    -0.354 N 
ATOM     60  N   UNL A   1      45.917  29.543  27.972  1.00  0.00    -0.248 NA
ATOM     61  C   UNL A   1      48.037  30.351  27.413  1.00  0.00     0.031 C 
ATOM     62  C   UNL A   1      42.692  32.012  29.772  1.00  0.00     0.029 A 
ATOM     63  C   UNL A   1      43.715  31.272  29.200  1.00  0.00     0.049 A 
ATOM     64  H   UNL A   1      43.719  29.242  28.620  1.00  0.00     0.167 HD
ATOM     65  C   UNL A   1      45.997  30.894  28.306  1.00  0.00     0.074 A 
ATOM     66  C   UNL A   1      47.335  31.327  27.968  1.00  0.00     0.031 C 
ATOM     67  C   UNL A   1      45.050  31.701  28.852  1.00  0.00     0.034 A 
BRANCH  54  68
ATOM     68  C   UNL A   1      39.639  28.839  29.870  1.00  0.00     0.023 A 
ATOM     69  C   UNL A   1      38.623  29.343  29.036  1.00  0.00     0.031 A 
ATOM     70  C   UNL A   1      39.290  28.458  31.177  1.00  0.00     0.131 A 
ATOM     71  C   UNL A   1      37.326  29.517  29.541  1.00  0.00     0.055 A 
ATOM     72  C   UNL A   1      37.980  28.560  31.648  1.00  0.00     0.041 A 
ATOM     73  F   UNL A   1      40.220  27.992  32.024  1.00  0.00    -0.206 F 
ATOM     74  C   UNL A   1      36.991  29.105  30.834  1.00  0.00     0.022 A 
BRANCH  71  75
ATOM     75  S   UNL A   1      36.114  30.416  28.533  1.00  0.00     0.124 S 
ATOM     76  O   UNL A   1      35.230  29.336  28.100  1.00  0.00    -0.237 OA
ATOM     77  O   UNL A   1      35.549  31.361  29.489  1.00  0.00    -0.237 OA
ATOM     78  O   UNL A   1      36.925  31.011  27.473  1.00  0.00    -0.744 OA
ENDBRANCH  71  75
ENDBRANCH  54  68
BRANCH  55  79
ATOM     79  C   UNL A   1      48.973  27.760  26.429  1.00  0.00     0.023 A 
ATOM     80  C   UNL A   1      49.219  27.899  25.053  1.00  0.00     0.031 A 
ATOM     81  C   UNL A   1      50.057  27.424  27.260  1.00  0.00     0.131 A 
ATOM     82  C   UNL A   1      50.505  27.655  24.542  1.00  0.00     0.055 A 
ATOM     83  C   UNL A   1      51.344  27.237  26.755  1.00  0.00     0.041 A 
ATOM     84  F   UNL A   1      49.876  27.270  28.581  1.00  0.00    -0.206 F 
ATOM     85  C   UNL A   1      51.572  27.340  25.387  1.00  0.00     0.022 A 
BRANCH  82  86
ATOM     86  S   UNL A   1      50.746  27.666  22.744  1.00  0.00     0.124 S 
ATOM     87  O   UNL A   1      50.884  29.092  22.471  1.00  0.00    -0.237 OA
ATOM     88  O   UNL A   1      51.957  26.865  22.594  1.00  0.00    -0.237 OA
ATOM     89  O   UNL A   1      49.526  27.047  22.231  1.00  0.00    -0.744 OA
ENDBRANCH  82  86
ENDBRANCH  55  79
BRANCH  67  90
ATOM     90  C   UNL A   1      45.450  33.124  29.166  1.00  0.00     0.023 A 
ATOM     91  C   UNL A   1      45.191  34.186  28.281  1.00  0.00     0.031 A 
ATOM     92  C   UNL A   1      46.108  33.419  30.375  1.00  0.00     0.131 A 
ATOM     93  C   UNL A   1      45.635  35.480  28.592  1.00  0.00     0.055 A 
ATOM     94  C   UNL A   1      46.494  34.718  30.705  1.00  0.00     0.041 A 
ATOM     95  F   UNL A   1      46.383  32.446  31.259  1.00  0.00    -0.206 F 
ATOM     96  C   UNL A   1      46.271  35.757  29.806  1.00  0.00     0.022 A 
BRANCH  93  97
ATOM     97  S   UNL A   1      45.452  36.791  27.351  1.00  0.00     0.124 S 
ATOM     98  O   UNL A   1      45.647  37.996  28.150  1.00  0.00    -0.237 OA
ATOM     99  O   UNL A   1      46.516  36.474  26.403  1.00  0.00    -0.237 OA
ATOM    100  O   UNL A   1      44.095  36.598  26.843  1.00  0.00    -0.744 OA
ENDBRANCH  93  97
ENDBRANCH  67  90
ENDBRANCH  41  42
ENDBRANCH  34  36
ENDBRANCH  33  34
ENDBRANCH  32  33
ENDBRANCH  31  32
ENDBRANCH  30  31
ENDBRANCH   1  30
TORSDOF 22
ENDMDL
MODEL 3
REMARK VINA RESULT:     -10.6      1.923      2.223
REMARK SMILES CC(C)N1C[C@@]2(CCCN(c3ccc(C(=O)OCCOCCOCCOC(=O)c4ccc(-c5c6nc(c(-c7cc(S(=O)(=O)[O-])ccc7F)c7ccc([nH]7)c(-c7cc(S(=O)(=O)[O-])ccc7F)c7nc(c(-c8cc(S(=O)(=O)[O-])ccc8F)c8ccc5[nH]8)C=C7)C=C6)cc4)cn3)C2)CCC1=O
REMARK SMILES IDX 22 1 21 2 20 3 19 4 18 5 17 6 15 7 16 8 14 9 11 10 12 11
REMARK SMILES IDX 93 12 13 13 92 14 10 15 4 16 5 17 97 18 6 19 96 20 98 21
REMARK SMILES IDX 7 22 94 23 95 24 8 25 9 26 2 27 1 28 3 29 23 30 24 31 25 32
REMARK SMILES IDX 26 33 27 34 28 35 29 36 30 37 91 38 31 39 90 40 32 41 33 42
REMARK SMILES IDX 34 43 84 44 35 45 89 46 83 47 85 48 36 49 88 50 82 51 81 52
REMARK SMILES IDX 37 54 69 55 49 56 68 57 50 58 53 59 67 60 86 61 51 62 52 63
REMARK SMILES IDX 66 65 87 66 54 67 38 68 39 69 47 70 40 71 46 72 48 73 45 74
REMARK SMILES IDX 41 75 42 76 43 77 44 78 70 79 71 80 79 81 72 82 78 83 80 84
REMARK SMILES IDX 77 85 73 86 74 87 75 88 76 89 55 90 56 91 64 92 57 93 63 94
REMARK SMILES IDX 65 95 62 96 58 97 59 98 60 99 61 100
REMARK H PARENT 85 53 53 64
REMARK Flexibility Score: inf
ROOT
ATOM      1  C   UNL A   1      36.216  22.754  25.476  1.00  0.00     0.188 C 
ENDROOT
BRANCH   1   2
ATOM      2  C   UNL A   1      35.601  21.365  25.213  1.00  0.00     0.188 C 
BRANCH   2   3
ATOM      3  O   UNL A   1      34.395  20.954  25.848  1.00  0.00    -0.376 OA
BRANCH   3   4
ATOM      4  C   UNL A   1      33.648  19.868  25.335  1.00  0.00     0.202 C 
BRANCH   4   5
ATOM      5  C   UNL A   1      32.366  20.195  24.570  1.00  0.00     0.261 C 
BRANCH   5   6
ATOM      6  O   UNL A   1      32.193  21.586  24.274  1.00  0.00    -0.460 OA
BRANCH   6   7
ATOM      7  C   UNL A   1      32.340  21.939  22.972  1.00  0.00     0.339 C 
ATOM      8  O   UNL A   1      32.171  21.248  21.985  1.00  0.00    -0.246 OA
BRANCH   7   9
ATOM      9  C   UNL A   1      32.670  23.365  22.936  1.00  0.00     0.078 A 
ATOM     10  C   UNL A   1      33.085  26.100  22.828  1.00  0.00     0.128 A 
ATOM     11  C   UNL A   1      33.352  25.388  24.002  1.00  0.00     0.048 A 
ATOM     12  N   UNL A   1      32.658  25.450  21.724  1.00  0.00    -0.238 NA
ATOM     13  C   UNL A   1      33.097  24.023  24.077  1.00  0.00     0.021 A 
ATOM     14  C   UNL A   1      32.513  24.101  21.775  1.00  0.00     0.129 A 
BRANCH  10  15
ATOM     15  N   UNL A   1      33.176  27.477  22.785  1.00  0.00    -0.356 N 
ATOM     16  N   UNL A   1      29.053  29.241  23.350  1.00  0.00    -0.340 N 
ATOM     17  C   UNL A   1      30.310  29.731  23.893  1.00  0.00     0.128 C 
ATOM     18  C   UNL A   1      28.591  27.953  23.588  1.00  0.00     0.222 C 
ATOM     19  C   UNL A   1      31.424  28.680  24.036  1.00  0.00     0.006 C 
ATOM     20  C   UNL A   1      29.589  26.937  24.114  1.00  0.00     0.101 C 
ATOM     21  O   UNL A   1      27.457  27.573  23.308  1.00  0.00    -0.275 OA
ATOM     22  C   UNL A   1      32.581  29.356  24.838  1.00  0.00     0.012 C 
ATOM     23  C   UNL A   1      31.941  28.245  22.630  1.00  0.00     0.127 C 
ATOM     24  C   UNL A   1      30.792  27.525  24.835  1.00  0.00     0.020 C 
ATOM     25  C   UNL A   1      33.944  28.663  24.763  1.00  0.00     0.022 C 
ATOM     26  C   UNL A   1      34.296  28.202  23.352  1.00  0.00     0.118 C 
BRANCH  16  27
ATOM     27  C   UNL A   1      28.275  30.208  22.547  1.00  0.00     0.078 C 
ATOM     28  C   UNL A   1      27.626  31.236  23.471  1.00  0.00     0.031 C 
ATOM     29  C   UNL A   1      29.027  30.879  21.398  1.00  0.00     0.031 C 
ENDBRANCH  16  27
ENDBRANCH  10  15
ENDBRANCH   7   9
ENDBRANCH   6   7
ENDBRANCH   5   6
ENDBRANCH   4   5
ENDBRANCH   3   4
ENDBRANCH   2   3
ENDBRANCH   1   2
BRANCH   1  30
ATOM     30  O   UNL A   1      37.609  22.747  25.768  1.00  0.00    -0.376 OA
BRANCH  30  31
ATOM     31  C   UNL A   1      38.301  21.551  25.429  1.00  0.00     0.202 C 
BRANCH  31  32
ATOM     32  C   UNL A   1      39.536  21.297  26.300  1.00  0.00     0.261 C 
BRANCH  32  33
ATOM     33  O   UNL A   1      40.391  20.245  25.824  1.00  0.00    -0.460 OA
BRANCH  33  34
ATOM     34  C   UNL A   1      41.608  20.146  26.408  1.00  0.00     0.338 C 
ATOM     35  O   UNL A   1      42.270  19.133  26.533  1.00  0.00    -0.246 OA
BRANCH  34  36
ATOM     36  C   UNL A   1      42.063  21.512  26.740  1.00  0.00     0.060 A 
ATOM     37  C   UNL A   1      42.268  21.860  28.080  1.00  0.00     0.016 A 
ATOM     38  C   UNL A   1      42.297  22.444  25.725  1.00  0.00     0.016 A 
ATOM     39  C   UNL A   1      42.680  23.158  28.408  1.00  0.00     0.010 A 
ATOM     40  C   UNL A   1      42.696  23.743  26.055  1.00  0.00     0.010 A 
ATOM     41  C   UNL A   1      42.862  24.117  27.400  1.00  0.00    -0.014 A 
BRANCH  41  42
ATOM     42  C   UNL A   1      43.044  25.552  27.749  1.00  0.00     0.031 A 
ATOM     43  C   UNL A   1      44.427  26.141  27.651  1.00  0.00     0.074 A 
ATOM     44  C   UNL A   1      42.015  26.321  28.149  1.00  0.00     0.049 A 
ATOM     45  N   UNL A   1      44.844  27.347  27.944  1.00  0.00    -0.248 NA
ATOM     46  C   UNL A   1      45.483  25.241  27.164  1.00  0.00     0.031 C 
ATOM     47  C   UNL A   1      40.626  25.882  28.262  1.00  0.00     0.029 A 
ATOM     48  N   UNL A   1      41.985  27.636  28.545  1.00  0.00    -0.354 N 
ATOM     49  C   UNL A   1      46.208  27.352  27.673  1.00  0.00     0.074 A 
ATOM     50  C   UNL A   1      46.553  26.015  27.235  1.00  0.00     0.031 C 
ATOM     51  C   UNL A   1      39.879  26.910  28.706  1.00  0.00     0.029 A 
ATOM     52  C   UNL A   1      40.740  28.069  28.940  1.00  0.00     0.049 A 
ATOM     53  H   UNL A   1      42.781  28.217  28.544  1.00  0.00     0.167 HD
ATOM     54  C   UNL A   1      47.092  28.377  27.767  1.00  0.00     0.034 A 
ATOM     55  C   UNL A   1      40.346  29.254  29.454  1.00  0.00     0.034 A 
ATOM     56  C   UNL A   1      46.744  29.700  28.225  1.00  0.00     0.049 A 
ATOM     57  C   UNL A   1      41.365  30.358  29.635  1.00  0.00     0.074 A 
ATOM     58  C   UNL A   1      47.560  30.813  28.345  1.00  0.00     0.029 A 
ATOM     59  N   UNL A   1      45.482  30.089  28.656  1.00  0.00    -0.354 N 
ATOM     60  N   UNL A   1      42.649  30.357  29.353  1.00  0.00    -0.248 NA
ATOM     61  C   UNL A   1      40.878  31.626  30.196  1.00  0.00     0.031 C 
ATOM     62  C   UNL A   1      46.811  31.849  28.914  1.00  0.00     0.029 A 
ATOM     63  C   UNL A   1      45.506  31.411  29.074  1.00  0.00     0.049 A 
ATOM     64  H   UNL A   1      44.686  29.509  28.663  1.00  0.00     0.167 HD
ATOM     65  C   UNL A   1      43.110  31.634  29.671  1.00  0.00     0.074 A 
ATOM     66  C   UNL A   1      41.967  32.379  30.155  1.00  0.00     0.031 C 
ATOM     67  C   UNL A   1      44.363  32.146  29.565  1.00  0.00     0.034 A 
BRANCH  54  68
ATOM     68  C   UNL A   1      48.529  28.082  27.412  1.00  0.00     0.023 A 
ATOM     69  C   UNL A   1      49.008  28.219  26.096  1.00  0.00     0.031 A 
ATOM     70  C   UNL A   1      49.423  27.623  28.394  1.00  0.00     0.131 A 
ATOM     71  C   UNL A   1      50.321  27.833  25.786  1.00  0.00     0.055 A 
ATOM     72  C   UNL A   1      50.751  27.315  28.094  1.00  0.00     0.041 A 
ATOM     73  F   UNL A   1      49.017  27.452  29.662  1.00  0.00    -0.206 F 
ATOM     74  C   UNL A   1      51.204  27.405  26.781  1.00  0.00     0.022 A 
BRANCH  71  75
ATOM     75  S   UNL A   1      50.818  27.764  24.042  1.00  0.00     0.124 S 
ATOM     76  O   UNL A   1      49.636  27.170  23.421  1.00  0.00    -0.237 OA
ATOM     77  O   UNL A   1      51.068  29.167  23.730  1.00  0.00    -0.237 OA
ATOM     78  O   UNL A   1      52.002  26.908  24.057  1.00  0.00    -0.744 OA
ENDBRANCH  71  75
ENDBRANCH  54  68
BRANCH  55  79
ATOM     79  C   UNL A   1      38.931  29.466  29.878  1.00  0.00     0.023 A 
ATOM     80  C   UNL A   1      38.019  30.158  29.064  1.00  0.00     0.031 A 
ATOM     81  C   UNL A   1      38.489  29.041  31.145  1.00  0.00     0.131 A 
ATOM     82  C   UNL A   1      36.730  30.448  29.543  1.00  0.00     0.055 A 
ATOM     83  C   UNL A   1      37.191  29.283  31.595  1.00  0.00     0.041 A 
ATOM     84  F   UNL A   1      39.322  28.384  31.968  1.00  0.00    -0.206 F 
ATOM     85  C   UNL A   1      36.306  30.002  30.797  1.00  0.00     0.022 A 
BRANCH  82  86
ATOM     86  S   UNL A   1      35.642  31.498  28.540  1.00  0.00     0.124 S 
ATOM     87  O   UNL A   1      36.589  32.451  27.972  1.00  0.00    -0.237 OA
ATOM     88  O   UNL A   1      35.064  30.535  27.608  1.00  0.00    -0.237 OA
ATOM     89  O   UNL A   1      34.707  32.053  29.516  1.00  0.00    -0.744 OA
ENDBRANCH  82  86
ENDBRANCH  55  79
BRANCH  67  90
ATOM     90  C   UNL A   1      44.550  33.600  29.930  1.00  0.00     0.023 A 
ATOM     91  C   UNL A   1      44.943  34.003  31.219  1.00  0.00     0.031 A 
ATOM     92  C   UNL A   1      44.326  34.602  28.967  1.00  0.00     0.131 A 
ATOM     93  C   UNL A   1      45.047  35.368  31.526  1.00  0.00     0.055 A 
ATOM     94  C   UNL A   1      44.488  35.956  29.261  1.00  0.00     0.041 A 
ATOM     95  F   UNL A   1      43.948  34.279  27.720  1.00  0.00    -0.206 F 
ATOM     96  C   UNL A   1      44.837  36.348  30.550  1.00  0.00     0.022 A 
BRANCH  93  97
ATOM     97  S   UNL A   1      45.373  35.858  33.242  1.00  0.00     0.124 S 
ATOM     98  O   UNL A   1      45.635  34.573  33.881  1.00  0.00    -0.237 OA
ATOM     99  O   UNL A   1      46.522  36.747  33.100  1.00  0.00    -0.237 OA
ATOM    100  O   UNL A   1      44.133  36.513  33.655  1.00  0.00    -0.744 OA
ENDBRANCH  93  97
ENDBRANCH  67  90
ENDBRANCH  41  42
ENDBRANCH  34  36
ENDBRANCH  33  34
ENDBRANCH  32  33
ENDBRANCH  31  32
ENDBRANCH  30  31
ENDBRANCH   1  30
TORSDOF 22
ENDMDL
