MODEL 1
REMARK VINA RESULT:      -9.7      0.000      0.000
REMARK SMILES N#C/C(=C/c1ccc(-c2cc(C(=O)OCCOCCOCCOC(=O)c3ccc(-c4c5nc(c(-c6cc(S(=O)(=O)[O-])ccc6F)c6ccc([nH]6)c(-c6cc(S(=O)(=O)[O-])ccc6F)c6nc(c(-c7cc(S(=O)(=O)[O-])ccc7F)c7ccc4[nH]7)C=C6)C=C5)cc3)ccc2Cl)o1)C(=O)NCCc1c[nH]c2ccccc12
REMARK SMILES IDX 17 1 16 2 15 3 14 4 12 5 13 6 11 7 9 8 10 9 91 10 90 11
REMARK SMILES IDX 92 12 89 13 8 14 5 15 6 16 93 17 7 18 4 19 3 20 2 21 1 22
REMARK SMILES IDX 94 23 95 24 96 25 97 27 98 28 99 29 100 30 107 31 101 32
REMARK SMILES IDX 102 33 106 34 103 36 105 37 104 38 18 39 19 40 20 41 21 42
REMARK SMILES IDX 22 43 23 44 24 45 25 46 26 47 27 48 88 49 28 50 87 51 29 52
REMARK SMILES IDX 30 53 31 54 81 55 32 56 86 57 80 58 82 59 33 60 85 61 79 62
REMARK SMILES IDX 78 63 34 65 66 66 46 67 65 68 47 69 50 70 64 71 83 72 48 73
REMARK SMILES IDX 49 74 63 76 84 77 51 78 35 79 36 80 44 81 37 82 43 83 45 84
REMARK SMILES IDX 42 85 38 86 39 87 40 88 41 89 67 90 68 91 76 92 69 93 75 94
REMARK SMILES IDX 77 95 74 96 70 97 71 98 72 99 73 100 52 101 53 102 61 103
REMARK SMILES IDX 54 104 60 105 62 106 59 107 55 108 56 109 57 110 58 111
REMARK H PARENT 96 26 101 35 82 64 50 75
REMARK Flexibility Score: inf
ROOT
ATOM      1  O   UNL A   1      35.679  31.524  29.209  1.00  0.00    -0.376 OA
ENDROOT
BRANCH   1   2
ATOM      2  C   UNL A   1      36.174  30.602  28.251  1.00  0.00     0.202 C 
BRANCH   2   3
ATOM      3  C   UNL A   1      35.340  29.353  27.931  1.00  0.00     0.261 C 
BRANCH   3   4
ATOM      4  O   UNL A   1      34.518  29.471  26.756  1.00  0.00    -0.460 OA
BRANCH   4   5
ATOM      5  C   UNL A   1      33.251  29.932  26.940  1.00  0.00     0.338 C 
ATOM      6  O   UNL A   1      32.920  30.928  27.558  1.00  0.00    -0.246 OA
BRANCH   5   7
ATOM      7  C   UNL A   1      32.293  29.105  26.154  1.00  0.00     0.060 A 
ATOM      8  C   UNL A   1      31.130  26.964  25.819  1.00  0.00     0.037 A 
ATOM      9  C   UNL A   1      32.023  27.776  26.551  1.00  0.00     0.029 A 
ATOM     10  C   UNL A   1      30.499  27.538  24.694  1.00  0.00     0.052 A 
ATOM     11  C   UNL A   1      30.763  28.861  24.307  1.00  0.00     0.022 A 
ATOM     12  Cl  UNL A   1      29.366  26.670  23.711  1.00  0.00    -0.084 Cl
ATOM     13  C   UNL A   1      31.663  29.642  25.028  1.00  0.00     0.017 A 
BRANCH   8  14
ATOM     14  C   UNL A   1      30.992  25.532  26.131  1.00  0.00     0.136 A 
ATOM     15  C   UNL A   1      31.582  23.361  26.083  1.00  0.00     0.129 A 
ATOM     16  C   UNL A   1      30.366  23.473  26.751  1.00  0.00     0.051 A 
ATOM     17  O   UNL A   1      31.972  24.657  25.727  1.00  0.00    -0.457 OA
ATOM     18  C   UNL A   1      29.994  24.833  26.773  1.00  0.00     0.051 A 
BRANCH  15  19
ATOM     19  C   UNL A   1      32.320  22.161  25.815  1.00  0.00     0.072 C 
ATOM     20  C   UNL A   1      33.611  21.955  26.173  1.00  0.00     0.120 C 
BRANCH  20  21
ATOM     21  C   UNL A   1      34.367  20.801  25.536  1.00  0.00     0.105 C 
ATOM     22  N   UNL A   1      34.994  19.843  25.007  1.00  0.00    -0.192 NA
ENDBRANCH  20  21
BRANCH  20  23
ATOM     23  C   UNL A   1      34.384  22.829  27.091  1.00  0.00     0.262 C 
ATOM     24  O   UNL A   1      34.546  22.472  28.259  1.00  0.00    -0.268 OA
ATOM     25  N   UNL A   1      34.908  24.028  26.698  1.00  0.00    -0.351 N 
ATOM     26  H   UNL A   1      35.119  24.623  27.453  1.00  0.00     0.163 HD
BRANCH  25  27
ATOM     27  C   UNL A   1      35.226  24.628  25.388  1.00  0.00     0.121 C 
BRANCH  27  28
ATOM     28  C   UNL A   1      35.287  23.655  24.172  1.00  0.00     0.059 C 
BRANCH  28  29
ATOM     29  C   UNL A   1      34.316  24.104  23.123  1.00  0.00    -0.021 A 
ATOM     30  C   UNL A   1      34.000  25.409  22.796  1.00  0.00     0.087 A 
ATOM     31  C   UNL A   1      33.263  23.296  22.615  1.00  0.00     0.003 A 
ATOM     32  N   UNL A   1      32.627  25.420  22.689  1.00  0.00    -0.361 N 
ATOM     33  C   UNL A   1      32.149  24.131  22.671  1.00  0.00     0.046 A 
ATOM     34  C   UNL A   1      33.086  21.920  22.413  1.00  0.00     0.010 A 
ATOM     35  H   UNL A   1      32.071  26.230  22.634  1.00  0.00     0.166 HD
ATOM     36  C   UNL A   1      30.853  23.626  22.788  1.00  0.00     0.026 A 
ATOM     37  C   UNL A   1      31.785  21.427  22.344  1.00  0.00     0.001 A 
ATOM     38  C   UNL A   1      30.698  22.250  22.624  1.00  0.00     0.002 A 
ENDBRANCH  28  29
ENDBRANCH  27  28
ENDBRANCH  25  27
ENDBRANCH  20  23
ENDBRANCH  15  19
ENDBRANCH   8  14
ENDBRANCH   5   7
ENDBRANCH   4   5
ENDBRANCH   3   4
ENDBRANCH   2   3
ENDBRANCH   1   2
BRANCH   1  39
ATOM     39  C   UNL A   1      35.584  32.906  28.878  1.00  0.00     0.188 C 
BRANCH  39  40
ATOM     40  C   UNL A   1      34.540  33.791  29.592  1.00  0.00     0.188 C 
BRANCH  40  41
ATOM     41  O   UNL A   1      34.260  33.400  30.915  1.00  0.00    -0.376 OA
BRANCH  41  42
ATOM     42  C   UNL A   1      33.965  34.374  31.896  1.00  0.00     0.202 C 
BRANCH  42  43
ATOM     43  C   UNL A   1      34.849  34.688  33.120  1.00  0.00     0.261 C 
BRANCH  43  44
ATOM     44  O   UNL A   1      36.245  34.386  33.053  1.00  0.00    -0.460 OA
BRANCH  44  45
ATOM     45  C   UNL A   1      36.688  33.359  33.816  1.00  0.00     0.338 C 
ATOM     46  O   UNL A   1      36.287  33.050  34.927  1.00  0.00    -0.246 OA
BRANCH  45  47
ATOM     47  C   UNL A   1      37.613  32.543  32.998  1.00  0.00     0.060 A 
ATOM     48  C   UNL A   1      38.292  31.477  33.602  1.00  0.00     0.016 A 
ATOM     49  C   UNL A   1      37.807  32.823  31.643  1.00  0.00     0.016 A 
ATOM     50  C   UNL A   1      39.188  30.702  32.860  1.00  0.00     0.010 A 
ATOM     51  C   UNL A   1      38.721  32.060  30.906  1.00  0.00     0.010 A 
ATOM     52  C   UNL A   1      39.439  31.013  31.516  1.00  0.00    -0.014 A 
BRANCH  52  53
ATOM     53  C   UNL A   1      40.579  30.373  30.805  1.00  0.00     0.031 A 
ATOM     54  C   UNL A   1      41.843  31.172  30.627  1.00  0.00     0.074 A 
ATOM     55  C   UNL A   1      40.498  29.117  30.326  1.00  0.00     0.049 A 
ATOM     56  N   UNL A   1      42.936  30.864  29.982  1.00  0.00    -0.248 NA
ATOM     57  C   UNL A   1      41.872  32.501  31.260  1.00  0.00     0.031 C 
ATOM     58  C   UNL A   1      39.333  28.244  30.453  1.00  0.00     0.029 A 
ATOM     59  N   UNL A   1      41.399  28.366  29.608  1.00  0.00    -0.354 N 
ATOM     60  C   UNL A   1      43.779  31.962  30.114  1.00  0.00     0.074 A 
ATOM     61  C   UNL A   1      43.060  32.953  30.886  1.00  0.00     0.031 C 
ATOM     62  C   UNL A   1      39.577  27.095  29.799  1.00  0.00     0.029 A 
ATOM     63  C   UNL A   1      40.893  27.160  29.169  1.00  0.00     0.049 A 
ATOM     64  H   UNL A   1      42.320  28.661  29.423  1.00  0.00     0.167 HD
ATOM     65  C   UNL A   1      45.036  32.129  29.636  1.00  0.00     0.034 A 
ATOM     66  C   UNL A   1      41.412  26.246  28.319  1.00  0.00     0.034 A 
ATOM     67  C   UNL A   1      45.736  31.140  28.857  1.00  0.00     0.049 A 
ATOM     68  C   UNL A   1      42.784  26.509  27.718  1.00  0.00     0.074 A 
ATOM     69  C   UNL A   1      47.027  31.192  28.360  1.00  0.00     0.029 A 
ATOM     70  N   UNL A   1      45.202  29.926  28.444  1.00  0.00    -0.354 N 
ATOM     71  N   UNL A   1      43.584  27.537  27.898  1.00  0.00    -0.248 NA
ATOM     72  C   UNL A   1      43.322  25.495  26.800  1.00  0.00     0.031 C 
ATOM     73  C   UNL A   1      47.239  30.059  27.569  1.00  0.00     0.029 A 
ATOM     74  C   UNL A   1      46.115  29.254  27.649  1.00  0.00     0.049 A 
ATOM     75  H   UNL A   1      44.307  29.593  28.683  1.00  0.00     0.167 HD
ATOM     76  C   UNL A   1      44.748  27.241  27.185  1.00  0.00     0.074 A 
ATOM     77  C   UNL A   1      44.541  25.951  26.567  1.00  0.00     0.031 C 
ATOM     78  C   UNL A   1      45.890  27.961  27.050  1.00  0.00     0.034 A 
BRANCH  65  79
ATOM     79  C   UNL A   1      45.713  33.454  29.887  1.00  0.00     0.023 A 
ATOM     80  C   UNL A   1      45.613  34.527  28.985  1.00  0.00     0.031 A 
ATOM     81  C   UNL A   1      46.467  33.646  31.060  1.00  0.00     0.131 A 
ATOM     82  C   UNL A   1      46.298  35.725  29.245  1.00  0.00     0.055 A 
ATOM     83  C   UNL A   1      47.083  34.864  31.348  1.00  0.00     0.041 A 
ATOM     84  F   UNL A   1      46.619  32.648  31.945  1.00  0.00    -0.206 F 
ATOM     85  C   UNL A   1      47.009  35.909  30.432  1.00  0.00     0.022 A 
BRANCH  82  86
ATOM     86  S   UNL A   1      46.345  36.996  27.954  1.00  0.00     0.124 S 
ATOM     87  O   UNL A   1      45.354  37.953  28.443  1.00  0.00    -0.237 OA
ATOM     88  O   UNL A   1      47.734  37.440  27.997  1.00  0.00    -0.237 OA
ATOM     89  O   UNL A   1      45.958  36.274  26.744  1.00  0.00    -0.744 OA
ENDBRANCH  82  86
ENDBRANCH  65  79
BRANCH  66  90
ATOM     90  C   UNL A   1      40.631  25.038  27.887  1.00  0.00     0.023 A 
ATOM     91  C   UNL A   1      41.180  23.745  27.965  1.00  0.00     0.031 A 
ATOM     92  C   UNL A   1      39.391  25.178  27.235  1.00  0.00     0.131 A 
ATOM     93  C   UNL A   1      40.574  22.690  27.264  1.00  0.00     0.055 A 
ATOM     94  C   UNL A   1      38.722  24.095  26.664  1.00  0.00     0.041 A 
ATOM     95  F   UNL A   1      38.814  26.385  27.112  1.00  0.00    -0.206 F 
ATOM     96  C   UNL A   1      39.331  22.848  26.645  1.00  0.00     0.022 A 
BRANCH  93  97
ATOM     97  S   UNL A   1      41.481  21.131  27.022  1.00  0.00     0.124 S 
ATOM     98  O   UNL A   1      41.936  21.280  25.646  1.00  0.00    -0.237 OA
ATOM     99  O   UNL A   1      42.514  21.184  28.049  1.00  0.00    -0.237 OA
ATOM    100  O   UNL A   1      40.453  20.113  27.233  1.00  0.00    -0.744 OA
ENDBRANCH  93  97
ENDBRANCH  66  90
BRANCH  78 101
ATOM    101  C   UNL A   1      47.019  27.333  26.262  1.00  0.00     0.023 A 
ATOM    102  C   UNL A   1      48.079  26.650  26.888  1.00  0.00     0.031 A 
ATOM    103  C   UNL A   1      47.037  27.431  24.859  1.00  0.00     0.131 A 
ATOM    104  C   UNL A   1      49.141  26.149  26.119  1.00  0.00     0.055 A 
ATOM    105  C   UNL A   1      48.064  26.875  24.095  1.00  0.00     0.041 A 
ATOM    106  F   UNL A   1      46.050  28.063  24.203  1.00  0.00    -0.206 F 
ATOM    107  C   UNL A   1      49.132  26.244  24.725  1.00  0.00     0.022 A 
BRANCH 104 108
ATOM    108  S   UNL A   1      50.583  25.448  26.967  1.00  0.00     0.124 S 
ATOM    109  O   UNL A   1      51.454  25.095  25.853  1.00  0.00    -0.237 OA
ATOM    110  O   UNL A   1      51.031  26.563  27.797  1.00  0.00    -0.237 OA
ATOM    111  O   UNL A   1      50.029  24.313  27.707  1.00  0.00    -0.744 OA
ENDBRANCH 104 108
ENDBRANCH  78 101
ENDBRANCH  52  53
ENDBRANCH  45  47
ENDBRANCH  44  45
ENDBRANCH  43  44
ENDBRANCH  42  43
ENDBRANCH  41  42
ENDBRANCH  40  41
ENDBRANCH  39  40
ENDBRANCH   1  39
TORSDOF 27
ENDMDL
MODEL 2
REMARK VINA RESULT:      -8.7      3.921     10.751
REMARK SMILES N#C/C(=C/c1ccc(-c2cc(C(=O)OCCOCCOCCOC(=O)c3ccc(-c4c5nc(c(-c6cc(S(=O)(=O)[O-])ccc6F)c6ccc([nH]6)c(-c6cc(S(=O)(=O)[O-])ccc6F)c6nc(c(-c7cc(S(=O)(=O)[O-])ccc7F)c7ccc4[nH]7)C=C6)C=C5)cc3)ccc2Cl)o1)C(=O)NCCc1c[nH]c2ccccc12
REMARK SMILES IDX 17 1 16 2 15 3 14 4 12 5 13 6 11 7 9 8 10 9 91 10 90 11
REMARK SMILES IDX 92 12 89 13 8 14 5 15 6 16 93 17 7 18 4 19 3 20 2 21 1 22
REMARK SMILES IDX 94 23 95 24 96 25 97 27 98 28 99 29 100 30 107 31 101 32
REMARK SMILES IDX 102 33 106 34 103 36 105 37 104 38 18 39 19 40 20 41 21 42
REMARK SMILES IDX 22 43 23 44 24 45 25 46 26 47 27 48 88 49 28 50 87 51 29 52
REMARK SMILES IDX 30 53 31 54 81 55 32 56 86 57 80 58 82 59 33 60 85 61 79 62
REMARK SMILES IDX 78 63 34 65 66 66 46 67 65 68 47 69 50 70 64 71 83 72 48 73
REMARK SMILES IDX 49 74 63 76 84 77 51 78 35 79 36 80 44 81 37 82 43 83 45 84
REMARK SMILES IDX 42 85 38 86 39 87 40 88 41 89 67 90 68 91 76 92 69 93 75 94
REMARK SMILES IDX 77 95 74 96 70 97 71 98 72 99 73 100 52 101 53 102 61 103
REMARK SMILES IDX 54 104 60 105 62 106 59 107 55 108 56 109 57 110 58 111
REMARK H PARENT 96 26 101 35 82 64 50 75
REMARK Flexibility Score: inf
ROOT
ATOM      1  O   UNL A   1      38.675  24.322  26.573  1.00  0.00    -0.376 OA
ENDROOT
BRANCH   1   2
ATOM      2  C   UNL A   1      38.069  23.176  25.995  1.00  0.00     0.202 C 
BRANCH   2   3
ATOM      3  C   UNL A   1      36.939  23.375  24.976  1.00  0.00     0.261 C 
BRANCH   3   4
ATOM      4  O   UNL A   1      36.446  22.157  24.388  1.00  0.00    -0.460 OA
BRANCH   4   5
ATOM      5  C   UNL A   1      35.136  21.860  24.604  1.00  0.00     0.338 C 
ATOM      6  O   UNL A   1      34.697  20.944  25.277  1.00  0.00    -0.246 OA
BRANCH   5   7
ATOM      7  C   UNL A   1      34.272  22.910  23.995  1.00  0.00     0.060 A 
ATOM      8  C   UNL A   1      32.963  24.978  24.246  1.00  0.00     0.037 A 
ATOM      9  C   UNL A   1      33.795  23.975  24.792  1.00  0.00     0.029 A 
ATOM     10  C   UNL A   1      32.650  24.888  22.872  1.00  0.00     0.052 A 
ATOM     11  C   UNL A   1      33.131  23.833  22.082  1.00  0.00     0.022 A 
ATOM     12  Cl  UNL A   1      31.657  26.054  22.061  1.00  0.00    -0.084 Cl
ATOM     13  C   UNL A   1      33.933  22.841  22.641  1.00  0.00     0.017 A 
BRANCH   8  14
ATOM     14  C   UNL A   1      32.327  25.978  25.117  1.00  0.00     0.136 A 
ATOM     15  C   UNL A   1      31.722  28.051  25.751  1.00  0.00     0.129 A 
ATOM     16  C   UNL A   1      31.325  27.154  26.739  1.00  0.00     0.051 A 
ATOM     17  O   UNL A   1      32.321  27.299  24.735  1.00  0.00    -0.457 OA
ATOM     18  C   UNL A   1      31.712  25.858  26.344  1.00  0.00     0.051 A 
BRANCH  15  19
ATOM     19  C   UNL A   1      31.546  29.475  25.747  1.00  0.00     0.072 C 
ATOM     20  C   UNL A   1      32.339  30.350  26.411  1.00  0.00     0.120 C 
BRANCH  20  21
ATOM     21  C   UNL A   1      31.847  31.775  26.604  1.00  0.00     0.105 C 
ATOM     22  N   UNL A   1      31.438  32.957  26.763  1.00  0.00    -0.192 NA
ENDBRANCH  20  21
BRANCH  20  23
ATOM     23  C   UNL A   1      33.634  30.005  27.049  1.00  0.00     0.262 C 
ATOM     24  O   UNL A   1      34.258  29.024  26.640  1.00  0.00    -0.268 OA
ATOM     25  N   UNL A   1      34.156  30.719  28.091  1.00  0.00    -0.351 N 
ATOM     26  H   UNL A   1      34.834  30.219  28.600  1.00  0.00     0.163 HD
BRANCH  25  27
ATOM     27  C   UNL A   1      33.925  32.076  28.620  1.00  0.00     0.121 C 
BRANCH  27  28
ATOM     28  C   UNL A   1      35.135  33.058  28.575  1.00  0.00     0.059 C 
BRANCH  28  29
ATOM     29  C   UNL A   1      35.762  33.141  29.933  1.00  0.00    -0.021 A 
ATOM     30  C   UNL A   1      35.207  33.705  31.066  1.00  0.00     0.087 A 
ATOM     31  C   UNL A   1      37.161  33.056  30.169  1.00  0.00     0.003 A 
ATOM     32  N   UNL A   1      36.224  34.451  31.618  1.00  0.00    -0.361 N 
ATOM     33  C   UNL A   1      37.418  34.134  31.015  1.00  0.00     0.046 A 
ATOM     34  C   UNL A   1      38.229  32.399  29.544  1.00  0.00     0.010 A 
ATOM     35  H   UNL A   1      36.112  35.113  32.339  1.00  0.00     0.166 HD
ATOM     36  C   UNL A   1      38.670  34.748  31.069  1.00  0.00     0.026 A 
ATOM     37  C   UNL A   1      39.515  32.898  29.740  1.00  0.00     0.001 A 
ATOM     38  C   UNL A   1      39.715  34.103  30.408  1.00  0.00     0.002 A 
ENDBRANCH  28  29
ENDBRANCH  27  28
ENDBRANCH  25  27
ENDBRANCH  20  23
ENDBRANCH  15  19
ENDBRANCH   8  14
ENDBRANCH   5   7
ENDBRANCH   4   5
ENDBRANCH   3   4
ENDBRANCH   2   3
ENDBRANCH   1   2
BRANCH   1  39
ATOM     39  C   UNL A   1      40.092  24.459  26.552  1.00  0.00     0.188 C 
BRANCH  39  40
ATOM     40  C   UNL A   1      40.721  25.842  26.274  1.00  0.00     0.188 C 
BRANCH  40  41
ATOM     41  O   UNL A   1      41.520  25.890  25.115  1.00  0.00    -0.376 OA
BRANCH  41  42
ATOM     42  C   UNL A   1      42.896  26.194  25.214  1.00  0.00     0.202 C 
BRANCH  42  43
ATOM     43  C   UNL A   1      43.962  25.265  25.830  1.00  0.00     0.261 C 
BRANCH  43  44
ATOM     44  O   UNL A   1      44.885  25.811  26.775  1.00  0.00    -0.460 OA
BRANCH  44  45
ATOM     45  C   UNL A   1      45.633  26.862  26.365  1.00  0.00     0.338 C 
ATOM     46  O   UNL A   1      46.360  26.901  25.385  1.00  0.00    -0.246 OA
BRANCH  45  47
ATOM     47  C   UNL A   1      45.276  28.034  27.195  1.00  0.00     0.060 A 
ATOM     48  C   UNL A   1      44.248  28.883  26.763  1.00  0.00     0.016 A 
ATOM     49  C   UNL A   1      45.945  28.293  28.394  1.00  0.00     0.016 A 
ATOM     50  C   UNL A   1      43.903  30.009  27.516  1.00  0.00     0.010 A 
ATOM     51  C   UNL A   1      45.612  29.433  29.136  1.00  0.00     0.010 A 
ATOM     52  C   UNL A   1      44.609  30.314  28.687  1.00  0.00    -0.014 A 
BRANCH  52  53
ATOM     53  C   UNL A   1      44.433  31.640  29.339  1.00  0.00     0.031 A 
ATOM     54  C   UNL A   1      45.300  32.781  28.874  1.00  0.00     0.074 A 
ATOM     55  C   UNL A   1      43.529  31.832  30.319  1.00  0.00     0.049 A 
ATOM     56  N   UNL A   1      45.385  34.000  29.334  1.00  0.00    -0.248 NA
ATOM     57  C   UNL A   1      46.194  32.502  27.738  1.00  0.00     0.031 C 
ATOM     58  C   UNL A   1      42.626  30.807  30.839  1.00  0.00     0.029 A 
ATOM     59  N   UNL A   1      43.242  32.944  31.076  1.00  0.00    -0.354 N 
ATOM     60  C   UNL A   1      46.351  34.634  28.559  1.00  0.00     0.074 A 
ATOM     61  C   UNL A   1      46.838  33.654  27.612  1.00  0.00     0.031 C 
ATOM     62  C   UNL A   1      41.917  31.329  31.856  1.00  0.00     0.029 A 
ATOM     63  C   UNL A   1      42.340  32.707  32.092  1.00  0.00     0.049 A 
ATOM     64  H   UNL A   1      43.644  33.827  30.910  1.00  0.00     0.167 HD
ATOM     65  C   UNL A   1      46.792  35.912  28.632  1.00  0.00     0.034 A 
ATOM     66  C   UNL A   1      41.945  33.493  33.119  1.00  0.00     0.034 A 
ATOM     67  C   UNL A   1      46.309  36.875  29.590  1.00  0.00     0.049 A 
ATOM     68  C   UNL A   1      42.534  34.890  33.233  1.00  0.00     0.074 A 
ATOM     69  C   UNL A   1      46.659  38.208  29.721  1.00  0.00     0.029 A 
ATOM     70  N   UNL A   1      45.386  36.608  30.592  1.00  0.00    -0.354 N 
ATOM     71  N   UNL A   1      43.414  35.484  32.456  1.00  0.00    -0.248 NA
ATOM     72  C   UNL A   1      42.082  35.721  34.358  1.00  0.00     0.031 C 
ATOM     73  C   UNL A   1      46.024  38.718  30.857  1.00  0.00     0.029 A 
ATOM     74  C   UNL A   1      45.205  37.732  31.381  1.00  0.00     0.049 A 
ATOM     75  H   UNL A   1      44.928  35.746  30.722  1.00  0.00     0.167 HD
ATOM     76  C   UNL A   1      43.544  36.782  32.955  1.00  0.00     0.074 A 
ATOM     77  C   UNL A   1      42.667  36.879  34.099  1.00  0.00     0.031 C 
ATOM     78  C   UNL A   1      44.315  37.809  32.513  1.00  0.00     0.034 A 
BRANCH  65  79
ATOM     79  C   UNL A   1      47.896  36.329  27.691  1.00  0.00     0.023 A 
ATOM     80  C   UNL A   1      49.254  36.168  28.015  1.00  0.00     0.031 A 
ATOM     81  C   UNL A   1      47.578  36.893  26.442  1.00  0.00     0.131 A 
ATOM     82  C   UNL A   1      50.242  36.612  27.123  1.00  0.00     0.055 A 
ATOM     83  C   UNL A   1      48.565  37.263  25.528  1.00  0.00     0.041 A 
ATOM     84  F   UNL A   1      46.298  37.096  26.090  1.00  0.00    -0.206 F 
ATOM     85  C   UNL A   1      49.907  37.134  25.872  1.00  0.00     0.022 A 
BRANCH  82  86
ATOM     86  S   UNL A   1      51.971  36.610  27.670  1.00  0.00     0.124 S 
ATOM     87  O   UNL A   1      52.314  35.193  27.566  1.00  0.00    -0.237 OA
ATOM     88  O   UNL A   1      52.611  37.494  26.701  1.00  0.00    -0.237 OA
ATOM     89  O   UNL A   1      51.901  37.127  29.035  1.00  0.00    -0.744 OA
ENDBRANCH  82  86
ENDBRANCH  65  79
BRANCH  66  90
ATOM     90  C   UNL A   1      41.021  32.986  34.189  1.00  0.00     0.023 A 
ATOM     91  C   UNL A   1      39.624  33.060  34.044  1.00  0.00     0.031 A 
ATOM     92  C   UNL A   1      41.523  32.579  35.440  1.00  0.00     0.131 A 
ATOM     93  C   UNL A   1      38.799  32.891  35.168  1.00  0.00     0.055 A 
ATOM     94  C   UNL A   1      40.687  32.273  36.515  1.00  0.00     0.041 A 
ATOM     95  F   UNL A   1      42.847  32.499  35.653  1.00  0.00    -0.206 F 
ATOM     96  C   UNL A   1      39.318  32.463  36.392  1.00  0.00     0.022 A 
BRANCH  93  97
ATOM     97  S   UNL A   1      37.048  33.381  35.082  1.00  0.00     0.124 S 
ATOM     98  O   UNL A   1      36.662  33.294  36.484  1.00  0.00    -0.237 OA
ATOM     99  O   UNL A   1      37.105  34.722  34.514  1.00  0.00    -0.237 OA
ATOM    100  O   UNL A   1      36.462  32.365  34.209  1.00  0.00    -0.744 OA
ENDBRANCH  93  97
ENDBRANCH  66  90
BRANCH  78 101
ATOM    101  C   UNL A   1      44.183  39.135  33.228  1.00  0.00     0.023 A 
ATOM    102  C   UNL A   1      43.534  40.239  32.644  1.00  0.00     0.031 A 
ATOM    103  C   UNL A   1      44.727  39.297  34.515  1.00  0.00     0.131 A 
ATOM    104  C   UNL A   1      43.502  41.470  33.318  1.00  0.00     0.055 A 
ATOM    105  C   UNL A   1      44.636  40.506  35.207  1.00  0.00     0.041 A 
ATOM    106  F   UNL A   1      45.350  38.279  35.129  1.00  0.00    -0.206 F 
ATOM    107  C   UNL A   1      44.035  41.606  34.602  1.00  0.00     0.022 A 
BRANCH 104 108
ATOM    108  S   UNL A   1      42.833  42.921  32.459  1.00  0.00     0.124 S 
ATOM    109  O   UNL A   1      42.032  43.553  33.502  1.00  0.00    -0.237 OA
ATOM    110  O   UNL A   1      44.042  43.637  32.063  1.00  0.00    -0.237 OA
ATOM    111  O   UNL A   1      42.068  42.345  31.353  1.00  0.00    -0.744 OA
ENDBRANCH 104 108
ENDBRANCH  78 101
ENDBRANCH  52  53
ENDBRANCH  45  47
ENDBRANCH  44  45
ENDBRANCH  43  44
ENDBRANCH  42  43
ENDBRANCH  41  42
ENDBRANCH  40  41
ENDBRANCH  39  40
ENDBRANCH   1  39
TORSDOF 27
ENDMDL
MODEL 3
REMARK VINA RESULT:      -8.6      4.799     10.330
REMARK SMILES N#C/C(=C/c1ccc(-c2cc(C(=O)OCCOCCOCCOC(=O)c3ccc(-c4c5nc(c(-c6cc(S(=O)(=O)[O-])ccc6F)c6ccc([nH]6)c(-c6cc(S(=O)(=O)[O-])ccc6F)c6nc(c(-c7cc(S(=O)(=O)[O-])ccc7F)c7ccc4[nH]7)C=C6)C=C5)cc3)ccc2Cl)o1)C(=O)NCCc1c[nH]c2ccccc12
REMARK SMILES IDX 17 1 16 2 15 3 14 4 12 5 13 6 11 7 9 8 10 9 91 10 90 11
REMARK SMILES IDX 92 12 89 13 8 14 5 15 6 16 93 17 7 18 4 19 3 20 2 21 1 22
REMARK SMILES IDX 94 23 95 24 96 25 97 27 98 28 99 29 100 30 107 31 101 32
REMARK SMILES IDX 102 33 106 34 103 36 105 37 104 38 18 39 19 40 20 41 21 42
REMARK SMILES IDX 22 43 23 44 24 45 25 46 26 47 27 48 88 49 28 50 87 51 29 52
REMARK SMILES IDX 30 53 31 54 81 55 32 56 86 57 80 58 82 59 33 60 85 61 79 62
REMARK SMILES IDX 78 63 34 65 66 66 46 67 65 68 47 69 50 70 64 71 83 72 48 73
REMARK SMILES IDX 49 74 63 76 84 77 51 78 35 79 36 80 44 81 37 82 43 83 45 84
REMARK SMILES IDX 42 85 38 86 39 87 40 88 41 89 67 90 68 91 76 92 69 93 75 94
REMARK SMILES IDX 77 95 74 96 70 97 71 98 72 99 73 100 52 101 53 102 61 103
REMARK SMILES IDX 54 104 60 105 62 106 59 107 55 108 56 109 57 110 58 111
REMARK H PARENT 96 26 101 35 82 64 50 75
REMARK Flexibility Score: inf
ROOT
ATOM      1  O   UNL A   1      39.398  22.344  26.690  1.00  0.00    -0.376 OA
ENDROOT
BRANCH   1   2
ATOM      2  C   UNL A   1      38.377  22.071  25.742  1.00  0.00     0.202 C 
BRANCH   2   3
ATOM      3  C   UNL A   1      37.304  23.139  25.486  1.00  0.00     0.261 C 
BRANCH   3   4
ATOM      4  O   UNL A   1      36.179  22.679  24.716  1.00  0.00    -0.460 OA
BRANCH   4   5
ATOM      5  C   UNL A   1      34.944  22.906  25.241  1.00  0.00     0.338 C 
ATOM      6  O   UNL A   1      34.399  22.269  26.125  1.00  0.00    -0.246 OA
BRANCH   5   7
ATOM      7  C   UNL A   1      34.373  24.157  24.668  1.00  0.00     0.060 A 
ATOM      8  C   UNL A   1      33.480  26.424  25.011  1.00  0.00     0.037 A 
ATOM      9  C   UNL A   1      34.036  25.231  25.523  1.00  0.00     0.029 A 
ATOM     10  C   UNL A   1      33.300  26.511  23.613  1.00  0.00     0.052 A 
ATOM     11  C   UNL A   1      33.643  25.446  22.766  1.00  0.00     0.022 A 
ATOM     12  Cl  UNL A   1      32.647  27.918  22.840  1.00  0.00    -0.084 Cl
ATOM     13  C   UNL A   1      34.170  24.269  23.290  1.00  0.00     0.017 A 
BRANCH   8  14
ATOM     14  C   UNL A   1      32.967  27.461  25.920  1.00  0.00     0.136 A 
ATOM     15  C   UNL A   1      32.940  29.479  26.914  1.00  0.00     0.129 A 
ATOM     16  C   UNL A   1      31.930  28.700  27.470  1.00  0.00     0.051 A 
ATOM     17  O   UNL A   1      33.559  28.701  25.930  1.00  0.00    -0.457 OA
ATOM     18  C   UNL A   1      31.953  27.433  26.852  1.00  0.00     0.051 A 
BRANCH  15  19
ATOM     19  C   UNL A   1      33.286  30.829  27.256  1.00  0.00     0.072 C 
ATOM     20  C   UNL A   1      34.457  31.202  27.828  1.00  0.00     0.120 C 
BRANCH  20  21
ATOM     21  C   UNL A   1      34.555  32.587  28.446  1.00  0.00     0.105 C 
ATOM     22  N   UNL A   1      34.637  33.736  28.958  1.00  0.00    -0.192 NA
ENDBRANCH  20  21
BRANCH  20  23
ATOM     23  C   UNL A   1      35.645  30.324  27.976  1.00  0.00     0.262 C 
ATOM     24  O   UNL A   1      36.239  29.948  26.964  1.00  0.00    -0.268 OA
ATOM     25  N   UNL A   1      36.095  29.894  29.192  1.00  0.00    -0.351 N 
ATOM     26  H   UNL A   1      36.675  29.100  29.130  1.00  0.00     0.163 HD
BRANCH  25  27
ATOM     27  C   UNL A   1      35.903  30.358  30.579  1.00  0.00     0.121 C 
BRANCH  27  28
ATOM     28  C   UNL A   1      37.017  29.981  31.602  1.00  0.00     0.059 C 
BRANCH  28  29
ATOM     29  C   UNL A   1      38.208  30.865  31.391  1.00  0.00    -0.021 A 
ATOM     30  C   UNL A   1      39.535  30.477  31.394  1.00  0.00     0.087 A 
ATOM     31  C   UNL A   1      38.200  32.272  31.592  1.00  0.00     0.003 A 
ATOM     32  N   UNL A   1      40.177  31.432  32.150  1.00  0.00    -0.361 N 
ATOM     33  C   UNL A   1      39.340  32.502  32.361  1.00  0.00     0.046 A 
ATOM     34  C   UNL A   1      37.235  33.280  31.469  1.00  0.00     0.010 A 
ATOM     35  H   UNL A   1      41.099  31.359  32.489  1.00  0.00     0.166 HD
ATOM     36  C   UNL A   1      39.442  33.598  33.220  1.00  0.00     0.026 A 
ATOM     37  C   UNL A   1      37.421  34.461  32.184  1.00  0.00     0.001 A 
ATOM     38  C   UNL A   1      38.451  34.573  33.114  1.00  0.00     0.002 A 
ENDBRANCH  28  29
ENDBRANCH  27  28
ENDBRANCH  25  27
ENDBRANCH  20  23
ENDBRANCH  15  19
ENDBRANCH   8  14
ENDBRANCH   5   7
ENDBRANCH   4   5
ENDBRANCH   3   4
ENDBRANCH   2   3
ENDBRANCH   1   2
BRANCH   1  39
ATOM     39  C   UNL A   1      40.700  21.800  26.503  1.00  0.00     0.188 C 
BRANCH  39  40
ATOM     40  C   UNL A   1      41.888  22.745  26.221  1.00  0.00     0.188 C 
BRANCH  40  41
ATOM     41  O   UNL A   1      42.675  22.369  25.116  1.00  0.00    -0.376 OA
BRANCH  41  42
ATOM     42  C   UNL A   1      43.643  23.258  24.598  1.00  0.00     0.202 C 
BRANCH  42  43
ATOM     43  C   UNL A   1      44.837  23.821  25.395  1.00  0.00     0.261 C 
BRANCH  43  44
ATOM     44  O   UNL A   1      44.998  25.239  25.481  1.00  0.00    -0.460 OA
BRANCH  44  45
ATOM     45  C   UNL A   1      43.870  25.986  25.481  1.00  0.00     0.338 C 
ATOM     46  O   UNL A   1      42.988  25.974  24.637  1.00  0.00    -0.246 OA
BRANCH  45  47
ATOM     47  C   UNL A   1      43.781  26.687  26.780  1.00  0.00     0.060 A 
ATOM     48  C   UNL A   1      42.557  26.702  27.462  1.00  0.00     0.016 A 
ATOM     49  C   UNL A   1      44.898  27.323  27.328  1.00  0.00     0.016 A 
ATOM     50  C   UNL A   1      42.438  27.374  28.682  1.00  0.00     0.010 A 
ATOM     51  C   UNL A   1      44.771  28.015  28.539  1.00  0.00     0.010 A 
ATOM     52  C   UNL A   1      43.534  28.069  29.209  1.00  0.00    -0.014 A 
BRANCH  52  53
ATOM     53  C   UNL A   1      43.343  29.002  30.353  1.00  0.00     0.031 A 
ATOM     54  C   UNL A   1      43.194  30.471  30.055  1.00  0.00     0.074 A 
ATOM     55  C   UNL A   1      43.304  28.562  31.626  1.00  0.00     0.049 A 
ATOM     56  N   UNL A   1      43.093  31.479  30.878  1.00  0.00    -0.248 NA
ATOM     57  C   UNL A   1      43.159  30.849  28.632  1.00  0.00     0.031 C 
ATOM     58  C   UNL A   1      43.421  27.164  32.033  1.00  0.00     0.029 A 
ATOM     59  N   UNL A   1      43.188  29.246  32.813  1.00  0.00    -0.354 N 
ATOM     60  C   UNL A   1      42.998  32.615  30.080  1.00  0.00     0.074 A 
ATOM     61  C   UNL A   1      43.075  32.169  28.705  1.00  0.00     0.031 C 
ATOM     62  C   UNL A   1      43.412  27.101  33.377  1.00  0.00     0.029 A 
ATOM     63  C   UNL A   1      43.332  28.450  33.930  1.00  0.00     0.049 A 
ATOM     64  H   UNL A   1      43.017  30.215  32.862  1.00  0.00     0.167 HD
ATOM     65  C   UNL A   1      42.862  33.909  30.458  1.00  0.00     0.034 A 
ATOM     66  C   UNL A   1      43.440  28.779  35.237  1.00  0.00     0.034 A 
ATOM     67  C   UNL A   1      42.800  34.341  31.832  1.00  0.00     0.049 A 
ATOM     68  C   UNL A   1      43.384  30.249  35.623  1.00  0.00     0.074 A 
ATOM     69  C   UNL A   1      42.621  35.622  32.323  1.00  0.00     0.029 A 
ATOM     70  N   UNL A   1      42.934  33.509  32.936  1.00  0.00    -0.354 N 
ATOM     71  N   UNL A   1      43.246  31.304  34.850  1.00  0.00    -0.248 NA
ATOM     72  C   UNL A   1      43.501  30.574  37.052  1.00  0.00     0.031 C 
ATOM     73  C   UNL A   1      42.743  35.580  33.715  1.00  0.00     0.029 A 
ATOM     74  C   UNL A   1      42.904  34.260  34.100  1.00  0.00     0.049 A 
ATOM     75  H   UNL A   1      43.035  32.530  32.896  1.00  0.00     0.167 HD
ATOM     76  C   UNL A   1      43.171  32.399  35.713  1.00  0.00     0.074 A 
ATOM     77  C   UNL A   1      43.291  31.880  37.056  1.00  0.00     0.031 C 
ATOM     78  C   UNL A   1      43.015  33.718  35.432  1.00  0.00     0.034 A 
BRANCH  65  79
ATOM     79  C   UNL A   1      42.833  34.958  29.375  1.00  0.00     0.023 A 
ATOM     80  C   UNL A   1      44.001  35.591  28.916  1.00  0.00     0.031 A 
ATOM     81  C   UNL A   1      41.609  35.325  28.785  1.00  0.00     0.131 A 
ATOM     82  C   UNL A   1      43.915  36.592  27.936  1.00  0.00     0.055 A 
ATOM     83  C   UNL A   1      41.539  36.267  27.759  1.00  0.00     0.041 A 
ATOM     84  F   UNL A   1      40.458  34.773  29.202  1.00  0.00    -0.206 F 
ATOM     85  C   UNL A   1      42.695  36.915  27.336  1.00  0.00     0.022 A 
BRANCH  82  86
ATOM     86  S   UNL A   1      45.401  37.553  27.541  1.00  0.00     0.124 S 
ATOM     87  O   UNL A   1      44.891  38.922  27.591  1.00  0.00    -0.237 OA
ATOM     88  O   UNL A   1      46.317  37.174  28.612  1.00  0.00    -0.237 OA
ATOM     89  O   UNL A   1      45.770  37.082  26.208  1.00  0.00    -0.744 OA
ENDBRANCH  82  86
ENDBRANCH  65  79
BRANCH  66  90
ATOM     90  C   UNL A   1      43.706  27.743  36.291  1.00  0.00     0.023 A 
ATOM     91  C   UNL A   1      45.015  27.324  36.592  1.00  0.00     0.031 A 
ATOM     92  C   UNL A   1      42.645  27.037  36.890  1.00  0.00     0.131 A 
ATOM     93  C   UNL A   1      45.215  26.145  37.328  1.00  0.00     0.055 A 
ATOM     94  C   UNL A   1      42.858  25.950  37.738  1.00  0.00     0.041 A 
ATOM     95  F   UNL A   1      41.370  27.373  36.637  1.00  0.00    -0.206 F 
ATOM     96  C   UNL A   1      44.148  25.476  37.932  1.00  0.00     0.022 A 
BRANCH  93  97
ATOM     97  S   UNL A   1      46.867  25.382  37.374  1.00  0.00     0.124 S 
ATOM     98  O   UNL A   1      47.249  25.619  38.759  1.00  0.00    -0.237 OA
ATOM     99  O   UNL A   1      46.603  23.995  37.009  1.00  0.00    -0.237 OA
ATOM    100  O   UNL A   1      47.615  26.149  36.380  1.00  0.00    -0.744 OA
ENDBRANCH  93  97
ENDBRANCH  66  90
BRANCH  78 101
ATOM    101  C   UNL A   1      42.895  34.669  36.602  1.00  0.00     0.023 A 
ATOM    102  C   UNL A   1      44.019  35.286  37.182  1.00  0.00     0.031 A 
ATOM    103  C   UNL A   1      41.631  34.953  37.151  1.00  0.00     0.131 A 
ATOM    104  C   UNL A   1      43.863  36.103  38.313  1.00  0.00     0.055 A 
ATOM    105  C   UNL A   1      41.476  35.817  38.235  1.00  0.00     0.041 A 
ATOM    106  F   UNL A   1      40.521  34.401  36.635  1.00  0.00    -0.206 F 
ATOM    107  C   UNL A   1      42.597  36.385  38.833  1.00  0.00     0.022 A 
BRANCH 104 108
ATOM    108  S   UNL A   1      45.344  36.727  39.155  1.00  0.00     0.124 S 
ATOM    109  O   UNL A   1      44.955  38.092  39.492  1.00  0.00    -0.237 OA
ATOM    110  O   UNL A   1      45.476  35.806  40.280  1.00  0.00    -0.237 OA
ATOM    111  O   UNL A   1      46.391  36.612  38.139  1.00  0.00    -0.744 OA
ENDBRANCH 104 108
ENDBRANCH  78 101
ENDBRANCH  52  53
ENDBRANCH  45  47
ENDBRANCH  44  45
ENDBRANCH  43  44
ENDBRANCH  42  43
ENDBRANCH  41  42
ENDBRANCH  40  41
ENDBRANCH  39  40
ENDBRANCH   1  39
TORSDOF 27
ENDMDL
