MODEL 1
REMARK VINA RESULT:      -9.8      0.000      0.000
REMARK SMILES CNS(=O)(=O)c1cc(C(=O)OCCOCCOCCOC(=O)c2ccc(-c3c4nc(c(-c5cc(S(=O)(=O)[O-])ccc5F)c5ccc([nH]5)c(-c5cc(S(=O)(=O)[O-])ccc5F)c5nc(c(-c6cc(S(=O)(=O)[O-])ccc6F)c6ccc3[nH]6)C=C5)C=C4)cc2)ccc1N(C)C
REMARK SMILES IDX 16 1 15 2 14 3 13 4 12 5 11 6 9 7 10 8 8 9 6 10 7 11 88 12
REMARK SMILES IDX 87 13 86 14 3 15 4 16 5 17 2 18 1 19 89 21 90 22 91 23 17 24
REMARK SMILES IDX 18 25 19 26 20 27 21 28 22 29 23 30 24 31 85 32 25 33 84 34
REMARK SMILES IDX 26 35 27 36 28 37 78 38 29 39 83 40 77 41 79 42 30 43 82 44
REMARK SMILES IDX 76 45 75 46 31 48 63 49 43 50 62 51 44 52 47 53 61 54 80 55
REMARK SMILES IDX 45 56 46 57 60 59 81 60 48 61 32 62 33 63 41 64 34 65 40 66
REMARK SMILES IDX 42 67 39 68 35 69 36 70 37 71 38 72 64 73 65 74 73 75 66 76
REMARK SMILES IDX 72 77 74 78 71 79 67 80 68 81 69 82 70 83 49 84 50 85 58 86
REMARK SMILES IDX 51 87 57 88 59 89 56 90 52 91 53 92 54 93 55 94
REMARK H PARENT 2 20 79 47 47 58
REMARK Flexibility Score: inf
ROOT
ATOM      1  C   UNL A   1      32.881  28.769  23.162  1.00  0.00     0.188 C 
ENDROOT
BRANCH   1   2
ATOM      2  C   UNL A   1      31.412  28.987  22.744  1.00  0.00     0.188 C 
BRANCH   2   3
ATOM      3  O   UNL A   1      30.366  28.542  23.593  1.00  0.00    -0.376 OA
BRANCH   3   4
ATOM      4  C   UNL A   1      29.656  27.352  23.288  1.00  0.00     0.202 C 
BRANCH   4   5
ATOM      5  C   UNL A   1      28.540  26.805  24.195  1.00  0.00     0.261 C 
BRANCH   5   6
ATOM      6  O   UNL A   1      28.849  25.594  24.898  1.00  0.00    -0.460 OA
BRANCH   6   7
ATOM      7  C   UNL A   1      29.999  25.606  25.619  1.00  0.00     0.338 C 
ATOM      8  O   UNL A   1      30.306  26.390  26.501  1.00  0.00    -0.246 OA
BRANCH   7   9
ATOM      9  C   UNL A   1      30.787  24.392  25.304  1.00  0.00     0.061 A 
ATOM     10  C   UNL A   1      32.502  23.314  23.884  1.00  0.00     0.106 A 
ATOM     11  C   UNL A   1      31.630  24.404  24.200  1.00  0.00     0.039 A 
ATOM     12  C   UNL A   1      32.457  22.105  24.631  1.00  0.00     0.056 A 
ATOM     13  C   UNL A   1      31.633  22.202  25.796  1.00  0.00     0.028 A 
ATOM     14  C   UNL A   1      30.816  23.294  26.134  1.00  0.00     0.018 A 
BRANCH  10  15
ATOM     15  S   UNL A   1      33.629  23.819  22.571  1.00  0.00     0.242 S 
ATOM     16  O   UNL A   1      33.669  25.234  22.334  1.00  0.00    -0.207 OA
ATOM     17  O   UNL A   1      33.370  22.928  21.451  1.00  0.00    -0.207 OA
BRANCH  15  18
ATOM     18  N   UNL A   1      35.132  23.360  23.187  1.00  0.00    -0.214 NA
ATOM     19  C   UNL A   1      35.560  23.935  24.458  1.00  0.00     0.120 C 
ATOM     20  H   UNL A   1      35.115  22.347  23.303  1.00  0.00     0.141 HD
ENDBRANCH  15  18
ENDBRANCH  10  15
BRANCH  12  21
ATOM     21  N   UNL A   1      33.054  20.869  24.383  1.00  0.00    -0.377 N 
ATOM     22  C   UNL A   1      32.576  19.916  23.370  1.00  0.00     0.143 C 
ATOM     23  C   UNL A   1      34.292  20.389  24.990  1.00  0.00     0.143 C 
ENDBRANCH  12  21
ENDBRANCH   7   9
ENDBRANCH   6   7
ENDBRANCH   5   6
ENDBRANCH   4   5
ENDBRANCH   3   4
ENDBRANCH   2   3
ENDBRANCH   1   2
BRANCH   1  24
ATOM     24  O   UNL A   1      33.076  28.024  24.341  1.00  0.00    -0.376 OA
BRANCH  24  25
ATOM     25  C   UNL A   1      32.892  28.644  25.603  1.00  0.00     0.202 C 
BRANCH  25  26
ATOM     26  C   UNL A   1      32.704  30.155  25.867  1.00  0.00     0.261 C 
BRANCH  26  27
ATOM     27  O   UNL A   1      32.735  30.637  27.211  1.00  0.00    -0.460 OA
BRANCH  27  28
ATOM     28  C   UNL A   1      33.489  31.744  27.429  1.00  0.00     0.338 C 
ATOM     29  O   UNL A   1      33.120  32.903  27.354  1.00  0.00    -0.246 OA
BRANCH  28  30
ATOM     30  C   UNL A   1      34.804  31.323  27.953  1.00  0.00     0.060 A 
ATOM     31  C   UNL A   1      34.978  29.989  28.345  1.00  0.00     0.016 A 
ATOM     32  C   UNL A   1      35.849  32.240  28.076  1.00  0.00     0.016 A 
ATOM     33  C   UNL A   1      36.200  29.572  28.874  1.00  0.00     0.010 A 
ATOM     34  C   UNL A   1      37.067  31.822  28.629  1.00  0.00     0.010 A 
ATOM     35  C   UNL A   1      37.242  30.490  29.049  1.00  0.00    -0.014 A 
BRANCH  35  36
ATOM     36  C   UNL A   1      38.446  30.099  29.829  1.00  0.00     0.031 A 
ATOM     37  C   UNL A   1      39.383  29.082  29.238  1.00  0.00     0.074 A 
ATOM     38  C   UNL A   1      38.721  30.655  31.023  1.00  0.00     0.049 A 
ATOM     39  N   UNL A   1      40.452  28.533  29.753  1.00  0.00    -0.248 NA
ATOM     40  C   UNL A   1      39.065  28.624  27.876  1.00  0.00     0.031 C 
ATOM     41  C   UNL A   1      37.935  31.706  31.665  1.00  0.00     0.029 A 
ATOM     42  N   UNL A   1      39.738  30.405  31.912  1.00  0.00    -0.354 N 
ATOM     43  C   UNL A   1      40.935  27.661  28.782  1.00  0.00     0.074 A 
ATOM     44  C   UNL A   1      40.017  27.728  27.665  1.00  0.00     0.031 C 
ATOM     45  C   UNL A   1      38.489  31.999  32.855  1.00  0.00     0.029 A 
ATOM     46  C   UNL A   1      39.645  31.130  33.077  1.00  0.00     0.049 A 
ATOM     47  H   UNL A   1      40.467  29.768  31.731  1.00  0.00     0.167 HD
ATOM     48  C   UNL A   1      42.044  26.882  28.819  1.00  0.00     0.034 A 
ATOM     49  C   UNL A   1      40.387  31.076  34.203  1.00  0.00     0.034 A 
ATOM     50  C   UNL A   1      42.939  26.815  29.949  1.00  0.00     0.049 A 
ATOM     51  C   UNL A   1      41.551  30.112  34.269  1.00  0.00     0.074 A 
ATOM     52  C   UNL A   1      44.090  26.060  30.092  1.00  0.00     0.029 A 
ATOM     53  N   UNL A   1      42.775  27.514  31.140  1.00  0.00    -0.354 N 
ATOM     54  N   UNL A   1      41.997  29.286  33.349  1.00  0.00    -0.248 NA
ATOM     55  C   UNL A   1      42.316  30.079  35.523  1.00  0.00     0.031 C 
ATOM     56  C   UNL A   1      44.571  26.235  31.393  1.00  0.00     0.029 A 
ATOM     57  C   UNL A   1      43.780  27.175  32.034  1.00  0.00     0.049 A 
ATOM     58  H   UNL A   1      42.052  28.157  31.320  1.00  0.00     0.167 HD
ATOM     59  C   UNL A   1      43.115  28.666  33.903  1.00  0.00     0.074 A 
ATOM     60  C   UNL A   1      43.282  29.222  35.229  1.00  0.00     0.031 C 
ATOM     61  C   UNL A   1      43.935  27.728  33.361  1.00  0.00     0.034 A 
BRANCH  48  62
ATOM     62  C   UNL A   1      42.305  25.992  27.627  1.00  0.00     0.023 A 
ATOM     63  C   UNL A   1      41.791  24.685  27.545  1.00  0.00     0.031 A 
ATOM     64  C   UNL A   1      43.113  26.447  26.570  1.00  0.00     0.131 A 
ATOM     65  C   UNL A   1      42.152  23.857  26.471  1.00  0.00     0.055 A 
ATOM     66  C   UNL A   1      43.397  25.648  25.461  1.00  0.00     0.041 A 
ATOM     67  F   UNL A   1      43.654  27.674  26.603  1.00  0.00    -0.206 F 
ATOM     68  C   UNL A   1      42.929  24.339  25.414  1.00  0.00     0.022 A 
BRANCH  65  69
ATOM     69  S   UNL A   1      41.722  22.096  26.549  1.00  0.00     0.124 S 
ATOM     70  O   UNL A   1      40.263  22.144  26.496  1.00  0.00    -0.237 OA
ATOM     71  O   UNL A   1      42.388  21.556  25.370  1.00  0.00    -0.237 OA
ATOM     72  O   UNL A   1      42.277  21.664  27.830  1.00  0.00    -0.744 OA
ENDBRANCH  65  69
ENDBRANCH  48  62
BRANCH  49  73
ATOM     73  C   UNL A   1      40.034  31.916  35.387  1.00  0.00     0.023 A 
ATOM     74  C   UNL A   1      39.116  31.472  36.351  1.00  0.00     0.031 A 
ATOM     75  C   UNL A   1      40.565  33.210  35.533  1.00  0.00     0.131 A 
ATOM     76  C   UNL A   1      38.718  32.332  37.388  1.00  0.00     0.055 A 
ATOM     77  C   UNL A   1      40.213  34.039  36.600  1.00  0.00     0.041 A 
ATOM     78  F   UNL A   1      41.439  33.693  34.634  1.00  0.00    -0.206 F 
ATOM     79  C   UNL A   1      39.273  33.605  37.528  1.00  0.00     0.022 A 
BRANCH  76  80
ATOM     80  S   UNL A   1      37.389  31.797  38.501  1.00  0.00     0.124 S 
ATOM     81  O   UNL A   1      37.179  30.419  38.072  1.00  0.00    -0.237 OA
ATOM     82  O   UNL A   1      38.002  31.973  39.814  1.00  0.00    -0.237 OA
ATOM     83  O   UNL A   1      36.297  32.719  38.198  1.00  0.00    -0.744 OA
ENDBRANCH  76  80
ENDBRANCH  49  73
BRANCH  61  84
ATOM     84  C   UNL A   1      45.125  27.284  34.183  1.00  0.00     0.023 A 
ATOM     85  C   UNL A   1      45.067  26.171  35.041  1.00  0.00     0.031 A 
ATOM     86  C   UNL A   1      46.338  27.993  34.108  1.00  0.00     0.131 A 
ATOM     87  C   UNL A   1      46.180  25.836  35.829  1.00  0.00     0.055 A 
ATOM     88  C   UNL A   1      47.463  27.613  34.840  1.00  0.00     0.041 A 
ATOM     89  F   UNL A   1      46.452  29.068  33.312  1.00  0.00    -0.206 F 
ATOM     90  C   UNL A   1      47.384  26.537  35.718  1.00  0.00     0.022 A 
BRANCH  87  91
ATOM     91  S   UNL A   1      46.004  24.536  37.083  1.00  0.00     0.124 S 
ATOM     92  O   UNL A   1      46.923  24.990  38.121  1.00  0.00    -0.237 OA
ATOM     93  O   UNL A   1      44.584  24.609  37.412  1.00  0.00    -0.237 OA
ATOM     94  O   UNL A   1      46.415  23.322  36.379  1.00  0.00    -0.744 OA
ENDBRANCH  87  91
ENDBRANCH  61  84
ENDBRANCH  35  36
ENDBRANCH  28  30
ENDBRANCH  27  28
ENDBRANCH  26  27
ENDBRANCH  25  26
ENDBRANCH  24  25
ENDBRANCH   1  24
TORSDOF 23
ENDMDL
MODEL 2
REMARK VINA RESULT:      -9.7      1.407      2.111
REMARK SMILES CNS(=O)(=O)c1cc(C(=O)OCCOCCOCCOC(=O)c2ccc(-c3c4nc(c(-c5cc(S(=O)(=O)[O-])ccc5F)c5ccc([nH]5)c(-c5cc(S(=O)(=O)[O-])ccc5F)c5nc(c(-c6cc(S(=O)(=O)[O-])ccc6F)c6ccc3[nH]6)C=C5)C=C4)cc2)ccc1N(C)C
REMARK SMILES IDX 16 1 15 2 14 3 13 4 12 5 11 6 9 7 10 8 8 9 6 10 7 11 88 12
REMARK SMILES IDX 87 13 86 14 3 15 4 16 5 17 2 18 1 19 89 21 90 22 91 23 17 24
REMARK SMILES IDX 18 25 19 26 20 27 21 28 22 29 23 30 24 31 85 32 25 33 84 34
REMARK SMILES IDX 26 35 27 36 28 37 78 38 29 39 83 40 77 41 79 42 30 43 82 44
REMARK SMILES IDX 76 45 75 46 31 48 63 49 43 50 62 51 44 52 47 53 61 54 80 55
REMARK SMILES IDX 45 56 46 57 60 59 81 60 48 61 32 62 33 63 41 64 34 65 40 66
REMARK SMILES IDX 42 67 39 68 35 69 36 70 37 71 38 72 64 73 65 74 73 75 66 76
REMARK SMILES IDX 72 77 74 78 71 79 67 80 68 81 69 82 70 83 49 84 50 85 58 86
REMARK SMILES IDX 51 87 57 88 59 89 56 90 52 91 53 92 54 93 55 94
REMARK H PARENT 2 20 79 47 47 58
REMARK Flexibility Score: inf
ROOT
ATOM      1  C   UNL A   1      32.643  28.681  25.701  1.00  0.00     0.188 C 
ENDROOT
BRANCH   1   2
ATOM      2  C   UNL A   1      32.357  27.258  26.225  1.00  0.00     0.188 C 
BRANCH   2   3
ATOM      3  O   UNL A   1      31.090  26.664  25.990  1.00  0.00    -0.376 OA
BRANCH   3   4
ATOM      4  C   UNL A   1      30.942  25.672  24.986  1.00  0.00     0.202 C 
BRANCH   4   5
ATOM      5  C   UNL A   1      31.525  25.841  23.572  1.00  0.00     0.261 C 
BRANCH   5   6
ATOM      6  O   UNL A   1      31.545  24.657  22.763  1.00  0.00    -0.460 OA
BRANCH   6   7
ATOM      7  C   UNL A   1      32.774  24.193  22.423  1.00  0.00     0.338 C 
ATOM      8  O   UNL A   1      33.661  24.807  21.856  1.00  0.00    -0.246 OA
BRANCH   7   9
ATOM      9  C   UNL A   1      32.968  22.847  23.011  1.00  0.00     0.061 A 
ATOM     10  C   UNL A   1      34.162  21.424  24.644  1.00  0.00     0.106 A 
ATOM     11  C   UNL A   1      33.973  22.662  23.952  1.00  0.00     0.039 A 
ATOM     12  C   UNL A   1      33.393  20.276  24.308  1.00  0.00     0.056 A 
ATOM     13  C   UNL A   1      32.328  20.568  23.398  1.00  0.00     0.028 A 
ATOM     14  C   UNL A   1      32.111  21.800  22.758  1.00  0.00     0.018 A 
BRANCH  10  15
ATOM     15  S   UNL A   1      35.357  21.664  25.972  1.00  0.00     0.242 S 
ATOM     16  O   UNL A   1      36.590  20.952  25.797  1.00  0.00    -0.207 OA
ATOM     17  O   UNL A   1      34.621  21.496  27.214  1.00  0.00    -0.207 OA
BRANCH  15  18
ATOM     18  N   UNL A   1      35.698  23.314  25.859  1.00  0.00    -0.214 NA
ATOM     19  C   UNL A   1      37.012  23.713  25.363  1.00  0.00     0.120 C 
ATOM     20  H   UNL A   1      35.002  23.724  25.238  1.00  0.00     0.141 HD
ENDBRANCH  15  18
ENDBRANCH  10  15
BRANCH  12  21
ATOM     21  N   UNL A   1      33.540  18.945  24.698  1.00  0.00    -0.377 N 
ATOM     22  C   UNL A   1      34.699  18.111  24.344  1.00  0.00     0.143 C 
ATOM     23  C   UNL A   1      32.649  18.222  25.601  1.00  0.00     0.143 C 
ENDBRANCH  12  21
ENDBRANCH   7   9
ENDBRANCH   6   7
ENDBRANCH   5   6
ENDBRANCH   4   5
ENDBRANCH   3   4
ENDBRANCH   2   3
ENDBRANCH   1   2
BRANCH   1  24
ATOM     24  O   UNL A   1      32.318  29.732  26.580  1.00  0.00    -0.376 OA
BRANCH  24  25
ATOM     25  C   UNL A   1      31.902  30.983  26.057  1.00  0.00     0.202 C 
BRANCH  25  26
ATOM     26  C   UNL A   1      31.657  32.279  26.862  1.00  0.00     0.261 C 
BRANCH  26  27
ATOM     27  O   UNL A   1      32.495  32.573  27.982  1.00  0.00    -0.460 OA
BRANCH  27  28
ATOM     28  C   UNL A   1      33.553  33.387  27.735  1.00  0.00     0.338 C 
ATOM     29  O   UNL A   1      33.511  34.523  27.299  1.00  0.00    -0.246 OA
BRANCH  28  30
ATOM     30  C   UNL A   1      34.776  32.740  28.253  1.00  0.00     0.060 A 
ATOM     31  C   UNL A   1      34.660  31.511  28.915  1.00  0.00     0.016 A 
ATOM     32  C   UNL A   1      36.022  33.349  28.104  1.00  0.00     0.016 A 
ATOM     33  C   UNL A   1      35.795  30.893  29.443  1.00  0.00     0.010 A 
ATOM     34  C   UNL A   1      37.155  32.737  28.654  1.00  0.00     0.010 A 
ATOM     35  C   UNL A   1      37.044  31.516  29.344  1.00  0.00    -0.014 A 
BRANCH  35  36
ATOM     36  C   UNL A   1      38.199  30.977  30.111  1.00  0.00     0.031 A 
ATOM     37  C   UNL A   1      39.090  29.964  29.446  1.00  0.00     0.074 A 
ATOM     38  C   UNL A   1      38.470  31.397  31.359  1.00  0.00     0.049 A 
ATOM     39  N   UNL A   1      40.109  29.302  29.931  1.00  0.00    -0.248 NA
ATOM     40  C   UNL A   1      38.786  29.660  28.039  1.00  0.00     0.031 C 
ATOM     41  C   UNL A   1      37.731  32.429  32.083  1.00  0.00     0.029 A 
ATOM     42  N   UNL A   1      39.444  31.000  32.244  1.00  0.00    -0.354 N 
ATOM     43  C   UNL A   1      40.566  28.499  28.891  1.00  0.00     0.074 A 
ATOM     44  C   UNL A   1      39.688  28.730  27.764  1.00  0.00     0.031 C 
ATOM     45  C   UNL A   1      38.266  32.571  33.308  1.00  0.00     0.029 A 
ATOM     46  C   UNL A   1      39.359  31.614  33.471  1.00  0.00     0.049 A 
ATOM     47  H   UNL A   1      40.138  30.338  32.019  1.00  0.00     0.167 HD
ATOM     48  C   UNL A   1      41.625  27.651  28.878  1.00  0.00     0.034 A 
ATOM     49  C   UNL A   1      40.063  31.405  34.605  1.00  0.00     0.034 A 
ATOM     50  C   UNL A   1      42.480  27.420  30.018  1.00  0.00     0.049 A 
ATOM     51  C   UNL A   1      41.164  30.368  34.604  1.00  0.00     0.074 A 
ATOM     52  C   UNL A   1      43.579  26.584  30.114  1.00  0.00     0.029 A 
ATOM     53  N   UNL A   1      42.323  28.011  31.267  1.00  0.00    -0.354 N 
ATOM     54  N   UNL A   1      41.587  29.608  33.619  1.00  0.00    -0.248 NA
ATOM     55  C   UNL A   1      41.888  30.167  35.867  1.00  0.00     0.031 C 
ATOM     56  C   UNL A   1      44.030  26.603  31.437  1.00  0.00     0.029 A 
ATOM     57  C   UNL A   1      43.279  27.525  32.148  1.00  0.00     0.049 A 
ATOM     58  H   UNL A   1      41.635  28.677  31.491  1.00  0.00     0.167 HD
ATOM     59  C   UNL A   1      42.649  28.868  34.136  1.00  0.00     0.074 A 
ATOM     60  C   UNL A   1      42.809  29.283  35.515  1.00  0.00     0.031 C 
ATOM     61  C   UNL A   1      43.426  27.937  33.525  1.00  0.00     0.034 A 
BRANCH  48  62
ATOM     62  C   UNL A   1      41.867  26.865  27.612  1.00  0.00     0.023 A 
ATOM     63  C   UNL A   1      41.568  25.494  27.516  1.00  0.00     0.031 A 
ATOM     64  C   UNL A   1      42.443  27.492  26.492  1.00  0.00     0.131 A 
ATOM     65  C   UNL A   1      41.913  24.781  26.357  1.00  0.00     0.055 A 
ATOM     66  C   UNL A   1      42.705  26.795  25.310  1.00  0.00     0.041 A 
ATOM     67  F   UNL A   1      42.776  28.791  26.531  1.00  0.00    -0.206 F 
ATOM     68  C   UNL A   1      42.455  25.429  25.243  1.00  0.00     0.022 A 
BRANCH  65  69
ATOM     69  S   UNL A   1      41.791  22.972  26.381  1.00  0.00     0.124 S 
ATOM     70  O   UNL A   1      40.344  22.773  26.416  1.00  0.00    -0.237 OA
ATOM     71  O   UNL A   1      42.460  22.593  25.142  1.00  0.00    -0.237 OA
ATOM     72  O   UNL A   1      42.493  22.597  27.608  1.00  0.00    -0.744 OA
ENDBRANCH  65  69
ENDBRANCH  48  62
BRANCH  49  73
ATOM     73  C   UNL A   1      39.726  32.148  35.856  1.00  0.00     0.023 A 
ATOM     74  C   UNL A   1      38.840  31.617  36.806  1.00  0.00     0.031 A 
ATOM     75  C   UNL A   1      40.239  33.438  36.086  1.00  0.00     0.131 A 
ATOM     76  C   UNL A   1      38.454  32.390  37.914  1.00  0.00     0.055 A 
ATOM     77  C   UNL A   1      39.900  34.178  37.220  1.00  0.00     0.041 A 
ATOM     78  F   UNL A   1      41.082  34.002  35.205  1.00  0.00    -0.206 F 
ATOM     79  C   UNL A   1      38.991  33.659  38.135  1.00  0.00     0.022 A 
BRANCH  76  80
ATOM     80  S   UNL A   1      37.162  31.749  39.015  1.00  0.00     0.124 S 
ATOM     81  O   UNL A   1      37.836  31.774  40.309  1.00  0.00    -0.237 OA
ATOM     82  O   UNL A   1      36.093  32.724  38.830  1.00  0.00    -0.237 OA
ATOM     83  O   UNL A   1      36.887  30.417  38.480  1.00  0.00    -0.744 OA
ENDBRANCH  76  80
ENDBRANCH  49  73
BRANCH  61  84
ATOM     84  C   UNL A   1      44.562  27.342  34.329  1.00  0.00     0.023 A 
ATOM     85  C   UNL A   1      44.406  26.168  35.087  1.00  0.00     0.031 A 
ATOM     86  C   UNL A   1      45.823  27.967  34.336  1.00  0.00     0.131 A 
ATOM     87  C   UNL A   1      45.473  25.690  35.865  1.00  0.00     0.055 A 
ATOM     88  C   UNL A   1      46.900  27.447  35.054  1.00  0.00     0.041 A 
ATOM     89  F   UNL A   1      46.031  29.094  33.637  1.00  0.00    -0.206 F 
ATOM     90  C   UNL A   1      46.726  26.310  35.836  1.00  0.00     0.022 A 
BRANCH  87  91
ATOM     91  S   UNL A   1      45.177  24.306  37.000  1.00  0.00     0.124 S 
ATOM     92  O   UNL A   1      44.346  24.928  38.025  1.00  0.00    -0.237 OA
ATOM     93  O   UNL A   1      44.509  23.334  36.140  1.00  0.00    -0.237 OA
ATOM     94  O   UNL A   1      46.520  23.926  37.437  1.00  0.00    -0.744 OA
ENDBRANCH  87  91
ENDBRANCH  61  84
ENDBRANCH  35  36
ENDBRANCH  28  30
ENDBRANCH  27  28
ENDBRANCH  26  27
ENDBRANCH  25  26
ENDBRANCH  24  25
ENDBRANCH   1  24
TORSDOF 23
ENDMDL
MODEL 3
REMARK VINA RESULT:      -9.7      1.608      7.768
REMARK SMILES CNS(=O)(=O)c1cc(C(=O)OCCOCCOCCOC(=O)c2ccc(-c3c4nc(c(-c5cc(S(=O)(=O)[O-])ccc5F)c5ccc([nH]5)c(-c5cc(S(=O)(=O)[O-])ccc5F)c5nc(c(-c6cc(S(=O)(=O)[O-])ccc6F)c6ccc3[nH]6)C=C5)C=C4)cc2)ccc1N(C)C
REMARK SMILES IDX 16 1 15 2 14 3 13 4 12 5 11 6 9 7 10 8 8 9 6 10 7 11 88 12
REMARK SMILES IDX 87 13 86 14 3 15 4 16 5 17 2 18 1 19 89 21 90 22 91 23 17 24
REMARK SMILES IDX 18 25 19 26 20 27 21 28 22 29 23 30 24 31 85 32 25 33 84 34
REMARK SMILES IDX 26 35 27 36 28 37 78 38 29 39 83 40 77 41 79 42 30 43 82 44
REMARK SMILES IDX 76 45 75 46 31 48 63 49 43 50 62 51 44 52 47 53 61 54 80 55
REMARK SMILES IDX 45 56 46 57 60 59 81 60 48 61 32 62 33 63 41 64 34 65 40 66
REMARK SMILES IDX 42 67 39 68 35 69 36 70 37 71 38 72 64 73 65 74 73 75 66 76
REMARK SMILES IDX 72 77 74 78 71 79 67 80 68 81 69 82 70 83 49 84 50 85 58 86
REMARK SMILES IDX 51 87 57 88 59 89 56 90 52 91 53 92 54 93 55 94
REMARK H PARENT 2 20 79 47 47 58
REMARK Flexibility Score: inf
ROOT
ATOM      1  C   UNL A   1      31.725  29.871  26.472  1.00  0.00     0.188 C 
ENDROOT
BRANCH   1   2
ATOM      2  C   UNL A   1      32.690  29.500  25.326  1.00  0.00     0.188 C 
BRANCH   2   3
ATOM      3  O   UNL A   1      32.172  28.964  24.119  1.00  0.00    -0.376 OA
BRANCH   3   4
ATOM      4  C   UNL A   1      30.771  28.934  23.894  1.00  0.00     0.202 C 
BRANCH   4   5
ATOM      5  C   UNL A   1      30.039  27.660  23.435  1.00  0.00     0.261 C 
BRANCH   5   6
ATOM      6  O   UNL A   1      30.694  26.423  23.746  1.00  0.00    -0.460 OA
BRANCH   6   7
ATOM      7  C   UNL A   1      31.490  25.914  22.771  1.00  0.00     0.338 C 
ATOM      8  O   UNL A   1      31.507  26.233  21.595  1.00  0.00    -0.246 OA
BRANCH   7   9
ATOM      9  C   UNL A   1      32.493  25.010  23.381  1.00  0.00     0.061 A 
ATOM     10  C   UNL A   1      33.096  23.498  25.243  1.00  0.00     0.106 A 
ATOM     11  C   UNL A   1      32.232  24.460  24.629  1.00  0.00     0.039 A 
ATOM     12  C   UNL A   1      34.338  23.148  24.645  1.00  0.00     0.056 A 
ATOM     13  C   UNL A   1      34.493  23.686  23.329  1.00  0.00     0.028 A 
ATOM     14  C   UNL A   1      33.616  24.590  22.706  1.00  0.00     0.018 A 
BRANCH  10  15
ATOM     15  S   UNL A   1      32.282  22.814  26.699  1.00  0.00     0.242 S 
ATOM     16  O   UNL A   1      31.351  23.705  27.331  1.00  0.00    -0.207 OA
ATOM     17  O   UNL A   1      33.331  22.211  27.503  1.00  0.00    -0.207 OA
BRANCH  15  18
ATOM     18  N   UNL A   1      31.401  21.528  26.052  1.00  0.00    -0.214 NA
ATOM     19  C   UNL A   1      32.046  20.687  25.048  1.00  0.00     0.120 C 
ATOM     20  H   UNL A   1      31.135  20.923  26.828  1.00  0.00     0.141 HD
ENDBRANCH  15  18
ENDBRANCH  10  15
BRANCH  12  21
ATOM     21  N   UNL A   1      35.405  22.406  25.152  1.00  0.00    -0.377 N 
ATOM     22  C   UNL A   1      36.407  22.945  26.085  1.00  0.00     0.143 C 
ATOM     23  C   UNL A   1      35.624  20.979  24.938  1.00  0.00     0.143 C 
ENDBRANCH  12  21
ENDBRANCH   7   9
ENDBRANCH   6   7
ENDBRANCH   5   6
ENDBRANCH   4   5
ENDBRANCH   3   4
ENDBRANCH   2   3
ENDBRANCH   1   2
BRANCH   1  24
ATOM     24  O   UNL A   1      31.423  31.241  26.597  1.00  0.00    -0.376 OA
BRANCH  24  25
ATOM     25  C   UNL A   1      32.436  32.152  26.990  1.00  0.00     0.202 C 
BRANCH  25  26
ATOM     26  C   UNL A   1      32.239  33.635  27.375  1.00  0.00     0.261 C 
BRANCH  26  27
ATOM     27  O   UNL A   1      32.526  34.052  28.712  1.00  0.00    -0.460 OA
BRANCH  27  28
ATOM     28  C   UNL A   1      33.648  34.798  28.873  1.00  0.00     0.338 C 
ATOM     29  O   UNL A   1      33.721  36.013  28.881  1.00  0.00    -0.246 OA
BRANCH  28  30
ATOM     30  C   UNL A   1      34.766  33.896  29.223  1.00  0.00     0.060 A 
ATOM     31  C   UNL A   1      34.498  32.757  29.993  1.00  0.00     0.016 A 
ATOM     32  C   UNL A   1      36.068  34.184  28.813  1.00  0.00     0.016 A 
ATOM     33  C   UNL A   1      35.539  31.906  30.366  1.00  0.00     0.010 A 
ATOM     34  C   UNL A   1      37.114  33.339  29.208  1.00  0.00     0.010 A 
ATOM     35  C   UNL A   1      36.857  32.207  30.003  1.00  0.00    -0.014 A 
BRANCH  35  36
ATOM     36  C   UNL A   1      37.979  31.436  30.601  1.00  0.00     0.031 A 
ATOM     37  C   UNL A   1      38.396  31.755  32.011  1.00  0.00     0.074 A 
ATOM     38  C   UNL A   1      38.599  30.455  29.920  1.00  0.00     0.049 A 
ATOM     39  N   UNL A   1      39.385  31.273  32.718  1.00  0.00    -0.248 NA
ATOM     40  C   UNL A   1      37.580  32.755  32.716  1.00  0.00     0.031 C 
ATOM     41  C   UNL A   1      38.238  30.000  28.579  1.00  0.00     0.029 A 
ATOM     42  N   UNL A   1      39.670  29.667  30.265  1.00  0.00    -0.354 N 
ATOM     43  C   UNL A   1      39.314  31.914  33.951  1.00  0.00     0.074 A 
ATOM     44  C   UNL A   1      38.209  32.845  33.877  1.00  0.00     0.031 C 
ATOM     45  C   UNL A   1      39.085  29.025  28.208  1.00  0.00     0.029 A 
ATOM     46  C   UNL A   1      40.073  28.813  29.266  1.00  0.00     0.049 A 
ATOM     47  H   UNL A   1      40.108  29.709  31.146  1.00  0.00     0.167 HD
ATOM     48  C   UNL A   1      40.097  31.735  35.044  1.00  0.00     0.034 A 
ATOM     49  C   UNL A   1      41.133  27.980  29.200  1.00  0.00     0.034 A 
ATOM     50  C   UNL A   1      41.206  30.813  35.094  1.00  0.00     0.049 A 
ATOM     51  C   UNL A   1      42.064  27.884  30.389  1.00  0.00     0.074 A 
ATOM     52  C   UNL A   1      42.063  30.553  36.149  1.00  0.00     0.029 A 
ATOM     53  N   UNL A   1      41.626  30.011  34.038  1.00  0.00    -0.354 N 
ATOM     54  N   UNL A   1      41.996  28.497  31.549  1.00  0.00    -0.248 NA
ATOM     55  C   UNL A   1      43.213  26.976  30.260  1.00  0.00     0.031 C 
ATOM     56  C   UNL A   1      43.049  29.666  35.706  1.00  0.00     0.029 A 
ATOM     57  C   UNL A   1      42.753  29.291  34.405  1.00  0.00     0.049 A 
ATOM     58  H   UNL A   1      41.186  29.962  33.160  1.00  0.00     0.167 HD
ATOM     59  C   UNL A   1      43.069  28.020  32.297  1.00  0.00     0.074 A 
ATOM     60  C   UNL A   1      43.761  27.060  31.463  1.00  0.00     0.031 C 
ATOM     61  C   UNL A   1      43.444  28.340  33.563  1.00  0.00     0.034 A 
BRANCH  48  62
ATOM     62  C   UNL A   1      39.818  32.607  36.245  1.00  0.00     0.023 A 
ATOM     63  C   UNL A   1      38.965  32.194  37.285  1.00  0.00     0.031 A 
ATOM     64  C   UNL A   1      40.386  33.890  36.333  1.00  0.00     0.131 A 
ATOM     65  C   UNL A   1      38.648  33.082  38.325  1.00  0.00     0.055 A 
ATOM     66  C   UNL A   1      40.135  34.737  37.415  1.00  0.00     0.041 A 
ATOM     67  F   UNL A   1      41.186  34.352  35.359  1.00  0.00    -0.206 F 
ATOM     68  C   UNL A   1      39.249  34.341  38.411  1.00  0.00     0.022 A 
BRANCH  65  69
ATOM     69  S   UNL A   1      37.322  32.632  39.478  1.00  0.00     0.124 S 
ATOM     70  O   UNL A   1      37.709  31.276  39.861  1.00  0.00    -0.237 OA
ATOM     71  O   UNL A   1      37.444  33.650  40.514  1.00  0.00    -0.237 OA
ATOM     72  O   UNL A   1      36.113  32.717  38.660  1.00  0.00    -0.744 OA
ENDBRANCH  65  69
ENDBRANCH  48  62
BRANCH  49  73
ATOM     73  C   UNL A   1      41.414  27.203  27.956  1.00  0.00     0.023 A 
ATOM     74  C   UNL A   1      41.176  25.821  27.888  1.00  0.00     0.031 A 
ATOM     75  C   UNL A   1      41.991  27.825  26.835  1.00  0.00     0.131 A 
ATOM     76  C   UNL A   1      41.559  25.099  26.745  1.00  0.00     0.055 A 
ATOM     77  C   UNL A   1      42.314  27.114  25.677  1.00  0.00     0.041 A 
ATOM     78  F   UNL A   1      42.252  29.143  26.847  1.00  0.00    -0.206 F 
ATOM     79  C   UNL A   1      42.111  25.739  25.635  1.00  0.00     0.022 A 
BRANCH  76  80
ATOM     80  S   UNL A   1      41.415  23.291  26.769  1.00  0.00     0.124 S 
ATOM     81  O   UNL A   1      42.387  22.902  25.753  1.00  0.00    -0.237 OA
ATOM     82  O   UNL A   1      41.767  22.975  28.149  1.00  0.00    -0.237 OA
ATOM     83  O   UNL A   1      40.016  23.055  26.417  1.00  0.00    -0.744 OA
ENDBRANCH  76  80
ENDBRANCH  49  73
BRANCH  61  84
ATOM     84  C   UNL A   1      44.628  27.601  34.147  1.00  0.00     0.023 A 
ATOM     85  C   UNL A   1      44.484  26.381  34.833  1.00  0.00     0.031 A 
ATOM     86  C   UNL A   1      45.924  28.131  34.016  1.00  0.00     0.131 A 
ATOM     87  C   UNL A   1      45.606  25.765  35.409  1.00  0.00     0.055 A 
ATOM     88  C   UNL A   1      47.046  27.478  34.529  1.00  0.00     0.041 A 
ATOM     89  F   UNL A   1      46.125  29.295  33.377  1.00  0.00    -0.206 F 
ATOM     90  C   UNL A   1      46.889  26.295  35.243  1.00  0.00     0.022 A 
BRANCH  87  91
ATOM     91  S   UNL A   1      45.358  24.315  36.471  1.00  0.00     0.124 S 
ATOM     92  O   UNL A   1      46.426  24.473  37.453  1.00  0.00    -0.237 OA
ATOM     93  O   UNL A   1      44.001  24.518  36.967  1.00  0.00    -0.237 OA
ATOM     94  O   UNL A   1      45.521  23.187  35.556  1.00  0.00    -0.744 OA
ENDBRANCH  87  91
ENDBRANCH  61  84
ENDBRANCH  35  36
ENDBRANCH  28  30
ENDBRANCH  27  28
ENDBRANCH  26  27
ENDBRANCH  25  26
ENDBRANCH  24  25
ENDBRANCH   1  24
TORSDOF 23
ENDMDL
