MODEL 1
REMARK VINA RESULT:     -11.3      0.000      0.000
REMARK SMILES Cc1ccc(S(=O)(=O)n2cc(C(=O)C(=O)N[C@@H](Cc3c[nH]c4ccccc34)C(=O)NCC(=O)OCCOCCOCCOC(=O)c3ccc(-c4c5nc(c(-c6cc(S(=O)(=O)[O-])ccc6F)c6ccc([nH]6)c(-c6cc(S(=O)(=O)[O-])ccc6F)c6nc(c(-c7cc(S(=O)(=O)[O-])ccc7F)c7ccc4[nH]7)C=C6)C=C5)cc3)c3ccccc32)cc1
REMARK SMILES IDX 36 1 35 2 34 3 32 4 33 5 31 6 30 7 28 8 29 9 17 11 16 12
REMARK SMILES IDX 14 13 15 14 12 16 13 17 11 18 9 19 10 20 114 21 109 22
REMARK SMILES IDX 113 23 110 24 112 25 111 26 6 27 7 28 8 29 5 30 1 31 2 32
REMARK SMILES IDX 3 33 116 34 4 35 115 36 18 37 19 38 20 39 27 40 21 41 22 42
REMARK SMILES IDX 26 43 23 45 25 46 24 47 37 48 38 49 39 50 40 51 41 52 42 53
REMARK SMILES IDX 43 54 44 55 45 56 46 57 47 58 108 59 48 60 107 61 49 62
REMARK SMILES IDX 50 63 51 64 101 65 52 66 106 67 100 68 102 69 53 70 105 71
REMARK SMILES IDX 99 72 98 73 54 75 86 76 66 77 85 78 67 79 70 80 84 81 103 82
REMARK SMILES IDX 68 83 69 84 83 86 104 87 71 88 55 89 56 90 64 91 57 92 63 93
REMARK SMILES IDX 65 94 62 95 58 96 59 97 60 98 61 99 87 100 88 101 96 102
REMARK SMILES IDX 89 103 95 104 97 105 94 106 90 107 91 108 92 109 93 110
REMARK SMILES IDX 72 111 73 112 81 113 74 114 80 115 82 116 79 117 75 118
REMARK SMILES IDX 76 119 77 120 78 121
REMARK H PARENT 30 10 16 15 21 44 102 74 70 85
REMARK Flexibility Score: inf
ROOT
ATOM      1  C   UNL A   1      33.105  28.273  26.430  1.00  0.00     0.202 C 
ENDROOT
BRANCH   1   2
ATOM      2  C   UNL A   1      33.885  27.253  25.624  1.00  0.00     0.261 C 
BRANCH   2   3
ATOM      3  O   UNL A   1      33.074  26.449  24.430  1.00  0.00    -0.462 OA
BRANCH   3   4
ATOM      4  C   UNL A   1      32.117  26.230  23.421  1.00  0.00     0.325 C 
ATOM      5  O   UNL A   1      32.264  26.882  22.376  1.00  0.00    -0.250 OA
BRANCH   4   6
ATOM      6  C   UNL A   1      30.809  25.111  23.376  1.00  0.00     0.238 C 
BRANCH   6   7
ATOM      7  N   UNL A   1      30.734  24.050  24.529  1.00  0.00    -0.343 N 
ATOM      8  C   UNL A   1      31.333  22.903  25.018  1.00  0.00     0.243 C 
ATOM      9  O   UNL A   1      30.534  22.220  25.695  1.00  0.00    -0.273 OA
ATOM     10  H   UNL A   1      29.987  24.289  25.123  1.00  0.00     0.164 HD
BRANCH   8  11
ATOM     11  C   UNL A   1      32.863  22.315  24.977  1.00  0.00     0.176 C 
BRANCH  11  12
ATOM     12  N   UNL A   1      33.721  22.422  26.232  1.00  0.00    -0.337 N 
ATOM     13  C   UNL A   1      35.059  22.443  26.676  1.00  0.00     0.293 C 
ATOM     14  O   UNL A   1      35.287  22.638  27.871  1.00  0.00    -0.265 OA
ATOM     15  H   UNL A   1      33.128  22.505  27.014  1.00  0.00     0.164 HD
BRANCH  13  16
ATOM     16  C   UNL A   1      36.268  22.295  25.775  1.00  0.00     0.252 C 
ATOM     17  O   UNL A   1      36.041  21.598  24.777  1.00  0.00    -0.283 OA
BRANCH  16  18
ATOM     18  C   UNL A   1      37.619  22.967  25.891  1.00  0.00     0.054 A 
ATOM     19  N   UNL A   1      39.401  24.161  26.686  1.00  0.00    -0.240 N 
ATOM     20  C   UNL A   1      38.183  24.270  25.954  1.00  0.00     0.117 A 
ATOM     21  C   UNL A   1      39.549  22.782  26.969  1.00  0.00     0.065 A 
ATOM     22  C   UNL A   1      38.764  22.138  26.030  1.00  0.00     0.012 A 
ATOM     23  C   UNL A   1      40.508  22.073  27.717  1.00  0.00     0.028 A 
ATOM     24  C   UNL A   1      39.122  20.845  25.607  1.00  0.00     0.011 A 
ATOM     25  C   UNL A   1      40.888  20.818  27.250  1.00  0.00     0.002 A 
ATOM     26  C   UNL A   1      40.248  20.238  26.163  1.00  0.00     0.001 A 
BRANCH  19  27
ATOM     27  S   UNL A   1      40.998  24.875  26.504  1.00  0.00     0.268 S 
ATOM     28  O   UNL A   1      41.402  25.014  27.900  1.00  0.00    -0.201 OA
ATOM     29  O   UNL A   1      40.632  26.054  25.719  1.00  0.00    -0.201 OA
BRANCH  27  30
ATOM     30  C   UNL A   1      42.541  24.577  25.700  1.00  0.00     0.088 A 
ATOM     31  C   UNL A   1      46.106  22.510  24.287  1.00  0.00     0.044 C 
ATOM     32  C   UNL A   1      44.881  23.274  24.713  1.00  0.00    -0.051 A 
ATOM     33  C   UNL A   1      43.698  22.564  24.800  1.00  0.00     0.005 A 
ATOM     34  C   UNL A   1      44.877  24.640  25.089  1.00  0.00     0.005 A 
ATOM     35  C   UNL A   1      42.563  23.212  25.265  1.00  0.00     0.022 A 
ATOM     36  C   UNL A   1      43.712  25.302  25.596  1.00  0.00     0.022 A 
ENDBRANCH  27  30
ENDBRANCH  19  27
ENDBRANCH  16  18
ENDBRANCH  13  16
ENDBRANCH  11  12
BRANCH  11  37
ATOM     37  C   UNL A   1      32.948  21.023  24.088  1.00  0.00     0.072 C 
BRANCH  37  38
ATOM     38  C   UNL A   1      32.737  19.719  24.826  1.00  0.00    -0.020 A 
ATOM     39  C   UNL A   1      32.654  19.491  26.192  1.00  0.00     0.087 A 
ATOM     40  C   UNL A   1      32.796  18.437  24.224  1.00  0.00     0.003 A 
ATOM     41  N   UNL A   1      32.878  18.151  26.417  1.00  0.00    -0.361 N 
ATOM     42  C   UNL A   1      33.151  17.539  25.224  1.00  0.00     0.046 A 
ATOM     43  C   UNL A   1      32.839  18.035  22.895  1.00  0.00     0.010 A 
ATOM     44  H   UNL A   1      32.846  17.707  27.294  1.00  0.00     0.166 HD
ATOM     45  C   UNL A   1      33.760  16.323  24.957  1.00  0.00     0.026 A 
ATOM     46  C   UNL A   1      33.718  17.001  22.647  1.00  0.00     0.001 A 
ATOM     47  C   UNL A   1      34.204  16.194  23.656  1.00  0.00     0.002 A 
ENDBRANCH  37  38
ENDBRANCH  11  37
ENDBRANCH   8  11
ENDBRANCH   6   7
ENDBRANCH   4   6
ENDBRANCH   3   4
ENDBRANCH   2   3
ENDBRANCH   1   2
BRANCH   1  48
ATOM     48  O   UNL A   1      33.895  29.401  26.632  1.00  0.00    -0.376 OA
BRANCH  48  49
ATOM     49  C   UNL A   1      33.146  30.609  26.671  1.00  0.00     0.188 C 
BRANCH  49  50
ATOM     50  C   UNL A   1      33.513  31.686  27.704  1.00  0.00     0.188 C 
BRANCH  50  51
ATOM     51  O   UNL A   1      34.873  31.670  28.139  1.00  0.00    -0.376 OA
BRANCH  51  52
ATOM     52  C   UNL A   1      35.292  32.600  29.118  1.00  0.00     0.202 C 
BRANCH  52  53
ATOM     53  C   UNL A   1      34.604  32.319  30.450  1.00  0.00     0.261 C 
BRANCH  53  54
ATOM     54  O   UNL A   1      35.599  32.355  31.499  1.00  0.00    -0.460 OA
BRANCH  54  55
ATOM     55  C   UNL A   1      36.427  31.273  31.488  1.00  0.00     0.338 C 
ATOM     56  O   UNL A   1      36.085  30.146  31.747  1.00  0.00    -0.246 OA
BRANCH  55  57
ATOM     57  C   UNL A   1      37.848  31.740  31.323  1.00  0.00     0.060 A 
ATOM     58  C   UNL A   1      38.793  30.951  31.893  1.00  0.00     0.016 A 
ATOM     59  C   UNL A   1      38.285  32.999  30.884  1.00  0.00     0.016 A 
ATOM     60  C   UNL A   1      40.031  31.542  32.210  1.00  0.00     0.010 A 
ATOM     61  C   UNL A   1      39.572  33.552  31.259  1.00  0.00     0.010 A 
ATOM     62  C   UNL A   1      40.465  32.881  32.102  1.00  0.00    -0.014 A 
BRANCH  62  63
ATOM     63  C   UNL A   1      41.664  33.673  32.879  1.00  0.00     0.031 A 
ATOM     64  C   UNL A   1      41.410  34.130  34.278  1.00  0.00     0.074 A 
ATOM     65  C   UNL A   1      42.921  34.233  32.571  1.00  0.00     0.049 A 
ATOM     66  N   UNL A   1      41.993  33.803  35.389  1.00  0.00    -0.248 NA
ATOM     67  C   UNL A   1      40.546  35.285  34.386  1.00  0.00     0.031 C 
ATOM     68  C   UNL A   1      44.023  34.278  33.555  1.00  0.00     0.029 A 
ATOM     69  N   UNL A   1      43.672  34.539  31.402  1.00  0.00    -0.354 N 
ATOM     70  C   UNL A   1      41.601  34.741  36.329  1.00  0.00     0.074 A 
ATOM     71  C   UNL A   1      40.568  35.538  35.685  1.00  0.00     0.031 C 
ATOM     72  C   UNL A   1      45.180  34.621  32.980  1.00  0.00     0.029 A 
ATOM     73  C   UNL A   1      44.950  35.008  31.618  1.00  0.00     0.049 A 
ATOM     74  H   UNL A   1      43.302  34.423  30.497  1.00  0.00     0.167 HD
ATOM     75  C   UNL A   1      42.391  35.459  37.176  1.00  0.00     0.034 A 
ATOM     76  C   UNL A   1      45.720  35.786  30.810  1.00  0.00     0.034 A 
ATOM     77  C   UNL A   1      43.747  35.818  36.759  1.00  0.00     0.049 A 
ATOM     78  C   UNL A   1      46.259  36.922  31.701  1.00  0.00     0.074 A 
ATOM     79  C   UNL A   1      44.941  35.137  36.622  1.00  0.00     0.029 A 
ATOM     80  N   UNL A   1      44.044  37.114  36.320  1.00  0.00    -0.354 N 
ATOM     81  N   UNL A   1      46.342  36.843  33.013  1.00  0.00    -0.248 NA
ATOM     82  C   UNL A   1      46.582  38.270  31.240  1.00  0.00     0.031 C 
ATOM     83  C   UNL A   1      45.863  35.974  35.909  1.00  0.00     0.029 A 
ATOM     84  C   UNL A   1      45.257  37.188  35.610  1.00  0.00     0.049 A 
ATOM     85  H   UNL A   1      43.466  37.893  36.490  1.00  0.00     0.167 HD
ATOM     86  C   UNL A   1      46.273  38.109  33.549  1.00  0.00     0.074 A 
ATOM     87  C   UNL A   1      46.687  38.930  32.411  1.00  0.00     0.031 C 
ATOM     88  C   UNL A   1      45.652  38.378  34.767  1.00  0.00     0.034 A 
BRANCH  75  89
ATOM     89  C   UNL A   1      41.829  35.443  38.582  1.00  0.00     0.023 A 
ATOM     90  C   UNL A   1      41.318  34.244  39.087  1.00  0.00     0.031 A 
ATOM     91  C   UNL A   1      41.634  36.598  39.393  1.00  0.00     0.131 A 
ATOM     92  C   UNL A   1      40.586  34.235  40.288  1.00  0.00     0.055 A 
ATOM     93  C   UNL A   1      40.912  36.584  40.587  1.00  0.00     0.041 A 
ATOM     94  F   UNL A   1      42.106  37.807  39.052  1.00  0.00    -0.206 F 
ATOM     95  C   UNL A   1      40.362  35.398  41.029  1.00  0.00     0.022 A 
BRANCH  92  96
ATOM     96  S   UNL A   1      39.856  32.678  40.842  1.00  0.00     0.124 S 
ATOM     97  O   UNL A   1      41.036  31.878  41.156  1.00  0.00    -0.237 OA
ATOM     98  O   UNL A   1      39.046  33.116  41.973  1.00  0.00    -0.237 OA
ATOM     99  O   UNL A   1      39.102  32.228  39.673  1.00  0.00    -0.744 OA
ENDBRANCH  92  96
ENDBRANCH  75  89
BRANCH  76 100
ATOM    100  C   UNL A   1      45.360  35.780  29.332  1.00  0.00     0.023 A 
ATOM    101  C   UNL A   1      45.733  34.678  28.507  1.00  0.00     0.031 A 
ATOM    102  C   UNL A   1      44.415  36.652  28.769  1.00  0.00     0.131 A 
ATOM    103  C   UNL A   1      45.123  34.458  27.240  1.00  0.00     0.055 A 
ATOM    104  C   UNL A   1      43.775  36.407  27.539  1.00  0.00     0.041 A 
ATOM    105  F   UNL A   1      44.011  37.728  29.445  1.00  0.00    -0.206 F 
ATOM    106  C   UNL A   1      44.108  35.293  26.782  1.00  0.00     0.022 A 
BRANCH 103 107
ATOM    107  S   UNL A   1      45.563  33.054  26.154  1.00  0.00     0.124 S 
ATOM    108  O   UNL A   1      44.983  33.460  24.877  1.00  0.00    -0.237 OA
ATOM    109  O   UNL A   1      47.020  33.024  26.188  1.00  0.00    -0.237 OA
ATOM    110  O   UNL A   1      44.896  31.916  26.786  1.00  0.00    -0.744 OA
ENDBRANCH 103 107
ENDBRANCH  76 100
BRANCH  88 111
ATOM    111  C   UNL A   1      45.289  39.819  35.190  1.00  0.00     0.023 A 
ATOM    112  C   UNL A   1      44.135  40.490  34.745  1.00  0.00     0.031 A 
ATOM    113  C   UNL A   1      46.091  40.589  36.062  1.00  0.00     0.131 A 
ATOM    114  C   UNL A   1      43.921  41.863  34.972  1.00  0.00     0.055 A 
ATOM    115  C   UNL A   1      45.803  41.920  36.412  1.00  0.00     0.041 A 
ATOM    116  F   UNL A   1      47.202  40.091  36.623  1.00  0.00    -0.206 F 
ATOM    117  C   UNL A   1      44.738  42.584  35.826  1.00  0.00     0.022 A 
BRANCH 114 118
ATOM    118  S   UNL A   1      42.674  42.702  33.952  1.00  0.00     0.124 S 
ATOM    119  O   UNL A   1      41.788  41.597  33.591  1.00  0.00    -0.237 OA
ATOM    120  O   UNL A   1      42.115  43.680  34.877  1.00  0.00    -0.237 OA
ATOM    121  O   UNL A   1      43.450  43.255  32.844  1.00  0.00    -0.744 OA
ENDBRANCH 114 118
ENDBRANCH  88 111
ENDBRANCH  62  63
ENDBRANCH  55  57
ENDBRANCH  54  55
ENDBRANCH  53  54
ENDBRANCH  52  53
ENDBRANCH  51  52
ENDBRANCH  50  51
ENDBRANCH  49  50
ENDBRANCH  48  49
ENDBRANCH   1  48
TORSDOF 29
ENDMDL
MODEL 2
REMARK VINA RESULT:     -11.1      2.171      3.356
REMARK SMILES Cc1ccc(S(=O)(=O)n2cc(C(=O)C(=O)N[C@@H](Cc3c[nH]c4ccccc34)C(=O)NCC(=O)OCCOCCOCCOC(=O)c3ccc(-c4c5nc(c(-c6cc(S(=O)(=O)[O-])ccc6F)c6ccc([nH]6)c(-c6cc(S(=O)(=O)[O-])ccc6F)c6nc(c(-c7cc(S(=O)(=O)[O-])ccc7F)c7ccc4[nH]7)C=C6)C=C5)cc3)c3ccccc32)cc1
REMARK SMILES IDX 36 1 35 2 34 3 32 4 33 5 31 6 30 7 28 8 29 9 17 11 16 12
REMARK SMILES IDX 14 13 15 14 12 16 13 17 11 18 9 19 10 20 114 21 109 22
REMARK SMILES IDX 113 23 110 24 112 25 111 26 6 27 7 28 8 29 5 30 1 31 2 32
REMARK SMILES IDX 3 33 116 34 4 35 115 36 18 37 19 38 20 39 27 40 21 41 22 42
REMARK SMILES IDX 26 43 23 45 25 46 24 47 37 48 38 49 39 50 40 51 41 52 42 53
REMARK SMILES IDX 43 54 44 55 45 56 46 57 47 58 108 59 48 60 107 61 49 62
REMARK SMILES IDX 50 63 51 64 101 65 52 66 106 67 100 68 102 69 53 70 105 71
REMARK SMILES IDX 99 72 98 73 54 75 86 76 66 77 85 78 67 79 70 80 84 81 103 82
REMARK SMILES IDX 68 83 69 84 83 86 104 87 71 88 55 89 56 90 64 91 57 92 63 93
REMARK SMILES IDX 65 94 62 95 58 96 59 97 60 98 61 99 87 100 88 101 96 102
REMARK SMILES IDX 89 103 95 104 97 105 94 106 90 107 91 108 92 109 93 110
REMARK SMILES IDX 72 111 73 112 81 113 74 114 80 115 82 116 79 117 75 118
REMARK SMILES IDX 76 119 77 120 78 121
REMARK H PARENT 30 10 16 15 21 44 102 74 70 85
REMARK Flexibility Score: inf
ROOT
ATOM      1  C   UNL A   1      31.419  28.651  25.072  1.00  0.00     0.202 C 
ENDROOT
BRANCH   1   2
ATOM      2  C   UNL A   1      30.854  27.278  24.767  1.00  0.00     0.261 C 
BRANCH   2   3
ATOM      3  O   UNL A   1      31.898  26.141  24.176  1.00  0.00    -0.462 OA
BRANCH   3   4
ATOM      4  C   UNL A   1      33.078  25.621  23.613  1.00  0.00     0.325 C 
ATOM      5  O   UNL A   1      33.230  25.803  22.396  1.00  0.00    -0.250 OA
BRANCH   4   6
ATOM      6  C   UNL A   1      34.408  24.842  24.381  1.00  0.00     0.238 C 
BRANCH   6   7
ATOM      7  N   UNL A   1      35.166  23.741  23.560  1.00  0.00    -0.343 N 
ATOM      8  C   UNL A   1      36.275  22.916  23.578  1.00  0.00     0.243 C 
ATOM      9  O   UNL A   1      36.634  22.603  22.422  1.00  0.00    -0.273 OA
ATOM     10  H   UNL A   1      34.669  23.578  22.727  1.00  0.00     0.164 HD
BRANCH   8  11
ATOM     11  C   UNL A   1      37.138  22.198  24.774  1.00  0.00     0.176 C 
BRANCH  11  12
ATOM     12  N   UNL A   1      37.721  23.070  25.879  1.00  0.00    -0.337 N 
ATOM     13  C   UNL A   1      38.851  23.223  26.709  1.00  0.00     0.293 C 
ATOM     14  O   UNL A   1      38.913  24.198  27.458  1.00  0.00    -0.265 OA
ATOM     15  H   UNL A   1      37.076  23.784  26.091  1.00  0.00     0.164 HD
BRANCH  13  16
ATOM     16  C   UNL A   1      40.046  22.291  26.715  1.00  0.00     0.252 C 
ATOM     17  O   UNL A   1      39.733  21.109  26.908  1.00  0.00    -0.283 OA
BRANCH  16  18
ATOM     18  C   UNL A   1      41.492  22.612  26.408  1.00  0.00     0.054 A 
ATOM     19  N   UNL A   1      43.380  23.467  25.440  1.00  0.00    -0.240 N 
ATOM     20  C   UNL A   1      42.470  22.371  25.405  1.00  0.00     0.117 A 
ATOM     21  C   UNL A   1      42.947  24.283  26.511  1.00  0.00     0.065 A 
ATOM     22  C   UNL A   1      42.196  23.447  27.317  1.00  0.00     0.012 A 
ATOM     23  C   UNL A   1      43.399  25.529  26.987  1.00  0.00     0.028 A 
ATOM     24  C   UNL A   1      42.133  23.700  28.699  1.00  0.00     0.011 A 
ATOM     25  C   UNL A   1      43.378  25.738  28.364  1.00  0.00     0.002 A 
ATOM     26  C   UNL A   1      42.813  24.801  29.218  1.00  0.00     0.001 A 
BRANCH  19  27
ATOM     27  S   UNL A   1      45.128  23.603  25.296  1.00  0.00     0.268 S 
ATOM     28  O   UNL A   1      45.316  23.296  23.882  1.00  0.00    -0.201 OA
ATOM     29  O   UNL A   1      45.516  22.634  26.322  1.00  0.00    -0.201 OA
BRANCH  27  30
ATOM     30  C   UNL A   1      46.436  24.747  25.605  1.00  0.00     0.088 A 
ATOM     31  C   UNL A   1      49.123  28.142  25.125  1.00  0.00     0.044 C 
ATOM     32  C   UNL A   1      48.209  26.972  25.369  1.00  0.00    -0.051 A 
ATOM     33  C   UNL A   1      46.891  27.112  24.975  1.00  0.00     0.005 A 
ATOM     34  C   UNL A   1      48.622  25.729  25.910  1.00  0.00     0.005 A 
ATOM     35  C   UNL A   1      46.035  26.030  25.110  1.00  0.00     0.022 A 
ATOM     36  C   UNL A   1      47.744  24.603  26.023  1.00  0.00     0.022 A 
ENDBRANCH  27  30
ENDBRANCH  19  27
ENDBRANCH  16  18
ENDBRANCH  13  16
ENDBRANCH  11  12
BRANCH  11  37
ATOM     37  C   UNL A   1      36.546  20.788  25.130  1.00  0.00     0.072 C 
BRANCH  37  38
ATOM     38  C   UNL A   1      35.034  20.721  25.184  1.00  0.00    -0.020 A 
ATOM     39  C   UNL A   1      34.144  20.291  24.212  1.00  0.00     0.087 A 
ATOM     40  C   UNL A   1      34.241  21.301  26.204  1.00  0.00     0.003 A 
ATOM     41  N   UNL A   1      32.897  20.786  24.523  1.00  0.00    -0.361 N 
ATOM     42  C   UNL A   1      32.995  21.562  25.646  1.00  0.00     0.046 A 
ATOM     43  C   UNL A   1      34.569  21.852  27.437  1.00  0.00     0.010 A 
ATOM     44  H   UNL A   1      32.070  20.609  24.020  1.00  0.00     0.166 HD
ATOM     45  C   UNL A   1      32.136  22.526  26.150  1.00  0.00     0.026 A 
ATOM     46  C   UNL A   1      33.879  23.008  27.739  1.00  0.00     0.001 A 
ATOM     47  C   UNL A   1      32.718  23.362  27.081  1.00  0.00     0.002 A 
ENDBRANCH  37  38
ENDBRANCH  11  37
ENDBRANCH   8  11
ENDBRANCH   6   7
ENDBRANCH   4   6
ENDBRANCH   3   4
ENDBRANCH   2   3
ENDBRANCH   1   2
BRANCH   1  48
ATOM     48  O   UNL A   1      31.628  28.768  26.443  1.00  0.00    -0.376 OA
BRANCH  48  49
ATOM     49  C   UNL A   1      32.264  29.985  26.809  1.00  0.00     0.188 C 
BRANCH  49  50
ATOM     50  C   UNL A   1      33.794  30.019  26.952  1.00  0.00     0.188 C 
BRANCH  50  51
ATOM     51  O   UNL A   1      34.289  30.891  27.969  1.00  0.00    -0.376 OA
BRANCH  51  52
ATOM     52  C   UNL A   1      33.770  32.202  28.063  1.00  0.00     0.202 C 
BRANCH  52  53
ATOM     53  C   UNL A   1      34.898  33.228  28.000  1.00  0.00     0.261 C 
BRANCH  53  54
ATOM     54  O   UNL A   1      34.736  34.157  29.096  1.00  0.00    -0.460 OA
BRANCH  54  55
ATOM     55  C   UNL A   1      34.994  33.601  30.313  1.00  0.00     0.338 C 
ATOM     56  O   UNL A   1      34.187  33.498  31.203  1.00  0.00    -0.246 OA
BRANCH  55  57
ATOM     57  C   UNL A   1      36.472  33.349  30.436  1.00  0.00     0.060 A 
ATOM     58  C   UNL A   1      36.837  32.480  31.413  1.00  0.00     0.016 A 
ATOM     59  C   UNL A   1      37.514  34.080  29.847  1.00  0.00     0.016 A 
ATOM     60  C   UNL A   1      38.153  32.570  31.906  1.00  0.00     0.010 A 
ATOM     61  C   UNL A   1      38.847  34.137  30.417  1.00  0.00     0.010 A 
ATOM     62  C   UNL A   1      39.187  33.482  31.606  1.00  0.00    -0.014 A 
BRANCH  62  63
ATOM     63  C   UNL A   1      40.505  33.914  32.470  1.00  0.00     0.031 A 
ATOM     64  C   UNL A   1      40.345  34.108  33.942  1.00  0.00     0.074 A 
ATOM     65  C   UNL A   1      41.829  34.332  32.223  1.00  0.00     0.049 A 
ATOM     66  N   UNL A   1      40.887  33.480  34.938  1.00  0.00    -0.248 NA
ATOM     67  C   UNL A   1      39.671  35.331  34.317  1.00  0.00     0.031 C 
ATOM     68  C   UNL A   1      42.939  34.012  33.145  1.00  0.00     0.029 A 
ATOM     69  N   UNL A   1      42.600  34.755  31.105  1.00  0.00    -0.354 N 
ATOM     70  C   UNL A   1      40.658  34.253  36.063  1.00  0.00     0.074 A 
ATOM     71  C   UNL A   1      39.750  35.309  35.638  1.00  0.00     0.031 C 
ATOM     72  C   UNL A   1      44.126  34.290  32.598  1.00  0.00     0.029 A 
ATOM     73  C   UNL A   1      43.939  34.976  31.352  1.00  0.00     0.049 A 
ATOM     74  H   UNL A   1      42.204  34.882  30.213  1.00  0.00     0.167 HD
ATOM     75  C   UNL A   1      41.562  34.659  36.999  1.00  0.00     0.034 A 
ATOM     76  C   UNL A   1      44.807  35.780  30.680  1.00  0.00     0.034 A 
ATOM     77  C   UNL A   1      42.951  34.891  36.600  1.00  0.00     0.049 A 
ATOM     78  C   UNL A   1      45.528  36.618  31.753  1.00  0.00     0.074 A 
ATOM     79  C   UNL A   1      44.023  34.083  36.276  1.00  0.00     0.029 A 
ATOM     80  N   UNL A   1      43.437  36.191  36.415  1.00  0.00    -0.354 N 
ATOM     81  N   UNL A   1      45.617  36.262  33.019  1.00  0.00    -0.248 NA
ATOM     82  C   UNL A   1      46.048  37.969  31.556  1.00  0.00     0.031 C 
ATOM     83  C   UNL A   1      45.053  34.902  35.703  1.00  0.00     0.029 A 
ATOM     84  C   UNL A   1      44.637  36.227  35.679  1.00  0.00     0.049 A 
ATOM     85  H   UNL A   1      42.988  36.996  36.763  1.00  0.00     0.167 HD
ATOM     86  C   UNL A   1      45.752  37.388  33.799  1.00  0.00     0.074 A 
ATOM     87  C   UNL A   1      46.271  38.353  32.829  1.00  0.00     0.031 C 
ATOM     88  C   UNL A   1      45.197  37.493  35.073  1.00  0.00     0.034 A 
BRANCH  75  89
ATOM     89  C   UNL A   1      41.024  34.440  38.398  1.00  0.00     0.023 A 
ATOM     90  C   UNL A   1      40.590  35.547  39.131  1.00  0.00     0.031 A 
ATOM     91  C   UNL A   1      41.066  33.200  39.099  1.00  0.00     0.131 A 
ATOM     92  C   UNL A   1      40.300  35.421  40.502  1.00  0.00     0.055 A 
ATOM     93  C   UNL A   1      40.772  33.079  40.458  1.00  0.00     0.041 A 
ATOM     94  F   UNL A   1      41.425  32.050  38.511  1.00  0.00    -0.206 F 
ATOM     95  C   UNL A   1      40.409  34.201  41.174  1.00  0.00     0.022 A 
BRANCH  92  96
ATOM     96  S   UNL A   1      39.846  36.905  41.428  1.00  0.00     0.124 S 
ATOM     97  O   UNL A   1      39.512  37.843  40.361  1.00  0.00    -0.237 OA
ATOM     98  O   UNL A   1      38.737  36.419  42.239  1.00  0.00    -0.237 OA
ATOM     99  O   UNL A   1      41.066  37.224  42.167  1.00  0.00    -0.744 OA
ENDBRANCH  92  96
ENDBRANCH  75  89
BRANCH  76 100
ATOM    100  C   UNL A   1      44.429  36.128  29.249  1.00  0.00     0.023 A 
ATOM    101  C   UNL A   1      44.732  35.226  28.186  1.00  0.00     0.031 A 
ATOM    102  C   UNL A   1      43.525  37.151  28.921  1.00  0.00     0.131 A 
ATOM    103  C   UNL A   1      44.096  35.330  26.918  1.00  0.00     0.055 A 
ATOM    104  C   UNL A   1      42.857  37.224  27.684  1.00  0.00     0.041 A 
ATOM    105  F   UNL A   1      43.187  38.063  29.833  1.00  0.00    -0.206 F 
ATOM    106  C   UNL A   1      43.121  36.297  26.686  1.00  0.00     0.022 A 
BRANCH 103 107
ATOM    107  S   UNL A   1      44.447  34.191  25.531  1.00  0.00     0.124 S 
ATOM    108  O   UNL A   1      45.698  34.728  25.002  1.00  0.00    -0.237 OA
ATOM    109  O   UNL A   1      44.557  32.884  26.167  1.00  0.00    -0.237 OA
ATOM    110  O   UNL A   1      43.294  34.367  24.649  1.00  0.00    -0.744 OA
ENDBRANCH 103 107
ENDBRANCH  76 100
BRANCH  88 111
ATOM    111  C   UNL A   1      45.067  38.854  35.790  1.00  0.00     0.023 A 
ATOM    112  C   UNL A   1      44.331  39.936  35.273  1.00  0.00     0.031 A 
ATOM    113  C   UNL A   1      45.683  39.131  37.032  1.00  0.00     0.131 A 
ATOM    114  C   UNL A   1      44.387  41.227  35.830  1.00  0.00     0.055 A 
ATOM    115  C   UNL A   1      45.618  40.382  37.671  1.00  0.00     0.041 A 
ATOM    116  F   UNL A   1      46.381  38.199  37.696  1.00  0.00    -0.206 F 
ATOM    117  C   UNL A   1      45.010  41.458  37.045  1.00  0.00     0.022 A 
BRANCH 114 118
ATOM    118  S   UNL A   1      43.803  42.613  34.810  1.00  0.00     0.124 S 
ATOM    119  O   UNL A   1      42.550  42.966  35.475  1.00  0.00    -0.237 OA
ATOM    120  O   UNL A   1      44.882  43.583  34.945  1.00  0.00    -0.237 OA
ATOM    121  O   UNL A   1      43.650  42.022  33.482  1.00  0.00    -0.744 OA
ENDBRANCH 114 118
ENDBRANCH  88 111
ENDBRANCH  62  63
ENDBRANCH  55  57
ENDBRANCH  54  55
ENDBRANCH  53  54
ENDBRANCH  52  53
ENDBRANCH  51  52
ENDBRANCH  50  51
ENDBRANCH  49  50
ENDBRANCH  48  49
ENDBRANCH   1  48
TORSDOF 29
ENDMDL
MODEL 3
REMARK VINA RESULT:     -10.7      1.712      2.181
REMARK SMILES Cc1ccc(S(=O)(=O)n2cc(C(=O)C(=O)N[C@@H](Cc3c[nH]c4ccccc34)C(=O)NCC(=O)OCCOCCOCCOC(=O)c3ccc(-c4c5nc(c(-c6cc(S(=O)(=O)[O-])ccc6F)c6ccc([nH]6)c(-c6cc(S(=O)(=O)[O-])ccc6F)c6nc(c(-c7cc(S(=O)(=O)[O-])ccc7F)c7ccc4[nH]7)C=C6)C=C5)cc3)c3ccccc32)cc1
REMARK SMILES IDX 36 1 35 2 34 3 32 4 33 5 31 6 30 7 28 8 29 9 17 11 16 12
REMARK SMILES IDX 14 13 15 14 12 16 13 17 11 18 9 19 10 20 114 21 109 22
REMARK SMILES IDX 113 23 110 24 112 25 111 26 6 27 7 28 8 29 5 30 1 31 2 32
REMARK SMILES IDX 3 33 116 34 4 35 115 36 18 37 19 38 20 39 27 40 21 41 22 42
REMARK SMILES IDX 26 43 23 45 25 46 24 47 37 48 38 49 39 50 40 51 41 52 42 53
REMARK SMILES IDX 43 54 44 55 45 56 46 57 47 58 108 59 48 60 107 61 49 62
REMARK SMILES IDX 50 63 51 64 101 65 52 66 106 67 100 68 102 69 53 70 105 71
REMARK SMILES IDX 99 72 98 73 54 75 86 76 66 77 85 78 67 79 70 80 84 81 103 82
REMARK SMILES IDX 68 83 69 84 83 86 104 87 71 88 55 89 56 90 64 91 57 92 63 93
REMARK SMILES IDX 65 94 62 95 58 96 59 97 60 98 61 99 87 100 88 101 96 102
REMARK SMILES IDX 89 103 95 104 97 105 94 106 90 107 91 108 92 109 93 110
REMARK SMILES IDX 72 111 73 112 81 113 74 114 80 115 82 116 79 117 75 118
REMARK SMILES IDX 76 119 77 120 78 121
REMARK H PARENT 30 10 16 15 21 44 102 74 70 85
REMARK Flexibility Score: inf
ROOT
ATOM      1  C   UNL A   1      33.491  27.878  26.313  1.00  0.00     0.202 C 
ENDROOT
BRANCH   1   2
ATOM      2  C   UNL A   1      33.963  26.941  25.218  1.00  0.00     0.261 C 
BRANCH   2   3
ATOM      3  O   UNL A   1      32.809  26.265  24.248  1.00  0.00    -0.462 OA
BRANCH   3   4
ATOM      4  C   UNL A   1      31.631  26.185  23.483  1.00  0.00     0.325 C 
ATOM      5  O   UNL A   1      31.479  27.061  22.618  1.00  0.00    -0.250 OA
BRANCH   4   6
ATOM      6  C   UNL A   1      30.394  24.987  23.497  1.00  0.00     0.238 C 
BRANCH   6   7
ATOM      7  N   UNL A   1      30.434  23.929  24.654  1.00  0.00    -0.343 N 
ATOM      8  C   UNL A   1      31.123  22.825  25.120  1.00  0.00     0.243 C 
ATOM      9  O   UNL A   1      30.398  22.097  25.832  1.00  0.00    -0.273 OA
ATOM     10  H   UNL A   1      29.699  24.124  25.278  1.00  0.00     0.164 HD
BRANCH   8  11
ATOM     11  C   UNL A   1      32.684  22.333  25.016  1.00  0.00     0.176 C 
BRANCH  11  12
ATOM     12  N   UNL A   1      33.585  22.497  26.234  1.00  0.00    -0.337 N 
ATOM     13  C   UNL A   1      34.872  22.918  26.627  1.00  0.00     0.293 C 
ATOM     14  O   UNL A   1      35.150  22.944  27.827  1.00  0.00    -0.265 OA
ATOM     15  H   UNL A   1      33.092  22.201  27.034  1.00  0.00     0.164 HD
BRANCH  13  16
ATOM     16  C   UNL A   1      35.947  23.403  25.677  1.00  0.00     0.252 C 
ATOM     17  O   UNL A   1      35.494  24.079  24.744  1.00  0.00    -0.283 OA
BRANCH  16  18
ATOM     18  C   UNL A   1      37.449  23.261  25.800  1.00  0.00     0.054 A 
ATOM     19  N   UNL A   1      39.558  23.060  26.662  1.00  0.00    -0.240 N 
ATOM     20  C   UNL A   1      38.579  24.005  26.238  1.00  0.00     0.117 A 
ATOM     21  C   UNL A   1      38.998  21.789  26.393  1.00  0.00     0.065 A 
ATOM     22  C   UNL A   1      38.032  22.020  25.430  1.00  0.00     0.012 A 
ATOM     23  C   UNL A   1      39.457  20.484  26.656  1.00  0.00     0.028 A 
ATOM     24  C   UNL A   1      37.722  21.002  24.511  1.00  0.00     0.011 A 
ATOM     25  C   UNL A   1      39.185  19.502  25.706  1.00  0.00     0.002 A 
ATOM     26  C   UNL A   1      38.382  19.778  24.607  1.00  0.00     0.001 A 
BRANCH  19  27
ATOM     27  S   UNL A   1      41.305  22.956  26.486  1.00  0.00     0.268 S 
ATOM     28  O   UNL A   1      41.420  21.966  25.419  1.00  0.00    -0.201 OA
ATOM     29  O   UNL A   1      41.652  22.603  27.863  1.00  0.00    -0.201 OA
BRANCH  27  30
ATOM     30  C   UNL A   1      42.708  23.985  26.190  1.00  0.00     0.088 A 
ATOM     31  C   UNL A   1      46.698  25.240  24.973  1.00  0.00     0.044 C 
ATOM     32  C   UNL A   1      45.296  24.881  25.381  1.00  0.00    -0.051 A 
ATOM     33  C   UNL A   1      44.659  23.899  24.645  1.00  0.00     0.005 A 
ATOM     34  C   UNL A   1      44.618  25.431  26.497  1.00  0.00     0.005 A 
ATOM     35  C   UNL A   1      43.395  23.484  25.036  1.00  0.00     0.022 A 
ATOM     36  C   UNL A   1      43.325  24.983  26.919  1.00  0.00     0.022 A 
ENDBRANCH  27  30
ENDBRANCH  19  27
ENDBRANCH  16  18
ENDBRANCH  13  16
ENDBRANCH  11  12
BRANCH  11  37
ATOM     37  C   UNL A   1      32.812  21.047  24.124  1.00  0.00     0.072 C 
BRANCH  37  38
ATOM     38  C   UNL A   1      32.668  19.734  24.864  1.00  0.00    -0.020 A 
ATOM     39  C   UNL A   1      32.642  19.500  26.231  1.00  0.00     0.087 A 
ATOM     40  C   UNL A   1      32.745  18.457  24.256  1.00  0.00     0.003 A 
ATOM     41  N   UNL A   1      32.915  18.167  26.443  1.00  0.00    -0.361 N 
ATOM     42  C   UNL A   1      33.163  17.567  25.239  1.00  0.00     0.046 A 
ATOM     43  C   UNL A   1      32.752  18.060  22.924  1.00  0.00     0.010 A 
ATOM     44  H   UNL A   1      32.927  17.719  27.319  1.00  0.00     0.166 HD
ATOM     45  C   UNL A   1      33.799  16.371  24.945  1.00  0.00     0.026 A 
ATOM     46  C   UNL A   1      33.653  17.054  22.640  1.00  0.00     0.001 A 
ATOM     47  C   UNL A   1      34.200  16.260  23.628  1.00  0.00     0.002 A 
ENDBRANCH  37  38
ENDBRANCH  11  37
ENDBRANCH   8  11
ENDBRANCH   6   7
ENDBRANCH   4   6
ENDBRANCH   3   4
ENDBRANCH   2   3
ENDBRANCH   1   2
BRANCH   1  48
ATOM     48  O   UNL A   1      33.876  29.179  26.002  1.00  0.00    -0.376 OA
BRANCH  48  49
ATOM     49  C   UNL A   1      32.944  30.158  26.444  1.00  0.00     0.188 C 
BRANCH  49  50
ATOM     50  C   UNL A   1      33.354  31.134  27.558  1.00  0.00     0.188 C 
BRANCH  50  51
ATOM     51  O   UNL A   1      34.589  31.817  27.342  1.00  0.00    -0.376 OA
BRANCH  51  52
ATOM     52  C   UNL A   1      35.091  32.668  28.353  1.00  0.00     0.202 C 
BRANCH  52  53
ATOM     53  C   UNL A   1      35.272  31.897  29.657  1.00  0.00     0.261 C 
BRANCH  53  54
ATOM     54  O   UNL A   1      35.753  32.811  30.669  1.00  0.00    -0.460 OA
BRANCH  54  55
ATOM     55  C   UNL A   1      35.286  32.523  31.917  1.00  0.00     0.338 C 
ATOM     56  O   UNL A   1      34.130  32.603  32.249  1.00  0.00    -0.246 OA
BRANCH  55  57
ATOM     57  C   UNL A   1      36.452  32.312  32.843  1.00  0.00     0.060 A 
ATOM     58  C   UNL A   1      36.362  32.933  34.046  1.00  0.00     0.016 A 
ATOM     59  C   UNL A   1      37.708  31.773  32.524  1.00  0.00     0.016 A 
ATOM     60  C   UNL A   1      37.563  33.194  34.735  1.00  0.00     0.010 A 
ATOM     61  C   UNL A   1      38.907  32.094  33.273  1.00  0.00     0.010 A 
ATOM     62  C   UNL A   1      38.906  32.979  34.357  1.00  0.00    -0.014 A 
BRANCH  62  63
ATOM     63  C   UNL A   1      40.282  33.684  34.885  1.00  0.00     0.031 A 
ATOM     64  C   UNL A   1      40.260  34.351  36.221  1.00  0.00     0.074 A 
ATOM     65  C   UNL A   1      41.555  34.010  34.373  1.00  0.00     0.049 A 
ATOM     66  N   UNL A   1      40.925  34.091  37.303  1.00  0.00    -0.248 NA
ATOM     67  C   UNL A   1      39.572  35.623  36.247  1.00  0.00     0.031 C 
ATOM     68  C   UNL A   1      42.764  34.022  35.223  1.00  0.00     0.029 A 
ATOM     69  N   UNL A   1      42.192  34.049  33.102  1.00  0.00    -0.354 N 
ATOM     70  C   UNL A   1      40.774  35.190  38.131  1.00  0.00     0.074 A 
ATOM     71  C   UNL A   1      39.783  36.038  37.486  1.00  0.00     0.031 C 
ATOM     72  C   UNL A   1      43.878  34.116  34.490  1.00  0.00     0.029 A 
ATOM     73  C   UNL A   1      43.537  34.352  33.117  1.00  0.00     0.049 A 
ATOM     74  H   UNL A   1      41.704  33.871  32.266  1.00  0.00     0.167 HD
ATOM     75  C   UNL A   1      41.747  35.890  38.780  1.00  0.00     0.034 A 
ATOM     76  C   UNL A   1      44.298  34.898  32.130  1.00  0.00     0.034 A 
ATOM     77  C   UNL A   1      43.078  35.991  38.179  1.00  0.00     0.049 A 
ATOM     78  C   UNL A   1      45.083  36.050  32.786  1.00  0.00     0.074 A 
ATOM     79  C   UNL A   1      44.148  35.132  38.023  1.00  0.00     0.029 A 
ATOM     80  N   UNL A   1      43.485  37.162  37.528  1.00  0.00    -0.354 N 
ATOM     81  N   UNL A   1      45.313  36.132  34.081  1.00  0.00    -0.248 NA
ATOM     82  C   UNL A   1      45.520  37.265  32.103  1.00  0.00     0.031 C 
ATOM     83  C   UNL A   1      45.078  35.726  37.106  1.00  0.00     0.029 A 
ATOM     84  C   UNL A   1      44.603  36.966  36.696  1.00  0.00     0.049 A 
ATOM     85  H   UNL A   1      43.037  38.032  37.641  1.00  0.00     0.167 HD
ATOM     86  C   UNL A   1      45.474  37.453  34.431  1.00  0.00     0.074 A 
ATOM     87  C   UNL A   1      45.850  38.049  33.149  1.00  0.00     0.031 C 
ATOM     88  C   UNL A   1      45.044  37.966  35.653  1.00  0.00     0.034 A 
BRANCH  75  89
ATOM     89  C   UNL A   1      41.361  36.139  40.223  1.00  0.00     0.023 A 
ATOM     90  C   UNL A   1      40.823  35.085  40.965  1.00  0.00     0.031 A 
ATOM     91  C   UNL A   1      41.358  37.416  40.855  1.00  0.00     0.131 A 
ATOM     92  C   UNL A   1      40.245  35.327  42.225  1.00  0.00     0.055 A 
ATOM     93  C   UNL A   1      40.788  37.650  42.106  1.00  0.00     0.041 A 
ATOM     94  F   UNL A   1      41.878  38.509  40.276  1.00  0.00    -0.206 F 
ATOM     95  C   UNL A   1      40.205  36.603  42.790  1.00  0.00     0.022 A 
BRANCH  92  96
ATOM     96  S   UNL A   1      39.467  33.948  43.096  1.00  0.00     0.124 S 
ATOM     97  O   UNL A   1      39.285  34.494  44.438  1.00  0.00    -0.237 OA
ATOM     98  O   UNL A   1      38.258  33.743  42.307  1.00  0.00    -0.237 OA
ATOM     99  O   UNL A   1      40.465  32.884  42.996  1.00  0.00    -0.744 OA
ENDBRANCH  92  96
ENDBRANCH  75  89
BRANCH  76 100
ATOM    100  C   UNL A   1      43.765  34.751  30.713  1.00  0.00     0.023 A 
ATOM    101  C   UNL A   1      43.491  35.909  29.925  1.00  0.00     0.031 A 
ATOM    102  C   UNL A   1      43.800  33.542  30.001  1.00  0.00     0.131 A 
ATOM    103  C   UNL A   1      43.342  35.829  28.513  1.00  0.00     0.055 A 
ATOM    104  C   UNL A   1      43.704  33.469  28.598  1.00  0.00     0.041 A 
ATOM    105  F   UNL A   1      44.027  32.395  30.642  1.00  0.00    -0.206 F 
ATOM    106  C   UNL A   1      43.502  34.617  27.846  1.00  0.00     0.022 A 
BRANCH 103 107
ATOM    107  S   UNL A   1      43.001  37.287  27.463  1.00  0.00     0.124 S 
ATOM    108  O   UNL A   1      44.325  37.599  26.931  1.00  0.00    -0.237 OA
ATOM    109  O   UNL A   1      42.041  36.798  26.481  1.00  0.00    -0.237 OA
ATOM    110  O   UNL A   1      42.483  38.273  28.412  1.00  0.00    -0.744 OA
ENDBRANCH 103 107
ENDBRANCH  76 100
BRANCH  88 111
ATOM    111  C   UNL A   1      44.924  39.486  35.896  1.00  0.00     0.023 A 
ATOM    112  C   UNL A   1      43.907  40.283  35.340  1.00  0.00     0.031 A 
ATOM    113  C   UNL A   1      45.834  40.211  36.699  1.00  0.00     0.131 A 
ATOM    114  C   UNL A   1      43.925  41.689  35.400  1.00  0.00     0.055 A 
ATOM    115  C   UNL A   1      45.770  41.603  36.886  1.00  0.00     0.041 A 
ATOM    116  F   UNL A   1      46.837  39.605  37.350  1.00  0.00    -0.206 F 
ATOM    117  C   UNL A   1      44.841  42.361  36.192  1.00  0.00     0.022 A 
BRANCH 114 118
ATOM    118  S   UNL A   1      42.851  42.598  34.251  1.00  0.00     0.124 S 
ATOM    119  O   UNL A   1      43.808  43.467  33.570  1.00  0.00    -0.237 OA
ATOM    120  O   UNL A   1      42.281  41.530  33.438  1.00  0.00    -0.237 OA
ATOM    121  O   UNL A   1      41.911  43.288  35.131  1.00  0.00    -0.744 OA
ENDBRANCH 114 118
ENDBRANCH  88 111
ENDBRANCH  62  63
ENDBRANCH  55  57
ENDBRANCH  54  55
ENDBRANCH  53  54
ENDBRANCH  52  53
ENDBRANCH  51  52
ENDBRANCH  50  51
ENDBRANCH  49  50
ENDBRANCH  48  49
ENDBRANCH   1  48
TORSDOF 29
ENDMDL
