MODEL 1
REMARK VINA RESULT:     -11.1      0.000      0.000
REMARK SMILES Cc1cc(N2N=C(C(=O)OCCOCCOCCOC(=O)c3ccc(-c4c5nc(c(-c6cc(S(=O)(=O)[O-])ccc6F)c6ccc([nH]6)c(-c6cc(S(=O)(=O)[O-])ccc6F)c6nc(c(-c7cc(S(=O)(=O)[O-])ccc7F)c7ccc4[nH]7)C=C6)C=C5)cc3)C[C@H]2c2ccccc2)c([N+](=O)[O-])cc1C
REMARK SMILES IDX 15 1 14 2 13 3 12 4 11 5 10 6 8 7 9 8 7 9 5 10 6 11 86 12
REMARK SMILES IDX 85 13 4 14 1 15 2 16 3 17 98 18 97 19 99 20 93 21 94 22
REMARK SMILES IDX 95 23 96 24 87 25 88 26 92 27 89 28 91 29 90 30 16 31 17 32
REMARK SMILES IDX 18 33 19 34 20 35 21 36 22 37 23 38 84 39 24 40 83 41 25 42
REMARK SMILES IDX 26 43 27 44 77 45 28 46 82 47 76 48 78 49 29 50 81 51 75 52
REMARK SMILES IDX 74 53 30 55 62 56 42 57 61 58 43 59 46 60 60 61 79 62 44 63
REMARK SMILES IDX 45 64 59 66 80 67 47 68 31 69 32 70 40 71 33 72 39 73 41 74
REMARK SMILES IDX 38 75 34 76 35 77 36 78 37 79 63 80 64 81 72 82 65 83 71 84
REMARK SMILES IDX 73 85 70 86 66 87 67 88 68 89 69 90 48 91 49 92 57 93 50 94
REMARK SMILES IDX 56 95 58 96 55 97 51 98 52 99 53 100 54 101
REMARK H PARENT 78 54 46 65
REMARK Flexibility Score: inf
ROOT
ATOM      1  C   UNL A   1      30.314  32.479  25.357  1.00  0.00     0.188 C 
ENDROOT
BRANCH   1   2
ATOM      2  C   UNL A   1      29.595  31.826  24.158  1.00  0.00     0.188 C 
BRANCH   2   3
ATOM      3  O   UNL A   1      28.799  32.636  23.295  1.00  0.00    -0.376 OA
BRANCH   3   4
ATOM      4  C   UNL A   1      28.664  32.276  21.924  1.00  0.00     0.202 C 
BRANCH   4   5
ATOM      5  C   UNL A   1      27.983  30.943  21.593  1.00  0.00     0.261 C 
BRANCH   5   6
ATOM      6  O   UNL A   1      28.896  29.837  21.580  1.00  0.00    -0.459 OA
BRANCH   6   7
ATOM      7  C   UNL A   1      28.694  28.905  22.534  1.00  0.00     0.354 C 
ATOM      8  O   UNL A   1      27.675  28.707  23.171  1.00  0.00    -0.245 OA
BRANCH   7   9
ATOM      9  C   UNL A   1      29.931  28.062  22.710  1.00  0.00     0.148 C 
ATOM     10  N   UNL A   1      31.185  26.429  23.172  1.00  0.00    -0.250 N 
ATOM     11  N   UNL A   1      29.886  26.789  22.971  1.00  0.00    -0.169 NA
ATOM     12  C   UNL A   1      32.085  27.582  23.336  1.00  0.00     0.144 C 
ATOM     13  C   UNL A   1      31.301  28.656  22.570  1.00  0.00     0.098 C 
BRANCH  10  14
ATOM     14  C   UNL A   1      31.528  25.102  23.389  1.00  0.00     0.138 A 
ATOM     15  C   UNL A   1      30.657  22.522  26.074  1.00  0.00     0.045 C 
ATOM     16  C   UNL A   1      31.257  23.103  24.822  1.00  0.00    -0.046 A 
ATOM     17  C   UNL A   1      30.920  24.421  24.460  1.00  0.00     0.039 A 
ATOM     18  C   UNL A   1      32.152  22.380  24.021  1.00  0.00    -0.041 A 
ATOM     19  C   UNL A   1      32.737  23.023  22.919  1.00  0.00     0.091 A 
ATOM     20  C   UNL A   1      32.482  20.930  24.255  1.00  0.00     0.045 C 
ATOM     21  C   UNL A   1      32.460  24.378  22.629  1.00  0.00     0.294 A 
BRANCH  21  22
ATOM     22  N   UNL A   1      33.210  24.994  21.524  1.00  0.00     0.065 N 
ATOM     23  O   UNL A   1      34.058  25.848  21.816  1.00  0.00    -0.258 OA
ATOM     24  O   UNL A   1      32.937  24.689  20.352  1.00  0.00    -0.258 OA
ENDBRANCH  21  22
ENDBRANCH  10  14
BRANCH  12  25
ATOM     25  C   UNL A   1      32.333  27.908  24.808  1.00  0.00    -0.023 A 
ATOM     26  C   UNL A   1      31.301  28.087  25.747  1.00  0.00     0.006 A 
ATOM     27  C   UNL A   1      33.658  28.004  25.269  1.00  0.00     0.006 A 
ATOM     28  C   UNL A   1      31.583  28.353  27.089  1.00  0.00     0.000 A 
ATOM     29  C   UNL A   1      33.940  28.231  26.618  1.00  0.00     0.000 A 
ATOM     30  C   UNL A   1      32.901  28.412  27.526  1.00  0.00     0.000 A 
ENDBRANCH  12  25
ENDBRANCH   7   9
ENDBRANCH   6   7
ENDBRANCH   5   6
ENDBRANCH   4   5
ENDBRANCH   3   4
ENDBRANCH   2   3
ENDBRANCH   1   2
BRANCH   1  31
ATOM     31  O   UNL A   1      31.284  31.655  25.980  1.00  0.00    -0.376 OA
BRANCH  31  32
ATOM     32  C   UNL A   1      31.732  32.090  27.257  1.00  0.00     0.202 C 
BRANCH  32  33
ATOM     33  C   UNL A   1      33.241  32.343  27.418  1.00  0.00     0.261 C 
BRANCH  33  34
ATOM     34  O   UNL A   1      33.634  33.717  27.585  1.00  0.00    -0.460 OA
BRANCH  34  35
ATOM     35  C   UNL A   1      33.499  34.252  28.822  1.00  0.00     0.338 C 
ATOM     36  O   UNL A   1      32.551  34.896  29.234  1.00  0.00    -0.246 OA
BRANCH  35  37
ATOM     37  C   UNL A   1      34.632  33.773  29.648  1.00  0.00     0.060 A 
ATOM     38  C   UNL A   1      35.929  34.174  29.315  1.00  0.00     0.016 A 
ATOM     39  C   UNL A   1      34.418  32.935  30.744  1.00  0.00     0.016 A 
ATOM     40  C   UNL A   1      37.015  33.731  30.076  1.00  0.00     0.010 A 
ATOM     41  C   UNL A   1      35.514  32.472  31.490  1.00  0.00     0.010 A 
ATOM     42  C   UNL A   1      36.824  32.853  31.147  1.00  0.00    -0.014 A 
BRANCH  42  43
ATOM     43  C   UNL A   1      38.010  32.220  31.788  1.00  0.00     0.031 A 
ATOM     44  C   UNL A   1      38.718  31.109  31.056  1.00  0.00     0.074 A 
ATOM     45  C   UNL A   1      38.492  32.661  32.966  1.00  0.00     0.049 A 
ATOM     46  N   UNL A   1      39.733  30.377  31.436  1.00  0.00    -0.248 NA
ATOM     47  C   UNL A   1      38.211  30.783  29.714  1.00  0.00     0.031 C 
ATOM     48  C   UNL A   1      37.951  33.781  33.735  1.00  0.00     0.029 A 
ATOM     49  N   UNL A   1      39.550  32.219  33.725  1.00  0.00    -0.354 N 
ATOM     50  C   UNL A   1      39.972  29.488  30.393  1.00  0.00     0.074 A 
ATOM     51  C   UNL A   1      38.988  29.766  29.369  1.00  0.00     0.031 C 
ATOM     52  C   UNL A   1      38.670  33.928  34.862  1.00  0.00     0.029 A 
ATOM     53  C   UNL A   1      39.694  32.886  34.922  1.00  0.00     0.049 A 
ATOM     54  H   UNL A   1      40.150  31.492  33.440  1.00  0.00     0.167 HD
ATOM     55  C   UNL A   1      40.923  28.527  30.299  1.00  0.00     0.034 A 
ATOM     56  C   UNL A   1      40.530  32.660  35.958  1.00  0.00     0.034 A 
ATOM     57  C   UNL A   1      41.912  28.270  31.317  1.00  0.00     0.049 A 
ATOM     58  C   UNL A   1      41.526  31.524  35.859  1.00  0.00     0.074 A 
ATOM     59  C   UNL A   1      42.942  27.345  31.300  1.00  0.00     0.029 A 
ATOM     60  N   UNL A   1      41.991  28.928  32.537  1.00  0.00    -0.354 N 
ATOM     61  N   UNL A   1      41.748  30.698  34.862  1.00  0.00    -0.248 NA
ATOM     62  C   UNL A   1      42.390  31.294  37.027  1.00  0.00     0.031 C 
ATOM     63  C   UNL A   1      43.591  27.388  32.537  1.00  0.00     0.029 A 
ATOM     64  C   UNL A   1      43.022  28.398  33.297  1.00  0.00     0.049 A 
ATOM     65  H   UNL A   1      41.400  29.663  32.822  1.00  0.00     0.167 HD
ATOM     66  C   UNL A   1      42.797  29.877  35.273  1.00  0.00     0.074 A 
ATOM     67  C   UNL A   1      43.179  30.322  36.595  1.00  0.00     0.031 C 
ATOM     68  C   UNL A   1      43.394  28.848  34.618  1.00  0.00     0.034 A 
BRANCH  55  69
ATOM     69  C   UNL A   1      40.900  27.629  29.087  1.00  0.00     0.023 A 
ATOM     70  C   UNL A   1      41.811  27.770  28.027  1.00  0.00     0.031 A 
ATOM     71  C   UNL A   1      39.948  26.596  29.008  1.00  0.00     0.131 A 
ATOM     72  C   UNL A   1      41.727  26.915  26.917  1.00  0.00     0.055 A 
ATOM     73  C   UNL A   1      39.910  25.710  27.932  1.00  0.00     0.041 A 
ATOM     74  F   UNL A   1      39.039  26.431  29.983  1.00  0.00    -0.206 F 
ATOM     75  C   UNL A   1      40.799  25.870  26.874  1.00  0.00     0.022 A 
BRANCH  72  76
ATOM     76  S   UNL A   1      42.785  27.237  25.480  1.00  0.00     0.124 S 
ATOM     77  O   UNL A   1      44.066  27.531  26.116  1.00  0.00    -0.237 OA
ATOM     78  O   UNL A   1      42.710  25.980  24.744  1.00  0.00    -0.237 OA
ATOM     79  O   UNL A   1      42.144  28.378  24.829  1.00  0.00    -0.744 OA
ENDBRANCH  72  76
ENDBRANCH  55  69
BRANCH  56  80
ATOM     80  C   UNL A   1      40.433  33.459  37.218  1.00  0.00     0.023 A 
ATOM     81  C   UNL A   1      39.814  32.941  38.368  1.00  0.00     0.031 A 
ATOM     82  C   UNL A   1      40.856  34.802  37.252  1.00  0.00     0.131 A 
ATOM     83  C   UNL A   1      39.572  33.775  39.472  1.00  0.00     0.055 A 
ATOM     84  C   UNL A   1      40.675  35.607  38.379  1.00  0.00     0.041 A 
ATOM     85  F   UNL A   1      41.440  35.358  36.179  1.00  0.00    -0.206 F 
ATOM     86  C   UNL A   1      40.012  35.100  39.491  1.00  0.00     0.022 A 
BRANCH  83  87
ATOM     87  S   UNL A   1      38.545  33.144  40.829  1.00  0.00     0.124 S 
ATOM     88  O   UNL A   1      38.315  31.765  40.411  1.00  0.00    -0.237 OA
ATOM     89  O   UNL A   1      39.420  33.325  41.983  1.00  0.00    -0.237 OA
ATOM     90  O   UNL A   1      37.369  34.010  40.798  1.00  0.00    -0.744 OA
ENDBRANCH  83  87
ENDBRANCH  56  80
BRANCH  68  91
ATOM     91  C   UNL A   1      44.556  28.172  35.307  1.00  0.00     0.023 A 
ATOM     92  C   UNL A   1      44.365  27.207  36.311  1.00  0.00     0.031 A 
ATOM     93  C   UNL A   1      45.877  28.515  34.965  1.00  0.00     0.131 A 
ATOM     94  C   UNL A   1      45.473  26.666  36.982  1.00  0.00     0.055 A 
ATOM     95  C   UNL A   1      46.976  27.925  35.590  1.00  0.00     0.041 A 
ATOM     96  F   UNL A   1      46.121  29.432  34.014  1.00  0.00    -0.206 F 
ATOM     97  C   UNL A   1      46.777  27.006  36.616  1.00  0.00     0.022 A 
BRANCH  94  98
ATOM     98  S   UNL A   1      45.185  25.590  38.414  1.00  0.00     0.124 S 
ATOM     99  O   UNL A   1      46.528  25.456  38.968  1.00  0.00    -0.237 OA
ATOM    100  O   UNL A   1      44.243  26.373  39.207  1.00  0.00    -0.237 OA
ATOM    101  O   UNL A   1      44.634  24.372  37.823  1.00  0.00    -0.744 OA
ENDBRANCH  94  98
ENDBRANCH  68  91
ENDBRANCH  42  43
ENDBRANCH  35  37
ENDBRANCH  34  35
ENDBRANCH  33  34
ENDBRANCH  32  33
ENDBRANCH  31  32
ENDBRANCH   1  31
TORSDOF 23
ENDMDL
MODEL 2
REMARK VINA RESULT:     -10.7      1.425      7.282
REMARK SMILES Cc1cc(N2N=C(C(=O)OCCOCCOCCOC(=O)c3ccc(-c4c5nc(c(-c6cc(S(=O)(=O)[O-])ccc6F)c6ccc([nH]6)c(-c6cc(S(=O)(=O)[O-])ccc6F)c6nc(c(-c7cc(S(=O)(=O)[O-])ccc7F)c7ccc4[nH]7)C=C6)C=C5)cc3)C[C@H]2c2ccccc2)c([N+](=O)[O-])cc1C
REMARK SMILES IDX 15 1 14 2 13 3 12 4 11 5 10 6 8 7 9 8 7 9 5 10 6 11 86 12
REMARK SMILES IDX 85 13 4 14 1 15 2 16 3 17 98 18 97 19 99 20 93 21 94 22
REMARK SMILES IDX 95 23 96 24 87 25 88 26 92 27 89 28 91 29 90 30 16 31 17 32
REMARK SMILES IDX 18 33 19 34 20 35 21 36 22 37 23 38 84 39 24 40 83 41 25 42
REMARK SMILES IDX 26 43 27 44 77 45 28 46 82 47 76 48 78 49 29 50 81 51 75 52
REMARK SMILES IDX 74 53 30 55 62 56 42 57 61 58 43 59 46 60 60 61 79 62 44 63
REMARK SMILES IDX 45 64 59 66 80 67 47 68 31 69 32 70 40 71 33 72 39 73 41 74
REMARK SMILES IDX 38 75 34 76 35 77 36 78 37 79 63 80 64 81 72 82 65 83 71 84
REMARK SMILES IDX 73 85 70 86 66 87 67 88 68 89 69 90 48 91 49 92 57 93 50 94
REMARK SMILES IDX 56 95 58 96 55 97 51 98 52 99 53 100 54 101
REMARK H PARENT 78 54 46 65
REMARK Flexibility Score: inf
ROOT
ATOM      1  C   UNL A   1      30.285  32.599  25.001  1.00  0.00     0.188 C 
ENDROOT
BRANCH   1   2
ATOM      2  C   UNL A   1      29.405  31.569  24.263  1.00  0.00     0.188 C 
BRANCH   2   3
ATOM      3  O   UNL A   1      28.329  32.026  23.446  1.00  0.00    -0.376 OA
BRANCH   3   4
ATOM      4  C   UNL A   1      28.464  31.999  22.029  1.00  0.00     0.202 C 
BRANCH   4   5
ATOM      5  C   UNL A   1      28.153  30.685  21.301  1.00  0.00     0.261 C 
BRANCH   5   6
ATOM      6  O   UNL A   1      29.147  29.675  21.524  1.00  0.00    -0.459 OA
BRANCH   6   7
ATOM      7  C   UNL A   1      28.860  28.780  22.490  1.00  0.00     0.354 C 
ATOM      8  O   UNL A   1      27.805  28.644  23.083  1.00  0.00    -0.245 OA
BRANCH   7   9
ATOM      9  C   UNL A   1      30.049  27.891  22.748  1.00  0.00     0.148 C 
ATOM     10  N   UNL A   1      31.216  26.251  23.383  1.00  0.00    -0.250 N 
ATOM     11  N   UNL A   1      29.936  26.662  23.159  1.00  0.00    -0.169 NA
ATOM     12  C   UNL A   1      32.185  27.358  23.394  1.00  0.00     0.144 C 
ATOM     13  C   UNL A   1      31.448  28.379  22.516  1.00  0.00     0.098 C 
BRANCH  10  14
ATOM     14  C   UNL A   1      31.485  24.941  23.752  1.00  0.00     0.138 A 
ATOM     15  C   UNL A   1      30.289  22.661  26.580  1.00  0.00     0.045 C 
ATOM     16  C   UNL A   1      31.014  23.099  25.337  1.00  0.00    -0.046 A 
ATOM     17  C   UNL A   1      30.763  24.387  24.825  1.00  0.00     0.039 A 
ATOM     18  C   UNL A   1      31.944  22.274  24.688  1.00  0.00    -0.041 A 
ATOM     19  C   UNL A   1      32.644  22.788  23.586  1.00  0.00     0.091 A 
ATOM     20  C   UNL A   1      32.193  20.843  25.084  1.00  0.00     0.045 C 
ATOM     21  C   UNL A   1      32.447  24.117  23.147  1.00  0.00     0.294 A 
BRANCH  21  22
ATOM     22  N   UNL A   1      33.311  24.598  22.059  1.00  0.00     0.065 N 
ATOM     23  O   UNL A   1      34.292  25.288  22.371  1.00  0.00    -0.258 OA
ATOM     24  O   UNL A   1      33.009  24.353  20.880  1.00  0.00    -0.258 OA
ENDBRANCH  21  22
ENDBRANCH  10  14
BRANCH  12  25
ATOM     25  C   UNL A   1      32.484  27.841  24.812  1.00  0.00    -0.023 A 
ATOM     26  C   UNL A   1      33.787  28.030  25.308  1.00  0.00     0.006 A 
ATOM     27  C   UNL A   1      31.411  28.148  25.667  1.00  0.00     0.006 A 
ATOM     28  C   UNL A   1      34.005  28.504  26.603  1.00  0.00     0.000 A 
ATOM     29  C   UNL A   1      31.629  28.658  26.948  1.00  0.00     0.000 A 
ATOM     30  C   UNL A   1      32.928  28.830  27.418  1.00  0.00     0.000 A 
ENDBRANCH  12  25
ENDBRANCH   7   9
ENDBRANCH   6   7
ENDBRANCH   5   6
ENDBRANCH   4   5
ENDBRANCH   3   4
ENDBRANCH   2   3
ENDBRANCH   1   2
BRANCH   1  31
ATOM     31  O   UNL A   1      31.090  32.053  26.032  1.00  0.00    -0.376 OA
BRANCH  31  32
ATOM     32  C   UNL A   1      31.433  32.947  27.083  1.00  0.00     0.202 C 
BRANCH  32  33
ATOM     33  C   UNL A   1      32.932  33.173  27.344  1.00  0.00     0.261 C 
BRANCH  33  34
ATOM     34  O   UNL A   1      33.297  34.480  27.822  1.00  0.00    -0.460 OA
BRANCH  34  35
ATOM     35  C   UNL A   1      33.442  34.630  29.160  1.00  0.00     0.338 C 
ATOM     36  O   UNL A   1      32.690  35.227  29.908  1.00  0.00    -0.246 OA
BRANCH  35  37
ATOM     37  C   UNL A   1      34.591  33.796  29.586  1.00  0.00     0.060 A 
ATOM     38  C   UNL A   1      34.369  32.739  30.472  1.00  0.00     0.016 A 
ATOM     39  C   UNL A   1      35.880  34.054  29.113  1.00  0.00     0.016 A 
ATOM     40  C   UNL A   1      35.437  31.942  30.893  1.00  0.00     0.010 A 
ATOM     41  C   UNL A   1      36.953  33.267  29.558  1.00  0.00     0.010 A 
ATOM     42  C   UNL A   1      36.741  32.216  30.468  1.00  0.00    -0.014 A 
BRANCH  42  43
ATOM     43  C   UNL A   1      37.878  31.500  31.109  1.00  0.00     0.031 A 
ATOM     44  C   UNL A   1      38.279  31.892  32.509  1.00  0.00     0.074 A 
ATOM     45  C   UNL A   1      38.506  30.480  30.492  1.00  0.00     0.049 A 
ATOM     46  N   UNL A   1      39.265  31.451  33.246  1.00  0.00    -0.248 NA
ATOM     47  C   UNL A   1      37.453  32.919  33.163  1.00  0.00     0.031 C 
ATOM     48  C   UNL A   1      38.162  29.950  29.174  1.00  0.00     0.029 A 
ATOM     49  N   UNL A   1      39.569  29.706  30.894  1.00  0.00    -0.354 N 
ATOM     50  C   UNL A   1      39.194  32.161  34.440  1.00  0.00     0.074 A 
ATOM     51  C   UNL A   1      38.075  33.070  34.324  1.00  0.00     0.031 C 
ATOM     52  C   UNL A   1      39.006  28.948  28.870  1.00  0.00     0.029 A 
ATOM     53  C   UNL A   1      39.981  28.793  29.948  1.00  0.00     0.049 A 
ATOM     54  H   UNL A   1      39.996  29.795  31.776  1.00  0.00     0.167 HD
ATOM     55  C   UNL A   1      39.992  32.065  35.532  1.00  0.00     0.034 A 
ATOM     56  C   UNL A   1      41.042  27.957  29.939  1.00  0.00     0.034 A 
ATOM     57  C   UNL A   1      41.093  31.141  35.646  1.00  0.00     0.049 A 
ATOM     58  C   UNL A   1      41.965  27.933  31.139  1.00  0.00     0.074 A 
ATOM     59  C   UNL A   1      41.937  30.940  36.726  1.00  0.00     0.029 A 
ATOM     60  N   UNL A   1      41.515  30.273  34.648  1.00  0.00    -0.354 N 
ATOM     61  N   UNL A   1      41.879  28.603  32.266  1.00  0.00    -0.248 NA
ATOM     62  C   UNL A   1      43.126  27.033  31.067  1.00  0.00     0.031 C 
ATOM     63  C   UNL A   1      42.914  30.012  36.352  1.00  0.00     0.029 A 
ATOM     64  C   UNL A   1      42.631  29.569  35.070  1.00  0.00     0.049 A 
ATOM     65  H   UNL A   1      41.083  30.173  33.768  1.00  0.00     0.167 HD
ATOM     66  C   UNL A   1      42.955  28.178  33.044  1.00  0.00     0.074 A 
ATOM     67  C   UNL A   1      43.659  27.179  32.271  1.00  0.00     0.031 C 
ATOM     68  C   UNL A   1      43.329  28.576  34.288  1.00  0.00     0.034 A 
BRANCH  55  69
ATOM     69  C   UNL A   1      39.752  33.030  36.666  1.00  0.00     0.023 A 
ATOM     70  C   UNL A   1      40.506  34.203  36.829  1.00  0.00     0.031 A 
ATOM     71  C   UNL A   1      38.726  32.769  37.593  1.00  0.00     0.131 A 
ATOM     72  C   UNL A   1      40.248  35.053  37.917  1.00  0.00     0.055 A 
ATOM     73  C   UNL A   1      38.432  33.649  38.634  1.00  0.00     0.041 A 
ATOM     74  F   UNL A   1      37.989  31.650  37.497  1.00  0.00    -0.206 F 
ATOM     75  C   UNL A   1      39.199  34.796  38.805  1.00  0.00     0.022 A 
BRANCH  72  76
ATOM     76  S   UNL A   1      41.357  36.457  38.216  1.00  0.00     0.124 S 
ATOM     77  O   UNL A   1      40.487  37.371  38.949  1.00  0.00    -0.237 OA
ATOM     78  O   UNL A   1      42.437  35.848  38.984  1.00  0.00    -0.237 OA
ATOM     79  O   UNL A   1      41.722  36.899  36.871  1.00  0.00    -0.744 OA
ENDBRANCH  72  76
ENDBRANCH  55  69
BRANCH  56  80
ATOM     80  C   UNL A   1      41.356  27.121  28.740  1.00  0.00     0.023 A 
ATOM     81  C   UNL A   1      42.366  27.488  27.835  1.00  0.00     0.031 A 
ATOM     82  C   UNL A   1      40.567  25.999  28.418  1.00  0.00     0.131 A 
ATOM     83  C   UNL A   1      42.515  26.789  26.626  1.00  0.00     0.055 A 
ATOM     84  C   UNL A   1      40.765  25.266  27.247  1.00  0.00     0.041 A 
ATOM     85  F   UNL A   1      39.576  25.609  29.235  1.00  0.00    -0.206 F 
ATOM     86  C   UNL A   1      41.731  25.672  26.332  1.00  0.00     0.022 A 
BRANCH  83  87
ATOM     87  S   UNL A   1      43.653  27.449  25.375  1.00  0.00     0.124 S 
ATOM     88  O   UNL A   1      42.731  27.869  24.326  1.00  0.00    -0.237 OA
ATOM     89  O   UNL A   1      44.321  28.520  26.107  1.00  0.00    -0.237 OA
ATOM     90  O   UNL A   1      44.496  26.303  25.043  1.00  0.00    -0.744 OA
ENDBRANCH  83  87
ENDBRANCH  56  80
BRANCH  68  91
ATOM     91  C   UNL A   1      44.524  27.887  34.902  1.00  0.00     0.023 A 
ATOM     92  C   UNL A   1      44.410  26.653  35.566  1.00  0.00     0.031 A 
ATOM     93  C   UNL A   1      45.796  28.485  34.838  1.00  0.00     0.131 A 
ATOM     94  C   UNL A   1      45.531  26.088  36.194  1.00  0.00     0.055 A 
ATOM     95  C   UNL A   1      46.921  27.886  35.407  1.00  0.00     0.041 A 
ATOM     96  F   UNL A   1      45.967  29.664  34.219  1.00  0.00    -0.206 F 
ATOM     97  C   UNL A   1      46.789  26.689  36.104  1.00  0.00     0.022 A 
BRANCH  94  98
ATOM     98  S   UNL A   1      45.304  24.611  37.223  1.00  0.00     0.124 S 
ATOM     99  O   UNL A   1      44.534  25.137  38.344  1.00  0.00    -0.237 OA
ATOM    100  O   UNL A   1      44.589  23.712  36.323  1.00  0.00    -0.237 OA
ATOM    101  O   UNL A   1      46.671  24.205  37.545  1.00  0.00    -0.744 OA
ENDBRANCH  94  98
ENDBRANCH  68  91
ENDBRANCH  42  43
ENDBRANCH  35  37
ENDBRANCH  34  35
ENDBRANCH  33  34
ENDBRANCH  32  33
ENDBRANCH  31  32
ENDBRANCH   1  31
TORSDOF 23
ENDMDL
MODEL 3
REMARK VINA RESULT:     -10.6      1.724      2.078
REMARK SMILES Cc1cc(N2N=C(C(=O)OCCOCCOCCOC(=O)c3ccc(-c4c5nc(c(-c6cc(S(=O)(=O)[O-])ccc6F)c6ccc([nH]6)c(-c6cc(S(=O)(=O)[O-])ccc6F)c6nc(c(-c7cc(S(=O)(=O)[O-])ccc7F)c7ccc4[nH]7)C=C6)C=C5)cc3)C[C@H]2c2ccccc2)c([N+](=O)[O-])cc1C
REMARK SMILES IDX 15 1 14 2 13 3 12 4 11 5 10 6 8 7 9 8 7 9 5 10 6 11 86 12
REMARK SMILES IDX 85 13 4 14 1 15 2 16 3 17 98 18 97 19 99 20 93 21 94 22
REMARK SMILES IDX 95 23 96 24 87 25 88 26 92 27 89 28 91 29 90 30 16 31 17 32
REMARK SMILES IDX 18 33 19 34 20 35 21 36 22 37 23 38 84 39 24 40 83 41 25 42
REMARK SMILES IDX 26 43 27 44 77 45 28 46 82 47 76 48 78 49 29 50 81 51 75 52
REMARK SMILES IDX 74 53 30 55 62 56 42 57 61 58 43 59 46 60 60 61 79 62 44 63
REMARK SMILES IDX 45 64 59 66 80 67 47 68 31 69 32 70 40 71 33 72 39 73 41 74
REMARK SMILES IDX 38 75 34 76 35 77 36 78 37 79 63 80 64 81 72 82 65 83 71 84
REMARK SMILES IDX 73 85 70 86 66 87 67 88 68 89 69 90 48 91 49 92 57 93 50 94
REMARK SMILES IDX 56 95 58 96 55 97 51 98 52 99 53 100 54 101
REMARK H PARENT 78 54 46 65
REMARK Flexibility Score: inf
ROOT
ATOM      1  C   UNL A   1      30.302  32.633  24.887  1.00  0.00     0.188 C 
ENDROOT
BRANCH   1   2
ATOM      2  C   UNL A   1      29.254  32.024  23.933  1.00  0.00     0.188 C 
BRANCH   2   3
ATOM      3  O   UNL A   1      28.649  32.851  22.939  1.00  0.00    -0.376 OA
BRANCH   3   4
ATOM      4  C   UNL A   1      28.341  32.302  21.663  1.00  0.00     0.202 C 
BRANCH   4   5
ATOM      5  C   UNL A   1      27.844  30.852  21.605  1.00  0.00     0.261 C 
BRANCH   5   6
ATOM      6  O   UNL A   1      28.905  29.893  21.709  1.00  0.00    -0.459 OA
BRANCH   6   7
ATOM      7  C   UNL A   1      28.691  28.882  22.575  1.00  0.00     0.354 C 
ATOM      8  O   UNL A   1      27.658  28.616  23.163  1.00  0.00    -0.245 OA
BRANCH   7   9
ATOM      9  C   UNL A   1      29.938  28.046  22.719  1.00  0.00     0.148 C 
ATOM     10  N   UNL A   1      31.211  26.413  23.129  1.00  0.00    -0.250 N 
ATOM     11  N   UNL A   1      29.906  26.766  22.949  1.00  0.00    -0.169 NA
ATOM     12  C   UNL A   1      32.102  27.570  23.311  1.00  0.00     0.144 C 
ATOM     13  C   UNL A   1      31.301  28.655  22.579  1.00  0.00     0.098 C 
BRANCH  10  14
ATOM     14  C   UNL A   1      31.567  25.085  23.310  1.00  0.00     0.138 A 
ATOM     15  C   UNL A   1      30.756  22.437  25.949  1.00  0.00     0.045 C 
ATOM     16  C   UNL A   1      31.333  23.051  24.702  1.00  0.00    -0.046 A 
ATOM     17  C   UNL A   1      30.980  24.375  24.375  1.00  0.00     0.039 A 
ATOM     18  C   UNL A   1      32.222  22.354  23.871  1.00  0.00    -0.041 A 
ATOM     19  C   UNL A   1      32.785  23.027  22.776  1.00  0.00     0.091 A 
ATOM     20  C   UNL A   1      32.566  20.901  24.067  1.00  0.00     0.045 C 
ATOM     21  C   UNL A   1      32.493  24.385  22.521  1.00  0.00     0.294 A 
BRANCH  21  22
ATOM     22  N   UNL A   1      33.221  25.032  21.419  1.00  0.00     0.065 N 
ATOM     23  O   UNL A   1      34.067  25.887  21.718  1.00  0.00    -0.258 OA
ATOM     24  O   UNL A   1      32.934  24.751  20.245  1.00  0.00    -0.258 OA
ENDBRANCH  21  22
ENDBRANCH  10  14
BRANCH  12  25
ATOM     25  C   UNL A   1      32.362  27.863  24.788  1.00  0.00    -0.023 A 
ATOM     26  C   UNL A   1      33.647  28.072  25.322  1.00  0.00     0.006 A 
ATOM     27  C   UNL A   1      31.267  27.965  25.664  1.00  0.00     0.006 A 
ATOM     28  C   UNL A   1      33.827  28.368  26.675  1.00  0.00     0.000 A 
ATOM     29  C   UNL A   1      31.445  28.299  27.008  1.00  0.00     0.000 A 
ATOM     30  C   UNL A   1      32.727  28.494  27.514  1.00  0.00     0.000 A 
ENDBRANCH  12  25
ENDBRANCH   7   9
ENDBRANCH   6   7
ENDBRANCH   5   6
ENDBRANCH   4   5
ENDBRANCH   3   4
ENDBRANCH   2   3
ENDBRANCH   1   2
BRANCH   1  31
ATOM     31  O   UNL A   1      30.933  31.695  25.742  1.00  0.00    -0.376 OA
BRANCH  31  32
ATOM     32  C   UNL A   1      31.393  32.208  26.985  1.00  0.00     0.202 C 
BRANCH  32  33
ATOM     33  C   UNL A   1      32.913  32.210  27.220  1.00  0.00     0.261 C 
BRANCH  33  34
ATOM     34  O   UNL A   1      33.546  33.501  27.230  1.00  0.00    -0.460 OA
BRANCH  34  35
ATOM     35  C   UNL A   1      33.481  34.212  28.382  1.00  0.00     0.338 C 
ATOM     36  O   UNL A   1      32.595  34.980  28.710  1.00  0.00    -0.246 OA
BRANCH  35  37
ATOM     37  C   UNL A   1      34.593  33.764  29.253  1.00  0.00     0.060 A 
ATOM     38  C   UNL A   1      35.897  34.160  28.944  1.00  0.00     0.016 A 
ATOM     39  C   UNL A   1      34.352  32.959  30.368  1.00  0.00     0.016 A 
ATOM     40  C   UNL A   1      36.964  33.746  29.747  1.00  0.00     0.010 A 
ATOM     41  C   UNL A   1      35.429  32.525  31.158  1.00  0.00     0.010 A 
ATOM     42  C   UNL A   1      36.746  32.901  30.840  1.00  0.00    -0.014 A 
BRANCH  42  43
ATOM     43  C   UNL A   1      37.916  32.294  31.532  1.00  0.00     0.031 A 
ATOM     44  C   UNL A   1      38.675  31.193  30.836  1.00  0.00     0.074 A 
ATOM     45  C   UNL A   1      38.340  32.749  32.728  1.00  0.00     0.049 A 
ATOM     46  N   UNL A   1      39.687  30.482  31.261  1.00  0.00    -0.248 NA
ATOM     47  C   UNL A   1      38.230  30.852  29.476  1.00  0.00     0.031 C 
ATOM     48  C   UNL A   1      37.746  33.861  33.468  1.00  0.00     0.029 A 
ATOM     49  N   UNL A   1      39.374  32.330  33.532  1.00  0.00    -0.354 N 
ATOM     50  C   UNL A   1      39.986  29.594  30.233  1.00  0.00     0.074 A 
ATOM     51  C   UNL A   1      39.040  29.848  29.168  1.00  0.00     0.031 C 
ATOM     52  C   UNL A   1      38.415  34.026  34.623  1.00  0.00     0.029 A 
ATOM     53  C   UNL A   1      39.455  33.005  34.730  1.00  0.00     0.049 A 
ATOM     54  H   UNL A   1      39.999  31.614  33.276  1.00  0.00     0.167 HD
ATOM     55  C   UNL A   1      40.959  28.651  30.184  1.00  0.00     0.034 A 
ATOM     56  C   UNL A   1      40.252  32.799  35.801  1.00  0.00     0.034 A 
ATOM     57  C   UNL A   1      41.909  28.418  31.244  1.00  0.00     0.049 A 
ATOM     58  C   UNL A   1      41.272  31.682  35.750  1.00  0.00     0.074 A 
ATOM     59  C   UNL A   1      42.956  27.513  31.274  1.00  0.00     0.029 A 
ATOM     60  N   UNL A   1      41.925  29.082  32.463  1.00  0.00    -0.354 N 
ATOM     61  N   UNL A   1      41.551  30.856  34.767  1.00  0.00    -0.248 NA
ATOM     62  C   UNL A   1      42.091  31.474  36.954  1.00  0.00     0.031 C 
ATOM     63  C   UNL A   1      43.552  27.573  32.537  1.00  0.00     0.029 A 
ATOM     64  C   UNL A   1      42.933  28.575  33.267  1.00  0.00     0.049 A 
ATOM     65  H   UNL A   1      41.309  29.807  32.719  1.00  0.00     0.167 HD
ATOM     66  C   UNL A   1      42.598  30.058  35.225  1.00  0.00     0.074 A 
ATOM     67  C   UNL A   1      42.916  30.515  36.560  1.00  0.00     0.031 C 
ATOM     68  C   UNL A   1      43.241  29.037  34.600  1.00  0.00     0.034 A 
BRANCH  55  69
ATOM     69  C   UNL A   1      41.003  27.748  28.977  1.00  0.00     0.023 A 
ATOM     70  C   UNL A   1      41.983  27.872  27.979  1.00  0.00     0.031 A 
ATOM     71  C   UNL A   1      40.045  26.727  28.840  1.00  0.00     0.131 A 
ATOM     72  C   UNL A   1      41.961  27.013  26.868  1.00  0.00     0.055 A 
ATOM     73  C   UNL A   1      40.066  25.836  27.767  1.00  0.00     0.041 A 
ATOM     74  F   UNL A   1      39.072  26.577  29.754  1.00  0.00    -0.206 F 
ATOM     75  C   UNL A   1      41.024  25.980  26.769  1.00  0.00     0.022 A 
BRANCH  72  76
ATOM     76  S   UNL A   1      43.115  27.315  25.502  1.00  0.00     0.124 S 
ATOM     77  O   UNL A   1      42.299  28.119  24.597  1.00  0.00    -0.237 OA
ATOM     78  O   UNL A   1      44.212  28.013  26.165  1.00  0.00    -0.237 OA
ATOM     79  O   UNL A   1      43.434  25.973  25.018  1.00  0.00    -0.744 OA
ENDBRANCH  72  76
ENDBRANCH  55  69
BRANCH  56  80
ATOM     80  C   UNL A   1      40.086  33.602  37.052  1.00  0.00     0.023 A 
ATOM     81  C   UNL A   1      40.911  34.706  37.328  1.00  0.00     0.031 A 
ATOM     82  C   UNL A   1      39.174  33.202  38.048  1.00  0.00     0.131 A 
ATOM     83  C   UNL A   1      40.858  35.325  38.588  1.00  0.00     0.055 A 
ATOM     84  C   UNL A   1      39.078  33.865  39.273  1.00  0.00     0.041 A 
ATOM     85  F   UNL A   1      38.371  32.145  37.850  1.00  0.00    -0.206 F 
ATOM     86  C   UNL A   1      39.937  34.922  39.557  1.00  0.00     0.022 A 
BRANCH  83  87
ATOM     87  S   UNL A   1      42.111  36.574  38.995  1.00  0.00     0.124 S 
ATOM     88  O   UNL A   1      42.420  37.125  37.680  1.00  0.00    -0.237 OA
ATOM     89  O   UNL A   1      41.381  37.452  39.903  1.00  0.00    -0.237 OA
ATOM     90  O   UNL A   1      43.182  35.794  39.612  1.00  0.00    -0.744 OA
ENDBRANCH  83  87
ENDBRANCH  56  80
BRANCH  68  91
ATOM     91  C   UNL A   1      44.386  28.387  35.340  1.00  0.00     0.023 A 
ATOM     92  C   UNL A   1      45.693  28.900  35.283  1.00  0.00     0.031 A 
ATOM     93  C   UNL A   1      44.167  27.224  36.101  1.00  0.00     0.131 A 
ATOM     94  C   UNL A   1      46.742  28.217  35.918  1.00  0.00     0.055 A 
ATOM     95  C   UNL A   1      45.202  26.586  36.786  1.00  0.00     0.041 A 
ATOM     96  F   UNL A   1      42.939  26.687  36.192  1.00  0.00    -0.206 F 
ATOM     97  C   UNL A   1      46.502  27.073  36.683  1.00  0.00     0.022 A 
BRANCH  94  98
ATOM     98  S   UNL A   1      48.444  28.782  35.644  1.00  0.00     0.124 S 
ATOM     99  O   UNL A   1      48.578  28.654  34.197  1.00  0.00    -0.237 OA
ATOM    100  O   UNL A   1      48.406  30.146  36.163  1.00  0.00    -0.237 OA
ATOM    101  O   UNL A   1      49.247  27.844  36.428  1.00  0.00    -0.744 OA
ENDBRANCH  94  98
ENDBRANCH  68  91
ENDBRANCH  42  43
ENDBRANCH  35  37
ENDBRANCH  34  35
ENDBRANCH  33  34
ENDBRANCH  32  33
ENDBRANCH  31  32
ENDBRANCH   1  31
TORSDOF 23
ENDMDL
