MODEL 1
REMARK VINA RESULT:     -11.4      0.000      0.000
REMARK SMILES O=C(OCCOCCOCCOC(=O)[C@]1(C2CCCC2)CCOc2ccccc21)c1ccc(-c2c3nc(c(-c4cc(S(=O)(=O)[O-])ccc4F)c4ccc([nH]4)c(-c4cc(S(=O)(=O)[O-])ccc4F)c4nc(c(-c5cc(S(=O)(=O)[O-])ccc5F)c5ccc2[nH]5)C=C4)C=C3)cc1
REMARK SMILES IDX 7 1 6 2 5 3 4 4 3 5 2 6 1 7 30 8 31 9 92 10 32 11 91 12
REMARK SMILES IDX 33 13 34 14 35 15 85 16 36 17 90 18 84 19 86 20 37 21 89 22
REMARK SMILES IDX 83 23 82 24 38 26 70 27 50 28 69 29 51 30 54 31 68 32 87 33
REMARK SMILES IDX 52 34 53 35 67 37 88 38 55 39 39 40 40 41 48 42 41 43 47 44
REMARK SMILES IDX 49 45 46 46 42 47 43 48 44 49 45 50 71 51 72 52 80 53 73 54
REMARK SMILES IDX 79 55 81 56 78 57 74 58 75 59 76 60 77 61 56 62 57 63 65 64
REMARK SMILES IDX 58 65 64 66 66 67 63 68 59 69 60 70 61 71 62 72 8 73 9 74
REMARK SMILES IDX 10 75 11 76 12 77 13 78 14 79 15 80 21 81 29 82 22 83 24 84
REMARK SMILES IDX 28 85 23 86 25 87 27 88 26 89 16 90 17 91 20 92 18 93 19 94
REMARK H PARENT 86 25 54 36
REMARK Flexibility Score: inf
ROOT
ATOM      1  C   UNL A   1      39.661  20.248  25.947  1.00  0.00     0.188 C 
ENDROOT
BRANCH   1   2
ATOM      2  O   UNL A   1      40.624  21.111  26.563  1.00  0.00    -0.376 OA
BRANCH   2   3
ATOM      3  C   UNL A   1      41.912  20.511  26.721  1.00  0.00     0.202 C 
BRANCH   3   4
ATOM      4  C   UNL A   1      42.979  20.999  25.722  1.00  0.00     0.261 C 
BRANCH   4   5
ATOM      5  O   UNL A   1      42.636  22.237  25.065  1.00  0.00    -0.460 OA
BRANCH   5   6
ATOM      6  C   UNL A   1      43.266  23.431  25.066  1.00  0.00     0.338 C 
ATOM      7  O   UNL A   1      44.178  23.629  24.266  1.00  0.00    -0.246 OA
BRANCH   6   8
ATOM      8  C   UNL A   1      42.961  24.492  26.064  1.00  0.00     0.060 A 
ATOM      9  C   UNL A   1      43.462  25.790  26.007  1.00  0.00     0.016 A 
ATOM     10  C   UNL A   1      41.992  24.211  27.029  1.00  0.00     0.016 A 
ATOM     11  C   UNL A   1      43.096  26.775  26.922  1.00  0.00     0.010 A 
ATOM     12  C   UNL A   1      41.539  25.225  27.879  1.00  0.00     0.010 A 
ATOM     13  C   UNL A   1      42.105  26.519  27.856  1.00  0.00    -0.014 A 
BRANCH  13  14
ATOM     14  C   UNL A   1      41.703  27.525  28.878  1.00  0.00     0.031 A 
ATOM     15  C   UNL A   1      42.381  27.436  30.214  1.00  0.00     0.074 A 
ATOM     16  C   UNL A   1      40.754  28.467  28.676  1.00  0.00     0.049 A 
ATOM     17  N   UNL A   1      42.018  27.912  31.372  1.00  0.00    -0.248 NA
ATOM     18  C   UNL A   1      43.634  26.661  30.240  1.00  0.00     0.031 C 
ATOM     19  C   UNL A   1      40.104  28.793  27.408  1.00  0.00     0.029 A 
ATOM     20  N   UNL A   1      40.108  29.282  29.581  1.00  0.00    -0.354 N 
ATOM     21  C   UNL A   1      43.005  27.499  32.255  1.00  0.00     0.074 A 
ATOM     22  C   UNL A   1      43.870  26.591  31.537  1.00  0.00     0.031 C 
ATOM     23  C   UNL A   1      39.077  29.631  27.633  1.00  0.00     0.029 A 
ATOM     24  C   UNL A   1      38.969  29.864  29.059  1.00  0.00     0.049 A 
ATOM     25  H   UNL A   1      40.424  29.432  30.502  1.00  0.00     0.167 HD
ATOM     26  C   UNL A   1      43.234  27.921  33.521  1.00  0.00     0.034 A 
ATOM     27  C   UNL A   1      37.919  30.445  29.674  1.00  0.00     0.034 A 
ATOM     28  C   UNL A   1      42.388  28.864  34.193  1.00  0.00     0.049 A 
ATOM     29  C   UNL A   1      38.019  30.689  31.152  1.00  0.00     0.074 A 
ATOM     30  C   UNL A   1      42.537  29.426  35.446  1.00  0.00     0.029 A 
ATOM     31  N   UNL A   1      41.219  29.388  33.653  1.00  0.00    -0.354 N 
ATOM     32  N   UNL A   1      38.966  30.323  31.982  1.00  0.00    -0.248 NA
ATOM     33  C   UNL A   1      36.950  31.489  31.759  1.00  0.00     0.031 C 
ATOM     34  C   UNL A   1      41.427  30.245  35.686  1.00  0.00     0.029 A 
ATOM     35  C   UNL A   1      40.619  30.244  34.559  1.00  0.00     0.049 A 
ATOM     36  H   UNL A   1      40.869  29.180  32.756  1.00  0.00     0.167 HD
ATOM     37  C   UNL A   1      38.664  30.941  33.187  1.00  0.00     0.074 A 
ATOM     38  C   UNL A   1      37.416  31.652  32.989  1.00  0.00     0.031 C 
ATOM     39  C   UNL A   1      39.387  30.962  34.334  1.00  0.00     0.034 A 
BRANCH  26  40
ATOM     40  C   UNL A   1      44.460  27.363  34.198  1.00  0.00     0.023 A 
ATOM     41  C   UNL A   1      44.363  26.263  35.072  1.00  0.00     0.031 A 
ATOM     42  C   UNL A   1      45.700  28.008  34.084  1.00  0.00     0.131 A 
ATOM     43  C   UNL A   1      45.442  25.931  35.901  1.00  0.00     0.055 A 
ATOM     44  C   UNL A   1      46.805  27.601  34.836  1.00  0.00     0.041 A 
ATOM     45  F   UNL A   1      45.848  29.074  33.283  1.00  0.00    -0.206 F 
ATOM     46  C   UNL A   1      46.673  26.576  35.771  1.00  0.00     0.022 A 
BRANCH  43  47
ATOM     47  S   UNL A   1      45.141  24.800  37.289  1.00  0.00     0.124 S 
ATOM     48  O   UNL A   1      43.810  25.219  37.724  1.00  0.00    -0.237 OA
ATOM     49  O   UNL A   1      45.221  23.489  36.654  1.00  0.00    -0.237 OA
ATOM     50  O   UNL A   1      46.221  25.110  38.222  1.00  0.00    -0.744 OA
ENDBRANCH  43  47
ENDBRANCH  26  40
BRANCH  27  51
ATOM     51  C   UNL A   1      36.668  30.793  28.940  1.00  0.00     0.023 A 
ATOM     52  C   UNL A   1      36.113  32.078  28.999  1.00  0.00     0.031 A 
ATOM     53  C   UNL A   1      35.943  29.791  28.269  1.00  0.00     0.131 A 
ATOM     54  C   UNL A   1      34.847  32.319  28.434  1.00  0.00     0.055 A 
ATOM     55  C   UNL A   1      34.712  30.049  27.660  1.00  0.00     0.041 A 
ATOM     56  F   UNL A   1      36.400  28.530  28.237  1.00  0.00    -0.206 F 
ATOM     57  C   UNL A   1      34.151  31.319  27.751  1.00  0.00     0.022 A 
BRANCH  54  58
ATOM     58  S   UNL A   1      34.068  33.935  28.708  1.00  0.00     0.124 S 
ATOM     59  O   UNL A   1      35.131  34.849  28.308  1.00  0.00    -0.237 OA
ATOM     60  O   UNL A   1      32.911  33.867  27.822  1.00  0.00    -0.237 OA
ATOM     61  O   UNL A   1      33.756  33.926  30.136  1.00  0.00    -0.744 OA
ENDBRANCH  54  58
ENDBRANCH  27  51
BRANCH  39  62
ATOM     62  C   UNL A   1      38.907  31.882  35.420  1.00  0.00     0.023 A 
ATOM     63  C   UNL A   1      38.292  31.401  36.584  1.00  0.00     0.031 A 
ATOM     64  C   UNL A   1      39.079  33.270  35.275  1.00  0.00     0.131 A 
ATOM     65  C   UNL A   1      37.830  32.309  37.546  1.00  0.00     0.055 A 
ATOM     66  C   UNL A   1      38.680  34.164  36.266  1.00  0.00     0.041 A 
ATOM     67  F   UNL A   1      39.651  33.778  34.172  1.00  0.00    -0.206 F 
ATOM     68  C   UNL A   1      38.043  33.683  37.407  1.00  0.00     0.022 A 
BRANCH  65  69
ATOM     69  S   UNL A   1      36.881  31.671  38.950  1.00  0.00     0.124 S 
ATOM     70  O   UNL A   1      36.508  30.340  38.481  1.00  0.00    -0.237 OA
ATOM     71  O   UNL A   1      37.858  31.713  40.034  1.00  0.00    -0.237 OA
ATOM     72  O   UNL A   1      35.777  32.619  39.076  1.00  0.00    -0.744 OA
ENDBRANCH  65  69
ENDBRANCH  39  62
ENDBRANCH  13  14
ENDBRANCH   6   8
ENDBRANCH   5   6
ENDBRANCH   4   5
ENDBRANCH   3   4
ENDBRANCH   2   3
ENDBRANCH   1   2
BRANCH   1  73
ATOM     73  C   UNL A   1      38.536  21.038  25.279  1.00  0.00     0.188 C 
BRANCH  73  74
ATOM     74  O   UNL A   1      37.719  21.885  26.083  1.00  0.00    -0.376 OA
BRANCH  74  75
ATOM     75  C   UNL A   1      37.548  23.237  25.689  1.00  0.00     0.202 C 
BRANCH  75  76
ATOM     76  C   UNL A   1      36.108  23.765  25.533  1.00  0.00     0.261 C 
BRANCH  76  77
ATOM     77  O   UNL A   1      35.613  23.928  24.187  1.00  0.00    -0.463 OA
BRANCH  77  78
ATOM     78  C   UNL A   1      34.313  23.550  24.064  1.00  0.00     0.317 C 
ATOM     79  O   UNL A   1      33.953  22.389  24.260  1.00  0.00    -0.251 OA
BRANCH  78  80
ATOM     80  C   UNL A   1      33.348  24.589  23.466  1.00  0.00     0.102 C 
ATOM     81  C   UNL A   1      33.269  24.080  22.006  1.00  0.00     0.065 C 
ATOM     82  C   UNL A   1      33.727  26.079  23.469  1.00  0.00     0.012 A 
ATOM     83  C   UNL A   1      32.708  25.061  21.009  1.00  0.00     0.231 C 
ATOM     84  C   UNL A   1      33.518  26.845  22.311  1.00  0.00     0.123 A 
ATOM     85  C   UNL A   1      33.929  26.780  24.674  1.00  0.00     0.009 A 
ATOM     86  O   UNL A   1      33.343  26.320  21.065  1.00  0.00    -0.493 OA
ATOM     87  C   UNL A   1      33.477  28.242  22.353  1.00  0.00     0.047 A 
ATOM     88  C   UNL A   1      33.802  28.173  24.723  1.00  0.00     0.001 A 
ATOM     89  C   UNL A   1      33.583  28.908  23.563  1.00  0.00     0.004 A 
BRANCH  80  90
ATOM     90  C   UNL A   1      32.019  24.549  24.312  1.00  0.00     0.011 C 
ATOM     91  C   UNL A   1      32.174  24.620  25.840  1.00  0.00     0.005 C 
ATOM     92  C   UNL A   1      30.941  25.605  24.065  1.00  0.00     0.005 C 
ATOM     93  C   UNL A   1      30.740  24.685  26.330  1.00  0.00     0.000 C 
ATOM     94  C   UNL A   1      30.006  25.504  25.274  1.00  0.00     0.000 C 
ENDBRANCH  80  90
ENDBRANCH  78  80
ENDBRANCH  77  78
ENDBRANCH  76  77
ENDBRANCH  75  76
ENDBRANCH  74  75
ENDBRANCH  73  74
ENDBRANCH   1  73
TORSDOF 21
ENDMDL
MODEL 2
REMARK VINA RESULT:     -11.1      2.912      8.960
REMARK SMILES O=C(OCCOCCOCCOC(=O)[C@]1(C2CCCC2)CCOc2ccccc21)c1ccc(-c2c3nc(c(-c4cc(S(=O)(=O)[O-])ccc4F)c4ccc([nH]4)c(-c4cc(S(=O)(=O)[O-])ccc4F)c4nc(c(-c5cc(S(=O)(=O)[O-])ccc5F)c5ccc2[nH]5)C=C4)C=C3)cc1
REMARK SMILES IDX 7 1 6 2 5 3 4 4 3 5 2 6 1 7 30 8 31 9 92 10 32 11 91 12
REMARK SMILES IDX 33 13 34 14 35 15 85 16 36 17 90 18 84 19 86 20 37 21 89 22
REMARK SMILES IDX 83 23 82 24 38 26 70 27 50 28 69 29 51 30 54 31 68 32 87 33
REMARK SMILES IDX 52 34 53 35 67 37 88 38 55 39 39 40 40 41 48 42 41 43 47 44
REMARK SMILES IDX 49 45 46 46 42 47 43 48 44 49 45 50 71 51 72 52 80 53 73 54
REMARK SMILES IDX 79 55 81 56 78 57 74 58 75 59 76 60 77 61 56 62 57 63 65 64
REMARK SMILES IDX 58 65 64 66 66 67 63 68 59 69 60 70 61 71 62 72 8 73 9 74
REMARK SMILES IDX 10 75 11 76 12 77 13 78 14 79 15 80 21 81 29 82 22 83 24 84
REMARK SMILES IDX 28 85 23 86 25 87 27 88 26 89 16 90 17 91 20 92 18 93 19 94
REMARK H PARENT 86 25 54 36
REMARK Flexibility Score: inf
ROOT
ATOM      1  C   UNL A   1      31.487  29.474  25.158  1.00  0.00     0.188 C 
ENDROOT
BRANCH   1   2
ATOM      2  O   UNL A   1      31.251  30.845  25.504  1.00  0.00    -0.376 OA
BRANCH   2   3
ATOM      3  C   UNL A   1      31.994  31.283  26.644  1.00  0.00     0.202 C 
BRANCH   3   4
ATOM      4  C   UNL A   1      31.667  32.712  27.118  1.00  0.00     0.261 C 
BRANCH   4   5
ATOM      5  O   UNL A   1      32.831  33.542  27.311  1.00  0.00    -0.460 OA
BRANCH   5   6
ATOM      6  C   UNL A   1      33.270  34.192  28.411  1.00  0.00     0.338 C 
ATOM      7  O   UNL A   1      32.728  35.244  28.741  1.00  0.00    -0.246 OA
BRANCH   6   8
ATOM      8  C   UNL A   1      34.450  33.731  29.191  1.00  0.00     0.060 A 
ATOM      9  C   UNL A   1      34.407  32.732  30.161  1.00  0.00     0.016 A 
ATOM     10  C   UNL A   1      35.702  34.222  28.818  1.00  0.00     0.016 A 
ATOM     11  C   UNL A   1      35.549  32.280  30.820  1.00  0.00     0.010 A 
ATOM     12  C   UNL A   1      36.860  33.693  29.396  1.00  0.00     0.010 A 
ATOM     13  C   UNL A   1      36.799  32.729  30.428  1.00  0.00    -0.014 A 
BRANCH  13  14
ATOM     14  C   UNL A   1      38.046  32.303  31.123  1.00  0.00     0.031 A 
ATOM     15  C   UNL A   1      38.705  31.053  30.617  1.00  0.00     0.074 A 
ATOM     16  C   UNL A   1      38.578  32.953  32.182  1.00  0.00     0.049 A 
ATOM     17  N   UNL A   1      39.559  30.260  31.202  1.00  0.00    -0.248 NA
ATOM     18  C   UNL A   1      38.303  30.624  29.266  1.00  0.00     0.031 C 
ATOM     19  C   UNL A   1      38.162  34.251  32.709  1.00  0.00     0.029 A 
ATOM     20  N   UNL A   1      39.556  32.551  33.068  1.00  0.00    -0.354 N 
ATOM     21  C   UNL A   1      39.798  29.250  30.281  1.00  0.00     0.074 A 
ATOM     22  C   UNL A   1      38.868  29.434  29.191  1.00  0.00     0.031 C 
ATOM     23  C   UNL A   1      38.777  34.478  33.882  1.00  0.00     0.029 A 
ATOM     24  C   UNL A   1      39.593  33.325  34.212  1.00  0.00     0.049 A 
ATOM     25  H   UNL A   1      40.162  31.793  32.903  1.00  0.00     0.167 HD
ATOM     26  C   UNL A   1      40.777  28.314  30.291  1.00  0.00     0.034 A 
ATOM     27  C   UNL A   1      40.153  33.088  35.414  1.00  0.00     0.034 A 
ATOM     28  C   UNL A   1      41.721  28.186  31.364  1.00  0.00     0.049 A 
ATOM     29  C   UNL A   1      41.044  31.888  35.549  1.00  0.00     0.074 A 
ATOM     30  C   UNL A   1      42.799  27.330  31.475  1.00  0.00     0.029 A 
ATOM     31  N   UNL A   1      41.693  28.951  32.525  1.00  0.00    -0.354 N 
ATOM     32  N   UNL A   1      41.292  30.948  34.668  1.00  0.00    -0.248 NA
ATOM     33  C   UNL A   1      41.788  31.759  36.806  1.00  0.00     0.031 C 
ATOM     34  C   UNL A   1      43.387  27.537  32.728  1.00  0.00     0.029 A 
ATOM     35  C   UNL A   1      42.716  28.565  33.373  1.00  0.00     0.049 A 
ATOM     36  H   UNL A   1      41.040  29.662  32.716  1.00  0.00     0.167 HD
ATOM     37  C   UNL A   1      42.304  30.177  35.223  1.00  0.00     0.074 A 
ATOM     38  C   UNL A   1      42.575  30.728  36.536  1.00  0.00     0.031 C 
ATOM     39  C   UNL A   1      42.984  29.143  34.668  1.00  0.00     0.034 A 
BRANCH  26  40
ATOM     40  C   UNL A   1      40.849  27.410  29.088  1.00  0.00     0.023 A 
ATOM     41  C   UNL A   1      41.820  27.616  28.088  1.00  0.00     0.031 A 
ATOM     42  C   UNL A   1      39.870  26.431  28.865  1.00  0.00     0.131 A 
ATOM     43  C   UNL A   1      41.706  26.958  26.857  1.00  0.00     0.055 A 
ATOM     44  C   UNL A   1      39.829  25.699  27.675  1.00  0.00     0.041 A 
ATOM     45  F   UNL A   1      38.908  26.204  29.772  1.00  0.00    -0.206 F 
ATOM     46  C   UNL A   1      40.732  25.980  26.652  1.00  0.00     0.022 A 
BRANCH  43  47
ATOM     47  S   UNL A   1      42.711  27.558  25.469  1.00  0.00     0.124 S 
ATOM     48  O   UNL A   1      42.787  26.366  24.627  1.00  0.00    -0.237 OA
ATOM     49  O   UNL A   1      41.908  28.657  24.947  1.00  0.00    -0.237 OA
ATOM     50  O   UNL A   1      43.969  27.947  26.102  1.00  0.00    -0.744 OA
ENDBRANCH  43  47
ENDBRANCH  26  40
BRANCH  27  51
ATOM     51  C   UNL A   1      39.868  33.946  36.600  1.00  0.00     0.023 A 
ATOM     52  C   UNL A   1      40.780  34.912  37.047  1.00  0.00     0.031 A 
ATOM     53  C   UNL A   1      38.720  33.713  37.380  1.00  0.00     0.131 A 
ATOM     54  C   UNL A   1      40.551  35.579  38.264  1.00  0.00     0.055 A 
ATOM     55  C   UNL A   1      38.469  34.420  38.558  1.00  0.00     0.041 A 
ATOM     56  F   UNL A   1      37.846  32.757  37.029  1.00  0.00    -0.206 F 
ATOM     57  C   UNL A   1      39.394  35.352  39.014  1.00  0.00     0.022 A 
BRANCH  54  58
ATOM     58  S   UNL A   1      41.850  36.667  38.916  1.00  0.00     0.124 S 
ATOM     59  O   UNL A   1      42.427  37.206  37.690  1.00  0.00    -0.237 OA
ATOM     60  O   UNL A   1      41.081  37.602  39.730  1.00  0.00    -0.237 OA
ATOM     61  O   UNL A   1      42.714  35.756  39.666  1.00  0.00    -0.744 OA
ENDBRANCH  54  58
ENDBRANCH  27  51
BRANCH  39  62
ATOM     62  C   UNL A   1      44.168  28.623  35.432  1.00  0.00     0.023 A 
ATOM     63  C   UNL A   1      44.054  27.579  36.361  1.00  0.00     0.031 A 
ATOM     64  C   UNL A   1      45.435  29.193  35.214  1.00  0.00     0.131 A 
ATOM     65  C   UNL A   1      45.187  27.161  37.071  1.00  0.00     0.055 A 
ATOM     66  C   UNL A   1      46.570  28.728  35.873  1.00  0.00     0.041 A 
ATOM     67  F   UNL A   1      45.591  30.204  34.343  1.00  0.00    -0.206 F 
ATOM     68  C   UNL A   1      46.447  27.711  36.816  1.00  0.00     0.022 A 
BRANCH  65  69
ATOM     69  S   UNL A   1      44.977  25.938  38.390  1.00  0.00     0.124 S 
ATOM     70  O   UNL A   1      46.210  26.104  39.153  1.00  0.00    -0.237 OA
ATOM     71  O   UNL A   1      43.755  26.392  39.047  1.00  0.00    -0.237 OA
ATOM     72  O   UNL A   1      44.858  24.674  37.667  1.00  0.00    -0.744 OA
ENDBRANCH  65  69
ENDBRANCH  39  62
ENDBRANCH  13  14
ENDBRANCH   6   8
ENDBRANCH   5   6
ENDBRANCH   4   5
ENDBRANCH   3   4
ENDBRANCH   2   3
ENDBRANCH   1   2
BRANCH   1  73
ATOM     73  C   UNL A   1      30.872  29.117  23.806  1.00  0.00     0.188 C 
BRANCH  73  74
ATOM     74  O   UNL A   1      30.855  27.751  23.397  1.00  0.00    -0.376 OA
BRANCH  74  75
ATOM     75  C   UNL A   1      31.902  27.278  22.565  1.00  0.00     0.202 C 
BRANCH  75  76
ATOM     76  C   UNL A   1      31.711  25.912  21.876  1.00  0.00     0.261 C 
BRANCH  76  77
ATOM     77  O   UNL A   1      31.707  24.745  22.726  1.00  0.00    -0.463 OA
BRANCH  77  78
ATOM     78  C   UNL A   1      32.809  23.970  22.548  1.00  0.00     0.317 C 
ATOM     79  O   UNL A   1      33.268  23.743  21.429  1.00  0.00    -0.251 OA
BRANCH  78  80
ATOM     80  C   UNL A   1      33.331  23.220  23.786  1.00  0.00     0.102 C 
ATOM     81  C   UNL A   1      32.367  23.770  24.865  1.00  0.00     0.065 C 
ATOM     82  C   UNL A   1      34.784  23.418  24.247  1.00  0.00     0.012 A 
ATOM     83  C   UNL A   1      32.801  23.551  26.292  1.00  0.00     0.231 C 
ATOM     84  C   UNL A   1      35.053  23.606  25.613  1.00  0.00     0.123 A 
ATOM     85  C   UNL A   1      35.868  23.062  23.423  1.00  0.00     0.009 A 
ATOM     86  O   UNL A   1      34.122  23.987  26.533  1.00  0.00    -0.493 OA
ATOM     87  C   UNL A   1      36.333  23.415  26.141  1.00  0.00     0.047 A 
ATOM     88  C   UNL A   1      37.128  22.790  23.972  1.00  0.00     0.001 A 
ATOM     89  C   UNL A   1      37.365  22.971  25.330  1.00  0.00     0.004 A 
BRANCH  80  90
ATOM     90  C   UNL A   1      33.255  21.677  23.476  1.00  0.00     0.011 C 
ATOM     91  C   UNL A   1      33.107  20.739  24.685  1.00  0.00     0.005 C 
ATOM     92  C   UNL A   1      32.160  21.151  22.547  1.00  0.00     0.005 C 
ATOM     93  C   UNL A   1      32.941  19.374  24.046  1.00  0.00     0.000 C 
ATOM     94  C   UNL A   1      32.145  19.636  22.773  1.00  0.00     0.000 C 
ENDBRANCH  80  90
ENDBRANCH  78  80
ENDBRANCH  77  78
ENDBRANCH  76  77
ENDBRANCH  75  76
ENDBRANCH  74  75
ENDBRANCH  73  74
ENDBRANCH   1  73
TORSDOF 21
ENDMDL
MODEL 3
REMARK VINA RESULT:     -10.9      2.175      8.753
REMARK SMILES O=C(OCCOCCOCCOC(=O)[C@]1(C2CCCC2)CCOc2ccccc21)c1ccc(-c2c3nc(c(-c4cc(S(=O)(=O)[O-])ccc4F)c4ccc([nH]4)c(-c4cc(S(=O)(=O)[O-])ccc4F)c4nc(c(-c5cc(S(=O)(=O)[O-])ccc5F)c5ccc2[nH]5)C=C4)C=C3)cc1
REMARK SMILES IDX 7 1 6 2 5 3 4 4 3 5 2 6 1 7 30 8 31 9 92 10 32 11 91 12
REMARK SMILES IDX 33 13 34 14 35 15 85 16 36 17 90 18 84 19 86 20 37 21 89 22
REMARK SMILES IDX 83 23 82 24 38 26 70 27 50 28 69 29 51 30 54 31 68 32 87 33
REMARK SMILES IDX 52 34 53 35 67 37 88 38 55 39 39 40 40 41 48 42 41 43 47 44
REMARK SMILES IDX 49 45 46 46 42 47 43 48 44 49 45 50 71 51 72 52 80 53 73 54
REMARK SMILES IDX 79 55 81 56 78 57 74 58 75 59 76 60 77 61 56 62 57 63 65 64
REMARK SMILES IDX 58 65 64 66 66 67 63 68 59 69 60 70 61 71 62 72 8 73 9 74
REMARK SMILES IDX 10 75 11 76 12 77 13 78 14 79 15 80 21 81 29 82 22 83 24 84
REMARK SMILES IDX 28 85 23 86 25 87 27 88 26 89 16 90 17 91 20 92 18 93 19 94
REMARK H PARENT 86 25 54 36
REMARK Flexibility Score: inf
ROOT
ATOM      1  C   UNL A   1      33.097  29.776  26.331  1.00  0.00     0.188 C 
ENDROOT
BRANCH   1   2
ATOM      2  O   UNL A   1      33.069  31.035  27.013  1.00  0.00    -0.376 OA
BRANCH   2   3
ATOM      3  C   UNL A   1      31.839  31.746  26.851  1.00  0.00     0.202 C 
BRANCH   3   4
ATOM      4  C   UNL A   1      31.979  33.280  26.822  1.00  0.00     0.261 C 
BRANCH   4   5
ATOM      5  O   UNL A   1      32.683  33.821  27.960  1.00  0.00    -0.460 OA
BRANCH   5   6
ATOM      6  C   UNL A   1      33.964  34.231  28.081  1.00  0.00     0.338 C 
ATOM      7  O   UNL A   1      34.278  35.346  27.670  1.00  0.00    -0.246 OA
BRANCH   6   8
ATOM      8  C   UNL A   1      35.036  33.347  28.613  1.00  0.00     0.060 A 
ATOM      9  C   UNL A   1      36.390  33.494  28.320  1.00  0.00     0.016 A 
ATOM     10  C   UNL A   1      34.678  32.410  29.583  1.00  0.00     0.016 A 
ATOM     11  C   UNL A   1      37.371  32.688  28.894  1.00  0.00     0.010 A 
ATOM     12  C   UNL A   1      35.669  31.676  30.243  1.00  0.00     0.010 A 
ATOM     13  C   UNL A   1      37.032  31.786  29.889  1.00  0.00    -0.014 A 
BRANCH  13  14
ATOM     14  C   UNL A   1      38.037  30.877  30.509  1.00  0.00     0.031 A 
ATOM     15  C   UNL A   1      38.553  31.268  31.862  1.00  0.00     0.074 A 
ATOM     16  C   UNL A   1      38.521  29.766  29.909  1.00  0.00     0.049 A 
ATOM     17  N   UNL A   1      39.639  30.902  32.484  1.00  0.00    -0.248 NA
ATOM     18  C   UNL A   1      37.731  32.244  32.599  1.00  0.00     0.031 C 
ATOM     19  C   UNL A   1      38.032  29.159  28.672  1.00  0.00     0.029 A 
ATOM     20  N   UNL A   1      39.610  28.986  30.235  1.00  0.00    -0.354 N 
ATOM     21  C   UNL A   1      39.618  31.600  33.683  1.00  0.00     0.074 A 
ATOM     22  C   UNL A   1      38.519  32.535  33.617  1.00  0.00     0.031 C 
ATOM     23  C   UNL A   1      38.882  28.195  28.279  1.00  0.00     0.029 A 
ATOM     24  C   UNL A   1      39.995  28.148  29.206  1.00  0.00     0.049 A 
ATOM     25  H   UNL A   1      40.065  29.023  31.108  1.00  0.00     0.167 HD
ATOM     26  C   UNL A   1      40.380  31.404  34.785  1.00  0.00     0.034 A 
ATOM     27  C   UNL A   1      41.151  27.486  29.000  1.00  0.00     0.034 A 
ATOM     28  C   UNL A   1      41.434  30.432  34.842  1.00  0.00     0.049 A 
ATOM     29  C   UNL A   1      42.159  27.470  30.112  1.00  0.00     0.074 A 
ATOM     30  C   UNL A   1      42.239  30.084  35.909  1.00  0.00     0.029 A 
ATOM     31  N   UNL A   1      41.827  29.643  33.767  1.00  0.00    -0.354 N 
ATOM     32  N   UNL A   1      42.125  28.108  31.258  1.00  0.00    -0.248 NA
ATOM     33  C   UNL A   1      43.318  26.590  29.936  1.00  0.00     0.031 C 
ATOM     34  C   UNL A   1      43.157  29.127  35.463  1.00  0.00     0.029 A 
ATOM     35  C   UNL A   1      42.885  28.831  34.136  1.00  0.00     0.049 A 
ATOM     36  H   UNL A   1      41.413  29.660  32.874  1.00  0.00     0.167 HD
ATOM     37  C   UNL A   1      43.202  27.621  31.986  1.00  0.00     0.074 A 
ATOM     38  C   UNL A   1      43.897  26.683  31.124  1.00  0.00     0.031 C 
ATOM     39  C   UNL A   1      43.548  27.886  33.270  1.00  0.00     0.034 A 
BRANCH  26  40
ATOM     40  C   UNL A   1      40.049  32.255  35.985  1.00  0.00     0.023 A 
ATOM     41  C   UNL A   1      39.088  31.834  36.924  1.00  0.00     0.031 A 
ATOM     42  C   UNL A   1      40.587  33.543  36.123  1.00  0.00     0.131 A 
ATOM     43  C   UNL A   1      38.591  32.740  37.870  1.00  0.00     0.055 A 
ATOM     44  C   UNL A   1      40.164  34.404  37.138  1.00  0.00     0.041 A 
ATOM     45  F   UNL A   1      41.491  34.006  35.247  1.00  0.00    -0.206 F 
ATOM     46  C   UNL A   1      39.141  34.016  38.001  1.00  0.00     0.022 A 
BRANCH  43  47
ATOM     47  S   UNL A   1      37.078  32.296  38.768  1.00  0.00     0.124 S 
ATOM     48  O   UNL A   1      36.067  33.048  38.029  1.00  0.00    -0.237 OA
ATOM     49  O   UNL A   1      37.031  30.846  38.616  1.00  0.00    -0.237 OA
ATOM     50  O   UNL A   1      37.334  32.774  40.125  1.00  0.00    -0.744 OA
ENDBRANCH  43  47
ENDBRANCH  26  40
BRANCH  27  51
ATOM     51  C   UNL A   1      41.461  26.827  27.698  1.00  0.00     0.023 A 
ATOM     52  C   UNL A   1      41.430  25.433  27.552  1.00  0.00     0.031 A 
ATOM     53  C   UNL A   1      41.920  27.594  26.612  1.00  0.00     0.131 A 
ATOM     54  C   UNL A   1      41.893  24.846  26.360  1.00  0.00     0.055 A 
ATOM     55  C   UNL A   1      42.325  27.009  25.410  1.00  0.00     0.041 A 
ATOM     56  F   UNL A   1      42.028  28.928  26.722  1.00  0.00    -0.206 F 
ATOM     57  C   UNL A   1      42.325  25.624  25.283  1.00  0.00     0.022 A 
BRANCH  54  58
ATOM     58  S   UNL A   1      42.035  23.038  26.282  1.00  0.00     0.124 S 
ATOM     59  O   UNL A   1      42.870  22.756  27.444  1.00  0.00    -0.237 OA
ATOM     60  O   UNL A   1      40.640  22.621  26.377  1.00  0.00    -0.237 OA
ATOM     61  O   UNL A   1      42.667  22.800  24.986  1.00  0.00    -0.744 OA
ENDBRANCH  54  58
ENDBRANCH  27  51
BRANCH  39  62
ATOM     62  C   UNL A   1      44.653  27.057  33.858  1.00  0.00     0.023 A 
ATOM     63  C   UNL A   1      44.427  25.773  34.374  1.00  0.00     0.031 A 
ATOM     64  C   UNL A   1      45.961  27.574  33.894  1.00  0.00     0.131 A 
ATOM     65  C   UNL A   1      45.490  25.061  34.945  1.00  0.00     0.055 A 
ATOM     66  C   UNL A   1      47.027  26.834  34.400  1.00  0.00     0.041 A 
ATOM     67  F   UNL A   1      46.224  28.804  33.423  1.00  0.00    -0.206 F 
ATOM     68  C   UNL A   1      46.791  25.572  34.938  1.00  0.00     0.022 A 
BRANCH  65  69
ATOM     69  S   UNL A   1      45.133  23.485  35.763  1.00  0.00     0.124 S 
ATOM     70  O   UNL A   1      45.955  23.579  36.966  1.00  0.00    -0.237 OA
ATOM     71  O   UNL A   1      43.691  23.559  35.970  1.00  0.00    -0.237 OA
ATOM     72  O   UNL A   1      45.569  22.488  34.789  1.00  0.00    -0.744 OA
ENDBRANCH  65  69
ENDBRANCH  39  62
ENDBRANCH  13  14
ENDBRANCH   6   8
ENDBRANCH   5   6
ENDBRANCH   4   5
ENDBRANCH   3   4
ENDBRANCH   2   3
ENDBRANCH   1   2
BRANCH   1  73
ATOM     73  C   UNL A   1      32.716  28.620  27.256  1.00  0.00     0.188 C 
BRANCH  73  74
ATOM     74  O   UNL A   1      31.357  28.193  27.299  1.00  0.00    -0.376 OA
BRANCH  74  75
ATOM     75  C   UNL A   1      30.993  27.012  26.603  1.00  0.00     0.202 C 
BRANCH  75  76
ATOM     76  C   UNL A   1      32.004  25.848  26.585  1.00  0.00     0.261 C 
BRANCH  76  77
ATOM     77  O   UNL A   1      32.017  25.011  25.409  1.00  0.00    -0.463 OA
BRANCH  77  78
ATOM     78  C   UNL A   1      33.179  25.115  24.713  1.00  0.00     0.317 C 
ATOM     79  O   UNL A   1      33.739  26.198  24.543  1.00  0.00    -0.251 OA
BRANCH  78  80
ATOM     80  C   UNL A   1      33.650  23.854  23.968  1.00  0.00     0.102 C 
ATOM     81  C   UNL A   1      33.176  24.189  22.533  1.00  0.00     0.065 C 
ATOM     82  C   UNL A   1      33.110  22.474  24.377  1.00  0.00     0.012 A 
ATOM     83  C   UNL A   1      33.125  23.024  21.580  1.00  0.00     0.231 C 
ATOM     84  C   UNL A   1      32.704  21.571  23.381  1.00  0.00     0.123 A 
ATOM     85  C   UNL A   1      33.340  21.950  25.663  1.00  0.00     0.009 A 
ATOM     86  O   UNL A   1      32.408  21.925  22.099  1.00  0.00    -0.493 OA
ATOM     87  C   UNL A   1      32.568  20.204  23.643  1.00  0.00     0.047 A 
ATOM     88  C   UNL A   1      33.285  20.570  25.897  1.00  0.00     0.001 A 
ATOM     89  C   UNL A   1      32.893  19.695  24.889  1.00  0.00     0.004 A 
BRANCH  80  90
ATOM     90  C   UNL A   1      35.204  23.718  24.195  1.00  0.00     0.011 C 
ATOM     91  C   UNL A   1      35.703  23.856  25.643  1.00  0.00     0.005 C 
ATOM     92  C   UNL A   1      35.919  22.443  23.747  1.00  0.00     0.005 C 
ATOM     93  C   UNL A   1      37.184  23.556  25.529  1.00  0.00     0.000 C 
ATOM     94  C   UNL A   1      37.282  22.488  24.445  1.00  0.00     0.000 C 
ENDBRANCH  80  90
ENDBRANCH  78  80
ENDBRANCH  77  78
ENDBRANCH  76  77
ENDBRANCH  75  76
ENDBRANCH  74  75
ENDBRANCH  73  74
ENDBRANCH   1  73
TORSDOF 21
ENDMDL
