MODEL 1
REMARK VINA RESULT:     -11.3      0.000      0.000
REMARK SMILES Cc1ccc(-c2csc(NC(=O)[C@H]3[C@@H](C(=O)OCCOCCOCCOC(=O)c4ccc(-c5c6nc(c(-c7cc(S(=O)(=O)[O-])ccc7F)c7ccc([nH]7)c(-c7cc(S(=O)(=O)[O-])ccc7F)c7nc(c(-c8cc(S(=O)(=O)[O-])ccc8F)c8ccc5[nH]8)C=C7)C=C6)cc4)[C@H]4C=C[C@@H]3C4)c2C(=O)NC2CC2)cc1
REMARK SMILES IDX 21 1 20 2 19 3 18 4 17 5 15 6 16 7 14 8 13 9 95 10 92 11
REMARK SMILES IDX 94 12 96 13 93 14 11 15 10 16 12 18 9 19 6 20 7 21 97 22
REMARK SMILES IDX 8 23 5 24 1 25 2 26 3 27 105 28 4 29 104 30 98 31 99 32
REMARK SMILES IDX 100 33 101 35 102 36 103 37 22 38 23 39 24 40 25 41 26 42
REMARK SMILES IDX 27 43 28 44 29 45 30 46 91 47 31 48 90 49 32 50 33 51 34 52
REMARK SMILES IDX 84 53 35 54 89 55 83 56 85 57 36 58 88 59 82 60 81 61 37 63
REMARK SMILES IDX 69 64 49 65 68 66 50 67 53 68 67 69 86 70 51 71 52 72 66 74
REMARK SMILES IDX 87 75 54 76 38 77 39 78 47 79 40 80 46 81 48 82 45 83 41 84
REMARK SMILES IDX 42 85 43 86 44 87 70 88 71 89 79 90 72 91 78 92 80 93 77 94
REMARK SMILES IDX 73 95 74 96 75 97 76 98 55 99 56 100 64 101 57 102 63 103
REMARK SMILES IDX 65 104 62 105 58 106 59 107 60 108 61 109
REMARK H PARENT 10 17 100 34 85 62 53 73
REMARK Flexibility Score: inf
ROOT
ATOM      1  C   UNL A   1      34.281  22.129  24.895  1.00  0.00     0.188 C 
ENDROOT
BRANCH   1   2
ATOM      2  O   UNL A   1      33.286  23.153  25.121  1.00  0.00    -0.376 OA
BRANCH   2   3
ATOM      3  C   UNL A   1      32.867  24.143  24.140  1.00  0.00     0.202 C 
BRANCH   3   4
ATOM      4  C   UNL A   1      33.542  25.693  23.874  1.00  0.00     0.261 C 
BRANCH   4   5
ATOM      5  O   UNL A   1      33.816  26.438  22.381  1.00  0.00    -0.463 OA
BRANCH   5   6
ATOM      6  C   UNL A   1      33.590  27.799  22.472  1.00  0.00     0.310 C 
ATOM      7  O   UNL A   1      34.359  28.100  21.614  1.00  0.00    -0.252 OA
BRANCH   6   8
ATOM      8  C   UNL A   1      32.829  29.013  23.928  1.00  0.00     0.119 C 
ATOM      9  C   UNL A   1      33.405  29.726  25.537  1.00  0.00     0.100 C 
ATOM     10  C   UNL A   1      32.149  29.817  26.487  1.00  0.00     0.025 C 
ATOM     11  C   UNL A   1      31.248  28.794  24.777  1.00  0.00     0.027 C 
ATOM     12  C   UNL A   1      31.768  28.462  27.009  1.00  0.00    -0.027 C 
ATOM     13  C   UNL A   1      31.030  30.080  25.550  1.00  0.00     0.017 C 
ATOM     14  C   UNL A   1      31.250  27.821  25.968  1.00  0.00    -0.027 C 
BRANCH   9  15
ATOM     15  C   UNL A   1      34.383  29.273  26.707  1.00  0.00     0.229 C 
ATOM     16  N   UNL A   1      35.475  30.108  26.970  1.00  0.00    -0.317 N 
ATOM     17  H   UNL A   1      36.259  30.090  26.374  1.00  0.00     0.170 HD
ATOM     18  O   UNL A   1      34.324  28.205  27.310  1.00  0.00    -0.274 OA
BRANCH  16  19
ATOM     19  C   UNL A   1      35.462  30.959  28.063  1.00  0.00     0.108 A 
ATOM     20  C   UNL A   1      35.780  31.944  30.113  1.00  0.00     0.007 A 
ATOM     21  C   UNL A   1      34.802  32.737  29.531  1.00  0.00     0.076 A 
ATOM     22  C   UNL A   1      36.268  30.911  29.204  1.00  0.00     0.082 A 
ATOM     23  S   UNL A   1      34.570  32.380  27.901  1.00  0.00    -0.125 S 
BRANCH  20  24
ATOM     24  C   UNL A   1      36.236  32.433  31.399  1.00  0.00    -0.017 A 
ATOM     25  C   UNL A   1      37.076  33.831  35.349  1.00  0.00     0.044 C 
ATOM     26  C   UNL A   1      36.982  33.313  33.945  1.00  0.00    -0.051 A 
ATOM     27  C   UNL A   1      36.665  31.968  33.735  1.00  0.00     0.004 A 
ATOM     28  C   UNL A   1      37.053  34.184  32.848  1.00  0.00     0.004 A 
ATOM     29  C   UNL A   1      36.323  31.525  32.460  1.00  0.00     0.009 A 
ATOM     30  C   UNL A   1      36.688  33.744  31.570  1.00  0.00     0.009 A 
ENDBRANCH  20  24
BRANCH  22  31
ATOM     31  C   UNL A   1      37.354  29.893  29.231  1.00  0.00     0.255 C 
ATOM     32  O   UNL A   1      38.116  29.795  28.263  1.00  0.00    -0.269 OA
ATOM     33  N   UNL A   1      37.429  28.914  30.201  1.00  0.00    -0.349 N 
ATOM     34  H   UNL A   1      36.854  28.121  30.102  1.00  0.00     0.164 HD
BRANCH  33  35
ATOM     35  C   UNL A   1      38.296  28.980  31.351  1.00  0.00     0.082 C 
ATOM     36  C   UNL A   1      38.538  27.808  32.237  1.00  0.00     0.027 C 
ATOM     37  C   UNL A   1      39.608  28.275  31.282  1.00  0.00     0.027 C 
ENDBRANCH  33  35
ENDBRANCH  22  31
ENDBRANCH  16  19
ENDBRANCH   9  15
ENDBRANCH   6   8
ENDBRANCH   5   6
ENDBRANCH   4   5
ENDBRANCH   3   4
ENDBRANCH   2   3
ENDBRANCH   1   2
BRANCH   1  38
ATOM     38  C   UNL A   1      35.367  21.753  25.904  1.00  0.00     0.188 C 
BRANCH  38  39
ATOM     39  O   UNL A   1      36.343  22.779  26.008  1.00  0.00    -0.376 OA
BRANCH  39  40
ATOM     40  C   UNL A   1      37.460  22.641  25.154  1.00  0.00     0.202 C 
BRANCH  40  41
ATOM     41  C   UNL A   1      38.555  21.707  25.684  1.00  0.00     0.261 C 
BRANCH  41  42
ATOM     42  O   UNL A   1      39.609  22.404  26.392  1.00  0.00    -0.460 OA
BRANCH  42  43
ATOM     43  C   UNL A   1      40.622  21.606  26.847  1.00  0.00     0.338 C 
ATOM     44  O   UNL A   1      40.557  20.393  26.936  1.00  0.00    -0.246 OA
BRANCH  43  45
ATOM     45  C   UNL A   1      41.822  22.409  27.136  1.00  0.00     0.060 A 
ATOM     46  C   UNL A   1      42.373  22.595  28.388  1.00  0.00     0.016 A 
ATOM     47  C   UNL A   1      42.439  23.053  26.117  1.00  0.00     0.016 A 
ATOM     48  C   UNL A   1      43.384  23.641  28.609  1.00  0.00     0.010 A 
ATOM     49  C   UNL A   1      43.304  24.112  26.452  1.00  0.00     0.010 A 
ATOM     50  C   UNL A   1      43.748  24.725  27.797  1.00  0.00    -0.014 A 
BRANCH  50  51
ATOM     51  C   UNL A   1      44.607  26.408  28.190  1.00  0.00     0.031 A 
ATOM     52  C   UNL A   1      43.908  28.077  28.885  1.00  0.00     0.074 A 
ATOM     53  C   UNL A   1      45.900  26.444  28.627  1.00  0.00     0.049 A 
ATOM     54  N   UNL A   1      44.492  29.055  29.562  1.00  0.00    -0.248 NA
ATOM     55  C   UNL A   1      42.360  28.728  28.803  1.00  0.00     0.031 C 
ATOM     56  C   UNL A   1      46.321  27.181  29.830  1.00  0.00     0.029 A 
ATOM     57  N   UNL A   1      47.074  25.817  28.257  1.00  0.00    -0.354 N 
ATOM     58  C   UNL A   1      43.511  29.883  30.190  1.00  0.00     0.074 A 
ATOM     59  C   UNL A   1      42.308  29.838  29.486  1.00  0.00     0.031 C 
ATOM     60  C   UNL A   1      47.643  27.157  29.965  1.00  0.00     0.029 A 
ATOM     61  C   UNL A   1      48.153  26.584  28.759  1.00  0.00     0.049 A 
ATOM     62  H   UNL A   1      47.149  24.985  27.738  1.00  0.00     0.167 HD
ATOM     63  C   UNL A   1      43.646  30.492  31.396  1.00  0.00     0.034 A 
ATOM     64  C   UNL A   1      49.161  27.145  28.033  1.00  0.00     0.034 A 
ATOM     65  C   UNL A   1      45.035  30.716  31.630  1.00  0.00     0.049 A 
ATOM     66  C   UNL A   1      49.096  28.684  28.095  1.00  0.00     0.074 A 
ATOM     67  C   UNL A   1      46.037  30.174  32.390  1.00  0.00     0.029 A 
ATOM     68  N   UNL A   1      45.640  31.483  30.666  1.00  0.00    -0.354 N 
ATOM     69  N   UNL A   1      48.585  29.395  29.074  1.00  0.00    -0.248 NA
ATOM     70  C   UNL A   1      49.500  29.537  26.976  1.00  0.00     0.031 C 
ATOM     71  C   UNL A   1      47.258  30.445  31.680  1.00  0.00     0.029 A 
ATOM     72  C   UNL A   1      46.974  31.198  30.546  1.00  0.00     0.049 A 
ATOM     73  H   UNL A   1      45.171  32.158  30.124  1.00  0.00     0.167 HD
ATOM     74  C   UNL A   1      48.372  30.689  28.641  1.00  0.00     0.074 A 
ATOM     75  C   UNL A   1      49.001  30.732  27.332  1.00  0.00     0.031 C 
ATOM     76  C   UNL A   1      47.630  31.630  29.316  1.00  0.00     0.034 A 
BRANCH  63  77
ATOM     77  C   UNL A   1      42.500  30.953  32.289  1.00  0.00     0.023 A 
ATOM     78  C   UNL A   1      42.272  30.255  33.484  1.00  0.00     0.031 A 
ATOM     79  C   UNL A   1      41.529  31.950  31.981  1.00  0.00     0.131 A 
ATOM     80  C   UNL A   1      41.151  30.530  34.296  1.00  0.00     0.055 A 
ATOM     81  C   UNL A   1      40.451  32.268  32.825  1.00  0.00     0.041 A 
ATOM     82  F   UNL A   1      41.544  32.633  30.827  1.00  0.00    -0.206 F 
ATOM     83  C   UNL A   1      40.248  31.545  33.987  1.00  0.00     0.022 A 
BRANCH  80  84
ATOM     84  S   UNL A   1      40.841  29.462  35.726  1.00  0.00     0.124 S 
ATOM     85  O   UNL A   1      41.949  29.812  36.608  1.00  0.00    -0.237 OA
ATOM     86  O   UNL A   1      39.514  29.893  36.147  1.00  0.00    -0.237 OA
ATOM     87  O   UNL A   1      40.905  28.114  35.165  1.00  0.00    -0.744 OA
ENDBRANCH  80  84
ENDBRANCH  63  77
BRANCH  64  88
ATOM     88  C   UNL A   1      49.518  26.255  26.890  1.00  0.00     0.023 A 
ATOM     89  C   UNL A   1      48.817  26.532  25.683  1.00  0.00     0.031 A 
ATOM     90  C   UNL A   1      50.814  25.732  26.808  1.00  0.00     0.131 A 
ATOM     91  C   UNL A   1      49.531  26.608  24.485  1.00  0.00     0.055 A 
ATOM     92  C   UNL A   1      51.500  25.761  25.598  1.00  0.00     0.041 A 
ATOM     93  F   UNL A   1      51.509  25.419  27.909  1.00  0.00    -0.206 F 
ATOM     94  C   UNL A   1      50.891  26.313  24.473  1.00  0.00     0.022 A 
BRANCH  91  95
ATOM     95  S   UNL A   1      48.794  27.353  22.996  1.00  0.00     0.124 S 
ATOM     96  O   UNL A   1      48.536  26.171  22.179  1.00  0.00    -0.237 OA
ATOM     97  O   UNL A   1      47.616  28.048  23.500  1.00  0.00    -0.237 OA
ATOM     98  O   UNL A   1      49.857  28.223  22.496  1.00  0.00    -0.744 OA
ENDBRANCH  91  95
ENDBRANCH  64  88
BRANCH  76  99
ATOM     99  C   UNL A   1      47.443  33.054  28.788  1.00  0.00     0.023 A 
ATOM    100  C   UNL A   1      46.183  33.452  28.329  1.00  0.00     0.031 A 
ATOM    101  C   UNL A   1      48.472  34.023  28.623  1.00  0.00     0.131 A 
ATOM    102  C   UNL A   1      45.966  34.741  27.812  1.00  0.00     0.055 A 
ATOM    103  C   UNL A   1      48.283  35.251  27.978  1.00  0.00     0.041 A 
ATOM    104  F   UNL A   1      49.703  33.858  29.129  1.00  0.00    -0.206 F 
ATOM    105  C   UNL A   1      47.016  35.626  27.577  1.00  0.00     0.022 A 
BRANCH 102 106
ATOM    106  S   UNL A   1      44.259  35.280  27.572  1.00  0.00     0.124 S 
ATOM    107  O   UNL A   1      43.675  34.172  26.825  1.00  0.00    -0.237 OA
ATOM    108  O   UNL A   1      43.807  35.422  28.954  1.00  0.00    -0.237 OA
ATOM    109  O   UNL A   1      44.394  36.532  26.832  1.00  0.00    -0.744 OA
ENDBRANCH 102 106
ENDBRANCH  76  99
ENDBRANCH  50  51
ENDBRANCH  43  45
ENDBRANCH  42  43
ENDBRANCH  41  42
ENDBRANCH  40  41
ENDBRANCH  39  40
ENDBRANCH  38  39
ENDBRANCH   1  38
TORSDOF 25
ENDMDL
MODEL 2
REMARK VINA RESULT:     -11.2      3.327      6.274
REMARK SMILES Cc1ccc(-c2csc(NC(=O)[C@H]3[C@@H](C(=O)OCCOCCOCCOC(=O)c4ccc(-c5c6nc(c(-c7cc(S(=O)(=O)[O-])ccc7F)c7ccc([nH]7)c(-c7cc(S(=O)(=O)[O-])ccc7F)c7nc(c(-c8cc(S(=O)(=O)[O-])ccc8F)c8ccc5[nH]8)C=C7)C=C6)cc4)[C@H]4C=C[C@@H]3C4)c2C(=O)NC2CC2)cc1
REMARK SMILES IDX 21 1 20 2 19 3 18 4 17 5 15 6 16 7 14 8 13 9 95 10 92 11
REMARK SMILES IDX 94 12 96 13 93 14 11 15 10 16 12 18 9 19 6 20 7 21 97 22
REMARK SMILES IDX 8 23 5 24 1 25 2 26 3 27 105 28 4 29 104 30 98 31 99 32
REMARK SMILES IDX 100 33 101 35 102 36 103 37 22 38 23 39 24 40 25 41 26 42
REMARK SMILES IDX 27 43 28 44 29 45 30 46 91 47 31 48 90 49 32 50 33 51 34 52
REMARK SMILES IDX 84 53 35 54 89 55 83 56 85 57 36 58 88 59 82 60 81 61 37 63
REMARK SMILES IDX 69 64 49 65 68 66 50 67 53 68 67 69 86 70 51 71 52 72 66 74
REMARK SMILES IDX 87 75 54 76 38 77 39 78 47 79 40 80 46 81 48 82 45 83 41 84
REMARK SMILES IDX 42 85 43 86 44 87 70 88 71 89 79 90 72 91 78 92 80 93 77 94
REMARK SMILES IDX 73 95 74 96 75 97 76 98 55 99 56 100 64 101 57 102 63 103
REMARK SMILES IDX 65 104 62 105 58 106 59 107 60 108 61 109
REMARK H PARENT 10 17 100 34 85 62 53 73
REMARK Flexibility Score: inf
ROOT
ATOM      1  C   UNL A   1      33.909  27.886  25.070  1.00  0.00     0.188 C 
ENDROOT
BRANCH   1   2
ATOM      2  O   UNL A   1      34.262  29.053  25.849  1.00  0.00    -0.376 OA
BRANCH   2   3
ATOM      3  C   UNL A   1      34.235  29.127  27.302  1.00  0.00     0.202 C 
BRANCH   3   4
ATOM      4  C   UNL A   1      34.864  30.377  28.290  1.00  0.00     0.261 C 
BRANCH   4   5
ATOM      5  O   UNL A   1      36.182  31.377  27.944  1.00  0.00    -0.463 OA
BRANCH   5   6
ATOM      6  C   UNL A   1      35.977  32.641  28.465  1.00  0.00     0.310 C 
ATOM      7  O   UNL A   1      36.493  33.222  27.561  1.00  0.00    -0.252 OA
BRANCH   6   8
ATOM      8  C   UNL A   1      35.615  33.357  30.343  1.00  0.00     0.119 C 
ATOM      9  C   UNL A   1      36.580  34.185  31.688  1.00  0.00     0.100 C 
ATOM     10  C   UNL A   1      35.986  33.695  33.065  1.00  0.00     0.025 C 
ATOM     11  C   UNL A   1      34.822  32.450  31.692  1.00  0.00     0.027 C 
ATOM     12  C   UNL A   1      36.414  32.288  33.366  1.00  0.00    -0.027 C 
ATOM     13  C   UNL A   1      34.548  33.490  32.761  1.00  0.00     0.017 C 
ATOM     14  C   UNL A   1      35.737  31.527  32.513  1.00  0.00    -0.027 C 
BRANCH   9  15
ATOM     15  C   UNL A   1      38.083  34.149  32.209  1.00  0.00     0.229 C 
ATOM     16  N   UNL A   1      38.971  33.327  31.507  1.00  0.00    -0.317 N 
ATOM     17  H   UNL A   1      38.951  32.353  31.648  1.00  0.00     0.170 HD
ATOM     18  O   UNL A   1      38.493  34.687  33.234  1.00  0.00    -0.274 OA
BRANCH  16  19
ATOM     19  C   UNL A   1      39.880  33.873  30.615  1.00  0.00     0.108 A 
ATOM     20  C   UNL A   1      41.775  34.472  29.464  1.00  0.00     0.007 A 
ATOM     21  C   UNL A   1      40.807  35.313  28.936  1.00  0.00     0.076 A 
ATOM     22  C   UNL A   1      41.218  33.519  30.421  1.00  0.00     0.082 A 
ATOM     23  S   UNL A   1      39.252  34.896  29.432  1.00  0.00    -0.125 S 
BRANCH  20  24
ATOM     24  C   UNL A   1      43.065  34.588  28.814  1.00  0.00    -0.017 A 
ATOM     25  C   UNL A   1      46.747  34.475  26.648  1.00  0.00     0.044 C 
ATOM     26  C   UNL A   1      45.499  34.710  27.445  1.00  0.00    -0.051 A 
ATOM     27  C   UNL A   1      44.305  34.990  26.776  1.00  0.00     0.004 A 
ATOM     28  C   UNL A   1      45.479  34.499  28.832  1.00  0.00     0.004 A 
ATOM     29  C   UNL A   1      43.097  34.959  27.466  1.00  0.00     0.009 A 
ATOM     30  C   UNL A   1      44.261  34.446  29.522  1.00  0.00     0.009 A 
ENDBRANCH  20  24
BRANCH  22  31
ATOM     31  C   UNL A   1      41.731  32.344  31.178  1.00  0.00     0.255 C 
ATOM     32  O   UNL A   1      41.460  31.205  30.785  1.00  0.00    -0.269 OA
ATOM     33  N   UNL A   1      42.329  32.464  32.416  1.00  0.00    -0.349 N 
ATOM     34  H   UNL A   1      41.745  32.563  33.203  1.00  0.00     0.164 HD
BRANCH  33  35
ATOM     35  C   UNL A   1      43.755  32.453  32.630  1.00  0.00     0.082 C 
ATOM     36  C   UNL A   1      44.448  31.337  33.331  1.00  0.00     0.027 C 
ATOM     37  C   UNL A   1      44.576  31.495  31.836  1.00  0.00     0.027 C 
ENDBRANCH  33  35
ENDBRANCH  22  31
ENDBRANCH  16  19
ENDBRANCH   9  15
ENDBRANCH   6   8
ENDBRANCH   5   6
ENDBRANCH   4   5
ENDBRANCH   3   4
ENDBRANCH   2   3
ENDBRANCH   1   2
BRANCH   1  38
ATOM     38  C   UNL A   1      33.580  26.522  25.676  1.00  0.00     0.188 C 
BRANCH  38  39
ATOM     39  O   UNL A   1      34.513  25.539  25.255  1.00  0.00    -0.376 OA
BRANCH  39  40
ATOM     40  C   UNL A   1      34.177  24.853  24.066  1.00  0.00     0.202 C 
BRANCH  40  41
ATOM     41  C   UNL A   1      35.027  23.606  23.789  1.00  0.00     0.261 C 
BRANCH  41  42
ATOM     42  O   UNL A   1      35.719  23.112  24.962  1.00  0.00    -0.460 OA
BRANCH  42  43
ATOM     43  C   UNL A   1      36.948  22.567  24.719  1.00  0.00     0.338 C 
ATOM     44  O   UNL A   1      37.232  21.924  23.723  1.00  0.00    -0.246 OA
BRANCH  43  45
ATOM     45  C   UNL A   1      37.895  22.931  25.785  1.00  0.00     0.060 A 
ATOM     46  C   UNL A   1      37.791  24.042  26.598  1.00  0.00     0.016 A 
ATOM     47  C   UNL A   1      38.983  22.150  25.989  1.00  0.00     0.016 A 
ATOM     48  C   UNL A   1      38.931  24.472  27.423  1.00  0.00     0.010 A 
ATOM     49  C   UNL A   1      40.058  22.713  26.703  1.00  0.00     0.010 A 
ATOM     50  C   UNL A   1      40.280  24.092  27.360  1.00  0.00    -0.014 A 
BRANCH  50  51
ATOM     51  C   UNL A   1      41.898  24.949  27.970  1.00  0.00     0.031 A 
ATOM     52  C   UNL A   1      42.191  26.384  29.239  1.00  0.00     0.074 A 
ATOM     53  C   UNL A   1      43.063  24.246  28.070  1.00  0.00     0.049 A 
ATOM     54  N   UNL A   1      43.241  26.685  29.992  1.00  0.00    -0.248 NA
ATOM     55  C   UNL A   1      41.181  27.640  29.719  1.00  0.00     0.031 C 
ATOM     56  C   UNL A   1      43.893  24.234  29.286  1.00  0.00     0.029 A 
ATOM     57  N   UNL A   1      43.728  23.337  27.268  1.00  0.00    -0.354 N 
ATOM     58  C   UNL A   1      42.864  27.579  31.040  1.00  0.00     0.074 A 
ATOM     59  C   UNL A   1      41.750  28.330  30.667  1.00  0.00     0.031 C 
ATOM     60  C   UNL A   1      45.029  23.575  29.081  1.00  0.00     0.029 A 
ATOM     61  C   UNL A   1      45.082  23.306  27.678  1.00  0.00     0.049 A 
ATOM     62  H   UNL A   1      43.332  22.806  26.541  1.00  0.00     0.167 HD
ATOM     63  C   UNL A   1      43.384  27.590  32.295  1.00  0.00     0.034 A 
ATOM     64  C   UNL A   1      46.174  23.575  26.907  1.00  0.00     0.034 A 
ATOM     65  C   UNL A   1      44.710  27.069  32.233  1.00  0.00     0.049 A 
ATOM     66  C   UNL A   1      46.898  24.844  27.398  1.00  0.00     0.074 A 
ATOM     67  C   UNL A   1      45.360  25.905  32.548  1.00  0.00     0.029 A 
ATOM     68  N   UNL A   1      45.539  27.771  31.394  1.00  0.00    -0.354 N 
ATOM     69  N   UNL A   1      46.894  25.308  28.626  1.00  0.00    -0.248 NA
ATOM     70  C   UNL A   1      47.585  25.763  26.487  1.00  0.00     0.031 C 
ATOM     71  C   UNL A   1      46.490  25.835  31.661  1.00  0.00     0.029 A 
ATOM     72  C   UNL A   1      46.534  26.984  30.879  1.00  0.00     0.049 A 
ATOM     73  H   UNL A   1      45.433  28.728  31.187  1.00  0.00     0.167 HD
ATOM     74  C   UNL A   1      47.327  26.619  28.626  1.00  0.00     0.074 A 
ATOM     75  C   UNL A   1      47.786  26.839  27.264  1.00  0.00     0.031 C 
ATOM     76  C   UNL A   1      47.217  27.483  29.689  1.00  0.00     0.034 A 
BRANCH  63  77
ATOM     77  C   UNL A   1      42.701  28.162  33.532  1.00  0.00     0.023 A 
ATOM     78  C   UNL A   1      41.508  28.878  33.357  1.00  0.00     0.031 A 
ATOM     79  C   UNL A   1      43.214  28.165  34.861  1.00  0.00     0.131 A 
ATOM     80  C   UNL A   1      40.890  29.554  34.430  1.00  0.00     0.055 A 
ATOM     81  C   UNL A   1      42.561  28.782  35.943  1.00  0.00     0.041 A 
ATOM     82  F   UNL A   1      44.396  27.615  35.175  1.00  0.00    -0.206 F 
ATOM     83  C   UNL A   1      41.396  29.495  35.727  1.00  0.00     0.022 A 
BRANCH  80  84
ATOM     84  S   UNL A   1      39.453  30.598  34.076  1.00  0.00     0.124 S 
ATOM     85  O   UNL A   1      39.990  31.935  34.300  1.00  0.00    -0.237 OA
ATOM     86  O   UNL A   1      39.151  30.242  32.694  1.00  0.00    -0.237 OA
ATOM     87  O   UNL A   1      38.462  30.161  35.058  1.00  0.00    -0.744 OA
ENDBRANCH  80  84
ENDBRANCH  63  77
BRANCH  64  88
ATOM     88  C   UNL A   1      45.941  23.091  25.515  1.00  0.00     0.023 A 
ATOM     89  C   UNL A   1      46.176  21.700  25.326  1.00  0.00     0.031 A 
ATOM     90  C   UNL A   1      44.975  23.722  24.723  1.00  0.00     0.131 A 
ATOM     91  C   UNL A   1      45.233  20.941  24.629  1.00  0.00     0.055 A 
ATOM     92  C   UNL A   1      44.073  22.960  23.989  1.00  0.00     0.041 A 
ATOM     93  F   UNL A   1      44.734  25.035  24.833  1.00  0.00    -0.206 F 
ATOM     94  C   UNL A   1      44.136  21.569  24.047  1.00  0.00     0.022 A 
BRANCH  91  95
ATOM     95  S   UNL A   1      45.251  19.122  24.702  1.00  0.00     0.124 S 
ATOM     96  O   UNL A   1      46.288  18.884  25.702  1.00  0.00    -0.237 OA
ATOM     97  O   UNL A   1      43.892  18.775  25.100  1.00  0.00    -0.237 OA
ATOM     98  O   UNL A   1      45.614  18.736  23.340  1.00  0.00    -0.744 OA
ENDBRANCH  91  95
ENDBRANCH  64  88
BRANCH  76  99
ATOM     99  C   UNL A   1      47.731  28.924  29.629  1.00  0.00     0.023 A 
ATOM    100  C   UNL A   1      48.844  29.284  30.396  1.00  0.00     0.031 A 
ATOM    101  C   UNL A   1      47.120  29.995  28.921  1.00  0.00     0.131 A 
ATOM    102  C   UNL A   1      49.338  30.600  30.392  1.00  0.00     0.055 A 
ATOM    103  C   UNL A   1      47.528  31.330  29.034  1.00  0.00     0.041 A 
ATOM    104  F   UNL A   1      46.130  29.803  28.037  1.00  0.00    -0.206 F 
ATOM    105  C   UNL A   1      48.657  31.640  29.766  1.00  0.00     0.022 A 
BRANCH 102 106
ATOM    106  S   UNL A   1      50.963  30.894  31.124  1.00  0.00     0.124 S 
ATOM    107  O   UNL A   1      51.316  32.210  30.603  1.00  0.00    -0.237 OA
ATOM    108  O   UNL A   1      50.649  30.839  32.550  1.00  0.00    -0.237 OA
ATOM    109  O   UNL A   1      51.772  29.786  30.623  1.00  0.00    -0.744 OA
ENDBRANCH 102 106
ENDBRANCH  76  99
ENDBRANCH  50  51
ENDBRANCH  43  45
ENDBRANCH  42  43
ENDBRANCH  41  42
ENDBRANCH  40  41
ENDBRANCH  39  40
ENDBRANCH  38  39
ENDBRANCH   1  38
TORSDOF 25
ENDMDL
MODEL 3
REMARK VINA RESULT:     -10.6      3.445      6.123
REMARK SMILES Cc1ccc(-c2csc(NC(=O)[C@H]3[C@@H](C(=O)OCCOCCOCCOC(=O)c4ccc(-c5c6nc(c(-c7cc(S(=O)(=O)[O-])ccc7F)c7ccc([nH]7)c(-c7cc(S(=O)(=O)[O-])ccc7F)c7nc(c(-c8cc(S(=O)(=O)[O-])ccc8F)c8ccc5[nH]8)C=C7)C=C6)cc4)[C@H]4C=C[C@@H]3C4)c2C(=O)NC2CC2)cc1
REMARK SMILES IDX 21 1 20 2 19 3 18 4 17 5 15 6 16 7 14 8 13 9 95 10 92 11
REMARK SMILES IDX 94 12 96 13 93 14 11 15 10 16 12 18 9 19 6 20 7 21 97 22
REMARK SMILES IDX 8 23 5 24 1 25 2 26 3 27 105 28 4 29 104 30 98 31 99 32
REMARK SMILES IDX 100 33 101 35 102 36 103 37 22 38 23 39 24 40 25 41 26 42
REMARK SMILES IDX 27 43 28 44 29 45 30 46 91 47 31 48 90 49 32 50 33 51 34 52
REMARK SMILES IDX 84 53 35 54 89 55 83 56 85 57 36 58 88 59 82 60 81 61 37 63
REMARK SMILES IDX 69 64 49 65 68 66 50 67 53 68 67 69 86 70 51 71 52 72 66 74
REMARK SMILES IDX 87 75 54 76 38 77 39 78 47 79 40 80 46 81 48 82 45 83 41 84
REMARK SMILES IDX 42 85 43 86 44 87 70 88 71 89 79 90 72 91 78 92 80 93 77 94
REMARK SMILES IDX 73 95 74 96 75 97 76 98 55 99 56 100 64 101 57 102 63 103
REMARK SMILES IDX 65 104 62 105 58 106 59 107 60 108 61 109
REMARK H PARENT 10 17 100 34 85 62 53 73
REMARK Flexibility Score: inf
ROOT
ATOM      1  C   UNL A   1      33.458  27.469  24.199  1.00  0.00     0.188 C 
ENDROOT
BRANCH   1   2
ATOM      2  O   UNL A   1      33.678  28.630  25.033  1.00  0.00    -0.376 OA
BRANCH   2   3
ATOM      3  C   UNL A   1      33.755  28.613  26.485  1.00  0.00     0.202 C 
BRANCH   3   4
ATOM      4  C   UNL A   1      34.128  29.925  27.521  1.00  0.00     0.261 C 
BRANCH   4   5
ATOM      5  O   UNL A   1      35.152  31.227  27.181  1.00  0.00    -0.463 OA
BRANCH   5   6
ATOM      6  C   UNL A   1      35.279  32.042  28.290  1.00  0.00     0.310 C 
ATOM      7  O   UNL A   1      35.165  33.067  27.692  1.00  0.00    -0.252 OA
BRANCH   6   8
ATOM      8  C   UNL A   1      36.077  31.785  30.153  1.00  0.00     0.119 C 
ATOM      9  C   UNL A   1      37.608  32.302  31.055  1.00  0.00     0.100 C 
ATOM     10  C   UNL A   1      37.987  31.135  32.047  1.00  0.00     0.025 C 
ATOM     11  C   UNL A   1      36.304  30.205  31.003  1.00  0.00     0.027 C 
ATOM     12  C   UNL A   1      38.587  29.974  31.309  1.00  0.00    -0.027 C 
ATOM     13  C   UNL A   1      36.669  30.572  32.429  1.00  0.00     0.017 C 
ATOM     14  C   UNL A   1      37.578  29.423  30.645  1.00  0.00    -0.027 C 
BRANCH   9  15
ATOM     15  C   UNL A   1      39.123  32.599  30.667  1.00  0.00     0.229 C 
ATOM     16  N   UNL A   1      39.601  33.884  30.945  1.00  0.00    -0.317 N 
ATOM     17  H   UNL A   1      39.355  34.635  30.357  1.00  0.00     0.170 HD
ATOM     18  O   UNL A   1      39.859  31.838  30.046  1.00  0.00    -0.274 OA
BRANCH  16  19
ATOM     19  C   UNL A   1      40.419  34.109  32.040  1.00  0.00     0.108 A 
ATOM     20  C   UNL A   1      42.203  34.346  33.467  1.00  0.00     0.007 A 
ATOM     21  C   UNL A   1      41.110  34.409  34.318  1.00  0.00     0.076 A 
ATOM     22  C   UNL A   1      41.808  34.259  32.063  1.00  0.00     0.082 A 
ATOM     23  S   UNL A   1      39.651  34.522  33.482  1.00  0.00    -0.125 S 
BRANCH  20  24
ATOM     24  C   UNL A   1      43.471  34.579  34.130  1.00  0.00    -0.017 A 
ATOM     25  C   UNL A   1      47.033  34.938  36.463  1.00  0.00     0.044 C 
ATOM     26  C   UNL A   1      45.891  34.893  35.492  1.00  0.00    -0.051 A 
ATOM     27  C   UNL A   1      45.618  33.700  34.818  1.00  0.00     0.004 A 
ATOM     28  C   UNL A   1      45.006  35.974  35.369  1.00  0.00     0.004 A 
ATOM     29  C   UNL A   1      44.425  33.556  34.114  1.00  0.00     0.009 A 
ATOM     30  C   UNL A   1      43.796  35.822  34.679  1.00  0.00     0.009 A 
ENDBRANCH  20  24
BRANCH  22  31
ATOM     31  C   UNL A   1      42.515  34.289  30.753  1.00  0.00     0.255 C 
ATOM     32  O   UNL A   1      42.826  35.378  30.258  1.00  0.00    -0.269 OA
ATOM     33  N   UNL A   1      42.662  33.166  29.964  1.00  0.00    -0.349 N 
ATOM     34  H   UNL A   1      41.898  32.889  29.408  1.00  0.00     0.164 HD
BRANCH  33  35
ATOM     35  C   UNL A   1      43.864  32.374  29.902  1.00  0.00     0.082 C 
ATOM     36  C   UNL A   1      45.019  32.602  30.815  1.00  0.00     0.027 C 
ATOM     37  C   UNL A   1      44.123  31.403  31.003  1.00  0.00     0.027 C 
ENDBRANCH  33  35
ENDBRANCH  22  31
ENDBRANCH  16  19
ENDBRANCH   9  15
ENDBRANCH   6   8
ENDBRANCH   5   6
ENDBRANCH   4   5
ENDBRANCH   3   4
ENDBRANCH   2   3
ENDBRANCH   1   2
BRANCH   1  38
ATOM     38  C   UNL A   1      33.297  26.047  24.739  1.00  0.00     0.188 C 
BRANCH  38  39
ATOM     39  O   UNL A   1      34.431  25.252  24.424  1.00  0.00    -0.376 OA
BRANCH  39  40
ATOM     40  C   UNL A   1      34.235  24.293  23.406  1.00  0.00     0.202 C 
BRANCH  40  41
ATOM     41  C   UNL A   1      35.122  23.047  23.525  1.00  0.00     0.261 C 
BRANCH  41  42
ATOM     42  O   UNL A   1      35.828  22.966  24.788  1.00  0.00    -0.460 OA
BRANCH  42  43
ATOM     43  C   UNL A   1      37.019  22.297  24.740  1.00  0.00     0.338 C 
ATOM     44  O   UNL A   1      37.306  21.461  23.902  1.00  0.00    -0.246 OA
BRANCH  43  45
ATOM     45  C   UNL A   1      37.928  22.785  25.790  1.00  0.00     0.060 A 
ATOM     46  C   UNL A   1      37.826  24.005  26.430  1.00  0.00     0.016 A 
ATOM     47  C   UNL A   1      38.976  22.011  26.160  1.00  0.00     0.016 A 
ATOM     48  C   UNL A   1      38.941  24.516  27.241  1.00  0.00     0.010 A 
ATOM     49  C   UNL A   1      40.036  22.640  26.841  1.00  0.00     0.010 A 
ATOM     50  C   UNL A   1      40.277  24.093  27.303  1.00  0.00    -0.014 A 
BRANCH  50  51
ATOM     51  C   UNL A   1      41.895  24.982  27.866  1.00  0.00     0.031 A 
ATOM     52  C   UNL A   1      42.187  26.484  29.055  1.00  0.00     0.074 A 
ATOM     53  C   UNL A   1      43.059  24.285  28.005  1.00  0.00     0.049 A 
ATOM     54  N   UNL A   1      43.237  26.826  29.790  1.00  0.00    -0.248 NA
ATOM     55  C   UNL A   1      41.177  27.765  29.463  1.00  0.00     0.031 C 
ATOM     56  C   UNL A   1      43.889  24.340  29.220  1.00  0.00     0.029 A 
ATOM     57  N   UNL A   1      43.725  23.334  27.255  1.00  0.00    -0.354 N 
ATOM     58  C   UNL A   1      42.859  27.776  30.788  1.00  0.00     0.074 A 
ATOM     59  C   UNL A   1      41.745  28.506  30.373  1.00  0.00     0.031 C 
ATOM     60  C   UNL A   1      45.025  23.671  29.053  1.00  0.00     0.029 A 
ATOM     61  C   UNL A   1      45.079  23.326  27.667  1.00  0.00     0.049 A 
ATOM     62  H   UNL A   1      43.329  22.763  26.558  1.00  0.00     0.167 HD
ATOM     63  C   UNL A   1      43.378  27.856  32.040  1.00  0.00     0.034 A 
ATOM     64  C   UNL A   1      46.171  23.551  26.883  1.00  0.00     0.034 A 
ATOM     65  C   UNL A   1      44.704  27.334  32.007  1.00  0.00     0.049 A 
ATOM     66  C   UNL A   1      46.895  24.846  27.303  1.00  0.00     0.074 A 
ATOM     67  C   UNL A   1      45.354  26.189  32.387  1.00  0.00     0.029 A 
ATOM     68  N   UNL A   1      45.534  27.988  31.132  1.00  0.00    -0.354 N 
ATOM     69  N   UNL A   1      46.890  25.376  28.504  1.00  0.00    -0.248 NA
ATOM     70  C   UNL A   1      47.583  25.713  26.344  1.00  0.00     0.031 C 
ATOM     71  C   UNL A   1      46.485  26.070  31.506  1.00  0.00     0.029 A 
ATOM     72  C   UNL A   1      46.529  27.174  30.662  1.00  0.00     0.049 A 
ATOM     73  H   UNL A   1      45.428  28.932  30.873  1.00  0.00     0.167 HD
ATOM     74  C   UNL A   1      47.324  26.685  28.432  1.00  0.00     0.074 A 
ATOM     75  C   UNL A   1      47.783  26.830  27.060  1.00  0.00     0.031 C 
ATOM     76  C   UNL A   1      47.213  27.606  29.446  1.00  0.00     0.034 A 
BRANCH  63  77
ATOM     77  C   UNL A   1      42.694  28.496  33.243  1.00  0.00     0.023 A 
ATOM     78  C   UNL A   1      43.493  29.181  34.170  1.00  0.00     0.031 A 
ATOM     79  C   UNL A   1      41.324  28.363  33.613  1.00  0.00     0.131 A 
ATOM     80  C   UNL A   1      42.958  29.680  35.377  1.00  0.00     0.055 A 
ATOM     81  C   UNL A   1      40.780  28.920  34.783  1.00  0.00     0.041 A 
ATOM     82  F   UNL A   1      40.452  27.647  32.888  1.00  0.00    -0.206 F 
ATOM     83  C   UNL A   1      41.603  29.573  35.682  1.00  0.00     0.022 A 
BRANCH  80  84
ATOM     84  S   UNL A   1      44.097  30.394  36.591  1.00  0.00     0.124 S 
ATOM     85  O   UNL A   1      45.336  30.481  35.827  1.00  0.00    -0.237 OA
ATOM     86  O   UNL A   1      43.443  31.657  36.916  1.00  0.00    -0.237 OA
ATOM     87  O   UNL A   1      44.107  29.408  37.670  1.00  0.00    -0.744 OA
ENDBRANCH  80  84
ENDBRANCH  63  77
BRANCH  64  88
ATOM     88  C   UNL A   1      45.939  22.992  25.520  1.00  0.00     0.023 A 
ATOM     89  C   UNL A   1      46.246  21.608  25.388  1.00  0.00     0.031 A 
ATOM     90  C   UNL A   1      44.926  23.532  24.721  1.00  0.00     0.131 A 
ATOM     91  C   UNL A   1      45.333  20.768  24.747  1.00  0.00     0.055 A 
ATOM     92  C   UNL A   1      44.052  22.690  24.040  1.00  0.00     0.041 A 
ATOM     93  F   UNL A   1      44.616  24.834  24.775  1.00  0.00    -0.206 F 
ATOM     94  C   UNL A   1      44.193  21.309  24.160  1.00  0.00     0.022 A 
BRANCH  91  95
ATOM     95  S   UNL A   1      45.451  18.958  24.902  1.00  0.00     0.124 S 
ATOM     96  O   UNL A   1      45.570  18.556  23.503  1.00  0.00    -0.237 OA
ATOM     97  O   UNL A   1      46.636  18.754  25.726  1.00  0.00    -0.237 OA
ATOM     98  O   UNL A   1      44.186  18.594  25.538  1.00  0.00    -0.744 OA
ENDBRANCH  91  95
ENDBRANCH  64  88
BRANCH  76  99
ATOM     99  C   UNL A   1      47.727  29.041  29.307  1.00  0.00     0.023 A 
ATOM    100  C   UNL A   1      48.811  29.456  30.087  1.00  0.00     0.031 A 
ATOM    101  C   UNL A   1      47.140  30.061  28.508  1.00  0.00     0.131 A 
ATOM    102  C   UNL A   1      49.304  30.771  30.012  1.00  0.00     0.055 A 
ATOM    103  C   UNL A   1      47.542  31.402  28.544  1.00  0.00     0.041 A 
ATOM    104  F   UNL A   1      46.183  29.806  27.604  1.00  0.00    -0.206 F 
ATOM    105  C   UNL A   1      48.645  31.764  29.293  1.00  0.00     0.022 A 
BRANCH 102 106
ATOM    106  S   UNL A   1      50.901  31.120  30.779  1.00  0.00     0.124 S 
ATOM    107  O   UNL A   1      50.680  30.737  32.169  1.00  0.00    -0.237 OA
ATOM    108  O   UNL A   1      51.785  30.245  30.012  1.00  0.00    -0.237 OA
ATOM    109  O   UNL A   1      51.090  32.549  30.548  1.00  0.00    -0.744 OA
ENDBRANCH 102 106
ENDBRANCH  76  99
ENDBRANCH  50  51
ENDBRANCH  43  45
ENDBRANCH  42  43
ENDBRANCH  41  42
ENDBRANCH  40  41
ENDBRANCH  39  40
ENDBRANCH  38  39
ENDBRANCH   1  38
TORSDOF 25
ENDMDL
