MODEL 1
REMARK VINA RESULT:      -7.8      0.000      0.000
REMARK SMILES C=Cc1cccc(-c2ccc([C@@H](C)C(=O)OCCOCCOCCOC(=O)c3ccc(-c4c5nc(c(-c6cc(S(=O)(=O)[O-])ccc6F)c6ccc([nH]6)c(-c6cc(S(=O)(=O)[O-])ccc6F)c6nc(c(-c7cc(S(=O)(=O)[O-])ccc7F)c7ccc4[nH]7)C=C6)C=C5)cc3)cc2)c1
REMARK SMILES IDX 20 1 19 2 18 3 17 4 16 5 14 6 15 7 12 8 13 9 11 10 8 11 9 12
REMARK SMILES IDX 92 13 10 14 91 15 7 16 3 17 4 18 93 19 5 20 6 21 2 22 1 23
REMARK SMILES IDX 21 24 22 25 23 26 24 27 25 28 26 29 27 30 28 31 29 32 90 33
REMARK SMILES IDX 30 34 89 35 31 36 32 37 33 38 83 39 34 40 88 41 82 42 84 43
REMARK SMILES IDX 35 44 87 45 81 46 80 47 36 49 68 50 48 51 67 52 49 53 52 54
REMARK SMILES IDX 66 55 85 56 50 57 51 58 65 60 86 61 53 62 37 63 38 64 46 65
REMARK SMILES IDX 39 66 45 67 47 68 44 69 40 70 41 71 42 72 43 73 69 74 70 75
REMARK SMILES IDX 78 76 71 77 77 78 79 79 76 80 72 81 73 82 74 83 75 84 54 85
REMARK SMILES IDX 55 86 63 87 56 88 62 89 64 90 61 91 57 92 58 93 59 94 60 95
REMARK H PARENT 84 48 52 59
REMARK Flexibility Score: inf
ROOT
ATOM      1  C   UNL A   1      37.759  34.463  33.233  1.00  0.00     0.188 C 
ENDROOT
BRANCH   1   2
ATOM      2  O   UNL A   1      36.612  35.170  33.693  1.00  0.00    -0.376 OA
BRANCH   2   3
ATOM      3  C   UNL A   1      35.459  35.236  32.863  1.00  0.00     0.202 C 
BRANCH   3   4
ATOM      4  C   UNL A   1      34.994  33.955  32.149  1.00  0.00     0.261 C 
BRANCH   4   5
ATOM      5  O   UNL A   1      35.141  33.952  30.709  1.00  0.00    -0.463 OA
BRANCH   5   6
ATOM      6  C   UNL A   1      36.226  33.305  30.211  1.00  0.00     0.313 C 
ATOM      7  O   UNL A   1      37.229  33.895  29.811  1.00  0.00    -0.252 OA
BRANCH   6   8
ATOM      8  C   UNL A   1      36.164  31.773  30.189  1.00  0.00     0.126 C 
ATOM      9  C   UNL A   1      35.933  31.282  31.618  1.00  0.00     0.025 C 
BRANCH   8  10
ATOM     10  C   UNL A   1      37.248  30.929  29.517  1.00  0.00    -0.034 A 
ATOM     11  C   UNL A   1      39.360  29.373  28.359  1.00  0.00    -0.018 A 
ATOM     12  C   UNL A   1      38.137  29.573  27.693  1.00  0.00     0.009 A 
ATOM     13  C   UNL A   1      39.509  29.968  29.617  1.00  0.00     0.009 A 
ATOM     14  C   UNL A   1      37.101  30.344  28.255  1.00  0.00     0.005 A 
ATOM     15  C   UNL A   1      38.480  30.740  30.180  1.00  0.00     0.005 A 
BRANCH  11  16
ATOM     16  C   UNL A   1      40.470  28.628  27.726  1.00  0.00    -0.018 A 
ATOM     17  C   UNL A   1      42.340  27.037  27.820  1.00  0.00    -0.026 A 
ATOM     18  C   UNL A   1      42.625  27.302  26.476  1.00  0.00     0.008 A 
ATOM     19  C   UNL A   1      41.268  27.710  28.439  1.00  0.00     0.016 A 
ATOM     20  C   UNL A   1      41.847  28.201  25.753  1.00  0.00     0.001 A 
ATOM     21  C   UNL A   1      40.781  28.854  26.373  1.00  0.00     0.009 A 
BRANCH  17  22
ATOM     22  C   UNL A   1      43.225  26.108  28.538  1.00  0.00     0.000 C 
ATOM     23  C   UNL A   1      44.124  25.309  27.951  1.00  0.00     0.009 C 
ENDBRANCH  17  22
ENDBRANCH  11  16
ENDBRANCH   8  10
ENDBRANCH   6   8
ENDBRANCH   5   6
ENDBRANCH   4   5
ENDBRANCH   3   4
ENDBRANCH   2   3
ENDBRANCH   1   2
BRANCH   1  24
ATOM     24  C   UNL A   1      39.111  34.718  33.914  1.00  0.00     0.188 C 
BRANCH  24  25
ATOM     25  O   UNL A   1      39.089  35.744  34.881  1.00  0.00    -0.376 OA
BRANCH  25  26
ATOM     26  C   UNL A   1      39.624  35.444  36.154  1.00  0.00     0.202 C 
BRANCH  26  27
ATOM     27  C   UNL A   1      38.792  34.503  37.035  1.00  0.00     0.261 C 
BRANCH  27  28
ATOM     28  O   UNL A   1      39.253  33.145  37.136  1.00  0.00    -0.460 OA
BRANCH  28  29
ATOM     29  C   UNL A   1      38.583  32.201  36.435  1.00  0.00     0.338 C 
ATOM     30  O   UNL A   1      37.383  31.983  36.465  1.00  0.00    -0.246 OA
BRANCH  29  31
ATOM     31  C   UNL A   1      39.541  31.621  35.464  1.00  0.00     0.060 A 
ATOM     32  C   UNL A   1      40.920  31.833  35.620  1.00  0.00     0.016 A 
ATOM     33  C   UNL A   1      39.067  30.833  34.415  1.00  0.00     0.016 A 
ATOM     34  C   UNL A   1      41.827  31.270  34.714  1.00  0.00     0.010 A 
ATOM     35  C   UNL A   1      39.970  30.293  33.498  1.00  0.00     0.010 A 
ATOM     36  C   UNL A   1      41.352  30.527  33.626  1.00  0.00    -0.014 A 
BRANCH  36  37
ATOM     37  C   UNL A   1      42.231  30.169  32.482  1.00  0.00     0.031 A 
ATOM     38  C   UNL A   1      42.925  28.837  32.532  1.00  0.00     0.074 A 
ATOM     39  C   UNL A   1      42.475  31.020  31.469  1.00  0.00     0.049 A 
ATOM     40  N   UNL A   1      43.919  28.384  31.814  1.00  0.00    -0.248 NA
ATOM     41  C   UNL A   1      42.438  27.896  33.555  1.00  0.00     0.031 C 
ATOM     42  C   UNL A   1      41.817  32.307  31.266  1.00  0.00     0.029 A 
ATOM     43  N   UNL A   1      43.378  30.935  30.435  1.00  0.00    -0.354 N 
ATOM     44  C   UNL A   1      44.197  27.116  32.316  1.00  0.00     0.074 A 
ATOM     45  C   UNL A   1      43.280  26.886  33.412  1.00  0.00     0.031 C 
ATOM     46  C   UNL A   1      42.359  32.907  30.190  1.00  0.00     0.029 A 
ATOM     47  C   UNL A   1      43.444  32.076  29.667  1.00  0.00     0.049 A 
ATOM     48  H   UNL A   1      43.924  30.135  30.259  1.00  0.00     0.167 HD
ATOM     49  C   UNL A   1      45.135  26.231  31.901  1.00  0.00     0.034 A 
ATOM     50  C   UNL A   1      44.314  32.428  28.695  1.00  0.00     0.034 A 
ATOM     51  C   UNL A   1      46.050  26.487  30.817  1.00  0.00     0.049 A 
ATOM     52  C   UNL A   1      45.427  31.472  28.318  1.00  0.00     0.074 A 
ATOM     53  C   UNL A   1      47.036  25.659  30.311  1.00  0.00     0.029 A 
ATOM     54  N   UNL A   1      46.100  27.664  30.082  1.00  0.00    -0.354 N 
ATOM     55  N   UNL A   1      45.701  30.285  28.811  1.00  0.00    -0.248 NA
ATOM     56  C   UNL A   1      46.350  31.903  27.257  1.00  0.00     0.031 C 
ATOM     57  C   UNL A   1      47.737  26.366  29.329  1.00  0.00     0.029 A 
ATOM     58  C   UNL A   1      47.123  27.595  29.150  1.00  0.00     0.049 A 
ATOM     59  H   UNL A   1      45.499  28.434  30.205  1.00  0.00     0.167 HD
ATOM     60  C   UNL A   1      46.793  29.812  28.084  1.00  0.00     0.074 A 
ATOM     61  C   UNL A   1      47.134  30.841  27.127  1.00  0.00     0.031 C 
ATOM     62  C   UNL A   1      47.445  28.625  28.188  1.00  0.00     0.034 A 
BRANCH  49  63
ATOM     63  C   UNL A   1      45.258  24.938  32.671  1.00  0.00     0.023 A 
ATOM     64  C   UNL A   1      46.150  24.798  33.748  1.00  0.00     0.031 A 
ATOM     65  C   UNL A   1      44.491  23.818  32.300  1.00  0.00     0.131 A 
ATOM     66  C   UNL A   1      46.309  23.549  34.365  1.00  0.00     0.055 A 
ATOM     67  C   UNL A   1      44.589  22.602  32.978  1.00  0.00     0.041 A 
ATOM     68  F   UNL A   1      43.643  23.883  31.262  1.00  0.00    -0.206 F 
ATOM     69  C   UNL A   1      45.514  22.457  34.007  1.00  0.00     0.022 A 
BRANCH  66  70
ATOM     70  S   UNL A   1      47.679  23.330  35.533  1.00  0.00     0.124 S 
ATOM     71  O   UNL A   1      48.839  23.460  34.655  1.00  0.00    -0.237 OA
ATOM     72  O   UNL A   1      47.466  24.422  36.476  1.00  0.00    -0.237 OA
ATOM     73  O   UNL A   1      47.460  21.989  36.071  1.00  0.00    -0.744 OA
ENDBRANCH  66  70
ENDBRANCH  49  63
BRANCH  50  74
ATOM     74  C   UNL A   1      44.221  33.768  28.040  1.00  0.00     0.023 A 
ATOM     75  C   UNL A   1      44.527  34.942  28.746  1.00  0.00     0.031 A 
ATOM     76  C   UNL A   1      43.760  33.900  26.718  1.00  0.00     0.131 A 
ATOM     77  C   UNL A   1      44.321  36.196  28.147  1.00  0.00     0.055 A 
ATOM     78  C   UNL A   1      43.618  35.146  26.104  1.00  0.00     0.041 A 
ATOM     79  F   UNL A   1      43.440  32.812  25.998  1.00  0.00    -0.206 F 
ATOM     80  C   UNL A   1      43.886  36.305  26.825  1.00  0.00     0.022 A 
BRANCH  77  81
ATOM     81  S   UNL A   1      44.530  37.686  29.160  1.00  0.00     0.124 S 
ATOM     82  O   UNL A   1      45.955  37.641  29.461  1.00  0.00    -0.237 OA
ATOM     83  O   UNL A   1      44.099  38.738  28.244  1.00  0.00    -0.237 OA
ATOM     84  O   UNL A   1      43.642  37.452  30.298  1.00  0.00    -0.744 OA
ENDBRANCH  77  81
ENDBRANCH  50  74
BRANCH  62  85
ATOM     85  C   UNL A   1      48.534  28.324  27.185  1.00  0.00     0.023 A 
ATOM     86  C   UNL A   1      48.259  27.903  25.872  1.00  0.00     0.031 A 
ATOM     87  C   UNL A   1      49.880  28.518  27.550  1.00  0.00     0.131 A 
ATOM     88  C   UNL A   1      49.319  27.661  24.983  1.00  0.00     0.055 A 
ATOM     89  C   UNL A   1      50.925  28.332  26.643  1.00  0.00     0.041 A 
ATOM     90  F   UNL A   1      50.200  28.916  28.791  1.00  0.00    -0.206 F 
ATOM     91  C   UNL A   1      50.647  27.894  25.353  1.00  0.00     0.022 A 
BRANCH  88  92
ATOM     92  S   UNL A   1      48.949  26.978  23.342  1.00  0.00     0.124 S 
ATOM     93  O   UNL A   1      48.102  28.017  22.765  1.00  0.00    -0.237 OA
ATOM     94  O   UNL A   1      50.277  26.838  22.754  1.00  0.00    -0.237 OA
ATOM     95  O   UNL A   1      48.268  25.719  23.639  1.00  0.00    -0.744 OA
ENDBRANCH  88  92
ENDBRANCH  62  85
ENDBRANCH  36  37
ENDBRANCH  29  31
ENDBRANCH  28  29
ENDBRANCH  27  28
ENDBRANCH  26  27
ENDBRANCH  25  26
ENDBRANCH  24  25
ENDBRANCH   1  24
TORSDOF 23
ENDMDL
MODEL 2
REMARK VINA RESULT:      -7.8      3.480      5.585
REMARK SMILES C=Cc1cccc(-c2ccc([C@@H](C)C(=O)OCCOCCOCCOC(=O)c3ccc(-c4c5nc(c(-c6cc(S(=O)(=O)[O-])ccc6F)c6ccc([nH]6)c(-c6cc(S(=O)(=O)[O-])ccc6F)c6nc(c(-c7cc(S(=O)(=O)[O-])ccc7F)c7ccc4[nH]7)C=C6)C=C5)cc3)cc2)c1
REMARK SMILES IDX 20 1 19 2 18 3 17 4 16 5 14 6 15 7 12 8 13 9 11 10 8 11 9 12
REMARK SMILES IDX 92 13 10 14 91 15 7 16 3 17 4 18 93 19 5 20 6 21 2 22 1 23
REMARK SMILES IDX 21 24 22 25 23 26 24 27 25 28 26 29 27 30 28 31 29 32 90 33
REMARK SMILES IDX 30 34 89 35 31 36 32 37 33 38 83 39 34 40 88 41 82 42 84 43
REMARK SMILES IDX 35 44 87 45 81 46 80 47 36 49 68 50 48 51 67 52 49 53 52 54
REMARK SMILES IDX 66 55 85 56 50 57 51 58 65 60 86 61 53 62 37 63 38 64 46 65
REMARK SMILES IDX 39 66 45 67 47 68 44 69 40 70 41 71 42 72 43 73 69 74 70 75
REMARK SMILES IDX 78 76 71 77 77 78 79 79 76 80 72 81 73 82 74 83 75 84 54 85
REMARK SMILES IDX 55 86 63 87 56 88 62 89 64 90 61 91 57 92 58 93 59 94 60 95
REMARK H PARENT 84 48 52 59
REMARK Flexibility Score: inf
ROOT
ATOM      1  C   UNL A   1      37.756  34.053  32.433  1.00  0.00     0.188 C 
ENDROOT
BRANCH   1   2
ATOM      2  O   UNL A   1      36.340  34.203  32.389  1.00  0.00    -0.376 OA
BRANCH   2   3
ATOM      3  C   UNL A   1      35.628  33.726  31.255  1.00  0.00     0.202 C 
BRANCH   3   4
ATOM      4  C   UNL A   1      35.806  32.255  30.840  1.00  0.00     0.261 C 
BRANCH   4   5
ATOM      5  O   UNL A   1      35.644  31.977  29.429  1.00  0.00    -0.463 OA
BRANCH   5   6
ATOM      6  C   UNL A   1      36.781  31.758  28.720  1.00  0.00     0.313 C 
ATOM      7  O   UNL A   1      37.739  32.529  28.741  1.00  0.00    -0.252 OA
BRANCH   6   8
ATOM      8  C   UNL A   1      36.837  30.469  27.891  1.00  0.00     0.126 C 
ATOM      9  C   UNL A   1      35.456  29.815  27.928  1.00  0.00     0.025 C 
BRANCH   8  10
ATOM     10  C   UNL A   1      37.921  29.413  28.111  1.00  0.00    -0.034 A 
ATOM     11  C   UNL A   1      40.014  27.476  28.416  1.00  0.00    -0.018 A 
ATOM     12  C   UNL A   1      38.919  27.528  29.297  1.00  0.00     0.009 A 
ATOM     13  C   UNL A   1      40.043  28.412  27.376  1.00  0.00     0.009 A 
ATOM     14  C   UNL A   1      37.884  28.472  29.146  1.00  0.00     0.005 A 
ATOM     15  C   UNL A   1      39.013  29.354  27.219  1.00  0.00     0.005 A 
BRANCH  11  16
ATOM     16  C   UNL A   1      41.053  26.431  28.538  1.00  0.00    -0.018 A 
ATOM     17  C   UNL A   1      43.376  25.721  28.911  1.00  0.00    -0.026 A 
ATOM     18  C   UNL A   1      43.002  24.394  28.673  1.00  0.00     0.008 A 
ATOM     19  C   UNL A   1      42.399  26.733  28.832  1.00  0.00     0.016 A 
ATOM     20  C   UNL A   1      41.678  24.074  28.386  1.00  0.00     0.001 A 
ATOM     21  C   UNL A   1      40.716  25.083  28.321  1.00  0.00     0.009 A 
BRANCH  17  22
ATOM     22  C   UNL A   1      44.796  25.997  29.168  1.00  0.00     0.000 C 
ATOM     23  C   UNL A   1      45.659  25.117  29.691  1.00  0.00     0.009 C 
ENDBRANCH  17  22
ENDBRANCH  11  16
ENDBRANCH   8  10
ENDBRANCH   6   8
ENDBRANCH   5   6
ENDBRANCH   4   5
ENDBRANCH   3   4
ENDBRANCH   2   3
ENDBRANCH   1   2
BRANCH   1  24
ATOM     24  C   UNL A   1      38.524  34.600  33.645  1.00  0.00     0.188 C 
BRANCH  24  25
ATOM     25  O   UNL A   1      37.958  34.258  34.891  1.00  0.00    -0.376 OA
BRANCH  25  26
ATOM     26  C   UNL A   1      38.457  33.103  35.532  1.00  0.00     0.202 C 
BRANCH  26  27
ATOM     27  C   UNL A   1      37.797  31.773  35.145  1.00  0.00     0.261 C 
BRANCH  27  28
ATOM     28  O   UNL A   1      38.658  30.772  34.577  1.00  0.00    -0.460 OA
BRANCH  28  29
ATOM     29  C   UNL A   1      38.392  30.357  33.316  1.00  0.00     0.338 C 
ATOM     30  O   UNL A   1      37.340  29.894  32.906  1.00  0.00    -0.246 OA
BRANCH  29  31
ATOM     31  C   UNL A   1      39.541  30.765  32.474  1.00  0.00     0.060 A 
ATOM     32  C   UNL A   1      40.722  31.236  33.071  1.00  0.00     0.016 A 
ATOM     33  C   UNL A   1      39.457  30.645  31.087  1.00  0.00     0.016 A 
ATOM     34  C   UNL A   1      41.815  31.604  32.278  1.00  0.00     0.010 A 
ATOM     35  C   UNL A   1      40.539  31.036  30.296  1.00  0.00     0.010 A 
ATOM     36  C   UNL A   1      41.714  31.541  30.883  1.00  0.00    -0.014 A 
BRANCH  36  37
ATOM     37  C   UNL A   1      42.712  32.195  29.997  1.00  0.00     0.031 A 
ATOM     38  C   UNL A   1      43.889  31.372  29.553  1.00  0.00     0.074 A 
ATOM     39  C   UNL A   1      42.631  33.494  29.658  1.00  0.00     0.049 A 
ATOM     40  N   UNL A   1      45.012  31.749  29.001  1.00  0.00    -0.248 NA
ATOM     41  C   UNL A   1      43.786  29.923  29.790  1.00  0.00     0.031 C 
ATOM     42  C   UNL A   1      41.512  34.382  29.964  1.00  0.00     0.029 A 
ATOM     43  N   UNL A   1      43.533  34.302  29.007  1.00  0.00    -0.354 N 
ATOM     44  C   UNL A   1      45.763  30.587  28.849  1.00  0.00     0.074 A 
ATOM     45  C   UNL A   1      44.974  29.501  29.389  1.00  0.00     0.031 C 
ATOM     46  C   UNL A   1      41.807  35.619  29.526  1.00  0.00     0.029 A 
ATOM     47  C   UNL A   1      43.160  35.626  28.968  1.00  0.00     0.049 A 
ATOM     48  H   UNL A   1      44.367  33.965  28.605  1.00  0.00     0.167 HD
ATOM     49  C   UNL A   1      46.999  30.445  28.312  1.00  0.00     0.034 A 
ATOM     50  C   UNL A   1      43.851  36.719  28.579  1.00  0.00     0.034 A 
ATOM     51  C   UNL A   1      47.776  31.544  27.795  1.00  0.00     0.049 A 
ATOM     52  C   UNL A   1      45.273  36.558  28.085  1.00  0.00     0.074 A 
ATOM     53  C   UNL A   1      49.036  31.513  27.225  1.00  0.00     0.029 A 
ATOM     54  N   UNL A   1      47.372  32.872  27.797  1.00  0.00    -0.354 N 
ATOM     55  N   UNL A   1      45.988  35.461  27.965  1.00  0.00    -0.248 NA
ATOM     56  C   UNL A   1      45.984  37.779  27.677  1.00  0.00     0.031 C 
ATOM     57  C   UNL A   1      49.428  32.828  26.961  1.00  0.00     0.029 A 
ATOM     58  C   UNL A   1      48.373  33.672  27.269  1.00  0.00     0.049 A 
ATOM     59  H   UNL A   1      46.503  33.198  28.125  1.00  0.00     0.167 HD
ATOM     60  C   UNL A   1      47.210  35.859  27.421  1.00  0.00     0.074 A 
ATOM     61  C   UNL A   1      47.140  37.293  27.244  1.00  0.00     0.031 C 
ATOM     62  C   UNL A   1      48.285  35.102  27.083  1.00  0.00     0.034 A 
BRANCH  49  63
ATOM     63  C   UNL A   1      47.608  29.064  28.327  1.00  0.00     0.023 A 
ATOM     64  C   UNL A   1      48.398  28.612  29.398  1.00  0.00     0.031 A 
ATOM     65  C   UNL A   1      47.419  28.196  27.236  1.00  0.00     0.131 A 
ATOM     66  C   UNL A   1      49.031  27.363  29.322  1.00  0.00     0.055 A 
ATOM     67  C   UNL A   1      47.978  26.918  27.207  1.00  0.00     0.041 A 
ATOM     68  F   UNL A   1      46.697  28.582  26.172  1.00  0.00    -0.206 F 
ATOM     69  C   UNL A   1      48.803  26.501  28.246  1.00  0.00     0.022 A 
BRANCH  66  70
ATOM     70  S   UNL A   1      50.279  26.948  30.570  1.00  0.00     0.124 S 
ATOM     71  O   UNL A   1      49.530  27.138  31.810  1.00  0.00    -0.237 OA
ATOM     72  O   UNL A   1      50.617  25.571  30.232  1.00  0.00    -0.237 OA
ATOM     73  O   UNL A   1      51.339  27.927  30.334  1.00  0.00    -0.744 OA
ENDBRANCH  66  70
ENDBRANCH  49  63
BRANCH  50  74
ATOM     74  C   UNL A   1      43.246  38.082  28.690  1.00  0.00     0.023 A 
ATOM     75  C   UNL A   1      43.416  38.858  29.848  1.00  0.00     0.031 A 
ATOM     76  C   UNL A   1      42.431  38.601  27.667  1.00  0.00     0.131 A 
ATOM     77  C   UNL A   1      42.742  40.083  29.978  1.00  0.00     0.055 A 
ATOM     78  C   UNL A   1      41.815  39.850  27.774  1.00  0.00     0.041 A 
ATOM     79  F   UNL A   1      42.222  37.899  26.542  1.00  0.00    -0.206 F 
ATOM     80  C   UNL A   1      41.958  40.593  28.941  1.00  0.00     0.022 A 
BRANCH  77  81
ATOM     81  S   UNL A   1      42.822  40.954  31.567  1.00  0.00     0.124 S 
ATOM     82  O   UNL A   1      43.023  39.850  32.498  1.00  0.00    -0.237 OA
ATOM     83  O   UNL A   1      43.961  41.844  31.370  1.00  0.00    -0.237 OA
ATOM     84  O   UNL A   1      41.523  41.618  31.657  1.00  0.00    -0.744 OA
ENDBRANCH  77  81
ENDBRANCH  50  74
BRANCH  62  85
ATOM     85  C   UNL A   1      49.446  35.787  26.398  1.00  0.00     0.023 A 
ATOM     86  C   UNL A   1      50.496  36.391  27.110  1.00  0.00     0.031 A 
ATOM     87  C   UNL A   1      49.516  35.784  24.992  1.00  0.00     0.131 A 
ATOM     88  C   UNL A   1      51.556  36.992  26.412  1.00  0.00     0.055 A 
ATOM     89  C   UNL A   1      50.600  36.330  24.305  1.00  0.00     0.041 A 
ATOM     90  F   UNL A   1      48.539  35.223  24.261  1.00  0.00    -0.206 F 
ATOM     91  C   UNL A   1      51.625  36.946  25.016  1.00  0.00     0.022 A 
BRANCH  88  92
ATOM     92  S   UNL A   1      52.825  37.893  27.346  1.00  0.00     0.124 S 
ATOM     93  O   UNL A   1      53.931  36.941  27.352  1.00  0.00    -0.237 OA
ATOM     94  O   UNL A   1      53.018  39.091  26.537  1.00  0.00    -0.237 OA
ATOM     95  O   UNL A   1      52.197  38.119  28.647  1.00  0.00    -0.744 OA
ENDBRANCH  88  92
ENDBRANCH  62  85
ENDBRANCH  36  37
ENDBRANCH  29  31
ENDBRANCH  28  29
ENDBRANCH  27  28
ENDBRANCH  26  27
ENDBRANCH  25  26
ENDBRANCH  24  25
ENDBRANCH   1  24
TORSDOF 23
ENDMDL
MODEL 3
REMARK VINA RESULT:      -7.6      4.342      7.456
REMARK SMILES C=Cc1cccc(-c2ccc([C@@H](C)C(=O)OCCOCCOCCOC(=O)c3ccc(-c4c5nc(c(-c6cc(S(=O)(=O)[O-])ccc6F)c6ccc([nH]6)c(-c6cc(S(=O)(=O)[O-])ccc6F)c6nc(c(-c7cc(S(=O)(=O)[O-])ccc7F)c7ccc4[nH]7)C=C6)C=C5)cc3)cc2)c1
REMARK SMILES IDX 20 1 19 2 18 3 17 4 16 5 14 6 15 7 12 8 13 9 11 10 8 11 9 12
REMARK SMILES IDX 92 13 10 14 91 15 7 16 3 17 4 18 93 19 5 20 6 21 2 22 1 23
REMARK SMILES IDX 21 24 22 25 23 26 24 27 25 28 26 29 27 30 28 31 29 32 90 33
REMARK SMILES IDX 30 34 89 35 31 36 32 37 33 38 83 39 34 40 88 41 82 42 84 43
REMARK SMILES IDX 35 44 87 45 81 46 80 47 36 49 68 50 48 51 67 52 49 53 52 54
REMARK SMILES IDX 66 55 85 56 50 57 51 58 65 60 86 61 53 62 37 63 38 64 46 65
REMARK SMILES IDX 39 66 45 67 47 68 44 69 40 70 41 71 42 72 43 73 69 74 70 75
REMARK SMILES IDX 78 76 71 77 77 78 79 79 76 80 72 81 73 82 74 83 75 84 54 85
REMARK SMILES IDX 55 86 63 87 56 88 62 89 64 90 61 91 57 92 58 93 59 94 60 95
REMARK H PARENT 84 48 52 59
REMARK Flexibility Score: inf
ROOT
ATOM      1  C   UNL A   1      34.526  36.185  32.902  1.00  0.00     0.188 C 
ENDROOT
BRANCH   1   2
ATOM      2  O   UNL A   1      34.774  35.686  34.212  1.00  0.00    -0.376 OA
BRANCH   2   3
ATOM      3  C   UNL A   1      34.952  34.288  34.400  1.00  0.00     0.202 C 
BRANCH   3   4
ATOM      4  C   UNL A   1      36.156  33.805  35.228  1.00  0.00     0.261 C 
BRANCH   4   5
ATOM      5  O   UNL A   1      36.862  32.659  34.696  1.00  0.00    -0.463 OA
BRANCH   5   6
ATOM      6  C   UNL A   1      37.745  32.051  35.529  1.00  0.00     0.313 C 
ATOM      7  O   UNL A   1      37.443  31.674  36.661  1.00  0.00    -0.252 OA
BRANCH   6   8
ATOM      8  C   UNL A   1      39.160  31.823  34.985  1.00  0.00     0.126 C 
ATOM      9  C   UNL A   1      39.860  33.179  34.885  1.00  0.00     0.025 C 
BRANCH   8  10
ATOM     10  C   UNL A   1      39.417  31.009  33.716  1.00  0.00    -0.034 A 
ATOM     11  C   UNL A   1      39.816  29.563  31.272  1.00  0.00    -0.018 A 
ATOM     12  C   UNL A   1      40.421  29.162  32.477  1.00  0.00     0.009 A 
ATOM     13  C   UNL A   1      39.004  30.703  31.311  1.00  0.00     0.009 A 
ATOM     14  C   UNL A   1      40.221  29.865  33.681  1.00  0.00     0.005 A 
ATOM     15  C   UNL A   1      38.799  31.405  32.510  1.00  0.00     0.005 A 
BRANCH  11  16
ATOM     16  C   UNL A   1      39.971  28.773  30.031  1.00  0.00    -0.018 A 
ATOM     17  C   UNL A   1      40.813  28.482  27.741  1.00  0.00    -0.026 A 
ATOM     18  C   UNL A   1      40.155  27.250  27.662  1.00  0.00     0.008 A 
ATOM     19  C   UNL A   1      40.708  29.241  28.924  1.00  0.00     0.016 A 
ATOM     20  C   UNL A   1      39.425  26.769  28.745  1.00  0.00     0.001 A 
ATOM     21  C   UNL A   1      39.337  27.523  29.916  1.00  0.00     0.009 A 
BRANCH  17  22
ATOM     22  C   UNL A   1      41.532  28.953  26.549  1.00  0.00     0.000 C 
ATOM     23  C   UNL A   1      41.717  28.228  25.438  1.00  0.00     0.009 C 
ENDBRANCH  17  22
ENDBRANCH  11  16
ENDBRANCH   8  10
ENDBRANCH   6   8
ENDBRANCH   5   6
ENDBRANCH   4   5
ENDBRANCH   3   4
ENDBRANCH   2   3
ENDBRANCH   1   2
BRANCH   1  24
ATOM     24  C   UNL A   1      33.428  35.531  32.053  1.00  0.00     0.188 C 
BRANCH  24  25
ATOM     25  O   UNL A   1      33.701  34.198  31.680  1.00  0.00    -0.376 OA
BRANCH  25  26
ATOM     26  C   UNL A   1      34.626  33.997  30.633  1.00  0.00     0.202 C 
BRANCH  26  27
ATOM     27  C   UNL A   1      35.941  33.301  31.013  1.00  0.00     0.261 C 
BRANCH  27  28
ATOM     28  O   UNL A   1      37.143  33.849  30.447  1.00  0.00    -0.460 OA
BRANCH  28  29
ATOM     29  C   UNL A   1      37.994  34.491  31.282  1.00  0.00     0.338 C 
ATOM     30  O   UNL A   1      37.790  34.786  32.449  1.00  0.00    -0.246 OA
BRANCH  29  31
ATOM     31  C   UNL A   1      39.299  34.581  30.585  1.00  0.00     0.060 A 
ATOM     32  C   UNL A   1      40.494  34.398  31.299  1.00  0.00     0.016 A 
ATOM     33  C   UNL A   1      39.332  34.811  29.210  1.00  0.00     0.016 A 
ATOM     34  C   UNL A   1      41.727  34.464  30.638  1.00  0.00     0.010 A 
ATOM     35  C   UNL A   1      40.562  34.901  28.557  1.00  0.00     0.010 A 
ATOM     36  C   UNL A   1      41.767  34.753  29.269  1.00  0.00    -0.014 A 
BRANCH  36  37
ATOM     37  C   UNL A   1      43.033  35.132  28.587  1.00  0.00     0.031 A 
ATOM     38  C   UNL A   1      43.987  34.026  28.234  1.00  0.00     0.074 A 
ATOM     39  C   UNL A   1      43.370  36.414  28.359  1.00  0.00     0.049 A 
ATOM     40  N   UNL A   1      45.242  34.087  27.874  1.00  0.00    -0.248 NA
ATOM     41  C   UNL A   1      43.448  32.659  28.324  1.00  0.00     0.031 C 
ATOM     42  C   UNL A   1      42.510  37.572  28.589  1.00  0.00     0.029 A 
ATOM     43  N   UNL A   1      44.552  36.956  27.909  1.00  0.00    -0.354 N 
ATOM     44  C   UNL A   1      45.653  32.767  27.721  1.00  0.00     0.074 A 
ATOM     45  C   UNL A   1      44.518  31.931  28.051  1.00  0.00     0.031 C 
ATOM     46  C   UNL A   1      43.203  38.690  28.307  1.00  0.00     0.029 A 
ATOM     47  C   UNL A   1      44.574  38.332  27.939  1.00  0.00     0.049 A 
ATOM     48  H   UNL A   1      45.310  36.412  27.595  1.00  0.00     0.167 HD
ATOM     49  C   UNL A   1      46.868  32.299  27.345  1.00  0.00     0.034 A 
ATOM     50  C   UNL A   1      45.594  39.195  27.746  1.00  0.00     0.034 A 
ATOM     51  C   UNL A   1      47.990  33.149  27.037  1.00  0.00     0.049 A 
ATOM     52  C   UNL A   1      46.973  38.653  27.435  1.00  0.00     0.074 A 
ATOM     53  C   UNL A   1      49.264  32.782  26.642  1.00  0.00     0.029 A 
ATOM     54  N   UNL A   1      47.978  34.536  27.104  1.00  0.00    -0.354 N 
ATOM     55  N   UNL A   1      47.363  37.403  27.315  1.00  0.00    -0.248 NA
ATOM     56  C   UNL A   1      48.051  39.634  27.237  1.00  0.00     0.031 C 
ATOM     57  C   UNL A   1      50.043  33.938  26.552  1.00  0.00     0.029 A 
ATOM     58  C   UNL A   1      49.231  35.036  26.789  1.00  0.00     0.049 A 
ATOM     59  H   UNL A   1      47.194  35.083  27.340  1.00  0.00     0.167 HD
ATOM     60  C   UNL A   1      48.716  37.456  26.978  1.00  0.00     0.074 A 
ATOM     61  C   UNL A   1      49.077  38.855  26.922  1.00  0.00     0.031 C 
ATOM     62  C   UNL A   1      49.576  36.437  26.722  1.00  0.00     0.034 A 
BRANCH  49  63
ATOM     63  C   UNL A   1      47.056  30.801  27.318  1.00  0.00     0.023 A 
ATOM     64  C   UNL A   1      46.848  30.048  26.149  1.00  0.00     0.031 A 
ATOM     65  C   UNL A   1      47.420  30.112  28.489  1.00  0.00     0.131 A 
ATOM     66  C   UNL A   1      46.930  28.649  26.195  1.00  0.00     0.055 A 
ATOM     67  C   UNL A   1      47.588  28.727  28.506  1.00  0.00     0.041 A 
ATOM     68  F   UNL A   1      47.605  30.773  29.642  1.00  0.00    -0.206 F 
ATOM     69  C   UNL A   1      47.327  27.985  27.359  1.00  0.00     0.022 A 
BRANCH  66  70
ATOM     70  S   UNL A   1      46.357  27.702  24.760  1.00  0.00     0.124 S 
ATOM     71  O   UNL A   1      46.806  28.543  23.653  1.00  0.00    -0.237 OA
ATOM     72  O   UNL A   1      47.055  26.432  24.921  1.00  0.00    -0.237 OA
ATOM     73  O   UNL A   1      44.908  27.645  24.942  1.00  0.00    -0.744 OA
ENDBRANCH  66  70
ENDBRANCH  49  63
BRANCH  50  74
ATOM     74  C   UNL A   1      45.383  40.668  27.896  1.00  0.00     0.023 A 
ATOM     75  C   UNL A   1      45.278  41.259  29.165  1.00  0.00     0.031 A 
ATOM     76  C   UNL A   1      45.216  41.497  26.772  1.00  0.00     0.131 A 
ATOM     77  C   UNL A   1      44.963  42.622  29.281  1.00  0.00     0.055 A 
ATOM     78  C   UNL A   1      44.968  42.866  26.892  1.00  0.00     0.041 A 
ATOM     79  F   UNL A   1      45.294  40.985  25.532  1.00  0.00    -0.206 F 
ATOM     80  C   UNL A   1      44.826  43.433  28.153  1.00  0.00     0.022 A 
BRANCH  77  81
ATOM     81  S   UNL A   1      44.631  43.299  30.931  1.00  0.00     0.124 S 
ATOM     82  O   UNL A   1      45.874  42.995  31.630  1.00  0.00    -0.237 OA
ATOM     83  O   UNL A   1      44.387  44.708  30.638  1.00  0.00    -0.237 OA
ATOM     84  O   UNL A   1      43.461  42.547  31.379  1.00  0.00    -0.744 OA
ENDBRANCH  77  81
ENDBRANCH  50  74
BRANCH  62  85
ATOM     85  C   UNL A   1      50.973  36.788  26.263  1.00  0.00     0.023 A 
ATOM     86  C   UNL A   1      52.042  36.962  27.158  1.00  0.00     0.031 A 
ATOM     87  C   UNL A   1      51.238  36.900  24.885  1.00  0.00     0.131 A 
ATOM     88  C   UNL A   1      53.321  37.267  26.664  1.00  0.00     0.055 A 
ATOM     89  C   UNL A   1      52.523  37.145  24.398  1.00  0.00     0.041 A 
ATOM     90  F   UNL A   1      50.254  36.747  23.985  1.00  0.00    -0.206 F 
ATOM     91  C   UNL A   1      53.572  37.337  25.290  1.00  0.00     0.022 A 
BRANCH  88  92
ATOM     92  S   UNL A   1      54.654  37.631  27.842  1.00  0.00     0.124 S 
ATOM     93  O   UNL A   1      54.400  39.031  28.164  1.00  0.00    -0.237 OA
ATOM     94  O   UNL A   1      54.397  36.673  28.912  1.00  0.00    -0.237 OA
ATOM     95  O   UNL A   1      55.871  37.385  27.070  1.00  0.00    -0.744 OA
ENDBRANCH  88  92
ENDBRANCH  62  85
ENDBRANCH  36  37
ENDBRANCH  29  31
ENDBRANCH  28  29
ENDBRANCH  27  28
ENDBRANCH  26  27
ENDBRANCH  25  26
ENDBRANCH  24  25
ENDBRANCH   1  24
TORSDOF 23
ENDMDL
