MODEL 1
REMARK VINA RESULT:     -11.0      0.000      0.000
REMARK SMILES C[C@H](Nc1ccc2c(c1)Cc1ccccc1-2)[C@@H](C)C(=O)OCCOCCOCCOC(=O)c1ccc(-c2c3nc(c(-c4cc(S(=O)(=O)[O-])ccc4F)c4ccc([nH]4)c(-c4cc(S(=O)(=O)[O-])ccc4F)c4nc(c(-c5cc(S(=O)(=O)[O-])ccc5F)c5ccc2[nH]5)C=C4)C=C3)cc1
REMARK SMILES IDX 25 1 24 2 23 3 22 4 21 5 19 6 20 7 17 8 18 9 2 10 1 11 3 12
REMARK SMILES IDX 4 14 5 15 9 16 6 17 8 18 7 19 10 20 16 21 11 22 15 23 12 24
REMARK SMILES IDX 14 25 13 26 26 27 27 28 28 29 29 30 30 31 31 32 32 33 33 34
REMARK SMILES IDX 34 35 95 36 35 37 94 38 36 39 37 40 38 41 88 42 39 43 93 44
REMARK SMILES IDX 87 45 89 46 40 47 92 48 86 49 85 50 41 52 73 53 53 54 72 55
REMARK SMILES IDX 54 56 57 57 71 58 90 59 55 60 56 61 70 63 91 64 58 65 42 66
REMARK SMILES IDX 43 67 51 68 44 69 50 70 52 71 49 72 45 73 46 74 47 75 48 76
REMARK SMILES IDX 74 77 75 78 83 79 76 80 82 81 84 82 81 83 77 84 78 85 79 86
REMARK SMILES IDX 80 87 59 88 60 89 68 90 61 91 67 92 69 93 66 94 62 95 63 96
REMARK SMILES IDX 64 97 65 98
REMARK H PARENT 3 13 89 51 57 62
REMARK Flexibility Score: inf
ROOT
ATOM      1  C   UNL A   1      40.325  21.538  26.969  1.00  0.00     0.188 C 
ENDROOT
BRANCH   1   2
ATOM      2  O   UNL A   1      39.344  20.963  26.118  1.00  0.00    -0.376 OA
BRANCH   2   3
ATOM      3  C   UNL A   1      38.271  21.818  25.747  1.00  0.00     0.202 C 
BRANCH   3   4
ATOM      4  C   UNL A   1      37.420  21.407  24.531  1.00  0.00     0.261 C 
BRANCH   4   5
ATOM      5  O   UNL A   1      36.008  21.735  24.557  1.00  0.00    -0.463 OA
BRANCH   5   6
ATOM      6  C   UNL A   1      35.608  22.613  23.598  1.00  0.00     0.310 C 
ATOM      7  O   UNL A   1      36.312  22.941  22.645  1.00  0.00    -0.252 OA
BRANCH   6   8
ATOM      8  C   UNL A   1      34.252  23.278  23.824  1.00  0.00     0.118 C 
ATOM      9  C   UNL A   1      33.628  23.417  22.428  1.00  0.00     0.022 C 
BRANCH   8  10
ATOM     10  C   UNL A   1      34.195  24.592  24.657  1.00  0.00     0.090 C 
ATOM     11  C   UNL A   1      35.257  24.574  25.765  1.00  0.00     0.031 C 
BRANCH  10  12
ATOM     12  N   UNL A   1      32.861  24.700  25.292  1.00  0.00    -0.382 N 
ATOM     13  H   UNL A   1      32.673  24.122  26.066  1.00  0.00     0.160 HD
BRANCH  12  14
ATOM     14  C   UNL A   1      31.851  25.563  24.872  1.00  0.00     0.035 A 
ATOM     15  C   UNL A   1      30.482  25.308  25.071  1.00  0.00     0.026 A 
ATOM     16  C   UNL A   1      32.224  26.694  24.127  1.00  0.00     0.030 A 
ATOM     17  C   UNL A   1      29.490  26.168  24.561  1.00  0.00     0.011 A 
ATOM     18  C   UNL A   1      31.245  27.522  23.604  1.00  0.00    -0.034 A 
ATOM     19  C   UNL A   1      29.878  27.277  23.828  1.00  0.00    -0.014 A 
ATOM     20  C   UNL A   1      31.431  28.744  22.730  1.00  0.00     0.072 C 
ATOM     21  C   UNL A   1      29.110  28.326  23.183  1.00  0.00    -0.015 A 
ATOM     22  C   UNL A   1      30.005  29.212  22.542  1.00  0.00    -0.036 A 
ATOM     23  C   UNL A   1      27.746  28.556  23.126  1.00  0.00     0.009 A 
ATOM     24  C   UNL A   1      29.560  30.325  21.846  1.00  0.00     0.005 A 
ATOM     25  C   UNL A   1      27.287  29.683  22.431  1.00  0.00     0.001 A 
ATOM     26  C   UNL A   1      28.186  30.559  21.799  1.00  0.00     0.000 A 
ENDBRANCH  12  14
ENDBRANCH  10  12
ENDBRANCH   8  10
ENDBRANCH   6   8
ENDBRANCH   5   6
ENDBRANCH   4   5
ENDBRANCH   3   4
ENDBRANCH   2   3
ENDBRANCH   1   2
BRANCH   1  27
ATOM     27  C   UNL A   1      41.328  20.558  27.575  1.00  0.00     0.188 C 
BRANCH  27  28
ATOM     28  O   UNL A   1      42.345  20.127  26.682  1.00  0.00    -0.376 OA
BRANCH  28  29
ATOM     29  C   UNL A   1      42.778  21.035  25.666  1.00  0.00     0.202 C 
BRANCH  29  30
ATOM     30  C   UNL A   1      44.259  21.443  25.477  1.00  0.00     0.261 C 
BRANCH  30  31
ATOM     31  O   UNL A   1      44.690  22.660  26.102  1.00  0.00    -0.460 OA
BRANCH  31  32
ATOM     32  C   UNL A   1      44.399  23.817  25.458  1.00  0.00     0.338 C 
ATOM     33  O   UNL A   1      44.547  24.022  24.265  1.00  0.00    -0.246 OA
BRANCH  32  34
ATOM     34  C   UNL A   1      43.625  24.689  26.394  1.00  0.00     0.060 A 
ATOM     35  C   UNL A   1      43.956  26.049  26.439  1.00  0.00     0.016 A 
ATOM     36  C   UNL A   1      42.534  24.223  27.137  1.00  0.00     0.016 A 
ATOM     37  C   UNL A   1      43.227  26.936  27.239  1.00  0.00     0.010 A 
ATOM     38  C   UNL A   1      41.820  25.108  27.961  1.00  0.00     0.010 A 
ATOM     39  C   UNL A   1      42.180  26.467  28.040  1.00  0.00    -0.014 A 
BRANCH  39  40
ATOM     40  C   UNL A   1      41.629  27.340  29.115  1.00  0.00     0.031 A 
ATOM     41  C   UNL A   1      42.366  27.393  30.430  1.00  0.00     0.074 A 
ATOM     42  C   UNL A   1      40.544  28.118  28.934  1.00  0.00     0.049 A 
ATOM     43  N   UNL A   1      42.061  28.019  31.536  1.00  0.00    -0.248 NA
ATOM     44  C   UNL A   1      43.621  26.628  30.497  1.00  0.00     0.031 C 
ATOM     45  C   UNL A   1      39.782  28.236  27.694  1.00  0.00     0.029 A 
ATOM     46  N   UNL A   1      39.894  28.963  29.806  1.00  0.00    -0.354 N 
ATOM     47  C   UNL A   1      43.079  27.718  32.435  1.00  0.00     0.074 A 
ATOM     48  C   UNL A   1      43.992  26.825  31.751  1.00  0.00     0.031 C 
ATOM     49  C   UNL A   1      38.764  29.095  27.886  1.00  0.00     0.029 A 
ATOM     50  C   UNL A   1      38.770  29.554  29.276  1.00  0.00     0.049 A 
ATOM     51  H   UNL A   1      40.206  29.130  30.726  1.00  0.00     0.167 HD
ATOM     52  C   UNL A   1      43.246  28.148  33.711  1.00  0.00     0.034 A 
ATOM     53  C   UNL A   1      37.835  30.344  29.851  1.00  0.00     0.034 A 
ATOM     54  C   UNL A   1      42.331  29.033  34.389  1.00  0.00     0.049 A 
ATOM     55  C   UNL A   1      37.976  30.717  31.312  1.00  0.00     0.074 A 
ATOM     56  C   UNL A   1      42.410  29.523  35.681  1.00  0.00     0.029 A 
ATOM     57  N   UNL A   1      41.165  29.549  33.840  1.00  0.00    -0.354 N 
ATOM     58  N   UNL A   1      38.932  30.406  32.159  1.00  0.00    -0.248 NA
ATOM     59  C   UNL A   1      36.912  31.548  31.894  1.00  0.00     0.031 C 
ATOM     60  C   UNL A   1      41.253  30.267  35.941  1.00  0.00     0.029 A 
ATOM     61  C   UNL A   1      40.497  30.320  34.781  1.00  0.00     0.049 A 
ATOM     62  H   UNL A   1      40.856  29.392  32.919  1.00  0.00     0.167 HD
ATOM     63  C   UNL A   1      38.598  31.035  33.359  1.00  0.00     0.074 A 
ATOM     64  C   UNL A   1      37.363  31.750  33.123  1.00  0.00     0.031 C 
ATOM     65  C   UNL A   1      39.259  31.027  34.545  1.00  0.00     0.034 A 
BRANCH  52  66
ATOM     66  C   UNL A   1      44.431  27.604  34.474  1.00  0.00     0.023 A 
ATOM     67  C   UNL A   1      45.657  28.288  34.538  1.00  0.00     0.031 A 
ATOM     68  C   UNL A   1      44.338  26.357  35.119  1.00  0.00     0.131 A 
ATOM     69  C   UNL A   1      46.760  27.689  35.167  1.00  0.00     0.055 A 
ATOM     70  C   UNL A   1      45.415  25.806  35.817  1.00  0.00     0.041 A 
ATOM     71  F   UNL A   1      43.202  25.645  35.070  1.00  0.00    -0.206 F 
ATOM     72  C   UNL A   1      46.640  26.466  35.830  1.00  0.00     0.022 A 
BRANCH  69  73
ATOM     73  S   UNL A   1      48.392  28.456  34.971  1.00  0.00     0.124 S 
ATOM     74  O   UNL A   1      48.248  29.130  33.683  1.00  0.00    -0.237 OA
ATOM     75  O   UNL A   1      48.477  29.321  36.140  1.00  0.00    -0.237 OA
ATOM     76  O   UNL A   1      49.308  27.316  34.968  1.00  0.00    -0.744 OA
ENDBRANCH  69  73
ENDBRANCH  52  66
BRANCH  53  77
ATOM     77  C   UNL A   1      36.636  30.792  29.078  1.00  0.00     0.023 A 
ATOM     78  C   UNL A   1      35.716  29.873  28.547  1.00  0.00     0.031 A 
ATOM     79  C   UNL A   1      36.440  32.155  28.788  1.00  0.00     0.131 A 
ATOM     80  C   UNL A   1      34.672  30.321  27.719  1.00  0.00     0.055 A 
ATOM     81  C   UNL A   1      35.366  32.602  28.015  1.00  0.00     0.041 A 
ATOM     82  F   UNL A   1      37.297  33.078  29.253  1.00  0.00    -0.206 F 
ATOM     83  C   UNL A   1      34.482  31.681  27.463  1.00  0.00     0.022 A 
BRANCH  80  84
ATOM     84  S   UNL A   1      33.621  29.093  26.894  1.00  0.00     0.124 S 
ATOM     85  O   UNL A   1      32.799  28.617  28.001  1.00  0.00    -0.237 OA
ATOM     86  O   UNL A   1      32.939  29.902  25.891  1.00  0.00    -0.237 OA
ATOM     87  O   UNL A   1      34.579  28.124  26.365  1.00  0.00    -0.744 OA
ENDBRANCH  80  84
ENDBRANCH  53  77
BRANCH  65  88
ATOM     88  C   UNL A   1      38.691  31.867  35.669  1.00  0.00     0.023 A 
ATOM     89  C   UNL A   1      38.152  31.292  36.834  1.00  0.00     0.031 A 
ATOM     90  C   UNL A   1      38.692  33.271  35.569  1.00  0.00     0.131 A 
ATOM     91  C   UNL A   1      37.592  32.114  37.826  1.00  0.00     0.055 A 
ATOM     92  C   UNL A   1      38.193  34.085  36.587  1.00  0.00     0.041 A 
ATOM     93  F   UNL A   1      39.189  33.878  34.479  1.00  0.00    -0.206 F 
ATOM     94  C   UNL A   1      37.625  33.506  37.718  1.00  0.00     0.022 A 
BRANCH  91  95
ATOM     95  S   UNL A   1      36.729  31.337  39.220  1.00  0.00     0.124 S 
ATOM     96  O   UNL A   1      36.993  29.920  38.990  1.00  0.00    -0.237 OA
ATOM     97  O   UNL A   1      37.399  31.932  40.373  1.00  0.00    -0.237 OA
ATOM     98  O   UNL A   1      35.337  31.746  39.035  1.00  0.00    -0.744 OA
ENDBRANCH  91  95
ENDBRANCH  65  88
ENDBRANCH  39  40
ENDBRANCH  32  34
ENDBRANCH  31  32
ENDBRANCH  30  31
ENDBRANCH  29  30
ENDBRANCH  28  29
ENDBRANCH  27  28
ENDBRANCH   1  27
TORSDOF 23
ENDMDL
MODEL 2
REMARK VINA RESULT:     -10.6      1.514      7.444
REMARK SMILES C[C@H](Nc1ccc2c(c1)Cc1ccccc1-2)[C@@H](C)C(=O)OCCOCCOCCOC(=O)c1ccc(-c2c3nc(c(-c4cc(S(=O)(=O)[O-])ccc4F)c4ccc([nH]4)c(-c4cc(S(=O)(=O)[O-])ccc4F)c4nc(c(-c5cc(S(=O)(=O)[O-])ccc5F)c5ccc2[nH]5)C=C4)C=C3)cc1
REMARK SMILES IDX 25 1 24 2 23 3 22 4 21 5 19 6 20 7 17 8 18 9 2 10 1 11 3 12
REMARK SMILES IDX 4 14 5 15 9 16 6 17 8 18 7 19 10 20 16 21 11 22 15 23 12 24
REMARK SMILES IDX 14 25 13 26 26 27 27 28 28 29 29 30 30 31 31 32 32 33 33 34
REMARK SMILES IDX 34 35 95 36 35 37 94 38 36 39 37 40 38 41 88 42 39 43 93 44
REMARK SMILES IDX 87 45 89 46 40 47 92 48 86 49 85 50 41 52 73 53 53 54 72 55
REMARK SMILES IDX 54 56 57 57 71 58 90 59 55 60 56 61 70 63 91 64 58 65 42 66
REMARK SMILES IDX 43 67 51 68 44 69 50 70 52 71 49 72 45 73 46 74 47 75 48 76
REMARK SMILES IDX 74 77 75 78 83 79 76 80 82 81 84 82 81 83 77 84 78 85 79 86
REMARK SMILES IDX 80 87 59 88 60 89 68 90 61 91 67 92 69 93 66 94 62 95 63 96
REMARK SMILES IDX 64 97 65 98
REMARK H PARENT 3 13 89 51 57 62
REMARK Flexibility Score: inf
ROOT
ATOM      1  C   UNL A   1      40.279  22.193  27.069  1.00  0.00     0.188 C 
ENDROOT
BRANCH   1   2
ATOM      2  O   UNL A   1      39.422  21.407  26.253  1.00  0.00    -0.376 OA
BRANCH   2   3
ATOM      3  C   UNL A   1      38.289  22.079  25.720  1.00  0.00     0.202 C 
BRANCH   3   4
ATOM      4  C   UNL A   1      37.197  21.220  25.057  1.00  0.00     0.261 C 
BRANCH   4   5
ATOM      5  O   UNL A   1      35.817  21.617  25.253  1.00  0.00    -0.463 OA
BRANCH   5   6
ATOM      6  C   UNL A   1      35.258  22.279  24.204  1.00  0.00     0.310 C 
ATOM      7  O   UNL A   1      35.916  22.842  23.331  1.00  0.00    -0.252 OA
BRANCH   6   8
ATOM      8  C   UNL A   1      33.735  22.393  24.220  1.00  0.00     0.118 C 
ATOM      9  C   UNL A   1      33.314  22.421  22.744  1.00  0.00     0.022 C 
BRANCH   8  10
ATOM     10  C   UNL A   1      33.079  23.520  25.069  1.00  0.00     0.090 C 
ATOM     11  C   UNL A   1      32.948  23.083  26.534  1.00  0.00     0.031 C 
BRANCH  10  12
ATOM     12  N   UNL A   1      31.723  23.793  24.540  1.00  0.00    -0.382 N 
ATOM     13  H   UNL A   1      31.057  23.069  24.589  1.00  0.00     0.160 HD
BRANCH  12  14
ATOM     14  C   UNL A   1      31.320  25.002  23.977  1.00  0.00     0.035 A 
ATOM     15  C   UNL A   1      32.208  25.902  23.360  1.00  0.00     0.026 A 
ATOM     16  C   UNL A   1      29.974  25.376  24.123  1.00  0.00     0.030 A 
ATOM     17  C   UNL A   1      31.772  27.149  22.872  1.00  0.00     0.011 A 
ATOM     18  C   UNL A   1      29.556  26.615  23.665  1.00  0.00    -0.034 A 
ATOM     19  C   UNL A   1      30.441  27.501  23.026  1.00  0.00    -0.014 A 
ATOM     20  C   UNL A   1      28.176  27.230  23.780  1.00  0.00     0.072 C 
ATOM     21  C   UNL A   1      29.706  28.690  22.641  1.00  0.00    -0.015 A 
ATOM     22  C   UNL A   1      28.363  28.547  23.062  1.00  0.00    -0.036 A 
ATOM     23  C   UNL A   1      30.105  29.835  21.972  1.00  0.00     0.009 A 
ATOM     24  C   UNL A   1      27.414  29.528  22.822  1.00  0.00     0.005 A 
ATOM     25  C   UNL A   1      29.149  30.829  21.720  1.00  0.00     0.001 A 
ATOM     26  C   UNL A   1      27.817  30.675  22.140  1.00  0.00     0.000 A 
ENDBRANCH  12  14
ENDBRANCH  10  12
ENDBRANCH   8  10
ENDBRANCH   6   8
ENDBRANCH   5   6
ENDBRANCH   4   5
ENDBRANCH   3   4
ENDBRANCH   2   3
ENDBRANCH   1   2
BRANCH   1  27
ATOM     27  C   UNL A   1      41.343  21.418  27.844  1.00  0.00     0.188 C 
BRANCH  27  28
ATOM     28  O   UNL A   1      42.297  20.751  27.031  1.00  0.00    -0.376 OA
BRANCH  28  29
ATOM     29  C   UNL A   1      42.600  21.310  25.751  1.00  0.00     0.202 C 
BRANCH  29  30
ATOM     30  C   UNL A   1      43.990  21.888  25.393  1.00  0.00     0.261 C 
BRANCH  30  31
ATOM     31  O   UNL A   1      44.441  23.027  26.142  1.00  0.00    -0.460 OA
BRANCH  31  32
ATOM     32  C   UNL A   1      44.192  24.248  25.610  1.00  0.00     0.338 C 
ATOM     33  O   UNL A   1      44.304  24.545  24.432  1.00  0.00    -0.246 OA
BRANCH  32  34
ATOM     34  C   UNL A   1      43.508  25.079  26.647  1.00  0.00     0.060 A 
ATOM     35  C   UNL A   1      44.100  26.298  26.999  1.00  0.00     0.016 A 
ATOM     36  C   UNL A   1      42.267  24.735  27.196  1.00  0.00     0.016 A 
ATOM     37  C   UNL A   1      43.479  27.158  27.911  1.00  0.00     0.010 A 
ATOM     38  C   UNL A   1      41.657  25.586  28.132  1.00  0.00     0.010 A 
ATOM     39  C   UNL A   1      42.273  26.791  28.519  1.00  0.00    -0.014 A 
BRANCH  39  40
ATOM     40  C   UNL A   1      41.789  27.547  29.709  1.00  0.00     0.031 A 
ATOM     41  C   UNL A   1      40.507  28.330  29.576  1.00  0.00     0.074 A 
ATOM     42  C   UNL A   1      42.419  27.508  30.899  1.00  0.00     0.049 A 
ATOM     43  N   UNL A   1      39.912  29.115  30.436  1.00  0.00    -0.248 NA
ATOM     44  C   UNL A   1      39.805  28.204  28.289  1.00  0.00     0.031 C 
ATOM     45  C   UNL A   1      43.617  26.728  31.200  1.00  0.00     0.029 A 
ATOM     46  N   UNL A   1      42.129  28.145  32.085  1.00  0.00    -0.354 N 
ATOM     47  C   UNL A   1      38.771  29.585  29.793  1.00  0.00     0.074 A 
ATOM     48  C   UNL A   1      38.779  29.021  28.460  1.00  0.00     0.031 C 
ATOM     49  C   UNL A   1      43.965  26.939  32.483  1.00  0.00     0.029 A 
ATOM     50  C   UNL A   1      43.045  27.905  33.084  1.00  0.00     0.049 A 
ATOM     51  H   UNL A   1      41.338  28.719  32.208  1.00  0.00     0.167 HD
ATOM     52  C   UNL A   1      37.801  30.406  30.268  1.00  0.00     0.034 A 
ATOM     53  C   UNL A   1      43.152  28.429  34.326  1.00  0.00     0.034 A 
ATOM     54  C   UNL A   1      37.802  30.970  31.596  1.00  0.00     0.049 A 
ATOM     55  C   UNL A   1      42.123  29.437  34.797  1.00  0.00     0.074 A 
ATOM     56  C   UNL A   1      36.868  31.814  32.171  1.00  0.00     0.029 A 
ATOM     57  N   UNL A   1      38.788  30.761  32.552  1.00  0.00    -0.354 N 
ATOM     58  N   UNL A   1      41.062  29.892  34.171  1.00  0.00    -0.248 NA
ATOM     59  C   UNL A   1      42.309  30.000  36.143  1.00  0.00     0.031 C 
ATOM     60  C   UNL A   1      37.329  32.182  33.440  1.00  0.00     0.029 A 
ATOM     61  C   UNL A   1      38.503  31.493  33.696  1.00  0.00     0.049 A 
ATOM     62  H   UNL A   1      39.573  30.181  32.435  1.00  0.00     0.167 HD
ATOM     63  C   UNL A   1      40.437  30.765  35.064  1.00  0.00     0.074 A 
ATOM     64  C   UNL A   1      41.233  30.763  36.271  1.00  0.00     0.031 C 
ATOM     65  C   UNL A   1      39.304  31.495  34.899  1.00  0.00     0.034 A 
BRANCH  52  66
ATOM     66  C   UNL A   1      36.697  30.797  29.314  1.00  0.00     0.023 A 
ATOM     67  C   UNL A   1      35.775  29.861  28.815  1.00  0.00     0.031 A 
ATOM     68  C   UNL A   1      36.592  32.126  28.869  1.00  0.00     0.131 A 
ATOM     69  C   UNL A   1      34.837  30.251  27.846  1.00  0.00     0.055 A 
ATOM     70  C   UNL A   1      35.601  32.527  27.970  1.00  0.00     0.041 A 
ATOM     71  F   UNL A   1      37.460  33.059  29.289  1.00  0.00    -0.206 F 
ATOM     72  C   UNL A   1      34.726  31.584  27.441  1.00  0.00     0.022 A 
BRANCH  69  73
ATOM     73  S   UNL A   1      33.870  28.967  27.008  1.00  0.00     0.124 S 
ATOM     74  O   UNL A   1      34.890  27.954  26.746  1.00  0.00    -0.237 OA
ATOM     75  O   UNL A   1      32.867  28.622  28.007  1.00  0.00    -0.237 OA
ATOM     76  O   UNL A   1      33.359  29.645  25.818  1.00  0.00    -0.744 OA
ENDBRANCH  69  73
ENDBRANCH  52  66
BRANCH  53  77
ATOM     77  C   UNL A   1      44.308  28.075  35.207  1.00  0.00     0.023 A 
ATOM     78  C   UNL A   1      44.206  27.074  36.187  1.00  0.00     0.031 A 
ATOM     79  C   UNL A   1      45.513  28.798  35.133  1.00  0.00     0.131 A 
ATOM     80  C   UNL A   1      45.269  26.855  37.080  1.00  0.00     0.055 A 
ATOM     81  C   UNL A   1      46.588  28.536  35.983  1.00  0.00     0.041 A 
ATOM     82  F   UNL A   1      45.661  29.779  34.228  1.00  0.00    -0.206 F 
ATOM     83  C   UNL A   1      46.465  27.568  36.974  1.00  0.00     0.022 A 
BRANCH  80  84
ATOM     84  S   UNL A   1      45.032  25.691  38.453  1.00  0.00     0.124 S 
ATOM     85  O   UNL A   1      46.408  25.431  38.861  1.00  0.00    -0.237 OA
ATOM     86  O   UNL A   1      44.226  26.476  39.381  1.00  0.00    -0.237 OA
ATOM     87  O   UNL A   1      44.341  24.564  37.830  1.00  0.00    -0.744 OA
ENDBRANCH  80  84
ENDBRANCH  53  77
BRANCH  65  88
ATOM     88  C   UNL A   1      38.820  32.312  36.078  1.00  0.00     0.023 A 
ATOM     89  C   UNL A   1      38.049  31.750  37.111  1.00  0.00     0.031 A 
ATOM     90  C   UNL A   1      39.142  33.679  36.167  1.00  0.00     0.131 A 
ATOM     91  C   UNL A   1      37.582  32.562  38.157  1.00  0.00     0.055 A 
ATOM     92  C   UNL A   1      38.730  34.467  37.243  1.00  0.00     0.041 A 
ATOM     93  F   UNL A   1      39.872  34.273  35.209  1.00  0.00    -0.206 F 
ATOM     94  C   UNL A   1      37.933  33.912  38.240  1.00  0.00     0.022 A 
BRANCH  91  95
ATOM     95  S   UNL A   1      36.427  31.855  39.365  1.00  0.00     0.124 S 
ATOM     96  O   UNL A   1      36.277  30.487  38.878  1.00  0.00    -0.237 OA
ATOM     97  O   UNL A   1      37.155  32.009  40.621  1.00  0.00    -0.237 OA
ATOM     98  O   UNL A   1      35.235  32.693  39.234  1.00  0.00    -0.744 OA
ENDBRANCH  91  95
ENDBRANCH  65  88
ENDBRANCH  39  40
ENDBRANCH  32  34
ENDBRANCH  31  32
ENDBRANCH  30  31
ENDBRANCH  29  30
ENDBRANCH  28  29
ENDBRANCH  27  28
ENDBRANCH   1  27
TORSDOF 23
ENDMDL
MODEL 3
REMARK VINA RESULT:     -10.3      5.156      7.275
REMARK SMILES C[C@H](Nc1ccc2c(c1)Cc1ccccc1-2)[C@@H](C)C(=O)OCCOCCOCCOC(=O)c1ccc(-c2c3nc(c(-c4cc(S(=O)(=O)[O-])ccc4F)c4ccc([nH]4)c(-c4cc(S(=O)(=O)[O-])ccc4F)c4nc(c(-c5cc(S(=O)(=O)[O-])ccc5F)c5ccc2[nH]5)C=C4)C=C3)cc1
REMARK SMILES IDX 25 1 24 2 23 3 22 4 21 5 19 6 20 7 17 8 18 9 2 10 1 11 3 12
REMARK SMILES IDX 4 14 5 15 9 16 6 17 8 18 7 19 10 20 16 21 11 22 15 23 12 24
REMARK SMILES IDX 14 25 13 26 26 27 27 28 28 29 29 30 30 31 31 32 32 33 33 34
REMARK SMILES IDX 34 35 95 36 35 37 94 38 36 39 37 40 38 41 88 42 39 43 93 44
REMARK SMILES IDX 87 45 89 46 40 47 92 48 86 49 85 50 41 52 73 53 53 54 72 55
REMARK SMILES IDX 54 56 57 57 71 58 90 59 55 60 56 61 70 63 91 64 58 65 42 66
REMARK SMILES IDX 43 67 51 68 44 69 50 70 52 71 49 72 45 73 46 74 47 75 48 76
REMARK SMILES IDX 74 77 75 78 83 79 76 80 82 81 84 82 81 83 77 84 78 85 79 86
REMARK SMILES IDX 80 87 59 88 60 89 68 90 61 91 67 92 69 93 66 94 62 95 63 96
REMARK SMILES IDX 64 97 65 98
REMARK H PARENT 3 13 89 51 57 62
REMARK Flexibility Score: inf
ROOT
ATOM      1  C   UNL A   1      39.286  21.199  25.759  1.00  0.00     0.188 C 
ENDROOT
BRANCH   1   2
ATOM      2  O   UNL A   1      37.995  20.907  25.244  1.00  0.00    -0.376 OA
BRANCH   2   3
ATOM      3  C   UNL A   1      37.388  21.938  24.478  1.00  0.00     0.202 C 
BRANCH   3   4
ATOM      4  C   UNL A   1      37.244  23.324  25.134  1.00  0.00     0.261 C 
BRANCH   4   5
ATOM      5  O   UNL A   1      35.985  24.021  24.964  1.00  0.00    -0.463 OA
BRANCH   5   6
ATOM      6  C   UNL A   1      34.895  23.357  25.436  1.00  0.00     0.310 C 
ATOM      7  O   UNL A   1      34.742  23.065  26.621  1.00  0.00    -0.252 OA
BRANCH   6   8
ATOM      8  C   UNL A   1      33.898  22.875  24.385  1.00  0.00     0.118 C 
ATOM      9  C   UNL A   1      34.273  23.622  23.097  1.00  0.00     0.022 C 
BRANCH   8  10
ATOM     10  C   UNL A   1      32.378  22.938  24.713  1.00  0.00     0.090 C 
ATOM     11  C   UNL A   1      31.548  22.920  23.422  1.00  0.00     0.031 C 
BRANCH  10  12
ATOM     12  N   UNL A   1      32.093  24.200  25.434  1.00  0.00    -0.382 N 
ATOM     13  H   UNL A   1      32.510  24.328  26.317  1.00  0.00     0.160 HD
BRANCH  12  14
ATOM     14  C   UNL A   1      31.276  25.220  24.952  1.00  0.00     0.035 A 
ATOM     15  C   UNL A   1      29.884  25.258  25.154  1.00  0.00     0.026 A 
ATOM     16  C   UNL A   1      31.867  26.206  24.144  1.00  0.00     0.030 A 
ATOM     17  C   UNL A   1      29.083  26.266  24.583  1.00  0.00     0.011 A 
ATOM     18  C   UNL A   1      31.072  27.181  23.564  1.00  0.00    -0.034 A 
ATOM     19  C   UNL A   1      29.684  27.229  23.789  1.00  0.00    -0.014 A 
ATOM     20  C   UNL A   1      31.497  28.285  22.618  1.00  0.00     0.072 C 
ATOM     21  C   UNL A   1      29.140  28.368  23.074  1.00  0.00    -0.015 A 
ATOM     22  C   UNL A   1      30.194  29.016  22.389  1.00  0.00    -0.036 A 
ATOM     23  C   UNL A   1      27.850  28.863  22.990  1.00  0.00     0.009 A 
ATOM     24  C   UNL A   1      29.978  30.152  21.623  1.00  0.00     0.005 A 
ATOM     25  C   UNL A   1      27.625  30.015  22.224  1.00  0.00     0.001 A 
ATOM     26  C   UNL A   1      28.680  30.653  21.549  1.00  0.00     0.000 A 
ENDBRANCH  12  14
ENDBRANCH  10  12
ENDBRANCH   8  10
ENDBRANCH   6   8
ENDBRANCH   5   6
ENDBRANCH   4   5
ENDBRANCH   3   4
ENDBRANCH   2   3
ENDBRANCH   1   2
BRANCH   1  27
ATOM     27  C   UNL A   1      40.131  19.986  26.145  1.00  0.00     0.188 C 
BRANCH  27  28
ATOM     28  O   UNL A   1      41.532  20.218  26.143  1.00  0.00    -0.376 OA
BRANCH  28  29
ATOM     29  C   UNL A   1      42.395  19.132  26.488  1.00  0.00     0.202 C 
BRANCH  29  30
ATOM     30  C   UNL A   1      43.424  18.528  25.502  1.00  0.00     0.261 C 
BRANCH  30  31
ATOM     31  O   UNL A   1      44.695  19.186  25.394  1.00  0.00    -0.460 OA
BRANCH  31  32
ATOM     32  C   UNL A   1      44.824  20.113  24.414  1.00  0.00     0.338 C 
ATOM     33  O   UNL A   1      44.791  19.889  23.216  1.00  0.00    -0.246 OA
BRANCH  32  34
ATOM     34  C   UNL A   1      44.739  21.468  25.041  1.00  0.00     0.060 A 
ATOM     35  C   UNL A   1      44.179  22.502  24.282  1.00  0.00     0.016 A 
ATOM     36  C   UNL A   1      45.101  21.712  26.371  1.00  0.00     0.016 A 
ATOM     37  C   UNL A   1      44.004  23.778  24.829  1.00  0.00     0.010 A 
ATOM     38  C   UNL A   1      44.951  23.000  26.912  1.00  0.00     0.010 A 
ATOM     39  C   UNL A   1      44.428  24.050  26.135  1.00  0.00    -0.014 A 
BRANCH  39  40
ATOM     40  C   UNL A   1      44.536  25.465  26.593  1.00  0.00     0.031 A 
ATOM     41  C   UNL A   1      45.876  26.146  26.468  1.00  0.00     0.074 A 
ATOM     42  C   UNL A   1      43.480  26.162  27.052  1.00  0.00     0.049 A 
ATOM     43  N   UNL A   1      46.246  27.341  26.850  1.00  0.00    -0.248 NA
ATOM     44  C   UNL A   1      46.941  25.363  25.822  1.00  0.00     0.031 C 
ATOM     45  C   UNL A   1      42.110  25.663  27.148  1.00  0.00     0.029 A 
ATOM     46  N   UNL A   1      43.398  27.453  27.525  1.00  0.00    -0.354 N 
ATOM     47  C   UNL A   1      47.588  27.452  26.501  1.00  0.00     0.074 A 
ATOM     48  C   UNL A   1      47.972  26.188  25.907  1.00  0.00     0.031 C 
ATOM     49  C   UNL A   1      41.326  26.632  27.657  1.00  0.00     0.029 A 
ATOM     50  C   UNL A   1      42.144  27.806  27.969  1.00  0.00     0.049 A 
ATOM     51  H   UNL A   1      44.168  28.068  27.545  1.00  0.00     0.167 HD
ATOM     52  C   UNL A   1      48.425  28.508  26.653  1.00  0.00     0.034 A 
ATOM     53  C   UNL A   1      41.711  28.928  28.587  1.00  0.00     0.034 A 
ATOM     54  C   UNL A   1      48.039  29.762  27.251  1.00  0.00     0.049 A 
ATOM     55  C   UNL A   1      42.690  30.051  28.855  1.00  0.00     0.074 A 
ATOM     56  C   UNL A   1      48.813  30.892  27.453  1.00  0.00     0.029 A 
ATOM     57  N   UNL A   1      46.778  30.052  27.755  1.00  0.00    -0.354 N 
ATOM     58  N   UNL A   1      43.963  30.135  28.542  1.00  0.00    -0.248 NA
ATOM     59  C   UNL A   1      42.172  31.233  29.561  1.00  0.00     0.031 C 
ATOM     60  C   UNL A   1      48.047  31.831  28.152  1.00  0.00     0.029 A 
ATOM     61  C   UNL A   1      46.766  31.327  28.303  1.00  0.00     0.049 A 
ATOM     62  H   UNL A   1      46.005  29.443  27.728  1.00  0.00     0.167 HD
ATOM     63  C   UNL A   1      44.383  31.391  28.981  1.00  0.00     0.074 A 
ATOM     64  C   UNL A   1      43.228  32.033  29.569  1.00  0.00     0.031 C 
ATOM     65  C   UNL A   1      45.612  31.963  28.897  1.00  0.00     0.034 A 
BRANCH  52  66
ATOM     66  C   UNL A   1      49.862  28.318  26.227  1.00  0.00     0.023 A 
ATOM     67  C   UNL A   1      50.292  28.575  24.914  1.00  0.00     0.031 A 
ATOM     68  C   UNL A   1      50.809  27.834  27.148  1.00  0.00     0.131 A 
ATOM     69  C   UNL A   1      51.613  28.279  24.540  1.00  0.00     0.055 A 
ATOM     70  C   UNL A   1      52.143  27.623  26.792  1.00  0.00     0.041 A 
ATOM     71  F   UNL A   1      50.452  27.545  28.408  1.00  0.00    -0.206 F 
ATOM     72  C   UNL A   1      52.548  27.830  25.477  1.00  0.00     0.022 A 
BRANCH  69  73
ATOM     73  S   UNL A   1      52.051  28.337  22.781  1.00  0.00     0.124 S 
ATOM     74  O   UNL A   1      51.321  27.184  22.258  1.00  0.00    -0.237 OA
ATOM     75  O   UNL A   1      51.556  29.646  22.376  1.00  0.00    -0.237 OA
ATOM     76  O   UNL A   1      53.505  28.192  22.786  1.00  0.00    -0.744 OA
ENDBRANCH  69  73
ENDBRANCH  52  66
BRANCH  53  77
ATOM     77  C   UNL A   1      40.297  29.039  29.064  1.00  0.00     0.023 A 
ATOM     78  C   UNL A   1      39.964  28.892  30.420  1.00  0.00     0.031 A 
ATOM     79  C   UNL A   1      39.244  29.211  28.146  1.00  0.00     0.131 A 
ATOM     80  C   UNL A   1      38.615  28.875  30.815  1.00  0.00     0.055 A 
ATOM     81  C   UNL A   1      37.908  29.254  28.551  1.00  0.00     0.041 A 
ATOM     82  F   UNL A   1      39.500  29.338  26.835  1.00  0.00    -0.206 F 
ATOM     83  C   UNL A   1      37.587  29.071  29.892  1.00  0.00     0.022 A 
BRANCH  80  84
ATOM     84  S   UNL A   1      38.215  28.491  32.543  1.00  0.00     0.124 S 
ATOM     85  O   UNL A   1      36.904  29.114  32.689  1.00  0.00    -0.237 OA
ATOM     86  O   UNL A   1      38.235  27.032  32.542  1.00  0.00    -0.237 OA
ATOM     87  O   UNL A   1      39.296  29.126  33.294  1.00  0.00    -0.744 OA
ENDBRANCH  80  84
ENDBRANCH  53  77
BRANCH  65  88
ATOM     88  C   UNL A   1      45.760  33.382  29.402  1.00  0.00     0.023 A 
ATOM     89  C   UNL A   1      45.540  34.497  28.575  1.00  0.00     0.031 A 
ATOM     90  C   UNL A   1      46.127  33.618  30.740  1.00  0.00     0.131 A 
ATOM     91  C   UNL A   1      45.739  35.793  29.078  1.00  0.00     0.055 A 
ATOM     92  C   UNL A   1      46.260  34.910  31.253  1.00  0.00     0.041 A 
ATOM     93  F   UNL A   1      46.354  32.593  31.578  1.00  0.00    -0.206 F 
ATOM     94  C   UNL A   1      46.079  36.007  30.416  1.00  0.00     0.022 A 
BRANCH  91  95
ATOM     95  S   UNL A   1      45.642  37.200  27.937  1.00  0.00     0.124 S 
ATOM     96  O   UNL A   1      46.632  36.842  26.926  1.00  0.00    -0.237 OA
ATOM     97  O   UNL A   1      44.248  37.158  27.506  1.00  0.00    -0.237 OA
ATOM     98  O   UNL A   1      45.996  38.347  28.772  1.00  0.00    -0.744 OA
ENDBRANCH  91  95
ENDBRANCH  65  88
ENDBRANCH  39  40
ENDBRANCH  32  34
ENDBRANCH  31  32
ENDBRANCH  30  31
ENDBRANCH  29  30
ENDBRANCH  28  29
ENDBRANCH  27  28
ENDBRANCH   1  27
TORSDOF 23
ENDMDL
