MODEL 1
REMARK VINA RESULT:     -10.4      0.000      0.000
REMARK SMILES C[C@H](NC(=O)N[C@H]1CCCC1(C)C)c1nc(C(=O)OCCOCCOCCOC(=O)c2ccc(-c3c4nc(c(-c5cc(S(=O)(=O)[O-])ccc5F)c5ccc([nH]5)c(-c5cc(S(=O)(=O)[O-])ccc5F)c5nc(c(-c6cc(S(=O)(=O)[O-])ccc6F)c6ccc3[nH]6)C=C5)C=C4)cc2)cs1
REMARK SMILES IDX 23 1 22 2 21 3 20 4 19 5 17 6 18 7 16 8 14 9 15 10 95 11
REMARK SMILES IDX 94 12 2 13 1 14 3 15 4 16 5 18 6 19 7 21 8 22 11 23 9 24
REMARK SMILES IDX 10 25 12 26 13 27 24 28 25 29 26 30 27 31 28 32 29 33 30 34
REMARK SMILES IDX 31 35 32 36 93 37 33 38 92 39 34 40 35 41 36 42 86 43 37 44
REMARK SMILES IDX 91 45 85 46 87 47 38 48 90 49 84 50 83 51 39 53 71 54 51 55
REMARK SMILES IDX 70 56 52 57 55 58 69 59 88 60 53 61 54 62 68 64 89 65 56 66
REMARK SMILES IDX 40 67 41 68 49 69 42 70 48 71 50 72 47 73 43 74 44 75 45 76
REMARK SMILES IDX 46 77 72 78 73 79 81 80 74 81 80 82 82 83 79 84 75 85 76 86
REMARK SMILES IDX 77 87 78 88 57 89 58 90 66 91 59 92 65 93 67 94 64 95 60 96
REMARK SMILES IDX 61 97 62 98 63 99
REMARK H PARENT 3 17 6 20 87 52 55 63
REMARK Flexibility Score: inf
ROOT
ATOM      1  C   UNL A   1      34.941  29.729  27.670  1.00  0.00     0.188 C 
ENDROOT
BRANCH   1   2
ATOM      2  O   UNL A   1      35.083  28.743  26.653  1.00  0.00    -0.376 OA
BRANCH   2   3
ATOM      3  C   UNL A   1      34.013  27.872  26.328  1.00  0.00     0.202 C 
BRANCH   3   4
ATOM      4  C   UNL A   1      32.979  28.337  25.294  1.00  0.00     0.261 C 
BRANCH   4   5
ATOM      5  O   UNL A   1      31.622  28.373  25.760  1.00  0.00    -0.458 OA
BRANCH   5   6
ATOM      6  C   UNL A   1      31.336  27.503  26.776  1.00  0.00     0.357 C 
ATOM      7  O   UNL A   1      31.079  27.846  27.926  1.00  0.00    -0.244 OA
BRANCH   6   8
ATOM      8  C   UNL A   1      31.246  26.106  26.339  1.00  0.00     0.159 A 
ATOM      9  C   UNL A   1      31.608  23.896  26.391  1.00  0.00     0.116 A 
ATOM     10  N   UNL A   1      32.000  25.063  26.886  1.00  0.00    -0.232 NA
ATOM     11  S   UNL A   1      30.453  24.020  25.115  1.00  0.00    -0.124 S 
ATOM     12  C   UNL A   1      30.373  25.708  25.345  1.00  0.00     0.102 A 
BRANCH   9  13
ATOM     13  C   UNL A   1      31.994  22.565  27.013  1.00  0.00     0.140 C 
ATOM     14  C   UNL A   1      33.145  22.567  27.994  1.00  0.00     0.039 C 
BRANCH  13  15
ATOM     15  N   UNL A   1      31.967  21.423  26.111  1.00  0.00    -0.329 N 
ATOM     16  C   UNL A   1      32.407  20.988  24.951  1.00  0.00     0.315 C 
ATOM     17  H   UNL A   1      31.417  20.715  26.520  1.00  0.00     0.166 HD
ATOM     18  O   UNL A   1      31.954  19.880  24.624  1.00  0.00    -0.249 OA
ATOM     19  N   UNL A   1      33.218  21.521  24.066  1.00  0.00    -0.335 N 
ATOM     20  H   UNL A   1      33.129  20.955  23.266  1.00  0.00     0.165 HD
BRANCH  19  21
ATOM     21  C   UNL A   1      34.197  22.555  23.693  1.00  0.00     0.089 C 
ATOM     22  C   UNL A   1      33.852  24.041  23.782  1.00  0.00     0.025 C 
ATOM     23  C   UNL A   1      35.581  22.399  24.399  1.00  0.00    -0.015 C 
ATOM     24  C   UNL A   1      34.864  24.675  24.744  1.00  0.00     0.003 C 
ATOM     25  C   UNL A   1      35.545  23.511  25.454  1.00  0.00     0.008 C 
ATOM     26  C   UNL A   1      35.842  21.033  25.047  1.00  0.00     0.013 C 
ATOM     27  C   UNL A   1      36.722  22.663  23.388  1.00  0.00     0.013 C 
ENDBRANCH  19  21
ENDBRANCH  13  15
ENDBRANCH   9  13
ENDBRANCH   6   8
ENDBRANCH   5   6
ENDBRANCH   4   5
ENDBRANCH   3   4
ENDBRANCH   2   3
ENDBRANCH   1   2
BRANCH   1  28
ATOM     28  C   UNL A   1      34.195  31.054  27.406  1.00  0.00     0.188 C 
BRANCH  28  29
ATOM     29  O   UNL A   1      32.802  30.987  27.654  1.00  0.00    -0.376 OA
BRANCH  29  30
ATOM     30  C   UNL A   1      31.979  31.891  26.935  1.00  0.00     0.202 C 
BRANCH  30  31
ATOM     31  C   UNL A   1      32.291  33.387  27.087  1.00  0.00     0.261 C 
BRANCH  31  32
ATOM     32  O   UNL A   1      32.259  33.910  28.423  1.00  0.00    -0.460 OA
BRANCH  32  33
ATOM     33  C   UNL A   1      33.210  34.810  28.758  1.00  0.00     0.338 C 
ATOM     34  O   UNL A   1      33.094  36.023  28.759  1.00  0.00    -0.246 OA
BRANCH  33  35
ATOM     35  C   UNL A   1      34.378  34.063  29.280  1.00  0.00     0.060 A 
ATOM     36  C   UNL A   1      34.179  33.087  30.262  1.00  0.00     0.016 A 
ATOM     37  C   UNL A   1      35.664  34.322  28.794  1.00  0.00     0.016 A 
ATOM     38  C   UNL A   1      35.272  32.382  30.779  1.00  0.00     0.010 A 
ATOM     39  C   UNL A   1      36.757  33.626  29.323  1.00  0.00     0.010 A 
ATOM     40  C   UNL A   1      36.572  32.668  30.335  1.00  0.00    -0.014 A 
BRANCH  40  41
ATOM     41  C   UNL A   1      37.748  32.087  31.036  1.00  0.00     0.031 A 
ATOM     42  C   UNL A   1      38.576  31.053  30.320  1.00  0.00     0.074 A 
ATOM     43  C   UNL A   1      38.084  32.472  32.282  1.00  0.00     0.049 A 
ATOM     44  N   UNL A   1      39.611  30.374  30.744  1.00  0.00    -0.248 NA
ATOM     45  C   UNL A   1      38.177  30.745  28.937  1.00  0.00     0.031 C 
ATOM     46  C   UNL A   1      37.387  33.488  33.069  1.00  0.00     0.029 A 
ATOM     47  N   UNL A   1      39.094  32.042  33.108  1.00  0.00    -0.354 N 
ATOM     48  C   UNL A   1      39.991  29.560  29.681  1.00  0.00     0.074 A 
ATOM     49  C   UNL A   1      39.050  29.805  28.608  1.00  0.00     0.031 C 
ATOM     50  C   UNL A   1      37.985  33.595  34.269  1.00  0.00     0.029 A 
ATOM     51  C   UNL A   1      39.081  32.631  34.352  1.00  0.00     0.049 A 
ATOM     52  H   UNL A   1      39.765  31.375  32.836  1.00  0.00     0.167 HD
ATOM     53  C   UNL A   1      41.031  28.695  29.603  1.00  0.00     0.034 A 
ATOM     54  C   UNL A   1      39.847  32.398  35.439  1.00  0.00     0.034 A 
ATOM     55  C   UNL A   1      41.949  28.439  30.685  1.00  0.00     0.049 A 
ATOM     56  C   UNL A   1      40.940  31.356  35.361  1.00  0.00     0.074 A 
ATOM     57  C   UNL A   1      43.041  27.587  30.707  1.00  0.00     0.029 A 
ATOM     58  N   UNL A   1      41.877  29.020  31.944  1.00  0.00    -0.354 N 
ATOM     59  N   UNL A   1      41.297  30.604  34.344  1.00  0.00    -0.248 NA
ATOM     60  C   UNL A   1      41.738  31.136  36.577  1.00  0.00     0.031 C 
ATOM     61  C   UNL A   1      43.583  27.600  31.997  1.00  0.00     0.029 A 
ATOM     62  C   UNL A   1      42.881  28.519  32.759  1.00  0.00     0.049 A 
ATOM     63  H   UNL A   1      41.209  29.689  32.218  1.00  0.00     0.167 HD
ATOM     64  C   UNL A   1      42.381  29.849  34.792  1.00  0.00     0.074 A 
ATOM     65  C   UNL A   1      42.626  30.245  36.162  1.00  0.00     0.031 C 
ATOM     66  C   UNL A   1      43.112  28.916  34.128  1.00  0.00     0.034 A 
BRANCH  53  67
ATOM     67  C   UNL A   1      41.195  27.927  28.313  1.00  0.00     0.023 A 
ATOM     68  C   UNL A   1      40.801  26.582  28.201  1.00  0.00     0.031 A 
ATOM     69  C   UNL A   1      41.778  28.540  27.191  1.00  0.00     0.131 A 
ATOM     70  C   UNL A   1      41.054  25.876  27.015  1.00  0.00     0.055 A 
ATOM     71  C   UNL A   1      41.958  27.854  25.989  1.00  0.00     0.041 A 
ATOM     72  F   UNL A   1      42.195  29.814  27.248  1.00  0.00    -0.206 F 
ATOM     73  C   UNL A   1      41.607  26.509  25.900  1.00  0.00     0.022 A 
BRANCH  70  74
ATOM     74  S   UNL A   1      40.771  24.085  26.995  1.00  0.00     0.124 S 
ATOM     75  O   UNL A   1      39.336  24.014  26.730  1.00  0.00    -0.237 OA
ATOM     76  O   UNL A   1      41.643  23.639  25.914  1.00  0.00    -0.237 OA
ATOM     77  O   UNL A   1      41.172  23.659  28.334  1.00  0.00    -0.744 OA
ENDBRANCH  70  74
ENDBRANCH  53  67
BRANCH  54  78
ATOM     78  C   UNL A   1      39.590  33.119  36.722  1.00  0.00     0.023 A 
ATOM     79  C   UNL A   1      38.765  32.567  37.715  1.00  0.00     0.031 A 
ATOM     80  C   UNL A   1      40.102  34.412  36.936  1.00  0.00     0.131 A 
ATOM     81  C   UNL A   1      38.434  33.323  38.851  1.00  0.00     0.055 A 
ATOM     82  C   UNL A   1      39.816  35.138  38.093  1.00  0.00     0.041 A 
ATOM     83  F   UNL A   1      40.890  34.991  36.015  1.00  0.00    -0.206 F 
ATOM     84  C   UNL A   1      38.965  34.600  39.053  1.00  0.00     0.022 A 
BRANCH  81  85
ATOM     85  S   UNL A   1      37.214  32.655  40.016  1.00  0.00     0.124 S 
ATOM     86  O   UNL A   1      37.956  31.557  40.624  1.00  0.00    -0.237 OA
ATOM     87  O   UNL A   1      36.953  33.806  40.873  1.00  0.00    -0.237 OA
ATOM     88  O   UNL A   1      36.103  32.257  39.155  1.00  0.00    -0.744 OA
ENDBRANCH  81  85
ENDBRANCH  54  78
BRANCH  66  89
ATOM     89  C   UNL A   1      44.278  28.300  34.863  1.00  0.00     0.023 A 
ATOM     90  C   UNL A   1      44.099  27.303  35.839  1.00  0.00     0.031 A 
ATOM     91  C   UNL A   1      45.591  28.723  34.584  1.00  0.00     0.131 A 
ATOM     92  C   UNL A   1      45.210  26.801  36.537  1.00  0.00     0.055 A 
ATOM     93  C   UNL A   1      46.695  28.178  35.240  1.00  0.00     0.041 A 
ATOM     94  F   UNL A   1      45.821  29.672  33.662  1.00  0.00    -0.206 F 
ATOM     95  C   UNL A   1      46.507  27.220  36.232  1.00  0.00     0.022 A 
BRANCH  92  96
ATOM     96  S   UNL A   1      44.929  25.651  37.912  1.00  0.00     0.124 S 
ATOM     97  O   UNL A   1      44.538  24.431  37.212  1.00  0.00    -0.237 OA
ATOM     98  O   UNL A   1      46.234  25.621  38.565  1.00  0.00    -0.237 OA
ATOM     99  O   UNL A   1      43.866  26.291  38.684  1.00  0.00    -0.744 OA
ENDBRANCH  92  96
ENDBRANCH  66  89
ENDBRANCH  40  41
ENDBRANCH  33  35
ENDBRANCH  32  33
ENDBRANCH  31  32
ENDBRANCH  30  31
ENDBRANCH  29  30
ENDBRANCH  28  29
ENDBRANCH   1  28
TORSDOF 23
ENDMDL
MODEL 2
REMARK VINA RESULT:      -9.8      1.797      2.200
REMARK SMILES C[C@H](NC(=O)N[C@H]1CCCC1(C)C)c1nc(C(=O)OCCOCCOCCOC(=O)c2ccc(-c3c4nc(c(-c5cc(S(=O)(=O)[O-])ccc5F)c5ccc([nH]5)c(-c5cc(S(=O)(=O)[O-])ccc5F)c5nc(c(-c6cc(S(=O)(=O)[O-])ccc6F)c6ccc3[nH]6)C=C5)C=C4)cc2)cs1
REMARK SMILES IDX 23 1 22 2 21 3 20 4 19 5 17 6 18 7 16 8 14 9 15 10 95 11
REMARK SMILES IDX 94 12 2 13 1 14 3 15 4 16 5 18 6 19 7 21 8 22 11 23 9 24
REMARK SMILES IDX 10 25 12 26 13 27 24 28 25 29 26 30 27 31 28 32 29 33 30 34
REMARK SMILES IDX 31 35 32 36 93 37 33 38 92 39 34 40 35 41 36 42 86 43 37 44
REMARK SMILES IDX 91 45 85 46 87 47 38 48 90 49 84 50 83 51 39 53 71 54 51 55
REMARK SMILES IDX 70 56 52 57 55 58 69 59 88 60 53 61 54 62 68 64 89 65 56 66
REMARK SMILES IDX 40 67 41 68 49 69 42 70 48 71 50 72 47 73 43 74 44 75 45 76
REMARK SMILES IDX 46 77 72 78 73 79 81 80 74 81 80 82 82 83 79 84 75 85 76 86
REMARK SMILES IDX 77 87 78 88 57 89 58 90 66 91 59 92 65 93 67 94 64 95 60 96
REMARK SMILES IDX 61 97 62 98 63 99
REMARK H PARENT 3 17 6 20 87 52 55 63
REMARK Flexibility Score: inf
ROOT
ATOM      1  C   UNL A   1      35.656  30.147  28.075  1.00  0.00     0.188 C 
ENDROOT
BRANCH   1   2
ATOM      2  O   UNL A   1      35.565  29.272  26.957  1.00  0.00    -0.376 OA
BRANCH   2   3
ATOM      3  C   UNL A   1      34.330  28.679  26.594  1.00  0.00     0.202 C 
BRANCH   3   4
ATOM      4  C   UNL A   1      33.293  29.538  25.859  1.00  0.00     0.261 C 
BRANCH   4   5
ATOM      5  O   UNL A   1      31.974  29.524  26.426  1.00  0.00    -0.458 OA
BRANCH   5   6
ATOM      6  C   UNL A   1      31.426  28.282  26.585  1.00  0.00     0.357 C 
ATOM      7  O   UNL A   1      31.070  27.817  27.665  1.00  0.00    -0.244 OA
BRANCH   6   8
ATOM      8  C   UNL A   1      31.187  27.583  25.318  1.00  0.00     0.159 A 
ATOM      9  C   UNL A   1      31.055  25.850  23.905  1.00  0.00     0.116 A 
ATOM     10  N   UNL A   1      31.512  26.242  25.088  1.00  0.00    -0.232 NA
ATOM     11  S   UNL A   1      30.388  27.120  22.947  1.00  0.00    -0.124 S 
ATOM     12  C   UNL A   1      30.590  28.211  24.241  1.00  0.00     0.102 A 
BRANCH   9  13
ATOM     13  C   UNL A   1      30.957  24.388  23.504  1.00  0.00     0.140 C 
ATOM     14  C   UNL A   1      30.759  23.377  24.612  1.00  0.00     0.039 C 
BRANCH  13  15
ATOM     15  N   UNL A   1      31.871  23.966  22.453  1.00  0.00    -0.329 N 
ATOM     16  C   UNL A   1      33.105  23.573  22.227  1.00  0.00     0.315 C 
ATOM     17  H   UNL A   1      31.387  23.980  21.595  1.00  0.00     0.166 HD
ATOM     18  O   UNL A   1      33.373  23.423  21.025  1.00  0.00    -0.249 OA
ATOM     19  N   UNL A   1      34.109  23.331  23.039  1.00  0.00    -0.335 N 
ATOM     20  H   UNL A   1      34.895  23.246  22.452  1.00  0.00     0.165 HD
BRANCH  19  21
ATOM     21  C   UNL A   1      34.628  23.126  24.400  1.00  0.00     0.089 C 
ATOM     22  C   UNL A   1      33.920  22.198  25.386  1.00  0.00     0.025 C 
ATOM     23  C   UNL A   1      36.136  22.726  24.449  1.00  0.00    -0.015 C 
ATOM     24  C   UNL A   1      34.934  21.117  25.782  1.00  0.00     0.003 C 
ATOM     25  C   UNL A   1      36.073  21.229  24.776  1.00  0.00     0.008 C 
ATOM     26  C   UNL A   1      36.927  22.973  23.158  1.00  0.00     0.013 C 
ATOM     27  C   UNL A   1      36.850  23.489  25.589  1.00  0.00     0.013 C 
ENDBRANCH  19  21
ENDBRANCH  13  15
ENDBRANCH   9  13
ENDBRANCH   6   8
ENDBRANCH   5   6
ENDBRANCH   4   5
ENDBRANCH   3   4
ENDBRANCH   2   3
ENDBRANCH   1   2
BRANCH   1  28
ATOM     28  C   UNL A   1      35.329  31.650  27.947  1.00  0.00     0.188 C 
BRANCH  28  29
ATOM     29  O   UNL A   1      34.039  31.999  28.419  1.00  0.00    -0.376 OA
BRANCH  29  30
ATOM     30  C   UNL A   1      33.279  32.880  27.608  1.00  0.00     0.202 C 
BRANCH  30  31
ATOM     31  C   UNL A   1      32.974  34.269  28.188  1.00  0.00     0.261 C 
BRANCH  31  32
ATOM     32  O   UNL A   1      32.792  34.338  29.610  1.00  0.00    -0.460 OA
BRANCH  32  33
ATOM     33  C   UNL A   1      33.629  35.142  30.303  1.00  0.00     0.338 C 
ATOM     34  O   UNL A   1      33.409  36.284  30.662  1.00  0.00    -0.246 OA
BRANCH  33  35
ATOM     35  C   UNL A   1      34.812  34.338  30.690  1.00  0.00     0.060 A 
ATOM     36  C   UNL A   1      34.660  33.311  31.629  1.00  0.00     0.016 A 
ATOM     37  C   UNL A   1      36.065  34.593  30.123  1.00  0.00     0.016 A 
ATOM     38  C   UNL A   1      35.769  32.553  32.020  1.00  0.00     0.010 A 
ATOM     39  C   UNL A   1      37.174  33.843  30.526  1.00  0.00     0.010 A 
ATOM     40  C   UNL A   1      37.039  32.832  31.494  1.00  0.00    -0.014 A 
BRANCH  40  41
ATOM     41  C   UNL A   1      38.248  32.184  32.070  1.00  0.00     0.031 A 
ATOM     42  C   UNL A   1      38.887  31.050  31.313  1.00  0.00     0.074 A 
ATOM     43  C   UNL A   1      38.777  32.594  33.238  1.00  0.00     0.049 A 
ATOM     44  N   UNL A   1      39.911  30.304  31.637  1.00  0.00    -0.248 NA
ATOM     45  C   UNL A   1      38.284  30.715  30.013  1.00  0.00     0.031 C 
ATOM     46  C   UNL A   1      38.274  33.702  34.049  1.00  0.00     0.029 A 
ATOM     47  N   UNL A   1      39.850  32.116  33.950  1.00  0.00    -0.354 N 
ATOM     48  C   UNL A   1      40.079  29.412  30.582  1.00  0.00     0.074 A 
ATOM     49  C   UNL A   1      39.027  29.689  29.627  1.00  0.00     0.031 C 
ATOM     50  C   UNL A   1      39.033  33.811  35.154  1.00  0.00     0.029 A 
ATOM     51  C   UNL A   1      40.050  32.761  35.150  1.00  0.00     0.049 A 
ATOM     52  H   UNL A   1      40.423  31.382  33.632  1.00  0.00     0.167 HD
ATOM     53  C   UNL A   1      41.028  28.457  30.419  1.00  0.00     0.034 A 
ATOM     54  C   UNL A   1      40.934  32.512  36.140  1.00  0.00     0.034 A 
ATOM     55  C   UNL A   1      42.058  28.172  31.387  1.00  0.00     0.049 A 
ATOM     56  C   UNL A   1      41.919  31.376  35.981  1.00  0.00     0.074 A 
ATOM     57  C   UNL A   1      43.071  27.230  31.316  1.00  0.00     0.029 A 
ATOM     58  N   UNL A   1      42.201  28.814  32.610  1.00  0.00    -0.354 N 
ATOM     59  N   UNL A   1      42.076  30.550  34.971  1.00  0.00    -0.248 NA
ATOM     60  C   UNL A   1      42.851  31.143  37.094  1.00  0.00     0.031 C 
ATOM     61  C   UNL A   1      43.779  27.255  32.522  1.00  0.00     0.029 A 
ATOM     62  C   UNL A   1      43.261  28.265  33.315  1.00  0.00     0.049 A 
ATOM     63  H   UNL A   1      41.632  29.550  32.929  1.00  0.00     0.167 HD
ATOM     64  C   UNL A   1      43.145  29.725  35.317  1.00  0.00     0.074 A 
ATOM     65  C   UNL A   1      43.602  30.161  36.620  1.00  0.00     0.031 C 
ATOM     66  C   UNL A   1      43.704  28.703  34.618  1.00  0.00     0.034 A 
BRANCH  53  67
ATOM     67  C   UNL A   1      40.956  27.619  29.165  1.00  0.00     0.023 A 
ATOM     68  C   UNL A   1      41.854  27.806  28.101  1.00  0.00     0.031 A 
ATOM     69  C   UNL A   1      39.958  26.639  29.023  1.00  0.00     0.131 A 
ATOM     70  C   UNL A   1      41.697  27.071  26.916  1.00  0.00     0.055 A 
ATOM     71  C   UNL A   1      39.853  25.858  27.871  1.00  0.00     0.041 A 
ATOM     72  F   UNL A   1      39.057  26.434  29.997  1.00  0.00    -0.206 F 
ATOM     73  C   UNL A   1      40.718  26.081  26.803  1.00  0.00     0.022 A 
BRANCH  70  74
ATOM     74  S   UNL A   1      42.706  27.519  25.477  1.00  0.00     0.124 S 
ATOM     75  O   UNL A   1      43.980  27.860  26.104  1.00  0.00    -0.237 OA
ATOM     76  O   UNL A   1      42.691  26.293  24.686  1.00  0.00    -0.237 OA
ATOM     77  O   UNL A   1      41.986  28.648  24.891  1.00  0.00    -0.744 OA
ENDBRANCH  70  74
ENDBRANCH  53  67
BRANCH  54  78
ATOM     78  C   UNL A   1      40.909  33.310  37.402  1.00  0.00     0.023 A 
ATOM     79  C   UNL A   1      40.201  32.866  38.531  1.00  0.00     0.031 A 
ATOM     80  C   UNL A   1      41.526  34.572  37.468  1.00  0.00     0.131 A 
ATOM     81  C   UNL A   1      40.085  33.698  39.657  1.00  0.00     0.055 A 
ATOM     82  C   UNL A   1      41.454  35.372  38.610  1.00  0.00     0.041 A 
ATOM     83  F   UNL A   1      42.208  35.050  36.414  1.00  0.00    -0.206 F 
ATOM     84  C   UNL A   1      40.717  34.942  39.708  1.00  0.00     0.022 A 
BRANCH  81  85
ATOM     85  S   UNL A   1      39.004  33.174  41.018  1.00  0.00     0.124 S 
ATOM     86  O   UNL A   1      39.874  33.357  42.173  1.00  0.00    -0.237 OA
ATOM     87  O   UNL A   1      37.891  34.109  40.897  1.00  0.00    -0.237 OA
ATOM     88  O   UNL A   1      38.689  31.786  40.687  1.00  0.00    -0.744 OA
ENDBRANCH  81  85
ENDBRANCH  54  78
BRANCH  66  89
ATOM     89  C   UNL A   1      44.905  28.022  35.231  1.00  0.00     0.023 A 
ATOM     90  C   UNL A   1      44.779  26.880  36.041  1.00  0.00     0.031 A 
ATOM     91  C   UNL A   1      46.197  28.530  35.001  1.00  0.00     0.131 A 
ATOM     92  C   UNL A   1      45.919  26.315  36.636  1.00  0.00     0.055 A 
ATOM     93  C   UNL A   1      47.331  27.929  35.547  1.00  0.00     0.041 A 
ATOM     94  F   UNL A   1      46.376  29.618  34.236  1.00  0.00    -0.206 F 
ATOM     95  C   UNL A   1      47.195  26.823  36.380  1.00  0.00     0.022 A 
BRANCH  92  96
ATOM     96  S   UNL A   1      45.705  24.955  37.818  1.00  0.00     0.124 S 
ATOM     97  O   UNL A   1      44.777  24.080  37.109  1.00  0.00    -0.237 OA
ATOM     98  O   UNL A   1      47.067  24.454  37.967  1.00  0.00    -0.237 OA
ATOM     99  O   UNL A   1      45.155  25.614  39.002  1.00  0.00    -0.744 OA
ENDBRANCH  92  96
ENDBRANCH  66  89
ENDBRANCH  40  41
ENDBRANCH  33  35
ENDBRANCH  32  33
ENDBRANCH  31  32
ENDBRANCH  30  31
ENDBRANCH  29  30
ENDBRANCH  28  29
ENDBRANCH   1  28
TORSDOF 23
ENDMDL
MODEL 3
REMARK VINA RESULT:      -9.6      4.158      9.478
REMARK SMILES C[C@H](NC(=O)N[C@H]1CCCC1(C)C)c1nc(C(=O)OCCOCCOCCOC(=O)c2ccc(-c3c4nc(c(-c5cc(S(=O)(=O)[O-])ccc5F)c5ccc([nH]5)c(-c5cc(S(=O)(=O)[O-])ccc5F)c5nc(c(-c6cc(S(=O)(=O)[O-])ccc6F)c6ccc3[nH]6)C=C5)C=C4)cc2)cs1
REMARK SMILES IDX 23 1 22 2 21 3 20 4 19 5 17 6 18 7 16 8 14 9 15 10 95 11
REMARK SMILES IDX 94 12 2 13 1 14 3 15 4 16 5 18 6 19 7 21 8 22 11 23 9 24
REMARK SMILES IDX 10 25 12 26 13 27 24 28 25 29 26 30 27 31 28 32 29 33 30 34
REMARK SMILES IDX 31 35 32 36 93 37 33 38 92 39 34 40 35 41 36 42 86 43 37 44
REMARK SMILES IDX 91 45 85 46 87 47 38 48 90 49 84 50 83 51 39 53 71 54 51 55
REMARK SMILES IDX 70 56 52 57 55 58 69 59 88 60 53 61 54 62 68 64 89 65 56 66
REMARK SMILES IDX 40 67 41 68 49 69 42 70 48 71 50 72 47 73 43 74 44 75 45 76
REMARK SMILES IDX 46 77 72 78 73 79 81 80 74 81 80 82 82 83 79 84 75 85 76 86
REMARK SMILES IDX 77 87 78 88 57 89 58 90 66 91 59 92 65 93 67 94 64 95 60 96
REMARK SMILES IDX 61 97 62 98 63 99
REMARK H PARENT 3 17 6 20 87 52 55 63
REMARK Flexibility Score: inf
ROOT
ATOM      1  C   UNL A   1      35.661  32.246  28.130  1.00  0.00     0.188 C 
ENDROOT
BRANCH   1   2
ATOM      2  O   UNL A   1      35.828  31.028  27.414  1.00  0.00    -0.376 OA
BRANCH   2   3
ATOM      3  C   UNL A   1      35.337  29.803  27.931  1.00  0.00     0.202 C 
BRANCH   3   4
ATOM      4  C   UNL A   1      34.022  29.247  27.372  1.00  0.00     0.261 C 
BRANCH   4   5
ATOM      5  O   UNL A   1      33.553  29.877  26.171  1.00  0.00    -0.458 OA
BRANCH   5   6
ATOM      6  C   UNL A   1      32.206  30.111  26.128  1.00  0.00     0.357 C 
ATOM      7  O   UNL A   1      31.610  30.858  26.898  1.00  0.00    -0.244 OA
BRANCH   6   8
ATOM      8  C   UNL A   1      31.540  29.471  24.988  1.00  0.00     0.159 A 
ATOM      9  C   UNL A   1      30.944  27.812  23.606  1.00  0.00     0.116 A 
ATOM     10  N   UNL A   1      31.790  28.160  24.568  1.00  0.00    -0.232 NA
ATOM     11  S   UNL A   1      29.945  29.099  23.040  1.00  0.00    -0.124 S 
ATOM     12  C   UNL A   1      30.578  30.127  24.244  1.00  0.00     0.102 A 
BRANCH   9  13
ATOM     13  C   UNL A   1      30.740  26.370  23.172  1.00  0.00     0.140 C 
ATOM     14  C   UNL A   1      30.352  25.373  24.239  1.00  0.00     0.039 C 
BRANCH  13  15
ATOM     15  N   UNL A   1      31.697  25.872  22.194  1.00  0.00    -0.329 N 
ATOM     16  C   UNL A   1      32.932  25.444  22.055  1.00  0.00     0.315 C 
ATOM     17  H   UNL A   1      31.258  25.845  21.313  1.00  0.00     0.166 HD
ATOM     18  O   UNL A   1      33.258  25.220  20.878  1.00  0.00    -0.249 OA
ATOM     19  N   UNL A   1      33.889  25.231  22.929  1.00  0.00    -0.335 N 
ATOM     20  H   UNL A   1      34.701  25.097  22.390  1.00  0.00     0.165 HD
BRANCH  19  21
ATOM     21  C   UNL A   1      34.334  25.094  24.326  1.00  0.00     0.089 C 
ATOM     22  C   UNL A   1      33.383  25.368  25.490  1.00  0.00     0.025 C 
ATOM     23  C   UNL A   1      35.008  23.722  24.643  1.00  0.00    -0.015 C 
ATOM     24  C   UNL A   1      33.304  24.075  26.311  1.00  0.00     0.003 C 
ATOM     25  C   UNL A   1      33.918  22.990  25.435  1.00  0.00     0.008 C 
ATOM     26  C   UNL A   1      35.446  22.904  23.422  1.00  0.00     0.013 C 
ATOM     27  C   UNL A   1      36.255  23.939  25.532  1.00  0.00     0.013 C 
ENDBRANCH  19  21
ENDBRANCH  13  15
ENDBRANCH   9  13
ENDBRANCH   6   8
ENDBRANCH   5   6
ENDBRANCH   4   5
ENDBRANCH   3   4
ENDBRANCH   2   3
ENDBRANCH   1   2
BRANCH   1  28
ATOM     28  C   UNL A   1      34.310  32.615  28.780  1.00  0.00     0.188 C 
BRANCH  28  29
ATOM     29  O   UNL A   1      34.353  32.680  30.194  1.00  0.00    -0.376 OA
BRANCH  29  30
ATOM     30  C   UNL A   1      35.612  32.959  30.784  1.00  0.00     0.202 C 
BRANCH  30  31
ATOM     31  C   UNL A   1      35.902  32.311  32.146  1.00  0.00     0.261 C 
BRANCH  31  32
ATOM     32  O   UNL A   1      37.120  31.558  32.245  1.00  0.00    -0.460 OA
BRANCH  32  33
ATOM     33  C   UNL A   1      37.063  30.245  31.931  1.00  0.00     0.338 C 
ATOM     34  O   UNL A   1      36.126  29.660  31.419  1.00  0.00    -0.246 OA
BRANCH  33  35
ATOM     35  C   UNL A   1      38.404  29.663  32.173  1.00  0.00     0.060 A 
ATOM     36  C   UNL A   1      39.514  30.512  32.239  1.00  0.00     0.016 A 
ATOM     37  C   UNL A   1      38.562  28.283  32.341  1.00  0.00     0.016 A 
ATOM     38  C   UNL A   1      40.790  29.979  32.450  1.00  0.00     0.010 A 
ATOM     39  C   UNL A   1      39.841  27.751  32.538  1.00  0.00     0.010 A 
ATOM     40  C   UNL A   1      40.967  28.592  32.571  1.00  0.00    -0.014 A 
BRANCH  40  41
ATOM     41  C   UNL A   1      42.335  28.008  32.569  1.00  0.00     0.031 A 
ATOM     42  C   UNL A   1      43.022  27.779  33.889  1.00  0.00     0.074 A 
ATOM     43  C   UNL A   1      42.957  27.678  31.422  1.00  0.00     0.049 A 
ATOM     44  N   UNL A   1      44.226  27.331  34.135  1.00  0.00    -0.248 NA
ATOM     45  C   UNL A   1      42.241  28.103  35.093  1.00  0.00     0.031 C 
ATOM     46  C   UNL A   1      42.387  27.817  30.082  1.00  0.00     0.029 A 
ATOM     47  N   UNL A   1      44.213  27.168  31.200  1.00  0.00    -0.354 N 
ATOM     48  C   UNL A   1      44.349  27.315  35.521  1.00  0.00     0.074 A 
ATOM     49  C   UNL A   1      43.108  27.835  36.057  1.00  0.00     0.031 C 
ATOM     50  C   UNL A   1      43.296  27.411  29.178  1.00  0.00     0.029 A 
ATOM     51  C   UNL A   1      44.525  27.020  29.867  1.00  0.00     0.049 A 
ATOM     52  H   UNL A   1      44.833  26.929  31.927  1.00  0.00     0.167 HD
ATOM     53  C   UNL A   1      45.393  26.897  36.278  1.00  0.00     0.034 A 
ATOM     54  C   UNL A   1      45.677  26.641  29.275  1.00  0.00     0.034 A 
ATOM     55  C   UNL A   1      46.635  26.403  35.734  1.00  0.00     0.049 A 
ATOM     56  C   UNL A   1      46.864  26.275  30.138  1.00  0.00     0.074 A 
ATOM     57  C   UNL A   1      47.753  25.949  36.413  1.00  0.00     0.029 A 
ATOM     58  N   UNL A   1      46.930  26.312  34.381  1.00  0.00    -0.354 N 
ATOM     59  N   UNL A   1      46.961  26.251  31.448  1.00  0.00    -0.248 NA
ATOM     60  C   UNL A   1      48.097  25.879  29.440  1.00  0.00     0.031 C 
ATOM     61  C   UNL A   1      48.746  25.652  35.474  1.00  0.00     0.029 A 
ATOM     62  C   UNL A   1      48.223  25.843  34.206  1.00  0.00     0.049 A 
ATOM     63  H   UNL A   1      46.311  26.546  33.652  1.00  0.00     0.167 HD
ATOM     64  C   UNL A   1      48.252  25.806  31.726  1.00  0.00     0.074 A 
ATOM     65  C   UNL A   1      48.891  25.561  30.450  1.00  0.00     0.031 C 
ATOM     66  C   UNL A   1      48.854  25.610  32.928  1.00  0.00     0.034 A 
BRANCH  53  67
ATOM     67  C   UNL A   1      45.249  27.009  37.776  1.00  0.00     0.023 A 
ATOM     68  C   UNL A   1      45.659  28.159  38.473  1.00  0.00     0.031 A 
ATOM     69  C   UNL A   1      44.719  25.941  38.520  1.00  0.00     0.131 A 
ATOM     70  C   UNL A   1      45.594  28.188  39.874  1.00  0.00     0.055 A 
ATOM     71  C   UNL A   1      44.586  26.005  39.908  1.00  0.00     0.041 A 
ATOM     72  F   UNL A   1      44.333  24.809  37.910  1.00  0.00    -0.206 F 
ATOM     73  C   UNL A   1      45.037  27.128  40.595  1.00  0.00     0.022 A 
BRANCH  70  74
ATOM     74  S   UNL A   1      46.368  29.574  40.750  1.00  0.00     0.124 S 
ATOM     75  O   UNL A   1      45.327  29.936  41.709  1.00  0.00    -0.237 OA
ATOM     76  O   UNL A   1      47.569  28.964  41.311  1.00  0.00    -0.237 OA
ATOM     77  O   UNL A   1      46.603  30.559  39.696  1.00  0.00    -0.744 OA
ENDBRANCH  70  74
ENDBRANCH  53  67
BRANCH  54  78
ATOM     78  C   UNL A   1      45.802  26.632  27.787  1.00  0.00     0.023 A 
ATOM     79  C   UNL A   1      45.716  25.436  27.056  1.00  0.00     0.031 A 
ATOM     80  C   UNL A   1      46.093  27.814  27.082  1.00  0.00     0.131 A 
ATOM     81  C   UNL A   1      45.969  25.439  25.675  1.00  0.00     0.055 A 
ATOM     82  C   UNL A   1      46.289  27.821  25.699  1.00  0.00     0.041 A 
ATOM     83  F   UNL A   1      46.196  28.985  27.732  1.00  0.00    -0.206 F 
ATOM     84  C   UNL A   1      46.242  26.625  24.990  1.00  0.00     0.022 A 
BRANCH  81  85
ATOM     85  S   UNL A   1      46.040  23.851  24.799  1.00  0.00     0.124 S 
ATOM     86  O   UNL A   1      47.091  24.099  23.820  1.00  0.00    -0.237 OA
ATOM     87  O   UNL A   1      46.373  22.926  25.878  1.00  0.00    -0.237 OA
ATOM     88  O   UNL A   1      44.694  23.705  24.249  1.00  0.00    -0.744 OA
ENDBRANCH  81  85
ENDBRANCH  54  78
BRANCH  66  89
ATOM     89  C   UNL A   1      50.259  25.057  32.915  1.00  0.00     0.023 A 
ATOM     90  C   UNL A   1      50.515  23.674  32.925  1.00  0.00     0.031 A 
ATOM     91  C   UNL A   1      51.361  25.932  32.898  1.00  0.00     0.131 A 
ATOM     92  C   UNL A   1      51.839  23.208  32.970  1.00  0.00     0.055 A 
ATOM     93  C   UNL A   1      52.674  25.461  32.883  1.00  0.00     0.041 A 
ATOM     94  F   UNL A   1      51.177  27.261  32.888  1.00  0.00    -0.206 F 
ATOM     95  C   UNL A   1      52.919  24.092  32.932  1.00  0.00     0.022 A 
BRANCH  92  96
ATOM     96  S   UNL A   1      52.131  21.428  33.163  1.00  0.00     0.124 S 
ATOM     97  O   UNL A   1      52.829  21.372  34.445  1.00  0.00    -0.237 OA
ATOM     98  O   UNL A   1      50.777  20.885  33.150  1.00  0.00    -0.237 OA
ATOM     99  O   UNL A   1      52.946  21.085  31.999  1.00  0.00    -0.744 OA
ENDBRANCH  92  96
ENDBRANCH  66  89
ENDBRANCH  40  41
ENDBRANCH  33  35
ENDBRANCH  32  33
ENDBRANCH  31  32
ENDBRANCH  30  31
ENDBRANCH  29  30
ENDBRANCH  28  29
ENDBRANCH   1  28
TORSDOF 23
ENDMDL
