MODEL 1
REMARK VINA RESULT:     -11.0      0.000      0.000
REMARK SMILES NC(=O)c1ccc(N(CC(=O)OCCOCCOCCOC(=O)c2ccc(-c3c4nc(c(-c5cc(S(=O)(=O)[O-])ccc5F)c5ccc([nH]5)c(-c5cc(S(=O)(=O)[O-])ccc5F)c5nc(c(-c6cc(S(=O)(=O)[O-])ccc6F)c6ccc3[nH]6)C=C5)C=C4)cc2)C2CCCC2)nn1
REMARK SMILES IDX 16 1 15 2 14 3 13 4 12 5 10 6 11 7 9 8 8 9 7 10 4 11 5 12
REMARK SMILES IDX 93 13 6 14 92 15 2 16 1 17 3 20 87 21 88 22 91 23 89 24
REMARK SMILES IDX 90 25 17 26 18 27 19 28 20 29 21 30 22 31 23 32 24 33 25 34
REMARK SMILES IDX 86 35 26 36 85 37 27 38 28 39 29 40 79 41 30 42 84 43 78 44
REMARK SMILES IDX 80 45 31 46 83 47 77 48 76 49 32 51 64 52 44 53 63 54 45 55
REMARK SMILES IDX 48 56 62 57 81 58 46 59 47 60 61 62 82 63 49 64 33 65 34 66
REMARK SMILES IDX 42 67 35 68 41 69 43 70 40 71 36 72 37 73 38 74 39 75 65 76
REMARK SMILES IDX 66 77 74 78 67 79 73 80 75 81 72 82 68 83 69 84 70 85 71 86
REMARK SMILES IDX 50 87 51 88 59 89 52 90 58 91 60 92 57 93 53 94 54 95 55 96
REMARK SMILES IDX 56 97
REMARK H PARENT 1 18 1 19 80 50 48 61
REMARK Flexibility Score: inf
ROOT
ATOM      1  C   UNL A   1      30.197  27.827  23.013  1.00  0.00     0.188 C 
ENDROOT
BRANCH   1   2
ATOM      2  O   UNL A   1      31.001  27.093  22.094  1.00  0.00    -0.376 OA
BRANCH   2   3
ATOM      3  C   UNL A   1      32.406  27.066  22.326  1.00  0.00     0.202 C 
BRANCH   3   4
ATOM      4  C   UNL A   1      33.135  25.878  21.688  1.00  0.00     0.261 C 
BRANCH   4   5
ATOM      5  O   UNL A   1      33.868  25.112  22.670  1.00  0.00    -0.462 OA
BRANCH   5   6
ATOM      6  C   UNL A   1      33.728  23.758  22.590  1.00  0.00     0.325 C 
ATOM      7  O   UNL A   1      33.491  23.161  21.543  1.00  0.00    -0.250 OA
BRANCH   6   8
ATOM      8  C   UNL A   1      34.128  23.035  23.881  1.00  0.00     0.241 C 
BRANCH   8   9
ATOM      9  N   UNL A   1      33.049  22.388  24.688  1.00  0.00    -0.341 N 
BRANCH   9  10
ATOM     10  C   UNL A   1      33.168  21.008  24.812  1.00  0.00     0.152 A 
ATOM     11  C   UNL A   1      33.297  18.233  24.992  1.00  0.00     0.150 A 
ATOM     12  C   UNL A   1      34.441  18.934  24.684  1.00  0.00     0.040 A 
ATOM     13  N   UNL A   1      32.132  18.868  25.203  1.00  0.00    -0.143 NA
ATOM     14  C   UNL A   1      34.363  20.323  24.604  1.00  0.00     0.051 A 
ATOM     15  N   UNL A   1      32.083  20.261  25.118  1.00  0.00    -0.132 NA
BRANCH  11  16
ATOM     16  C   UNL A   1      33.315  16.750  25.113  1.00  0.00     0.269 C 
ATOM     17  N   UNL A   1      32.096  16.113  25.075  1.00  0.00    -0.364 N 
ATOM     18  H   UNL A   1      32.051  15.133  25.151  1.00  0.00     0.160 HD
ATOM     19  H   UNL A   1      31.270  16.639  24.972  1.00  0.00     0.160 HD
ATOM     20  O   UNL A   1      34.346  16.102  25.238  1.00  0.00    -0.268 OA
ENDBRANCH  11  16
ENDBRANCH   9  10
BRANCH   9  21
ATOM     21  C   UNL A   1      32.333  23.259  25.636  1.00  0.00     0.084 C 
ATOM     22  C   UNL A   1      33.069  24.540  26.049  1.00  0.00     0.025 C 
ATOM     23  C   UNL A   1      30.938  23.696  25.181  1.00  0.00     0.025 C 
ATOM     24  C   UNL A   1      32.034  25.666  26.021  1.00  0.00     0.002 C 
ATOM     25  C   UNL A   1      30.681  24.971  25.973  1.00  0.00     0.002 C 
ENDBRANCH   9  21
ENDBRANCH   8   9
ENDBRANCH   6   8
ENDBRANCH   5   6
ENDBRANCH   4   5
ENDBRANCH   3   4
ENDBRANCH   2   3
ENDBRANCH   1   2
BRANCH   1  26
ATOM     26  C   UNL A   1      30.234  29.354  22.922  1.00  0.00     0.188 C 
BRANCH  26  27
ATOM     27  O   UNL A   1      30.253  29.958  24.214  1.00  0.00    -0.376 OA
BRANCH  27  28
ATOM     28  C   UNL A   1      31.366  29.527  24.994  1.00  0.00     0.202 C 
BRANCH  28  29
ATOM     29  C   UNL A   1      31.707  30.600  26.028  1.00  0.00     0.261 C 
BRANCH  29  30
ATOM     30  O   UNL A   1      33.018  30.447  26.606  1.00  0.00    -0.460 OA
BRANCH  30  31
ATOM     31  C   UNL A   1      33.507  31.498  27.295  1.00  0.00     0.338 C 
ATOM     32  O   UNL A   1      32.890  32.505  27.622  1.00  0.00    -0.246 OA
BRANCH  31  33
ATOM     33  C   UNL A   1      34.872  31.173  27.752  1.00  0.00     0.060 A 
ATOM     34  C   UNL A   1      35.203  29.845  28.059  1.00  0.00     0.016 A 
ATOM     35  C   UNL A   1      35.820  32.184  27.905  1.00  0.00     0.016 A 
ATOM     36  C   UNL A   1      36.469  29.527  28.554  1.00  0.00     0.010 A 
ATOM     37  C   UNL A   1      37.083  31.868  28.406  1.00  0.00     0.010 A 
ATOM     38  C   UNL A   1      37.405  30.545  28.758  1.00  0.00    -0.014 A 
BRANCH  38  39
ATOM     39  C   UNL A   1      38.675  30.303  29.482  1.00  0.00     0.031 A 
ATOM     40  C   UNL A   1      39.647  29.318  28.899  1.00  0.00     0.074 A 
ATOM     41  C   UNL A   1      38.924  30.884  30.668  1.00  0.00     0.049 A 
ATOM     42  N   UNL A   1      40.666  28.721  29.454  1.00  0.00    -0.248 NA
ATOM     43  C   UNL A   1      39.413  28.950  27.495  1.00  0.00     0.031 C 
ATOM     44  C   UNL A   1      38.104  31.921  31.291  1.00  0.00     0.029 A 
ATOM     45  N   UNL A   1      39.928  30.653  31.573  1.00  0.00    -0.354 N 
ATOM     46  C   UNL A   1      41.183  27.877  28.476  1.00  0.00     0.074 A 
ATOM     47  C   UNL A   1      40.343  28.029  27.305  1.00  0.00     0.031 C 
ATOM     48  C   UNL A   1      38.626  32.219  32.494  1.00  0.00     0.029 A 
ATOM     49  C   UNL A   1      39.769  31.345  32.750  1.00  0.00     0.049 A 
ATOM     50  H   UNL A   1      40.687  30.051  31.397  1.00  0.00     0.167 HD
ATOM     51  C   UNL A   1      42.255  27.048  28.555  1.00  0.00     0.034 A 
ATOM     52  C   UNL A   1      40.436  31.237  33.916  1.00  0.00     0.034 A 
ATOM     53  C   UNL A   1      43.055  26.900  29.747  1.00  0.00     0.049 A 
ATOM     54  C   UNL A   1      41.539  30.214  34.038  1.00  0.00     0.074 A 
ATOM     55  C   UNL A   1      44.148  26.080  29.962  1.00  0.00     0.029 A 
ATOM     56  N   UNL A   1      42.836  27.585  30.938  1.00  0.00    -0.354 N 
ATOM     57  N   UNL A   1      41.991  29.372  33.136  1.00  0.00    -0.248 NA
ATOM     58  C   UNL A   1      42.212  30.119  35.339  1.00  0.00     0.031 C 
ATOM     59  C   UNL A   1      44.546  26.218  31.299  1.00  0.00     0.029 A 
ATOM     60  C   UNL A   1      43.754  27.186  31.897  1.00  0.00     0.049 A 
ATOM     61  H   UNL A   1      42.131  28.258  31.079  1.00  0.00     0.167 HD
ATOM     62  C   UNL A   1      43.029  28.677  33.750  1.00  0.00     0.074 A 
ATOM     63  C   UNL A   1      43.131  29.195  35.100  1.00  0.00     0.031 C 
ATOM     64  C   UNL A   1      43.836  27.710  33.242  1.00  0.00     0.034 A 
BRANCH  51  65
ATOM     65  C   UNL A   1      42.551  26.197  27.343  1.00  0.00     0.023 A 
ATOM     66  C   UNL A   1      42.097  24.869  27.243  1.00  0.00     0.031 A 
ATOM     67  C   UNL A   1      43.375  26.685  26.314  1.00  0.00     0.131 A 
ATOM     68  C   UNL A   1      42.558  24.046  26.204  1.00  0.00     0.055 A 
ATOM     69  C   UNL A   1      43.750  25.889  25.228  1.00  0.00     0.041 A 
ATOM     70  F   UNL A   1      43.863  27.934  26.361  1.00  0.00    -0.206 F 
ATOM     71  C   UNL A   1      43.361  24.554  25.181  1.00  0.00     0.022 A 
BRANCH  68  72
ATOM     72  S   UNL A   1      42.264  22.259  26.325  1.00  0.00     0.124 S 
ATOM     73  O   UNL A   1      43.081  21.749  25.225  1.00  0.00    -0.237 OA
ATOM     74  O   UNL A   1      42.740  21.951  27.668  1.00  0.00    -0.237 OA
ATOM     75  O   UNL A   1      40.822  22.134  26.127  1.00  0.00    -0.744 OA
ENDBRANCH  68  72
ENDBRANCH  51  65
BRANCH  52  76
ATOM     76  C   UNL A   1      40.052  32.085  35.080  1.00  0.00     0.023 A 
ATOM     77  C   UNL A   1      39.148  31.612  36.043  1.00  0.00     0.031 A 
ATOM     78  C   UNL A   1      40.561  33.387  35.237  1.00  0.00     0.131 A 
ATOM     79  C   UNL A   1      38.759  32.442  37.105  1.00  0.00     0.055 A 
ATOM     80  C   UNL A   1      40.209  34.192  36.321  1.00  0.00     0.041 A 
ATOM     81  F   UNL A   1      41.428  33.889  34.341  1.00  0.00    -0.206 F 
ATOM     82  C   UNL A   1      39.294  33.723  37.259  1.00  0.00     0.022 A 
BRANCH  79  83
ATOM     83  S   UNL A   1      37.495  31.839  38.257  1.00  0.00     0.124 S 
ATOM     84  O   UNL A   1      36.402  32.774  38.012  1.00  0.00    -0.237 OA
ATOM     85  O   UNL A   1      37.287  30.472  37.792  1.00  0.00    -0.237 OA
ATOM     86  O   UNL A   1      38.140  31.959  39.563  1.00  0.00    -0.744 OA
ENDBRANCH  79  83
ENDBRANCH  52  76
BRANCH  64  87
ATOM     87  C   UNL A   1      44.948  27.204  34.130  1.00  0.00     0.023 A 
ATOM     88  C   UNL A   1      46.216  27.811  34.161  1.00  0.00     0.031 A 
ATOM     89  C   UNL A   1      44.726  26.090  34.960  1.00  0.00     0.131 A 
ATOM     90  C   UNL A   1      47.227  27.270  34.971  1.00  0.00     0.055 A 
ATOM     91  C   UNL A   1      45.718  25.592  35.804  1.00  0.00     0.041 A 
ATOM     92  F   UNL A   1      43.534  25.471  34.968  1.00  0.00    -0.206 F 
ATOM     93  C   UNL A   1      46.981  26.176  35.805  1.00  0.00     0.022 A 
BRANCH  90  94
ATOM     94  S   UNL A   1      48.898  27.969  34.866  1.00  0.00     0.124 S 
ATOM     95  O   UNL A   1      49.034  28.627  36.161  1.00  0.00    -0.237 OA
ATOM     96  O   UNL A   1      49.722  26.782  34.664  1.00  0.00    -0.237 OA
ATOM     97  O   UNL A   1      48.821  28.871  33.717  1.00  0.00    -0.744 OA
ENDBRANCH  90  94
ENDBRANCH  64  87
ENDBRANCH  38  39
ENDBRANCH  31  33
ENDBRANCH  30  31
ENDBRANCH  29  30
ENDBRANCH  28  29
ENDBRANCH  27  28
ENDBRANCH  26  27
ENDBRANCH   1  26
TORSDOF 24
ENDMDL
MODEL 2
REMARK VINA RESULT:     -10.9      1.885      2.163
REMARK SMILES NC(=O)c1ccc(N(CC(=O)OCCOCCOCCOC(=O)c2ccc(-c3c4nc(c(-c5cc(S(=O)(=O)[O-])ccc5F)c5ccc([nH]5)c(-c5cc(S(=O)(=O)[O-])ccc5F)c5nc(c(-c6cc(S(=O)(=O)[O-])ccc6F)c6ccc3[nH]6)C=C5)C=C4)cc2)C2CCCC2)nn1
REMARK SMILES IDX 16 1 15 2 14 3 13 4 12 5 10 6 11 7 9 8 8 9 7 10 4 11 5 12
REMARK SMILES IDX 93 13 6 14 92 15 2 16 1 17 3 20 87 21 88 22 91 23 89 24
REMARK SMILES IDX 90 25 17 26 18 27 19 28 20 29 21 30 22 31 23 32 24 33 25 34
REMARK SMILES IDX 86 35 26 36 85 37 27 38 28 39 29 40 79 41 30 42 84 43 78 44
REMARK SMILES IDX 80 45 31 46 83 47 77 48 76 49 32 51 64 52 44 53 63 54 45 55
REMARK SMILES IDX 48 56 62 57 81 58 46 59 47 60 61 62 82 63 49 64 33 65 34 66
REMARK SMILES IDX 42 67 35 68 41 69 43 70 40 71 36 72 37 73 38 74 39 75 65 76
REMARK SMILES IDX 66 77 74 78 67 79 73 80 75 81 72 82 68 83 69 84 70 85 71 86
REMARK SMILES IDX 50 87 51 88 59 89 52 90 58 91 60 92 57 93 53 94 54 95 55 96
REMARK SMILES IDX 56 97
REMARK H PARENT 1 18 1 19 80 50 48 61
REMARK Flexibility Score: inf
ROOT
ATOM      1  C   UNL A   1      30.267  27.759  22.759  1.00  0.00     0.188 C 
ENDROOT
BRANCH   1   2
ATOM      2  O   UNL A   1      31.050  27.032  21.816  1.00  0.00    -0.376 OA
BRANCH   2   3
ATOM      3  C   UNL A   1      32.463  27.041  21.990  1.00  0.00     0.202 C 
BRANCH   3   4
ATOM      4  C   UNL A   1      33.138  25.678  21.795  1.00  0.00     0.261 C 
BRANCH   4   5
ATOM      5  O   UNL A   1      33.679  25.168  23.035  1.00  0.00    -0.462 OA
BRANCH   5   6
ATOM      6  C   UNL A   1      34.056  23.858  23.023  1.00  0.00     0.325 C 
ATOM      7  O   UNL A   1      34.540  23.301  22.042  1.00  0.00    -0.250 OA
BRANCH   6   8
ATOM      8  C   UNL A   1      34.038  23.215  24.415  1.00  0.00     0.241 C 
BRANCH   8   9
ATOM      9  N   UNL A   1      32.822  22.446  24.818  1.00  0.00    -0.341 N 
BRANCH   9  10
ATOM     10  C   UNL A   1      33.016  21.073  24.928  1.00  0.00     0.152 A 
ATOM     11  C   UNL A   1      33.295  18.307  25.081  1.00  0.00     0.150 A 
ATOM     12  C   UNL A   1      34.395  19.070  24.760  1.00  0.00     0.040 A 
ATOM     13  N   UNL A   1      32.102  18.877  25.317  1.00  0.00    -0.143 NA
ATOM     14  C   UNL A   1      34.242  20.454  24.694  1.00  0.00     0.051 A 
ATOM     15  N   UNL A   1      31.978  20.266  25.246  1.00  0.00    -0.132 NA
BRANCH  11  16
ATOM     16  C   UNL A   1      33.394  16.827  25.188  1.00  0.00     0.269 C 
ATOM     17  N   UNL A   1      34.531  16.245  24.676  1.00  0.00    -0.364 N 
ATOM     18  H   UNL A   1      34.647  15.269  24.721  1.00  0.00     0.160 HD
ATOM     19  H   UNL A   1      35.228  16.806  24.265  1.00  0.00     0.160 HD
ATOM     20  O   UNL A   1      32.526  16.134  25.702  1.00  0.00    -0.268 OA
ENDBRANCH  11  16
ENDBRANCH   9  10
BRANCH   9  21
ATOM     21  C   UNL A   1      31.774  23.205  25.519  1.00  0.00     0.084 C 
ATOM     22  C   UNL A   1      32.263  24.152  26.624  1.00  0.00     0.025 C 
ATOM     23  C   UNL A   1      30.867  24.042  24.612  1.00  0.00     0.025 C 
ATOM     24  C   UNL A   1      31.481  25.455  26.458  1.00  0.00     0.002 C 
ATOM     25  C   UNL A   1      30.316  25.117  25.540  1.00  0.00     0.002 C 
ENDBRANCH   9  21
ENDBRANCH   8   9
ENDBRANCH   6   8
ENDBRANCH   5   6
ENDBRANCH   4   5
ENDBRANCH   3   4
ENDBRANCH   2   3
ENDBRANCH   1   2
BRANCH   1  26
ATOM     26  C   UNL A   1      30.238  29.283  22.629  1.00  0.00     0.188 C 
BRANCH  26  27
ATOM     27  O   UNL A   1      30.158  29.919  23.903  1.00  0.00    -0.376 OA
BRANCH  27  28
ATOM     28  C   UNL A   1      31.193  29.491  24.784  1.00  0.00     0.202 C 
BRANCH  28  29
ATOM     29  C   UNL A   1      31.474  30.590  25.808  1.00  0.00     0.261 C 
BRANCH  29  30
ATOM     30  O   UNL A   1      32.769  30.479  26.431  1.00  0.00    -0.460 OA
BRANCH  30  31
ATOM     31  C   UNL A   1      33.183  31.530  27.168  1.00  0.00     0.338 C 
ATOM     32  O   UNL A   1      32.511  32.503  27.491  1.00  0.00    -0.246 OA
BRANCH  31  33
ATOM     33  C   UNL A   1      34.538  31.246  27.681  1.00  0.00     0.060 A 
ATOM     34  C   UNL A   1      34.904  29.926  27.981  1.00  0.00     0.016 A 
ATOM     35  C   UNL A   1      35.440  32.288  27.892  1.00  0.00     0.016 A 
ATOM     36  C   UNL A   1      36.157  29.645  28.527  1.00  0.00     0.010 A 
ATOM     37  C   UNL A   1      36.690  32.010  28.444  1.00  0.00     0.010 A 
ATOM     38  C   UNL A   1      37.046  30.693  28.789  1.00  0.00    -0.014 A 
BRANCH  38  39
ATOM     39  C   UNL A   1      38.290  30.484  29.565  1.00  0.00     0.031 A 
ATOM     40  C   UNL A   1      39.330  29.560  29.002  1.00  0.00     0.074 A 
ATOM     41  C   UNL A   1      38.458  31.040  30.777  1.00  0.00     0.049 A 
ATOM     42  N   UNL A   1      40.348  28.990  29.587  1.00  0.00    -0.248 NA
ATOM     43  C   UNL A   1      39.177  29.224  27.579  1.00  0.00     0.031 C 
ATOM     44  C   UNL A   1      37.565  32.021  31.389  1.00  0.00     0.029 A 
ATOM     45  N   UNL A   1      39.429  30.826  31.722  1.00  0.00    -0.354 N 
ATOM     46  C   UNL A   1      40.947  28.199  28.612  1.00  0.00     0.074 A 
ATOM     47  C   UNL A   1      40.155  28.350  27.407  1.00  0.00     0.031 C 
ATOM     48  C   UNL A   1      38.018  32.306  32.624  1.00  0.00     0.029 A 
ATOM     49  C   UNL A   1      39.185  31.474  32.909  1.00  0.00     0.049 A 
ATOM     50  H   UNL A   1      40.221  30.262  31.565  1.00  0.00     0.167 HD
ATOM     51  C   UNL A   1      42.049  27.415  28.718  1.00  0.00     0.034 A 
ATOM     52  C   UNL A   1      39.802  31.361  34.102  1.00  0.00     0.034 A 
ATOM     53  C   UNL A   1      42.799  27.266  29.943  1.00  0.00     0.049 A 
ATOM     54  C   UNL A   1      40.942  30.383  34.248  1.00  0.00     0.074 A 
ATOM     55  C   UNL A   1      43.917  26.489  30.186  1.00  0.00     0.029 A 
ATOM     56  N   UNL A   1      42.496  27.906  31.141  1.00  0.00    -0.354 N 
ATOM     57  N   UNL A   1      41.472  29.589  33.345  1.00  0.00    -0.248 NA
ATOM     58  C   UNL A   1      41.559  30.278  35.576  1.00  0.00     0.031 C 
ATOM     59  C   UNL A   1      44.246  26.603  31.543  1.00  0.00     0.029 A 
ATOM     60  C   UNL A   1      43.386  27.518  32.130  1.00  0.00     0.049 A 
ATOM     61  H   UNL A   1      41.756  28.544  31.267  1.00  0.00     0.167 HD
ATOM     62  C   UNL A   1      42.511  28.921  33.988  1.00  0.00     0.074 A 
ATOM     63  C   UNL A   1      42.528  29.402  35.355  1.00  0.00     0.031 C 
ATOM     64  C   UNL A   1      43.383  28.005  33.492  1.00  0.00     0.034 A 
BRANCH  51  65
ATOM     65  C   UNL A   1      42.439  26.614  27.498  1.00  0.00     0.023 A 
ATOM     66  C   UNL A   1      42.236  25.223  27.432  1.00  0.00     0.031 A 
ATOM     67  C   UNL A   1      43.104  27.230  26.424  1.00  0.00     0.131 A 
ATOM     68  C   UNL A   1      42.791  24.483  26.376  1.00  0.00     0.055 A 
ATOM     69  C   UNL A   1      43.566  26.500  25.326  1.00  0.00     0.041 A 
ATOM     70  F   UNL A   1      43.351  28.549  26.437  1.00  0.00    -0.206 F 
ATOM     71  C   UNL A   1      43.432  25.114  25.309  1.00  0.00     0.022 A 
BRANCH  68  72
ATOM     72  S   UNL A   1      42.843  22.675  26.525  1.00  0.00     0.124 S 
ATOM     73  O   UNL A   1      42.125  22.460  27.780  1.00  0.00    -0.237 OA
ATOM     74  O   UNL A   1      42.156  22.239  25.315  1.00  0.00    -0.237 OA
ATOM     75  O   UNL A   1      44.272  22.376  26.576  1.00  0.00    -0.744 OA
ENDBRANCH  68  72
ENDBRANCH  51  65
BRANCH  52  76
ATOM     76  C   UNL A   1      39.328  32.157  35.270  1.00  0.00     0.023 A 
ATOM     77  C   UNL A   1      39.788  33.466  35.478  1.00  0.00     0.031 A 
ATOM     78  C   UNL A   1      38.429  31.616  36.207  1.00  0.00     0.131 A 
ATOM     79  C   UNL A   1      39.370  34.183  36.609  1.00  0.00     0.055 A 
ATOM     80  C   UNL A   1      37.979  32.350  37.306  1.00  0.00     0.041 A 
ATOM     81  F   UNL A   1      37.961  30.366  36.056  1.00  0.00    -0.206 F 
ATOM     82  C   UNL A   1      38.458  33.640  37.517  1.00  0.00     0.022 A 
BRANCH  79  83
ATOM     83  S   UNL A   1      40.085  35.823  36.907  1.00  0.00     0.124 S 
ATOM     84  O   UNL A   1      39.719  36.531  35.685  1.00  0.00    -0.237 OA
ATOM     85  O   UNL A   1      39.393  36.239  38.122  1.00  0.00    -0.237 OA
ATOM     86  O   UNL A   1      41.511  35.547  37.067  1.00  0.00    -0.744 OA
ENDBRANCH  79  83
ENDBRANCH  52  76
BRANCH  64  87
ATOM     87  C   UNL A   1      44.474  27.521  34.417  1.00  0.00     0.023 A 
ATOM     88  C   UNL A   1      44.372  26.310  35.124  1.00  0.00     0.031 A 
ATOM     89  C   UNL A   1      45.636  28.294  34.589  1.00  0.00     0.131 A 
ATOM     90  C   UNL A   1      45.396  25.930  36.007  1.00  0.00     0.055 A 
ATOM     91  C   UNL A   1      46.675  27.884  35.425  1.00  0.00     0.041 A 
ATOM     92  F   UNL A   1      45.784  29.460  33.940  1.00  0.00    -0.206 F 
ATOM     93  C   UNL A   1      46.553  26.701  36.149  1.00  0.00     0.022 A 
BRANCH  90  94
ATOM     94  S   UNL A   1      45.164  24.451  37.030  1.00  0.00     0.124 S 
ATOM     95  O   UNL A   1      46.532  24.146  37.438  1.00  0.00    -0.237 OA
ATOM     96  O   UNL A   1      44.277  24.934  38.083  1.00  0.00    -0.237 OA
ATOM     97  O   UNL A   1      44.563  23.487  36.109  1.00  0.00    -0.744 OA
ENDBRANCH  90  94
ENDBRANCH  64  87
ENDBRANCH  38  39
ENDBRANCH  31  33
ENDBRANCH  30  31
ENDBRANCH  29  30
ENDBRANCH  28  29
ENDBRANCH  27  28
ENDBRANCH  26  27
ENDBRANCH   1  26
TORSDOF 24
ENDMDL
MODEL 3
REMARK VINA RESULT:     -10.7      1.695      2.143
REMARK SMILES NC(=O)c1ccc(N(CC(=O)OCCOCCOCCOC(=O)c2ccc(-c3c4nc(c(-c5cc(S(=O)(=O)[O-])ccc5F)c5ccc([nH]5)c(-c5cc(S(=O)(=O)[O-])ccc5F)c5nc(c(-c6cc(S(=O)(=O)[O-])ccc6F)c6ccc3[nH]6)C=C5)C=C4)cc2)C2CCCC2)nn1
REMARK SMILES IDX 16 1 15 2 14 3 13 4 12 5 10 6 11 7 9 8 8 9 7 10 4 11 5 12
REMARK SMILES IDX 93 13 6 14 92 15 2 16 1 17 3 20 87 21 88 22 91 23 89 24
REMARK SMILES IDX 90 25 17 26 18 27 19 28 20 29 21 30 22 31 23 32 24 33 25 34
REMARK SMILES IDX 86 35 26 36 85 37 27 38 28 39 29 40 79 41 30 42 84 43 78 44
REMARK SMILES IDX 80 45 31 46 83 47 77 48 76 49 32 51 64 52 44 53 63 54 45 55
REMARK SMILES IDX 48 56 62 57 81 58 46 59 47 60 61 62 82 63 49 64 33 65 34 66
REMARK SMILES IDX 42 67 35 68 41 69 43 70 40 71 36 72 37 73 38 74 39 75 65 76
REMARK SMILES IDX 66 77 74 78 67 79 73 80 75 81 72 82 68 83 69 84 70 85 71 86
REMARK SMILES IDX 50 87 51 88 59 89 52 90 58 91 60 92 57 93 53 94 54 95 55 96
REMARK SMILES IDX 56 97
REMARK H PARENT 1 18 1 19 80 50 48 61
REMARK Flexibility Score: inf
ROOT
ATOM      1  C   UNL A   1      30.072  27.796  23.479  1.00  0.00     0.188 C 
ENDROOT
BRANCH   1   2
ATOM      2  O   UNL A   1      30.452  26.662  24.253  1.00  0.00    -0.376 OA
BRANCH   2   3
ATOM      3  C   UNL A   1      31.214  25.649  23.604  1.00  0.00     0.202 C 
BRANCH   3   4
ATOM      4  C   UNL A   1      30.760  24.217  23.906  1.00  0.00     0.261 C 
BRANCH   4   5
ATOM      5  O   UNL A   1      30.701  23.964  25.328  1.00  0.00    -0.462 OA
BRANCH   5   6
ATOM      6  C   UNL A   1      31.455  22.921  25.777  1.00  0.00     0.325 C 
ATOM      7  O   UNL A   1      31.498  22.573  26.954  1.00  0.00    -0.250 OA
BRANCH   6   8
ATOM      8  C   UNL A   1      32.055  22.080  24.644  1.00  0.00     0.241 C 
BRANCH   8   9
ATOM      9  N   UNL A   1      33.359  21.395  24.892  1.00  0.00    -0.341 N 
BRANCH   9  10
ATOM     10  C   UNL A   1      33.274  20.010  24.998  1.00  0.00     0.152 A 
ATOM     11  C   UNL A   1      33.226  17.232  25.169  1.00  0.00     0.150 A 
ATOM     12  C   UNL A   1      32.704  17.972  26.206  1.00  0.00     0.040 A 
ATOM     13  N   UNL A   1      33.754  17.831  24.089  1.00  0.00    -0.143 NA
ATOM     14  C   UNL A   1      32.728  19.362  26.104  1.00  0.00     0.051 A 
ATOM     15  N   UNL A   1      33.764  19.225  24.012  1.00  0.00    -0.132 NA
BRANCH  11  16
ATOM     16  C   UNL A   1      33.214  15.745  25.205  1.00  0.00     0.269 C 
ATOM     17  N   UNL A   1      31.983  15.141  25.325  1.00  0.00    -0.364 N 
ATOM     18  H   UNL A   1      31.917  14.160  25.354  1.00  0.00     0.160 HD
ATOM     19  H   UNL A   1      31.168  15.692  25.382  1.00  0.00     0.160 HD
ATOM     20  O   UNL A   1      34.229  15.065  25.132  1.00  0.00    -0.268 OA
ENDBRANCH  11  16
ENDBRANCH   9  10
BRANCH   9  21
ATOM     21  C   UNL A   1      34.570  22.135  24.499  1.00  0.00     0.084 C 
ATOM     22  C   UNL A   1      34.367  23.623  24.181  1.00  0.00     0.025 C 
ATOM     23  C   UNL A   1      35.722  22.067  25.505  1.00  0.00     0.025 C 
ATOM     24  C   UNL A   1      35.524  24.371  24.845  1.00  0.00     0.002 C 
ATOM     25  C   UNL A   1      36.553  23.304  25.191  1.00  0.00     0.002 C 
ENDBRANCH   9  21
ENDBRANCH   8   9
ENDBRANCH   6   8
ENDBRANCH   5   6
ENDBRANCH   4   5
ENDBRANCH   3   4
ENDBRANCH   2   3
ENDBRANCH   1   2
BRANCH   1  26
ATOM     26  C   UNL A   1      30.736  29.134  23.812  1.00  0.00     0.188 C 
BRANCH  26  27
ATOM     27  O   UNL A   1      32.158  29.052  23.725  1.00  0.00    -0.376 OA
BRANCH  27  28
ATOM     28  C   UNL A   1      32.783  29.159  25.001  1.00  0.00     0.202 C 
BRANCH  28  29
ATOM     29  C   UNL A   1      32.109  30.269  25.805  1.00  0.00     0.261 C 
BRANCH  29  30
ATOM     30  O   UNL A   1      32.640  30.421  27.137  1.00  0.00    -0.460 OA
BRANCH  30  31
ATOM     31  C   UNL A   1      33.302  31.565  27.402  1.00  0.00     0.338 C 
ATOM     32  O   UNL A   1      32.828  32.696  27.410  1.00  0.00    -0.246 OA
BRANCH  31  33
ATOM     33  C   UNL A   1      34.665  31.232  27.860  1.00  0.00     0.060 A 
ATOM     34  C   UNL A   1      34.969  29.914  28.231  1.00  0.00     0.016 A 
ATOM     35  C   UNL A   1      35.638  32.226  27.948  1.00  0.00     0.016 A 
ATOM     36  C   UNL A   1      36.233  29.591  28.726  1.00  0.00     0.010 A 
ATOM     37  C   UNL A   1      36.900  31.906  28.449  1.00  0.00     0.010 A 
ATOM     38  C   UNL A   1      37.196  30.596  28.865  1.00  0.00    -0.014 A 
BRANCH  38  39
ATOM     39  C   UNL A   1      38.470  30.361  29.585  1.00  0.00     0.031 A 
ATOM     40  C   UNL A   1      39.448  29.387  28.995  1.00  0.00     0.074 A 
ATOM     41  C   UNL A   1      38.716  30.938  30.773  1.00  0.00     0.049 A 
ATOM     42  N   UNL A   1      40.473  28.795  29.545  1.00  0.00    -0.248 NA
ATOM     43  C   UNL A   1      39.214  29.023  27.590  1.00  0.00     0.031 C 
ATOM     44  C   UNL A   1      37.889  31.965  31.403  1.00  0.00     0.029 A 
ATOM     45  N   UNL A   1      39.724  30.712  31.675  1.00  0.00    -0.354 N 
ATOM     46  C   UNL A   1      40.995  27.960  28.562  1.00  0.00     0.074 A 
ATOM     47  C   UNL A   1      40.151  28.110  27.394  1.00  0.00     0.031 C 
ATOM     48  C   UNL A   1      38.412  32.263  32.606  1.00  0.00     0.029 A 
ATOM     49  C   UNL A   1      39.563  31.396  32.856  1.00  0.00     0.049 A 
ATOM     50  H   UNL A   1      40.488  30.117  31.494  1.00  0.00     0.167 HD
ATOM     51  C   UNL A   1      42.074  27.140  28.635  1.00  0.00     0.034 A 
ATOM     52  C   UNL A   1      40.233  31.289  34.020  1.00  0.00     0.034 A 
ATOM     53  C   UNL A   1      42.878  26.993  29.825  1.00  0.00     0.049 A 
ATOM     54  C   UNL A   1      41.345  30.275  34.134  1.00  0.00     0.074 A 
ATOM     55  C   UNL A   1      43.979  26.182  30.033  1.00  0.00     0.029 A 
ATOM     56  N   UNL A   1      42.656  27.671  31.019  1.00  0.00    -0.354 N 
ATOM     57  N   UNL A   1      41.802  29.441  33.227  1.00  0.00    -0.248 NA
ATOM     58  C   UNL A   1      42.022  30.179  35.433  1.00  0.00     0.031 C 
ATOM     59  C   UNL A   1      44.378  26.316  31.369  1.00  0.00     0.029 A 
ATOM     60  C   UNL A   1      43.580  27.275  31.974  1.00  0.00     0.049 A 
ATOM     61  H   UNL A   1      41.946  28.338  31.165  1.00  0.00     0.167 HD
ATOM     62  C   UNL A   1      42.847  28.751  33.836  1.00  0.00     0.074 A 
ATOM     63  C   UNL A   1      42.948  29.264  35.188  1.00  0.00     0.031 C 
ATOM     64  C   UNL A   1      43.661  27.794  33.321  1.00  0.00     0.034 A 
BRANCH  51  65
ATOM     65  C   UNL A   1      42.374  26.296  27.418  1.00  0.00     0.023 A 
ATOM     66  C   UNL A   1      41.897  24.979  27.295  1.00  0.00     0.031 A 
ATOM     67  C   UNL A   1      43.225  26.780  26.408  1.00  0.00     0.131 A 
ATOM     68  C   UNL A   1      42.360  24.159  26.255  1.00  0.00     0.055 A 
ATOM     69  C   UNL A   1      43.603  25.990  25.320  1.00  0.00     0.041 A 
ATOM     70  F   UNL A   1      43.735  28.020  26.478  1.00  0.00    -0.206 F 
ATOM     71  C   UNL A   1      43.189  24.662  25.251  1.00  0.00     0.022 A 
BRANCH  68  72
ATOM     72  S   UNL A   1      42.030  22.377  26.350  1.00  0.00     0.124 S 
ATOM     73  O   UNL A   1      42.753  21.878  25.182  1.00  0.00    -0.237 OA
ATOM     74  O   UNL A   1      42.592  22.021  27.648  1.00  0.00    -0.237 OA
ATOM     75  O   UNL A   1      40.575  22.291  26.254  1.00  0.00    -0.744 OA
ENDBRANCH  68  72
ENDBRANCH  51  65
BRANCH  52  76
ATOM     76  C   UNL A   1      39.845  32.129  35.188  1.00  0.00     0.023 A 
ATOM     77  C   UNL A   1      38.999  31.620  36.186  1.00  0.00     0.031 A 
ATOM     78  C   UNL A   1      40.291  33.456  35.316  1.00  0.00     0.131 A 
ATOM     79  C   UNL A   1      38.604  32.440  37.253  1.00  0.00     0.055 A 
ATOM     80  C   UNL A   1      39.934  34.254  36.404  1.00  0.00     0.041 A 
ATOM     81  F   UNL A   1      41.100  33.993  34.387  1.00  0.00    -0.206 F 
ATOM     82  C   UNL A   1      39.077  33.749  37.377  1.00  0.00     0.022 A 
BRANCH  79  83
ATOM     83  S   UNL A   1      37.412  31.785  38.452  1.00  0.00     0.124 S 
ATOM     84  O   UNL A   1      36.295  32.710  38.295  1.00  0.00    -0.237 OA
ATOM     85  O   UNL A   1      37.197  30.429  37.958  1.00  0.00    -0.237 OA
ATOM     86  O   UNL A   1      38.125  31.877  39.725  1.00  0.00    -0.744 OA
ENDBRANCH  79  83
ENDBRANCH  52  76
BRANCH  64  87
ATOM     87  C   UNL A   1      44.779  27.293  34.204  1.00  0.00     0.023 A 
ATOM     88  C   UNL A   1      44.614  26.198  35.071  1.00  0.00     0.031 A 
ATOM     89  C   UNL A   1      46.032  27.930  34.173  1.00  0.00     0.131 A 
ATOM     90  C   UNL A   1      45.673  25.803  35.904  1.00  0.00     0.055 A 
ATOM     91  C   UNL A   1      47.098  27.498  34.962  1.00  0.00     0.041 A 
ATOM     92  F   UNL A   1      46.243  28.982  33.365  1.00  0.00    -0.206 F 
ATOM     93  C   UNL A   1      46.918  26.435  35.843  1.00  0.00     0.022 A 
BRANCH  90  94
ATOM     94  S   UNL A   1      45.382  24.497  37.129  1.00  0.00     0.124 S 
ATOM     95  O   UNL A   1      44.931  23.390  36.292  1.00  0.00    -0.237 OA
ATOM     96  O   UNL A   1      46.697  24.340  37.739  1.00  0.00    -0.237 OA
ATOM     97  O   UNL A   1      44.358  25.069  38.003  1.00  0.00    -0.744 OA
ENDBRANCH  90  94
ENDBRANCH  64  87
ENDBRANCH  38  39
ENDBRANCH  31  33
ENDBRANCH  30  31
ENDBRANCH  29  30
ENDBRANCH  28  29
ENDBRANCH  27  28
ENDBRANCH  26  27
ENDBRANCH   1  26
TORSDOF 24
ENDMDL
