MODEL 1
REMARK VINA RESULT:     -11.2      0.000      0.000
REMARK SMILES CC(C)(C)OC(=O)N1CCC(c2c(C(=O)OCCOCCOCCOC(=O)c3ccc(-c4c5nc(c(-c6cc(S(=O)(=O)[O-])ccc6F)c6ccc([nH]6)c(-c6cc(S(=O)(=O)[O-])ccc6F)c6nc(c(-c7cc(S(=O)(=O)[O-])ccc7F)c7ccc4[nH]7)C=C6)C=C5)cc3)cnn2-c2ccccc2)CC1
REMARK SMILES IDX 20 1 19 2 18 3 17 4 16 5 14 6 15 7 13 8 12 9 93 10 91 11
REMARK SMILES IDX 92 12 11 13 6 14 7 15 8 16 9 17 101 18 10 19 100 20 5 21
REMARK SMILES IDX 2 22 1 23 3 24 4 25 94 26 95 27 99 28 96 29 98 30 97 31
REMARK SMILES IDX 21 32 22 33 23 34 24 35 25 36 26 37 27 38 28 39 29 40 90 41
REMARK SMILES IDX 30 42 89 43 31 44 32 45 33 46 83 47 34 48 88 49 82 50 84 51
REMARK SMILES IDX 35 52 87 53 81 54 80 55 36 57 68 58 48 59 67 60 49 61 52 62
REMARK SMILES IDX 66 63 85 64 50 65 51 66 65 68 86 69 53 70 37 71 38 72 46 73
REMARK SMILES IDX 39 74 45 75 47 76 44 77 40 78 41 79 42 80 43 81 69 82 70 83
REMARK SMILES IDX 78 84 71 85 77 86 79 87 76 88 72 89 73 90 74 91 75 92 54 93
REMARK SMILES IDX 55 94 63 95 56 96 62 97 64 98 61 99 57 100 58 101 59 102
REMARK SMILES IDX 60 103
REMARK H PARENT 84 56 52 67
REMARK Flexibility Score: inf
ROOT
ATOM      1  C   UNL A   1      38.754  22.316  26.081  1.00  0.00     0.188 C 
ENDROOT
BRANCH   1   2
ATOM      2  O   UNL A   1      37.984  21.969  24.958  1.00  0.00    -0.376 OA
BRANCH   2   3
ATOM      3  C   UNL A   1      37.083  22.920  24.432  1.00  0.00     0.202 C 
BRANCH   3   4
ATOM      4  C   UNL A   1      36.038  22.630  23.329  1.00  0.00     0.261 C 
BRANCH   4   5
ATOM      5  O   UNL A   1      35.306  23.706  22.729  1.00  0.00    -0.460 OA
BRANCH   5   6
ATOM      6  C   UNL A   1      33.998  23.886  23.073  1.00  0.00     0.341 C 
ATOM      7  O   UNL A   1      33.052  23.370  22.484  1.00  0.00    -0.246 OA
BRANCH   6   8
ATOM      8  C   UNL A   1      33.859  24.709  24.269  1.00  0.00     0.102 A 
ATOM      9  C   UNL A   1      33.332  26.006  24.403  1.00  0.00     0.062 A 
ATOM     10  N   UNL A   1      33.421  26.287  25.769  1.00  0.00    -0.237 N 
ATOM     11  C   UNL A   1      34.154  24.303  25.584  1.00  0.00     0.151 A 
ATOM     12  N   UNL A   1      34.003  25.283  26.467  1.00  0.00    -0.175 NA
BRANCH   9  13
ATOM     13  C   UNL A   1      32.680  26.870  23.322  1.00  0.00     0.043 C 
ATOM     14  C   UNL A   1      29.648  29.466  22.702  1.00  0.00     0.410 C 
ATOM     15  O   UNL A   1      28.685  28.952  23.242  1.00  0.00    -0.224 OA
ATOM     16  N   UNL A   1      30.728  28.714  22.259  1.00  0.00    -0.308 N 
ATOM     17  C   UNL A   1      30.525  27.290  22.140  1.00  0.00     0.124 C 
ATOM     18  C   UNL A   1      32.118  29.154  22.219  1.00  0.00     0.124 C 
ATOM     19  C   UNL A   1      31.164  26.622  23.337  1.00  0.00     0.032 C 
ATOM     20  C   UNL A   1      32.964  28.392  23.275  1.00  0.00     0.032 C 
BRANCH  14  21
ATOM     21  O   UNL A   1      29.749  30.790  22.401  1.00  0.00    -0.444 OA
BRANCH  21  22
ATOM     22  C   UNL A   1      28.528  31.591  22.400  1.00  0.00     0.106 C 
ATOM     23  C   UNL A   1      28.990  33.029  22.689  1.00  0.00     0.056 C 
ATOM     24  C   UNL A   1      27.588  31.139  23.523  1.00  0.00     0.056 C 
ATOM     25  C   UNL A   1      27.811  31.606  21.036  1.00  0.00     0.056 C 
ENDBRANCH  21  22
ENDBRANCH  14  21
ENDBRANCH   9  13
BRANCH  10  26
ATOM     26  C   UNL A   1      33.193  27.503  26.437  1.00  0.00     0.065 A 
ATOM     27  C   UNL A   1      34.290  28.348  26.643  1.00  0.00     0.028 A 
ATOM     28  C   UNL A   1      31.905  27.882  26.825  1.00  0.00     0.028 A 
ATOM     29  C   UNL A   1      34.079  29.629  27.143  1.00  0.00     0.002 A 
ATOM     30  C   UNL A   1      31.706  29.168  27.332  1.00  0.00     0.002 A 
ATOM     31  C   UNL A   1      32.787  30.044  27.468  1.00  0.00     0.000 A 
ENDBRANCH  10  26
ENDBRANCH   6   8
ENDBRANCH   5   6
ENDBRANCH   4   5
ENDBRANCH   3   4
ENDBRANCH   2   3
ENDBRANCH   1   2
BRANCH   1  32
ATOM     32  C   UNL A   1      40.040  21.477  26.232  1.00  0.00     0.188 C 
BRANCH  32  33
ATOM     33  O   UNL A   1      41.070  21.879  27.123  1.00  0.00    -0.376 OA
BRANCH  33  34
ATOM     34  C   UNL A   1      42.280  22.450  26.652  1.00  0.00     0.202 C 
BRANCH  34  35
ATOM     35  C   UNL A   1      42.420  23.941  26.349  1.00  0.00     0.261 C 
BRANCH  35  36
ATOM     36  O   UNL A   1      41.307  24.745  26.678  1.00  0.00    -0.460 OA
BRANCH  36  37
ATOM     37  C   UNL A   1      41.216  25.881  25.953  1.00  0.00     0.338 C 
ATOM     38  O   UNL A   1      41.745  26.110  24.879  1.00  0.00    -0.246 OA
BRANCH  37  39
ATOM     39  C   UNL A   1      40.465  26.864  26.741  1.00  0.00     0.060 A 
ATOM     40  C   UNL A   1      40.705  28.206  26.450  1.00  0.00     0.016 A 
ATOM     41  C   UNL A   1      39.871  26.453  27.943  1.00  0.00     0.016 A 
ATOM     42  C   UNL A   1      40.618  29.110  27.483  1.00  0.00     0.010 A 
ATOM     43  C   UNL A   1      39.824  27.349  28.981  1.00  0.00     0.010 A 
ATOM     44  C   UNL A   1      40.296  28.640  28.760  1.00  0.00    -0.014 A 
BRANCH  44  45
ATOM     45  C   UNL A   1      40.315  29.574  29.865  1.00  0.00     0.031 A 
ATOM     46  C   UNL A   1      39.024  30.279  29.979  1.00  0.00     0.074 A 
ATOM     47  C   UNL A   1      41.340  29.689  30.729  1.00  0.00     0.049 A 
ATOM     48  N   UNL A   1      38.747  31.462  29.542  1.00  0.00    -0.248 NA
ATOM     49  C   UNL A   1      37.839  29.483  30.343  1.00  0.00     0.031 C 
ATOM     50  C   UNL A   1      42.535  28.855  30.847  1.00  0.00     0.029 A 
ATOM     51  N   UNL A   1      41.480  30.560  31.764  1.00  0.00    -0.354 N 
ATOM     52  C   UNL A   1      37.410  31.651  29.856  1.00  0.00     0.074 A 
ATOM     53  C   UNL A   1      36.867  30.334  30.019  1.00  0.00     0.031 C 
ATOM     54  C   UNL A   1      43.152  29.121  32.025  1.00  0.00     0.029 A 
ATOM     55  C   UNL A   1      42.466  30.220  32.690  1.00  0.00     0.049 A 
ATOM     56  H   UNL A   1      40.929  31.370  31.852  1.00  0.00     0.167 HD
ATOM     57  C   UNL A   1      36.973  32.856  30.315  1.00  0.00     0.034 A 
ATOM     58  C   UNL A   1      42.632  30.764  33.931  1.00  0.00     0.034 A 
ATOM     59  C   UNL A   1      37.944  33.892  30.009  1.00  0.00     0.049 A 
ATOM     60  C   UNL A   1      41.933  32.080  33.915  1.00  0.00     0.074 A 
ATOM     61  C   UNL A   1      38.544  34.336  28.844  1.00  0.00     0.029 A 
ATOM     62  N   UNL A   1      38.746  34.355  31.033  1.00  0.00    -0.354 N 
ATOM     63  N   UNL A   1      42.336  33.091  33.195  1.00  0.00    -0.248 NA
ATOM     64  C   UNL A   1      40.520  32.099  34.268  1.00  0.00     0.031 C 
ATOM     65  C   UNL A   1      39.901  34.601  29.200  1.00  0.00     0.029 A 
ATOM     66  C   UNL A   1      40.039  34.409  30.575  1.00  0.00     0.049 A 
ATOM     67  H   UNL A   1      38.442  34.604  31.936  1.00  0.00     0.167 HD
ATOM     68  C   UNL A   1      41.181  33.622  32.639  1.00  0.00     0.074 A 
ATOM     69  C   UNL A   1      40.085  33.017  33.398  1.00  0.00     0.031 C 
ATOM     70  C   UNL A   1      41.204  34.259  31.429  1.00  0.00     0.034 A 
BRANCH  57  71
ATOM     71  C   UNL A   1      35.933  33.012  31.413  1.00  0.00     0.023 A 
ATOM     72  C   UNL A   1      34.809  33.793  31.089  1.00  0.00     0.031 A 
ATOM     73  C   UNL A   1      36.082  32.715  32.789  1.00  0.00     0.131 A 
ATOM     74  C   UNL A   1      34.014  34.370  32.090  1.00  0.00     0.055 A 
ATOM     75  C   UNL A   1      35.252  33.247  33.780  1.00  0.00     0.041 A 
ATOM     76  F   UNL A   1      37.059  31.950  33.283  1.00  0.00    -0.206 F 
ATOM     77  C   UNL A   1      34.235  34.114  33.438  1.00  0.00     0.022 A 
BRANCH  74  78
ATOM     78  S   UNL A   1      32.804  35.615  31.591  1.00  0.00     0.124 S 
ATOM     79  O   UNL A   1      32.382  35.096  30.294  1.00  0.00    -0.237 OA
ATOM     80  O   UNL A   1      31.826  35.526  32.672  1.00  0.00    -0.237 OA
ATOM     81  O   UNL A   1      33.584  36.848  31.556  1.00  0.00    -0.744 OA
ENDBRANCH  74  78
ENDBRANCH  57  71
BRANCH  58  82
ATOM     82  C   UNL A   1      43.034  30.079  35.201  1.00  0.00     0.023 A 
ATOM     83  C   UNL A   1      42.562  28.796  35.574  1.00  0.00     0.031 A 
ATOM     84  C   UNL A   1      44.115  30.589  35.955  1.00  0.00     0.131 A 
ATOM     85  C   UNL A   1      43.169  28.088  36.645  1.00  0.00     0.055 A 
ATOM     86  C   UNL A   1      44.711  29.887  37.006  1.00  0.00     0.041 A 
ATOM     87  F   UNL A   1      44.697  31.755  35.639  1.00  0.00    -0.206 F 
ATOM     88  C   UNL A   1      44.248  28.628  37.348  1.00  0.00     0.022 A 
BRANCH  85  89
ATOM     89  S   UNL A   1      42.632  26.400  37.093  1.00  0.00     0.124 S 
ATOM     90  O   UNL A   1      43.204  26.236  38.425  1.00  0.00    -0.237 OA
ATOM     91  O   UNL A   1      41.179  26.498  37.017  1.00  0.00    -0.237 OA
ATOM     92  O   UNL A   1      43.240  25.562  36.059  1.00  0.00    -0.744 OA
ENDBRANCH  85  89
ENDBRANCH  58  82
BRANCH  70  93
ATOM     93  C   UNL A   1      42.544  34.683  30.855  1.00  0.00     0.023 A 
ATOM     94  C   UNL A   1      43.258  35.854  31.203  1.00  0.00     0.031 A 
ATOM     95  C   UNL A   1      43.165  33.783  29.970  1.00  0.00     0.131 A 
ATOM     96  C   UNL A   1      44.536  36.087  30.653  1.00  0.00     0.055 A 
ATOM     97  C   UNL A   1      44.437  34.005  29.451  1.00  0.00     0.041 A 
ATOM     98  F   UNL A   1      42.548  32.643  29.614  1.00  0.00    -0.206 F 
ATOM     99  C   UNL A   1      45.126  35.164  29.783  1.00  0.00     0.022 A 
BRANCH  96 100
ATOM    100  S   UNL A   1      45.453  37.620  31.022  1.00  0.00     0.124 S 
ATOM    101  O   UNL A   1      44.460  38.468  31.673  1.00  0.00    -0.237 OA
ATOM    102  O   UNL A   1      46.538  37.139  31.873  1.00  0.00    -0.237 OA
ATOM    103  O   UNL A   1      45.879  38.087  29.701  1.00  0.00    -0.744 OA
ENDBRANCH  96 100
ENDBRANCH  70  93
ENDBRANCH  44  45
ENDBRANCH  37  39
ENDBRANCH  36  37
ENDBRANCH  35  36
ENDBRANCH  34  35
ENDBRANCH  33  34
ENDBRANCH  32  33
ENDBRANCH   1  32
TORSDOF 24
ENDMDL
MODEL 2
REMARK VINA RESULT:     -10.9      3.442      9.058
REMARK SMILES CC(C)(C)OC(=O)N1CCC(c2c(C(=O)OCCOCCOCCOC(=O)c3ccc(-c4c5nc(c(-c6cc(S(=O)(=O)[O-])ccc6F)c6ccc([nH]6)c(-c6cc(S(=O)(=O)[O-])ccc6F)c6nc(c(-c7cc(S(=O)(=O)[O-])ccc7F)c7ccc4[nH]7)C=C6)C=C5)cc3)cnn2-c2ccccc2)CC1
REMARK SMILES IDX 20 1 19 2 18 3 17 4 16 5 14 6 15 7 13 8 12 9 93 10 91 11
REMARK SMILES IDX 92 12 11 13 6 14 7 15 8 16 9 17 101 18 10 19 100 20 5 21
REMARK SMILES IDX 2 22 1 23 3 24 4 25 94 26 95 27 99 28 96 29 98 30 97 31
REMARK SMILES IDX 21 32 22 33 23 34 24 35 25 36 26 37 27 38 28 39 29 40 90 41
REMARK SMILES IDX 30 42 89 43 31 44 32 45 33 46 83 47 34 48 88 49 82 50 84 51
REMARK SMILES IDX 35 52 87 53 81 54 80 55 36 57 68 58 48 59 67 60 49 61 52 62
REMARK SMILES IDX 66 63 85 64 50 65 51 66 65 68 86 69 53 70 37 71 38 72 46 73
REMARK SMILES IDX 39 74 45 75 47 76 44 77 40 78 41 79 42 80 43 81 69 82 70 83
REMARK SMILES IDX 78 84 71 85 77 86 79 87 76 88 72 89 73 90 74 91 75 92 54 93
REMARK SMILES IDX 55 94 63 95 56 96 62 97 64 98 61 99 57 100 58 101 59 102
REMARK SMILES IDX 60 103
REMARK H PARENT 84 56 52 67
REMARK Flexibility Score: inf
ROOT
ATOM      1  C   UNL A   1      34.932  33.119  28.051  1.00  0.00     0.188 C 
ENDROOT
BRANCH   1   2
ATOM      2  O   UNL A   1      34.557  31.877  27.512  1.00  0.00    -0.376 OA
BRANCH   2   3
ATOM      3  C   UNL A   1      35.395  30.761  27.732  1.00  0.00     0.202 C 
BRANCH   3   4
ATOM      4  C   UNL A   1      35.102  29.326  27.233  1.00  0.00     0.261 C 
BRANCH   4   5
ATOM      5  O   UNL A   1      33.793  28.764  27.386  1.00  0.00    -0.460 OA
BRANCH   5   6
ATOM      6  C   UNL A   1      33.182  28.207  26.300  1.00  0.00     0.341 C 
ATOM      7  O   UNL A   1      33.399  27.068  25.895  1.00  0.00    -0.246 OA
BRANCH   6   8
ATOM      8  C   UNL A   1      32.187  29.100  25.719  1.00  0.00     0.102 A 
ATOM      9  C   UNL A   1      31.297  28.872  24.655  1.00  0.00     0.062 A 
ATOM     10  N   UNL A   1      30.561  30.055  24.547  1.00  0.00    -0.237 N 
ATOM     11  C   UNL A   1      31.855  30.381  26.198  1.00  0.00     0.151 A 
ATOM     12  N   UNL A   1      30.967  30.999  25.429  1.00  0.00    -0.175 NA
BRANCH   9  13
ATOM     13  C   UNL A   1      31.081  27.573  23.874  1.00  0.00     0.043 C 
ATOM     14  C   UNL A   1      32.873  24.083  22.917  1.00  0.00     0.410 C 
ATOM     15  O   UNL A   1      34.006  24.394  22.597  1.00  0.00    -0.224 OA
ATOM     16  N   UNL A   1      31.817  24.980  22.839  1.00  0.00    -0.308 N 
ATOM     17  C   UNL A   1      32.027  26.168  22.046  1.00  0.00     0.124 C 
ATOM     18  C   UNL A   1      30.656  25.015  23.723  1.00  0.00     0.124 C 
ATOM     19  C   UNL A   1      32.308  27.318  22.987  1.00  0.00     0.032 C 
ATOM     20  C   UNL A   1      30.696  26.276  24.628  1.00  0.00     0.032 C 
BRANCH  14  21
ATOM     21  O   UNL A   1      32.496  22.833  23.303  1.00  0.00    -0.444 OA
BRANCH  21  22
ATOM     22  C   UNL A   1      33.062  22.293  24.537  1.00  0.00     0.106 C 
ATOM     23  C   UNL A   1      34.515  21.929  24.188  1.00  0.00     0.056 C 
ATOM     24  C   UNL A   1      32.321  21.017  24.954  1.00  0.00     0.056 C 
ATOM     25  C   UNL A   1      33.110  23.319  25.685  1.00  0.00     0.056 C 
ENDBRANCH  21  22
ENDBRANCH  14  21
ENDBRANCH   9  13
BRANCH  10  26
ATOM     26  C   UNL A   1      29.651  30.439  23.547  1.00  0.00     0.065 A 
ATOM     27  C   UNL A   1      28.717  31.433  23.865  1.00  0.00     0.028 A 
ATOM     28  C   UNL A   1      29.717  29.895  22.262  1.00  0.00     0.028 A 
ATOM     29  C   UNL A   1      27.915  31.962  22.859  1.00  0.00     0.002 A 
ATOM     30  C   UNL A   1      28.903  30.429  21.261  1.00  0.00     0.002 A 
ATOM     31  C   UNL A   1      28.022  31.474  21.555  1.00  0.00     0.000 A 
ENDBRANCH  10  26
ENDBRANCH   6   8
ENDBRANCH   5   6
ENDBRANCH   4   5
ENDBRANCH   3   4
ENDBRANCH   2   3
ENDBRANCH   1   2
BRANCH   1  32
ATOM     32  C   UNL A   1      33.740  33.955  28.562  1.00  0.00     0.188 C 
BRANCH  32  33
ATOM     33  O   UNL A   1      33.497  34.098  29.954  1.00  0.00    -0.376 OA
BRANCH  33  34
ATOM     34  C   UNL A   1      34.322  34.909  30.774  1.00  0.00     0.202 C 
BRANCH  34  35
ATOM     35  C   UNL A   1      35.332  34.321  31.757  1.00  0.00     0.261 C 
BRANCH  35  36
ATOM     36  O   UNL A   1      36.336  33.501  31.195  1.00  0.00    -0.460 OA
BRANCH  36  37
ATOM     37  C   UNL A   1      36.203  32.189  31.490  1.00  0.00     0.338 C 
ATOM     38  O   UNL A   1      35.496  31.700  32.354  1.00  0.00    -0.246 OA
BRANCH  37  39
ATOM     39  C   UNL A   1      37.162  31.441  30.670  1.00  0.00     0.060 A 
ATOM     40  C   UNL A   1      37.047  30.052  30.695  1.00  0.00     0.016 A 
ATOM     41  C   UNL A   1      38.327  32.088  30.234  1.00  0.00     0.016 A 
ATOM     42  C   UNL A   1      38.198  29.312  30.561  1.00  0.00     0.010 A 
ATOM     43  C   UNL A   1      39.479  31.351  30.141  1.00  0.00     0.010 A 
ATOM     44  C   UNL A   1      39.414  29.986  30.407  1.00  0.00    -0.014 A 
BRANCH  44  45
ATOM     45  C   UNL A   1      40.635  29.210  30.378  1.00  0.00     0.031 A 
ATOM     46  C   UNL A   1      41.156  28.999  31.742  1.00  0.00     0.074 A 
ATOM     47  C   UNL A   1      41.149  28.667  29.259  1.00  0.00     0.049 A 
ATOM     48  N   UNL A   1      42.098  29.664  32.322  1.00  0.00    -0.248 NA
ATOM     49  C   UNL A   1      40.353  28.171  32.661  1.00  0.00     0.031 C 
ATOM     50  C   UNL A   1      40.565  28.605  27.920  1.00  0.00     0.029 A 
ATOM     51  N   UNL A   1      42.306  27.967  29.113  1.00  0.00    -0.354 N 
ATOM     52  C   UNL A   1      42.187  29.115  33.593  1.00  0.00     0.074 A 
ATOM     53  C   UNL A   1      40.922  28.482  33.825  1.00  0.00     0.031 C 
ATOM     54  C   UNL A   1      41.261  27.716  27.169  1.00  0.00     0.029 A 
ATOM     55  C   UNL A   1      42.405  27.235  27.931  1.00  0.00     0.049 A 
ATOM     56  H   UNL A   1      43.020  27.978  29.790  1.00  0.00     0.167 HD
ATOM     57  C   UNL A   1      43.402  28.911  34.172  1.00  0.00     0.034 A 
ATOM     58  C   UNL A   1      43.321  26.259  27.658  1.00  0.00     0.034 A 
ATOM     59  C   UNL A   1      44.419  29.700  33.497  1.00  0.00     0.049 A 
ATOM     60  C   UNL A   1      44.459  26.470  28.596  1.00  0.00     0.074 A 
ATOM     61  C   UNL A   1      44.563  31.047  33.215  1.00  0.00     0.029 A 
ATOM     62  N   UNL A   1      45.279  29.052  32.634  1.00  0.00    -0.354 N 
ATOM     63  N   UNL A   1      45.246  27.510  28.537  1.00  0.00    -0.248 NA
ATOM     64  C   UNL A   1      44.390  25.822  29.899  1.00  0.00     0.031 C 
ATOM     65  C   UNL A   1      45.109  31.097  31.897  1.00  0.00     0.029 A 
ATOM     66  C   UNL A   1      45.368  29.790  31.480  1.00  0.00     0.049 A 
ATOM     67  H   UNL A   1      45.748  28.205  32.815  1.00  0.00     0.167 HD
ATOM     68  C   UNL A   1      45.416  27.909  29.855  1.00  0.00     0.074 A 
ATOM     69  C   UNL A   1      44.928  26.785  30.655  1.00  0.00     0.031 C 
ATOM     70  C   UNL A   1      45.649  29.218  30.175  1.00  0.00     0.034 A 
BRANCH  57  71
ATOM     71  C   UNL A   1      43.742  27.689  35.010  1.00  0.00     0.023 A 
ATOM     72  C   UNL A   1      44.184  27.945  36.320  1.00  0.00     0.031 A 
ATOM     73  C   UNL A   1      43.940  26.362  34.557  1.00  0.00     0.131 A 
ATOM     74  C   UNL A   1      44.924  26.991  37.035  1.00  0.00     0.055 A 
ATOM     75  C   UNL A   1      44.628  25.397  35.297  1.00  0.00     0.041 A 
ATOM     76  F   UNL A   1      43.545  25.918  33.361  1.00  0.00    -0.206 F 
ATOM     77  C   UNL A   1      45.163  25.719  36.527  1.00  0.00     0.022 A 
BRANCH  74  78
ATOM     78  S   UNL A   1      45.727  27.521  38.563  1.00  0.00     0.124 S 
ATOM     79  O   UNL A   1      47.091  27.753  38.102  1.00  0.00    -0.237 OA
ATOM     80  O   UNL A   1      44.950  28.708  38.908  1.00  0.00    -0.237 OA
ATOM     81  O   UNL A   1      45.547  26.377  39.453  1.00  0.00    -0.744 OA
ENDBRANCH  74  78
ENDBRANCH  57  71
BRANCH  58  82
ATOM     82  C   UNL A   1      43.120  24.979  26.908  1.00  0.00     0.023 A 
ATOM     83  C   UNL A   1      44.085  24.438  26.022  1.00  0.00     0.031 A 
ATOM     84  C   UNL A   1      42.052  24.124  27.263  1.00  0.00     0.131 A 
ATOM     85  C   UNL A   1      43.958  23.107  25.545  1.00  0.00     0.055 A 
ATOM     86  C   UNL A   1      41.934  22.814  26.793  1.00  0.00     0.041 A 
ATOM     87  F   UNL A   1      41.126  24.499  28.159  1.00  0.00    -0.206 F 
ATOM     88  C   UNL A   1      42.894  22.295  25.940  1.00  0.00     0.022 A 
BRANCH  85  89
ATOM     89  S   UNL A   1      45.230  22.360  24.466  1.00  0.00     0.124 S 
ATOM     90  O   UNL A   1      44.442  21.460  23.632  1.00  0.00    -0.237 OA
ATOM     91  O   UNL A   1      45.809  23.523  23.803  1.00  0.00    -0.237 OA
ATOM     92  O   UNL A   1      46.128  21.690  25.409  1.00  0.00    -0.744 OA
ENDBRANCH  85  89
ENDBRANCH  58  82
BRANCH  70  93
ATOM     93  C   UNL A   1      46.058  30.176  29.071  1.00  0.00     0.023 A 
ATOM     94  C   UNL A   1      45.199  31.080  28.403  1.00  0.00     0.031 A 
ATOM     95  C   UNL A   1      47.427  30.228  28.756  1.00  0.00     0.131 A 
ATOM     96  C   UNL A   1      45.727  31.977  27.450  1.00  0.00     0.055 A 
ATOM     97  C   UNL A   1      47.947  31.132  27.834  1.00  0.00     0.041 A 
ATOM     98  F   UNL A   1      48.299  29.409  29.369  1.00  0.00    -0.206 F 
ATOM     99  C   UNL A   1      47.096  32.006  27.169  1.00  0.00     0.022 A 
BRANCH  96 100
ATOM    100  S   UNL A   1      44.639  33.105  26.517  1.00  0.00     0.124 S 
ATOM    101  O   UNL A   1      43.742  33.640  27.536  1.00  0.00    -0.237 OA
ATOM    102  O   UNL A   1      45.589  34.052  25.941  1.00  0.00    -0.237 OA
ATOM    103  O   UNL A   1      43.993  32.223  25.541  1.00  0.00    -0.744 OA
ENDBRANCH  96 100
ENDBRANCH  70  93
ENDBRANCH  44  45
ENDBRANCH  37  39
ENDBRANCH  36  37
ENDBRANCH  35  36
ENDBRANCH  34  35
ENDBRANCH  33  34
ENDBRANCH  32  33
ENDBRANCH   1  32
TORSDOF 24
ENDMDL
MODEL 3
REMARK VINA RESULT:     -10.8      4.078      9.385
REMARK SMILES CC(C)(C)OC(=O)N1CCC(c2c(C(=O)OCCOCCOCCOC(=O)c3ccc(-c4c5nc(c(-c6cc(S(=O)(=O)[O-])ccc6F)c6ccc([nH]6)c(-c6cc(S(=O)(=O)[O-])ccc6F)c6nc(c(-c7cc(S(=O)(=O)[O-])ccc7F)c7ccc4[nH]7)C=C6)C=C5)cc3)cnn2-c2ccccc2)CC1
REMARK SMILES IDX 20 1 19 2 18 3 17 4 16 5 14 6 15 7 13 8 12 9 93 10 91 11
REMARK SMILES IDX 92 12 11 13 6 14 7 15 8 16 9 17 101 18 10 19 100 20 5 21
REMARK SMILES IDX 2 22 1 23 3 24 4 25 94 26 95 27 99 28 96 29 98 30 97 31
REMARK SMILES IDX 21 32 22 33 23 34 24 35 25 36 26 37 27 38 28 39 29 40 90 41
REMARK SMILES IDX 30 42 89 43 31 44 32 45 33 46 83 47 34 48 88 49 82 50 84 51
REMARK SMILES IDX 35 52 87 53 81 54 80 55 36 57 68 58 48 59 67 60 49 61 52 62
REMARK SMILES IDX 66 63 85 64 50 65 51 66 65 68 86 69 53 70 37 71 38 72 46 73
REMARK SMILES IDX 39 74 45 75 47 76 44 77 40 78 41 79 42 80 43 81 69 82 70 83
REMARK SMILES IDX 78 84 71 85 77 86 79 87 76 88 72 89 73 90 74 91 75 92 54 93
REMARK SMILES IDX 55 94 63 95 56 96 62 97 64 98 61 99 57 100 58 101 59 102
REMARK SMILES IDX 60 103
REMARK H PARENT 84 56 52 67
REMARK Flexibility Score: inf
ROOT
ATOM      1  C   UNL A   1      31.839  28.826  25.060  1.00  0.00     0.188 C 
ENDROOT
BRANCH   1   2
ATOM      2  O   UNL A   1      31.968  28.076  23.879  1.00  0.00    -0.376 OA
BRANCH   2   3
ATOM      3  C   UNL A   1      32.200  26.687  23.979  1.00  0.00     0.202 C 
BRANCH   3   4
ATOM      4  C   UNL A   1      32.002  25.674  22.826  1.00  0.00     0.261 C 
BRANCH   4   5
ATOM      5  O   UNL A   1      32.000  24.267  23.096  1.00  0.00    -0.460 OA
BRANCH   5   6
ATOM      6  C   UNL A   1      32.997  23.493  22.577  1.00  0.00     0.341 C 
ATOM      7  O   UNL A   1      34.026  23.938  22.078  1.00  0.00    -0.246 OA
BRANCH   6   8
ATOM      8  C   UNL A   1      32.727  22.071  22.751  1.00  0.00     0.102 A 
ATOM      9  C   UNL A   1      33.227  21.179  23.717  1.00  0.00     0.062 A 
ATOM     10  N   UNL A   1      32.614  19.959  23.425  1.00  0.00    -0.237 N 
ATOM     11  C   UNL A   1      31.802  21.314  22.007  1.00  0.00     0.151 A 
ATOM     12  N   UNL A   1      31.819  20.027  22.331  1.00  0.00    -0.175 NA
BRANCH   9  13
ATOM     13  C   UNL A   1      34.134  21.498  24.908  1.00  0.00     0.043 C 
ATOM     14  C   UNL A   1      37.667  23.204  25.869  1.00  0.00     0.410 C 
ATOM     15  O   UNL A   1      38.455  22.765  25.050  1.00  0.00    -0.224 OA
ATOM     16  N   UNL A   1      36.503  22.525  26.202  1.00  0.00    -0.308 N 
ATOM     17  C   UNL A   1      36.426  21.135  25.818  1.00  0.00     0.124 C 
ATOM     18  C   UNL A   1      35.238  23.136  26.595  1.00  0.00     0.124 C 
ATOM     19  C   UNL A   1      35.562  21.036  24.581  1.00  0.00     0.032 C 
ATOM     20  C   UNL A   1      34.165  22.933  25.490  1.00  0.00     0.032 C 
BRANCH  14  21
ATOM     21  O   UNL A   1      37.860  24.338  26.597  1.00  0.00    -0.444 OA
BRANCH  21  22
ATOM     22  C   UNL A   1      39.174  24.557  27.196  1.00  0.00     0.106 C 
ATOM     23  C   UNL A   1      40.026  25.185  26.082  1.00  0.00     0.056 C 
ATOM     24  C   UNL A   1      39.806  23.221  27.606  1.00  0.00     0.056 C 
ATOM     25  C   UNL A   1      39.148  25.553  28.371  1.00  0.00     0.056 C 
ENDBRANCH  21  22
ENDBRANCH  14  21
ENDBRANCH   9  13
BRANCH  10  26
ATOM     26  C   UNL A   1      32.876  18.687  23.967  1.00  0.00     0.065 A 
ATOM     27  C   UNL A   1      33.629  17.795  23.196  1.00  0.00     0.028 A 
ATOM     28  C   UNL A   1      32.453  18.351  25.256  1.00  0.00     0.028 A 
ATOM     29  C   UNL A   1      34.054  16.596  23.761  1.00  0.00     0.002 A 
ATOM     30  C   UNL A   1      32.881  17.144  25.811  1.00  0.00     0.002 A 
ATOM     31  C   UNL A   1      33.697  16.281  25.073  1.00  0.00     0.000 A 
ENDBRANCH  10  26
ENDBRANCH   6   8
ENDBRANCH   5   6
ENDBRANCH   4   5
ENDBRANCH   3   4
ENDBRANCH   2   3
ENDBRANCH   1   2
BRANCH   1  32
ATOM     32  C   UNL A   1      32.104  28.009  26.342  1.00  0.00     0.188 C 
BRANCH  32  33
ATOM     33  O   UNL A   1      32.759  28.597  27.456  1.00  0.00    -0.376 OA
BRANCH  33  34
ATOM     34  C   UNL A   1      34.069  29.133  27.352  1.00  0.00     0.202 C 
BRANCH  34  35
ATOM     35  C   UNL A   1      34.384  30.594  27.666  1.00  0.00     0.261 C 
BRANCH  35  36
ATOM     36  O   UNL A   1      35.746  30.962  27.589  1.00  0.00    -0.460 OA
BRANCH  36  37
ATOM     37  C   UNL A   1      36.366  31.029  28.787  1.00  0.00     0.338 C 
ATOM     38  O   UNL A   1      35.862  31.318  29.859  1.00  0.00    -0.246 OA
BRANCH  37  39
ATOM     39  C   UNL A   1      37.801  30.817  28.568  1.00  0.00     0.060 A 
ATOM     40  C   UNL A   1      38.148  29.797  27.683  1.00  0.00     0.016 A 
ATOM     41  C   UNL A   1      38.711  31.347  29.494  1.00  0.00     0.016 A 
ATOM     42  C   UNL A   1      39.316  29.111  27.923  1.00  0.00     0.010 A 
ATOM     43  C   UNL A   1      39.854  30.635  29.757  1.00  0.00     0.010 A 
ATOM     44  C   UNL A   1      40.087  29.469  29.034  1.00  0.00    -0.014 A 
BRANCH  44  45
ATOM     45  C   UNL A   1      41.254  28.674  29.348  1.00  0.00     0.031 A 
ATOM     46  C   UNL A   1      41.337  28.413  30.798  1.00  0.00     0.074 A 
ATOM     47  C   UNL A   1      42.080  28.158  28.419  1.00  0.00     0.049 A 
ATOM     48  N   UNL A   1      42.063  29.044  31.658  1.00  0.00    -0.248 NA
ATOM     49  C   UNL A   1      40.289  27.570  31.402  1.00  0.00     0.031 C 
ATOM     50  C   UNL A   1      41.927  28.147  26.965  1.00  0.00     0.029 A 
ATOM     51  N   UNL A   1      43.222  27.444  28.605  1.00  0.00    -0.354 N 
ATOM     52  C   UNL A   1      41.761  28.455  32.876  1.00  0.00     0.074 A 
ATOM     53  C   UNL A   1      40.481  27.836  32.693  1.00  0.00     0.031 C 
ATOM     54  C   UNL A   1      42.813  27.270  26.429  1.00  0.00     0.029 A 
ATOM     55  C   UNL A   1      43.670  26.748  27.484  1.00  0.00     0.049 A 
ATOM     56  H   UNL A   1      43.698  27.422  29.466  1.00  0.00     0.167 HD
ATOM     57  C   UNL A   1      42.743  28.214  33.788  1.00  0.00     0.034 A 
ATOM     58  C   UNL A   1      44.619  25.766  27.467  1.00  0.00     0.034 A 
ATOM     59  C   UNL A   1      43.921  29.006  33.479  1.00  0.00     0.049 A 
ATOM     60  C   UNL A   1      45.421  25.929  28.711  1.00  0.00     0.074 A 
ATOM     61  C   UNL A   1      44.152  30.359  33.300  1.00  0.00     0.029 A 
ATOM     62  N   UNL A   1      44.998  28.371  32.895  1.00  0.00    -0.354 N 
ATOM     63  N   UNL A   1      46.196  26.957  28.929  1.00  0.00    -0.248 NA
ATOM     64  C   UNL A   1      44.958  25.242  29.910  1.00  0.00     0.031 C 
ATOM     65  C   UNL A   1      45.071  30.440  32.211  1.00  0.00     0.029 A 
ATOM     66  C   UNL A   1      45.436  29.143  31.848  1.00  0.00     0.049 A 
ATOM     67  H   UNL A   1      45.385  27.512  33.180  1.00  0.00     0.167 HD
ATOM     68  C   UNL A   1      45.962  27.312  30.249  1.00  0.00     0.074 A 
ATOM     69  C   UNL A   1      45.248  26.172  30.826  1.00  0.00     0.031 C 
ATOM     70  C   UNL A   1      46.095  28.607  30.670  1.00  0.00     0.034 A 
BRANCH  57  71
ATOM     71  C   UNL A   1      42.806  26.961  34.647  1.00  0.00     0.023 A 
ATOM     72  C   UNL A   1      43.614  25.919  34.158  1.00  0.00     0.031 A 
ATOM     73  C   UNL A   1      41.947  26.604  35.714  1.00  0.00     0.131 A 
ATOM     74  C   UNL A   1      43.433  24.597  34.590  1.00  0.00     0.055 A 
ATOM     75  C   UNL A   1      41.811  25.294  36.182  1.00  0.00     0.041 A 
ATOM     76  F   UNL A   1      41.140  27.466  36.339  1.00  0.00    -0.206 F 
ATOM     77  C   UNL A   1      42.525  24.272  35.591  1.00  0.00     0.022 A 
BRANCH  74  78
ATOM     78  S   UNL A   1      44.280  23.289  33.676  1.00  0.00     0.124 S 
ATOM     79  O   UNL A   1      43.396  23.128  32.527  1.00  0.00    -0.237 OA
ATOM     80  O   UNL A   1      45.577  23.905  33.413  1.00  0.00    -0.237 OA
ATOM     81  O   UNL A   1      44.298  22.176  34.621  1.00  0.00    -0.744 OA
ENDBRANCH  74  78
ENDBRANCH  57  71
BRANCH  58  82
ATOM     82  C   UNL A   1      44.646  24.513  26.648  1.00  0.00     0.023 A 
ATOM     83  C   UNL A   1      43.846  23.379  26.935  1.00  0.00     0.031 A 
ATOM     84  C   UNL A   1      45.292  24.516  25.390  1.00  0.00     0.131 A 
ATOM     85  C   UNL A   1      43.717  22.329  25.988  1.00  0.00     0.055 A 
ATOM     86  C   UNL A   1      45.159  23.482  24.460  1.00  0.00     0.041 A 
ATOM     87  F   UNL A   1      46.006  25.574  24.976  1.00  0.00    -0.206 F 
ATOM     88  C   UNL A   1      44.361  22.388  24.751  1.00  0.00     0.022 A 
BRANCH  85  89
ATOM     89  S   UNL A   1      42.629  20.895  26.302  1.00  0.00     0.124 S 
ATOM     90  O   UNL A   1      41.459  21.209  25.491  1.00  0.00    -0.237 OA
ATOM     91  O   UNL A   1      43.446  19.772  25.859  1.00  0.00    -0.237 OA
ATOM     92  O   UNL A   1      42.402  20.948  27.748  1.00  0.00    -0.744 OA
ENDBRANCH  85  89
ENDBRANCH  58  82
BRANCH  70  93
ATOM     93  C   UNL A   1      46.824  29.592  29.775  1.00  0.00     0.023 A 
ATOM     94  C   UNL A   1      46.238  30.355  28.737  1.00  0.00     0.031 A 
ATOM     95  C   UNL A   1      48.179  29.828  30.068  1.00  0.00     0.131 A 
ATOM     96  C   UNL A   1      47.016  31.299  28.033  1.00  0.00     0.055 A 
ATOM     97  C   UNL A   1      48.936  30.778  29.388  1.00  0.00     0.041 A 
ATOM     98  F   UNL A   1      48.791  29.149  31.054  1.00  0.00    -0.206 F 
ATOM     99  C   UNL A   1      48.359  31.513  28.361  1.00  0.00     0.022 A 
BRANCH  96 100
ATOM    100  S   UNL A   1      46.313  32.248  26.644  1.00  0.00     0.124 S 
ATOM    101  O   UNL A   1      47.487  32.763  25.949  1.00  0.00    -0.237 OA
ATOM    102  O   UNL A   1      45.542  31.233  25.930  1.00  0.00    -0.237 OA
ATOM    103  O   UNL A   1      45.502  33.271  27.308  1.00  0.00    -0.744 OA
ENDBRANCH  96 100
ENDBRANCH  70  93
ENDBRANCH  44  45
ENDBRANCH  37  39
ENDBRANCH  36  37
ENDBRANCH  35  36
ENDBRANCH  34  35
ENDBRANCH  33  34
ENDBRANCH  32  33
ENDBRANCH   1  32
TORSDOF 24
ENDMDL
