MODEL 1
REMARK VINA RESULT:     -11.4      0.000      0.000
REMARK SMILES O=C(OCCOCCOCCOC(=O)c1ccc(-c2c3nc(c(-c4cc(S(=O)(=O)[O-])ccc4F)c4ccc([nH]4)c(-c4cc(S(=O)(=O)[O-])ccc4F)c4nc(c(-c5cc(S(=O)(=O)[O-])ccc5F)c5ccc2[nH]5)C=C4)C=C3)cc1)C1=Cc2cc(S(F)(F)(F)(F)F)cc(Br)c2O[C@@H]1C(F)(F)F
REMARK SMILES IDX 8 1 7 2 6 3 5 4 4 5 3 6 2 7 1 8 78 9 79 10 94 11 80 12 93 13
REMARK SMILES IDX 81 14 92 15 82 16 90 17 89 18 91 19 95 20 96 21 97 22 98 23
REMARK SMILES IDX 83 24 84 25 85 26 86 27 87 28 88 29 9 30 10 31 11 32 12 33
REMARK SMILES IDX 13 34 14 35 15 36 16 37 77 38 17 39 76 40 18 41 19 42 20 43
REMARK SMILES IDX 70 44 21 45 75 46 69 47 71 48 22 49 74 50 68 51 67 52 23 54
REMARK SMILES IDX 55 55 35 56 54 57 36 58 39 59 53 60 72 61 37 62 38 63 52 65
REMARK SMILES IDX 73 66 40 67 24 68 25 69 33 70 26 71 32 72 34 73 31 74 27 75
REMARK SMILES IDX 28 76 29 77 30 78 56 79 57 80 65 81 58 82 64 83 66 84 63 85
REMARK SMILES IDX 59 86 60 87 61 88 62 89 41 90 42 91 50 92 43 93 49 94 51 95
REMARK SMILES IDX 48 96 44 97 45 98 46 99 47 100
REMARK H PARENT 71 53 39 64
REMARK Flexibility Score: inf
ROOT
ATOM      1  C   UNL A   1      31.749  26.990  25.831  1.00  0.00     0.188 C 
ENDROOT
BRANCH   1   2
ATOM      2  C   UNL A   1      30.879  25.886  25.253  1.00  0.00     0.188 C 
BRANCH   2   3
ATOM      3  O   UNL A   1      30.401  25.060  26.304  1.00  0.00    -0.376 OA
BRANCH   3   4
ATOM      4  C   UNL A   1      30.888  23.738  26.126  1.00  0.00     0.202 C 
BRANCH   4   5
ATOM      5  C   UNL A   1      32.025  23.480  27.102  1.00  0.00     0.261 C 
BRANCH   5   6
ATOM      6  O   UNL A   1      33.012  22.673  26.477  1.00  0.00    -0.460 OA
BRANCH   6   7
ATOM      7  C   UNL A   1      34.168  23.275  25.911  1.00  0.00     0.338 C 
ATOM      8  O   UNL A   1      34.069  24.380  25.291  1.00  0.00    -0.246 OA
BRANCH   7   9
ATOM      9  C   UNL A   1      35.521  22.599  26.049  1.00  0.00     0.087 C 
ATOM     10  C   UNL A   1      35.706  21.341  25.564  1.00  0.00     0.027 C 
ATOM     11  C   UNL A   1      36.670  23.328  26.728  1.00  0.00     0.316 C 
ATOM     12  C   UNL A   1      34.559  20.612  24.884  1.00  0.00     0.020 A 
ATOM     13  O   UNL A   1      33.995  22.609  23.725  1.00  0.00    -0.474 OA
ATOM     14  C   UNL A   1      34.291  19.314  25.285  1.00  0.00     0.036 A 
ATOM     15  C   UNL A   1      33.791  21.229  23.993  1.00  0.00     0.142 A 
ATOM     16  C   UNL A   1      33.352  18.642  24.466  1.00  0.00     0.109 A 
ATOM     17  C   UNL A   1      32.802  20.546  23.329  1.00  0.00     0.062 A 
ATOM     18  C   UNL A   1      32.523  19.242  23.632  1.00  0.00     0.044 A 
ATOM     19  Br  UNL A   1      31.777  21.452  21.926  1.00  0.00    -0.047 Br
BRANCH  11  20
ATOM     20  C   UNL A   1      37.824  23.477  25.751  1.00  0.00     0.430 C 
ATOM     21  F   UNL A   1      38.551  22.364  25.750  1.00  0.00    -0.167 F 
ATOM     22  F   UNL A   1      37.346  23.696  24.530  1.00  0.00    -0.167 F 
ATOM     23  F   UNL A   1      38.586  24.504  26.119  1.00  0.00    -0.167 F 
ENDBRANCH  11  20
BRANCH  16  24
ATOM     24  S   UNL A   1      33.284  16.836  24.570  1.00  0.00     0.310 S 
ATOM     25  F   UNL A   1      34.718  16.760  25.242  1.00  0.00    -0.094 F 
ATOM     26  F   UNL A   1      34.009  16.752  23.174  1.00  0.00    -0.094 F 
ATOM     27  F   UNL A   1      33.224  15.286  24.666  1.00  0.00    -0.094 F 
ATOM     28  F   UNL A   1      32.686  16.941  26.028  1.00  0.00    -0.094 F 
ATOM     29  F   UNL A   1      33.440  18.409  24.538  1.00  0.00    -0.094 F 
ENDBRANCH  16  24
ENDBRANCH   7   9
ENDBRANCH   6   7
ENDBRANCH   5   6
ENDBRANCH   4   5
ENDBRANCH   3   4
ENDBRANCH   2   3
ENDBRANCH   1   2
BRANCH   1  30
ATOM     30  O   UNL A   1      32.207  27.830  24.783  1.00  0.00    -0.376 OA
BRANCH  30  31
ATOM     31  C   UNL A   1      31.182  28.746  24.428  1.00  0.00     0.202 C 
BRANCH  31  32
ATOM     32  C   UNL A   1      31.367  30.039  25.205  1.00  0.00     0.261 C 
BRANCH  32  33
ATOM     33  O   UNL A   1      32.732  30.182  25.569  1.00  0.00    -0.460 OA
BRANCH  33  34
ATOM     34  C   UNL A   1      33.085  30.939  26.717  1.00  0.00     0.338 C 
ATOM     35  O   UNL A   1      32.287  31.820  27.167  1.00  0.00    -0.246 OA
BRANCH  34  36
ATOM     36  C   UNL A   1      34.418  30.697  27.407  1.00  0.00     0.060 A 
ATOM     37  C   UNL A   1      34.721  29.414  27.832  1.00  0.00     0.016 A 
ATOM     38  C   UNL A   1      35.209  31.724  27.698  1.00  0.00     0.016 A 
ATOM     39  C   UNL A   1      35.740  29.361  28.812  1.00  0.00     0.010 A 
ATOM     40  C   UNL A   1      36.270  31.569  28.557  1.00  0.00     0.010 A 
ATOM     41  C   UNL A   1      36.591  30.338  29.062  1.00  0.00    -0.014 A 
BRANCH  41  42
ATOM     42  C   UNL A   1      37.859  30.110  29.867  1.00  0.00     0.031 A 
ATOM     43  C   UNL A   1      37.973  30.649  31.150  1.00  0.00     0.074 A 
ATOM     44  C   UNL A   1      38.789  29.256  29.302  1.00  0.00     0.049 A 
ATOM     45  N   UNL A   1      38.939  30.426  32.043  1.00  0.00    -0.248 NA
ATOM     46  C   UNL A   1      37.004  31.584  31.741  1.00  0.00     0.031 C 
ATOM     47  C   UNL A   1      38.677  28.701  28.012  1.00  0.00     0.029 A 
ATOM     48  N   UNL A   1      39.962  28.795  29.858  1.00  0.00    -0.354 N 
ATOM     49  C   UNL A   1      38.694  31.106  33.166  1.00  0.00     0.074 A 
ATOM     50  C   UNL A   1      37.449  31.865  32.985  1.00  0.00     0.031 C 
ATOM     51  C   UNL A   1      39.771  27.926  27.789  1.00  0.00     0.029 A 
ATOM     52  C   UNL A   1      40.586  27.984  28.936  1.00  0.00     0.049 A 
ATOM     53  H   UNL A   1      40.298  29.009  30.759  1.00  0.00     0.167 HD
ATOM     54  C   UNL A   1      39.458  31.120  34.333  1.00  0.00     0.034 A 
ATOM     55  C   UNL A   1      41.797  27.323  29.068  1.00  0.00     0.034 A 
ATOM     56  C   UNL A   1      40.649  30.425  34.482  1.00  0.00     0.049 A 
ATOM     57  C   UNL A   1      42.593  27.384  30.216  1.00  0.00     0.074 A 
ATOM     58  C   UNL A   1      41.427  30.423  35.655  1.00  0.00     0.029 A 
ATOM     59  N   UNL A   1      41.284  29.633  33.551  1.00  0.00    -0.354 N 
ATOM     60  N   UNL A   1      42.328  28.032  31.351  1.00  0.00    -0.248 NA
ATOM     61  C   UNL A   1      43.893  26.716  30.355  1.00  0.00     0.031 C 
ATOM     62  C   UNL A   1      42.523  29.648  35.432  1.00  0.00     0.029 A 
ATOM     63  C   UNL A   1      42.446  29.155  34.115  1.00  0.00     0.049 A 
ATOM     64  H   UNL A   1      40.964  29.443  32.640  1.00  0.00     0.167 HD
ATOM     65  C   UNL A   1      43.314  27.842  32.229  1.00  0.00     0.074 A 
ATOM     66  C   UNL A   1      44.339  26.999  31.599  1.00  0.00     0.031 C 
ATOM     67  C   UNL A   1      43.399  28.335  33.533  1.00  0.00     0.034 A 
BRANCH  54  68
ATOM     68  C   UNL A   1      38.958  31.944  35.509  1.00  0.00     0.023 A 
ATOM     69  C   UNL A   1      39.310  33.283  35.504  1.00  0.00     0.031 A 
ATOM     70  C   UNL A   1      38.186  31.438  36.463  1.00  0.00     0.131 A 
ATOM     71  C   UNL A   1      39.032  33.953  36.719  1.00  0.00     0.055 A 
ATOM     72  C   UNL A   1      37.840  32.193  37.558  1.00  0.00     0.041 A 
ATOM     73  F   UNL A   1      37.743  30.188  36.359  1.00  0.00    -0.206 F 
ATOM     74  C   UNL A   1      38.205  33.508  37.647  1.00  0.00     0.022 A 
BRANCH  71  75
ATOM     75  S   UNL A   1      39.866  35.530  37.021  1.00  0.00     0.124 S 
ATOM     76  O   UNL A   1      39.648  36.460  35.825  1.00  0.00    -0.237 OA
ATOM     77  O   UNL A   1      39.292  36.179  38.282  1.00  0.00    -0.237 OA
ATOM     78  O   UNL A   1      41.541  35.258  37.232  1.00  0.00    -0.744 OA
ENDBRANCH  71  75
ENDBRANCH  54  68
BRANCH  55  79
ATOM     79  C   UNL A   1      42.289  26.486  27.899  1.00  0.00     0.023 A 
ATOM     80  C   UNL A   1      41.959  25.146  27.784  1.00  0.00     0.031 A 
ATOM     81  C   UNL A   1      43.108  27.071  27.033  1.00  0.00     0.131 A 
ATOM     82  C   UNL A   1      42.779  24.429  26.881  1.00  0.00     0.055 A 
ATOM     83  C   UNL A   1      43.773  26.328  26.088  1.00  0.00     0.041 A 
ATOM     84  F   UNL A   1      43.287  28.388  27.080  1.00  0.00    -0.206 F 
ATOM     85  C   UNL A   1      43.540  24.986  25.956  1.00  0.00     0.022 A 
BRANCH  82  86
ATOM     86  S   UNL A   1      42.784  22.623  26.999  1.00  0.00     0.124 S 
ATOM     87  O   UNL A   1      42.550  22.207  28.453  1.00  0.00    -0.237 OA
ATOM     88  O   UNL A   1      41.671  22.050  26.119  1.00  0.00    -0.237 OA
ATOM     89  O   UNL A   1      44.295  22.021  26.471  1.00  0.00    -0.744 OA
ENDBRANCH  82  86
ENDBRANCH  55  79
BRANCH  67  90
ATOM     90  C   UNL A   1      44.612  27.947  34.364  1.00  0.00     0.023 A 
ATOM     91  C   UNL A   1      44.490  26.891  35.253  1.00  0.00     0.031 A 
ATOM     92  C   UNL A   1      45.727  28.665  34.297  1.00  0.00     0.131 A 
ATOM     93  C   UNL A   1      45.502  26.854  36.240  1.00  0.00     0.055 A 
ATOM     94  C   UNL A   1      46.733  28.481  35.213  1.00  0.00     0.041 A 
ATOM     95  F   UNL A   1      45.870  29.571  33.333  1.00  0.00    -0.206 F 
ATOM     96  C   UNL A   1      46.653  27.496  36.158  1.00  0.00     0.022 A 
BRANCH  93  97
ATOM     97  S   UNL A   1      45.199  25.857  37.720  1.00  0.00     0.124 S 
ATOM     98  O   UNL A   1      44.570  24.521  37.316  1.00  0.00    -0.237 OA
ATOM     99  O   UNL A   1      46.525  25.598  38.441  1.00  0.00    -0.237 OA
ATOM    100  O   UNL A   1      44.136  26.695  38.764  1.00  0.00    -0.744 OA
ENDBRANCH  93  97
ENDBRANCH  67  90
ENDBRANCH  41  42
ENDBRANCH  34  36
ENDBRANCH  33  34
ENDBRANCH  32  33
ENDBRANCH  31  32
ENDBRANCH  30  31
ENDBRANCH   1  30
TORSDOF 22
ENDMDL
MODEL 2
REMARK VINA RESULT:     -11.4      1.702      2.507
REMARK SMILES O=C(OCCOCCOCCOC(=O)c1ccc(-c2c3nc(c(-c4cc(S(=O)(=O)[O-])ccc4F)c4ccc([nH]4)c(-c4cc(S(=O)(=O)[O-])ccc4F)c4nc(c(-c5cc(S(=O)(=O)[O-])ccc5F)c5ccc2[nH]5)C=C4)C=C3)cc1)C1=Cc2cc(S(F)(F)(F)(F)F)cc(Br)c2O[C@@H]1C(F)(F)F
REMARK SMILES IDX 8 1 7 2 6 3 5 4 4 5 3 6 2 7 1 8 78 9 79 10 94 11 80 12 93 13
REMARK SMILES IDX 81 14 92 15 82 16 90 17 89 18 91 19 95 20 96 21 97 22 98 23
REMARK SMILES IDX 83 24 84 25 85 26 86 27 87 28 88 29 9 30 10 31 11 32 12 33
REMARK SMILES IDX 13 34 14 35 15 36 16 37 77 38 17 39 76 40 18 41 19 42 20 43
REMARK SMILES IDX 70 44 21 45 75 46 69 47 71 48 22 49 74 50 68 51 67 52 23 54
REMARK SMILES IDX 55 55 35 56 54 57 36 58 39 59 53 60 72 61 37 62 38 63 52 65
REMARK SMILES IDX 73 66 40 67 24 68 25 69 33 70 26 71 32 72 34 73 31 74 27 75
REMARK SMILES IDX 28 76 29 77 30 78 56 79 57 80 65 81 58 82 64 83 66 84 63 85
REMARK SMILES IDX 59 86 60 87 61 88 62 89 41 90 42 91 50 92 43 93 49 94 51 95
REMARK SMILES IDX 48 96 44 97 45 98 46 99 47 100
REMARK H PARENT 71 53 39 64
REMARK Flexibility Score: inf
ROOT
ATOM      1  C   UNL A   1      33.430  27.992  22.822  1.00  0.00     0.188 C 
ENDROOT
BRANCH   1   2
ATOM      2  C   UNL A   1      32.475  27.066  22.088  1.00  0.00     0.188 C 
BRANCH   2   3
ATOM      3  O   UNL A   1      33.218  26.083  21.382  1.00  0.00    -0.376 OA
BRANCH   3   4
ATOM      4  C   UNL A   1      32.537  24.839  21.447  1.00  0.00     0.202 C 
BRANCH   4   5
ATOM      5  C   UNL A   1      33.545  23.704  21.370  1.00  0.00     0.261 C 
BRANCH   5   6
ATOM      6  O   UNL A   1      33.484  22.934  22.562  1.00  0.00    -0.460 OA
BRANCH   6   7
ATOM      7  C   UNL A   1      33.197  23.567  23.802  1.00  0.00     0.338 C 
ATOM      8  O   UNL A   1      33.944  24.505  24.223  1.00  0.00    -0.246 OA
BRANCH   7   9
ATOM      9  C   UNL A   1      31.999  23.122  24.623  1.00  0.00     0.087 C 
ATOM     10  C   UNL A   1      31.976  21.879  25.176  1.00  0.00     0.027 C 
ATOM     11  C   UNL A   1      30.824  24.066  24.827  1.00  0.00     0.316 C 
ATOM     12  C   UNL A   1      33.149  20.935  24.973  1.00  0.00     0.020 A 
ATOM     13  O   UNL A   1      34.649  22.736  25.369  1.00  0.00    -0.474 OA
ATOM     14  C   UNL A   1      32.874  19.640  24.564  1.00  0.00     0.036 A 
ATOM     15  C   UNL A   1      34.400  21.362  25.106  1.00  0.00     0.142 A 
ATOM     16  C   UNL A   1      33.994  18.777  24.600  1.00  0.00     0.109 A 
ATOM     17  C   UNL A   1      35.454  20.489  24.993  1.00  0.00     0.062 A 
ATOM     18  C   UNL A   1      35.250  19.182  24.651  1.00  0.00     0.044 A 
ATOM     19  Br  UNL A   1      37.277  21.127  25.328  1.00  0.00    -0.047 Br
BRANCH  11  20
ATOM     20  C   UNL A   1      30.637  24.329  26.312  1.00  0.00     0.430 C 
ATOM     21  F   UNL A   1      31.823  24.526  26.880  1.00  0.00    -0.167 F 
ATOM     22  F   UNL A   1      29.880  25.408  26.480  1.00  0.00    -0.167 F 
ATOM     23  F   UNL A   1      30.045  23.279  26.876  1.00  0.00    -0.167 F 
ENDBRANCH  11  20
BRANCH  16  24
ATOM     24  S   UNL A   1      33.684  16.994  24.573  1.00  0.00     0.310 S 
ATOM     25  F   UNL A   1      32.152  17.205  24.219  1.00  0.00    -0.094 F 
ATOM     26  F   UNL A   1      33.273  17.065  26.091  1.00  0.00    -0.094 F 
ATOM     27  F   UNL A   1      33.417  15.462  24.542  1.00  0.00    -0.094 F 
ATOM     28  F   UNL A   1      33.964  16.967  23.018  1.00  0.00    -0.094 F 
ATOM     29  F   UNL A   1      33.849  18.566  24.559  1.00  0.00    -0.094 F 
ENDBRANCH  16  24
ENDBRANCH   7   9
ENDBRANCH   6   7
ENDBRANCH   5   6
ENDBRANCH   4   5
ENDBRANCH   3   4
ENDBRANCH   2   3
ENDBRANCH   1   2
BRANCH   1  30
ATOM     30  O   UNL A   1      33.089  28.029  24.200  1.00  0.00    -0.376 OA
BRANCH  30  31
ATOM     31  C   UNL A   1      31.730  28.416  24.341  1.00  0.00     0.202 C 
BRANCH  31  32
ATOM     32  C   UNL A   1      31.654  29.726  25.109  1.00  0.00     0.261 C 
BRANCH  32  33
ATOM     33  O   UNL A   1      32.957  30.110  25.520  1.00  0.00    -0.460 OA
BRANCH  33  34
ATOM     34  C   UNL A   1      33.125  30.957  26.647  1.00  0.00     0.338 C 
ATOM     35  O   UNL A   1      32.283  31.880  26.879  1.00  0.00    -0.246 OA
BRANCH  34  36
ATOM     36  C   UNL A   1      34.311  30.760  27.577  1.00  0.00     0.060 A 
ATOM     37  C   UNL A   1      35.129  31.845  27.847  1.00  0.00     0.016 A 
ATOM     38  C   UNL A   1      34.615  29.544  28.016  1.00  0.00     0.016 A 
ATOM     39  C   UNL A   1      36.404  31.491  28.347  1.00  0.00     0.010 A 
ATOM     40  C   UNL A   1      35.825  29.298  28.618  1.00  0.00     0.010 A 
ATOM     41  C   UNL A   1      36.707  30.314  28.863  1.00  0.00    -0.014 A 
BRANCH  41  42
ATOM     42  C   UNL A   1      37.968  30.099  29.684  1.00  0.00     0.031 A 
ATOM     43  C   UNL A   1      38.061  30.641  30.968  1.00  0.00     0.074 A 
ATOM     44  C   UNL A   1      38.913  29.253  29.130  1.00  0.00     0.049 A 
ATOM     45  N   UNL A   1      39.018  30.428  31.872  1.00  0.00    -0.248 NA
ATOM     46  C   UNL A   1      37.076  31.567  31.545  1.00  0.00     0.031 C 
ATOM     47  C   UNL A   1      38.821  28.696  27.840  1.00  0.00     0.029 A 
ATOM     48  N   UNL A   1      40.083  28.804  29.701  1.00  0.00    -0.354 N 
ATOM     49  C   UNL A   1      38.753  31.107  32.991  1.00  0.00     0.074 A 
ATOM     50  C   UNL A   1      37.503  31.853  32.794  1.00  0.00     0.031 C 
ATOM     51  C   UNL A   1      39.925  27.931  27.631  1.00  0.00     0.029 A 
ATOM     52  C   UNL A   1      40.726  27.999  28.787  1.00  0.00     0.049 A 
ATOM     53  H   UNL A   1      40.406  29.023  30.605  1.00  0.00     0.167 HD
ATOM     54  C   UNL A   1      39.504  31.130  34.167  1.00  0.00     0.034 A 
ATOM     55  C   UNL A   1      41.942  27.350  28.935  1.00  0.00     0.034 A 
ATOM     56  C   UNL A   1      40.699  30.446  34.330  1.00  0.00     0.049 A 
ATOM     57  C   UNL A   1      42.723  27.420  30.091  1.00  0.00     0.074 A 
ATOM     58  C   UNL A   1      41.464  30.453  35.513  1.00  0.00     0.029 A 
ATOM     59  N   UNL A   1      41.353  29.660  33.408  1.00  0.00    -0.354 N 
ATOM     60  N   UNL A   1      42.438  28.067  31.223  1.00  0.00    -0.248 NA
ATOM     61  C   UNL A   1      44.027  26.765  30.247  1.00  0.00     0.031 C 
ATOM     62  C   UNL A   1      42.569  29.689  35.304  1.00  0.00     0.029 A 
ATOM     63  C   UNL A   1      42.512  29.193  33.987  1.00  0.00     0.049 A 
ATOM     64  H   UNL A   1      41.045  29.465  32.493  1.00  0.00     0.167 HD
ATOM     65  C   UNL A   1      43.416  27.887  32.113  1.00  0.00     0.074 A 
ATOM     66  C   UNL A   1      44.456  27.053  31.495  1.00  0.00     0.031 C 
ATOM     67  C   UNL A   1      43.481  28.382  33.417  1.00  0.00     0.034 A 
BRANCH  54  68
ATOM     68  C   UNL A   1      38.981  31.950  35.335  1.00  0.00     0.023 A 
ATOM     69  C   UNL A   1      39.341  33.287  35.347  1.00  0.00     0.031 A 
ATOM     70  C   UNL A   1      38.185  31.443  36.269  1.00  0.00     0.131 A 
ATOM     71  C   UNL A   1      39.039  33.952  36.559  1.00  0.00     0.055 A 
ATOM     72  C   UNL A   1      37.819  32.194  37.361  1.00  0.00     0.041 A 
ATOM     73  F   UNL A   1      37.737  30.196  36.149  1.00  0.00    -0.206 F 
ATOM     74  C   UNL A   1      38.189  33.507  37.466  1.00  0.00     0.022 A 
BRANCH  71  75
ATOM     75  S   UNL A   1      39.875  35.522  36.889  1.00  0.00     0.124 S 
ATOM     76  O   UNL A   1      39.286  36.159  38.150  1.00  0.00    -0.237 OA
ATOM     77  O   UNL A   1      41.370  35.272  37.095  1.00  0.00    -0.237 OA
ATOM     78  O   UNL A   1      39.652  36.577  35.561  1.00  0.00    -0.744 OA
ENDBRANCH  71  75
ENDBRANCH  54  68
BRANCH  55  79
ATOM     79  C   UNL A   1      42.455  26.517  27.773  1.00  0.00     0.023 A 
ATOM     80  C   UNL A   1      42.095  25.188  27.625  1.00  0.00     0.031 A 
ATOM     81  C   UNL A   1      43.323  27.091  26.947  1.00  0.00     0.131 A 
ATOM     82  C   UNL A   1      42.929  24.461  26.742  1.00  0.00     0.055 A 
ATOM     83  C   UNL A   1      44.003  26.344  26.017  1.00  0.00     0.041 A 
ATOM     84  F   UNL A   1      43.534  28.402  27.021  1.00  0.00    -0.206 F 
ATOM     85  C   UNL A   1      43.739  25.010  25.856  1.00  0.00     0.022 A 
BRANCH  82  86
ATOM     86  S   UNL A   1      42.881  22.655  26.833  1.00  0.00     0.124 S 
ATOM     87  O   UNL A   1      44.243  22.088  26.424  1.00  0.00    -0.237 OA
ATOM     88  O   UNL A   1      42.559  22.224  28.266  1.00  0.00    -0.237 OA
ATOM     89  O   UNL A   1      41.677  22.061  25.775  1.00  0.00    -0.744 OA
ENDBRANCH  82  86
ENDBRANCH  55  79
BRANCH  67  90
ATOM     90  C   UNL A   1      44.687  28.007  34.263  1.00  0.00     0.023 A 
ATOM     91  C   UNL A   1      44.569  26.944  35.143  1.00  0.00     0.031 A 
ATOM     92  C   UNL A   1      45.792  28.742  34.216  1.00  0.00     0.131 A 
ATOM     93  C   UNL A   1      45.567  26.915  36.144  1.00  0.00     0.055 A 
ATOM     94  C   UNL A   1      46.787  28.567  35.146  1.00  0.00     0.041 A 
ATOM     95  F   UNL A   1      45.935  29.657  33.261  1.00  0.00    -0.206 F 
ATOM     96  C   UNL A   1      46.709  27.575  36.083  1.00  0.00     0.022 A 
BRANCH  93  97
ATOM     97  S   UNL A   1      45.258  25.903  37.613  1.00  0.00     0.124 S 
ATOM     98  O   UNL A   1      44.457  24.660  37.218  1.00  0.00    -0.237 OA
ATOM     99  O   UNL A   1      46.594  25.475  38.227  1.00  0.00    -0.237 OA
ATOM    100  O   UNL A   1      44.372  26.814  38.756  1.00  0.00    -0.744 OA
ENDBRANCH  93  97
ENDBRANCH  67  90
ENDBRANCH  41  42
ENDBRANCH  34  36
ENDBRANCH  33  34
ENDBRANCH  32  33
ENDBRANCH  31  32
ENDBRANCH  30  31
ENDBRANCH   1  30
TORSDOF 22
ENDMDL
MODEL 3
REMARK VINA RESULT:     -11.2      2.876      4.011
REMARK SMILES O=C(OCCOCCOCCOC(=O)c1ccc(-c2c3nc(c(-c4cc(S(=O)(=O)[O-])ccc4F)c4ccc([nH]4)c(-c4cc(S(=O)(=O)[O-])ccc4F)c4nc(c(-c5cc(S(=O)(=O)[O-])ccc5F)c5ccc2[nH]5)C=C4)C=C3)cc1)C1=Cc2cc(S(F)(F)(F)(F)F)cc(Br)c2O[C@@H]1C(F)(F)F
REMARK SMILES IDX 8 1 7 2 6 3 5 4 4 5 3 6 2 7 1 8 78 9 79 10 94 11 80 12 93 13
REMARK SMILES IDX 81 14 92 15 82 16 90 17 89 18 91 19 95 20 96 21 97 22 98 23
REMARK SMILES IDX 83 24 84 25 85 26 86 27 87 28 88 29 9 30 10 31 11 32 12 33
REMARK SMILES IDX 13 34 14 35 15 36 16 37 77 38 17 39 76 40 18 41 19 42 20 43
REMARK SMILES IDX 70 44 21 45 75 46 69 47 71 48 22 49 74 50 68 51 67 52 23 54
REMARK SMILES IDX 55 55 35 56 54 57 36 58 39 59 53 60 72 61 37 62 38 63 52 65
REMARK SMILES IDX 73 66 40 67 24 68 25 69 33 70 26 71 32 72 34 73 31 74 27 75
REMARK SMILES IDX 28 76 29 77 30 78 56 79 57 80 65 81 58 82 64 83 66 84 63 85
REMARK SMILES IDX 59 86 60 87 61 88 62 89 41 90 42 91 50 92 43 93 49 94 51 95
REMARK SMILES IDX 48 96 44 97 45 98 46 99 47 100
REMARK H PARENT 71 53 39 64
REMARK Flexibility Score: inf
ROOT
ATOM      1  C   UNL A   1      31.825  29.773  25.955  1.00  0.00     0.188 C 
ENDROOT
BRANCH   1   2
ATOM      2  C   UNL A   1      33.213  29.592  25.364  1.00  0.00     0.188 C 
BRANCH   2   3
ATOM      3  O   UNL A   1      33.197  28.514  24.439  1.00  0.00    -0.376 OA
BRANCH   3   4
ATOM      4  C   UNL A   1      33.338  29.020  23.120  1.00  0.00     0.202 C 
BRANCH   4   5
ATOM      5  C   UNL A   1      33.783  27.901  22.192  1.00  0.00     0.261 C 
BRANCH   5   6
ATOM      6  O   UNL A   1      33.781  26.670  22.900  1.00  0.00    -0.460 OA
BRANCH   6   7
ATOM      7  C   UNL A   1      33.004  25.579  22.425  1.00  0.00     0.338 C 
ATOM      8  O   UNL A   1      33.490  24.781  21.563  1.00  0.00    -0.246 OA
BRANCH   7   9
ATOM      9  C   UNL A   1      31.593  25.367  22.948  1.00  0.00     0.087 C 
ATOM     10  C   UNL A   1      31.293  24.247  23.661  1.00  0.00     0.027 C 
ATOM     11  C   UNL A   1      30.516  26.405  22.674  1.00  0.00     0.316 C 
ATOM     12  C   UNL A   1      32.368  23.210  23.935  1.00  0.00     0.020 A 
ATOM     13  O   UNL A   1      33.903  24.954  24.439  1.00  0.00    -0.474 OA
ATOM     14  C   UNL A   1      32.068  21.883  23.675  1.00  0.00     0.036 A 
ATOM     15  C   UNL A   1      33.581  23.574  24.336  1.00  0.00     0.142 A 
ATOM     16  C   UNL A   1      33.039  20.971  24.150  1.00  0.00     0.109 A 
ATOM     17  C   UNL A   1      34.527  22.630  24.653  1.00  0.00     0.062 A 
ATOM     18  C   UNL A   1      34.276  21.297  24.477  1.00  0.00     0.044 A 
ATOM     19  Br  UNL A   1      36.261  23.200  25.367  1.00  0.00    -0.047 Br
BRANCH  11  20
ATOM     20  C   UNL A   1      29.983  26.942  23.992  1.00  0.00     0.430 C 
ATOM     21  F   UNL A   1      28.843  26.327  24.292  1.00  0.00    -0.167 F 
ATOM     22  F   UNL A   1      30.874  26.721  24.953  1.00  0.00    -0.167 F 
ATOM     23  F   UNL A   1      29.765  28.250  23.882  1.00  0.00    -0.167 F 
ENDBRANCH  11  20
BRANCH  16  24
ATOM     24  S   UNL A   1      32.553  19.235  24.318  1.00  0.00     0.310 S 
ATOM     25  F   UNL A   1      34.046  18.735  24.123  1.00  0.00    -0.094 F 
ATOM     26  F   UNL A   1      32.394  19.152  22.753  1.00  0.00    -0.094 F 
ATOM     27  F   UNL A   1      32.138  17.744  24.469  1.00  0.00    -0.094 F 
ATOM     28  F   UNL A   1      32.854  19.299  25.867  1.00  0.00    -0.094 F 
ATOM     29  F   UNL A   1      33.086  20.716  24.169  1.00  0.00    -0.094 F 
ENDBRANCH  16  24
ENDBRANCH   7   9
ENDBRANCH   6   7
ENDBRANCH   5   6
ENDBRANCH   4   5
ENDBRANCH   3   4
ENDBRANCH   2   3
ENDBRANCH   1   2
BRANCH   1  30
ATOM     30  O   UNL A   1      31.917  30.522  27.158  1.00  0.00    -0.376 OA
BRANCH  30  31
ATOM     31  C   UNL A   1      31.684  31.895  26.880  1.00  0.00     0.202 C 
BRANCH  31  32
ATOM     32  C   UNL A   1      32.870  32.717  27.358  1.00  0.00     0.261 C 
BRANCH  32  33
ATOM     33  O   UNL A   1      32.405  33.937  27.917  1.00  0.00    -0.460 OA
BRANCH  33  34
ATOM     34  C   UNL A   1      33.195  34.626  28.874  1.00  0.00     0.338 C 
ATOM     35  O   UNL A   1      32.858  35.791  29.256  1.00  0.00    -0.246 OA
BRANCH  34  36
ATOM     36  C   UNL A   1      34.443  33.971  29.444  1.00  0.00     0.060 A 
ATOM     37  C   UNL A   1      34.307  33.104  30.515  1.00  0.00     0.016 A 
ATOM     38  C   UNL A   1      35.641  34.326  28.994  1.00  0.00     0.016 A 
ATOM     39  C   UNL A   1      35.505  32.887  31.234  1.00  0.00     0.010 A 
ATOM     40  C   UNL A   1      36.780  33.965  29.673  1.00  0.00     0.010 A 
ATOM     41  C   UNL A   1      36.714  33.156  30.774  1.00  0.00    -0.014 A 
BRANCH  41  42
ATOM     42  C   UNL A   1      37.964  32.599  31.434  1.00  0.00     0.031 A 
ATOM     43  C   UNL A   1      38.401  33.126  32.651  1.00  0.00     0.074 A 
ATOM     44  C   UNL A   1      38.528  31.493  30.822  1.00  0.00     0.049 A 
ATOM     45  N   UNL A   1      39.378  32.664  33.433  1.00  0.00    -0.248 NA
ATOM     46  C   UNL A   1      37.826  34.321  33.285  1.00  0.00     0.031 C 
ATOM     47  C   UNL A   1      38.088  30.950  29.599  1.00  0.00     0.029 A 
ATOM     48  N   UNL A   1      39.588  30.732  31.263  1.00  0.00    -0.354 N 
ATOM     49  C   UNL A   1      39.491  33.424  34.525  1.00  0.00     0.074 A 
ATOM     50  C   UNL A   1      38.499  34.504  34.442  1.00  0.00     0.031 C 
ATOM     51  C   UNL A   1      38.877  29.885  29.302  1.00  0.00     0.029 A 
ATOM     52  C   UNL A   1      39.825  29.744  30.333  1.00  0.00     0.049 A 
ATOM     53  H   UNL A   1      40.091  30.871  32.098  1.00  0.00     0.167 HD
ATOM     54  C   UNL A   1      40.382  33.257  35.586  1.00  0.00     0.034 A 
ATOM     55  C   UNL A   1      40.807  28.766  30.365  1.00  0.00     0.034 A 
ATOM     56  C   UNL A   1      41.336  32.252  35.638  1.00  0.00     0.049 A 
ATOM     57  C   UNL A   1      41.737  28.634  31.399  1.00  0.00     0.074 A 
ATOM     58  C   UNL A   1      42.236  32.066  36.705  1.00  0.00     0.029 A 
ATOM     59  N   UNL A   1      41.588  31.279  34.697  1.00  0.00    -0.354 N 
ATOM     60  N   UNL A   1      41.825  29.370  32.508  1.00  0.00    -0.248 NA
ATOM     61  C   UNL A   1      42.802  27.624  31.427  1.00  0.00     0.031 C 
ATOM     62  C   UNL A   1      43.027  31.000  36.407  1.00  0.00     0.029 A 
ATOM     63  C   UNL A   1      42.634  30.505  35.149  1.00  0.00     0.049 A 
ATOM     64  H   UNL A   1      41.105  31.158  33.848  1.00  0.00     0.167 HD
ATOM     65  C   UNL A   1      42.828  28.933  33.271  1.00  0.00     0.074 A 
ATOM     66  C   UNL A   1      43.477  27.808  32.583  1.00  0.00     0.031 C 
ATOM     67  C   UNL A   1      43.228  29.424  34.516  1.00  0.00     0.034 A 
BRANCH  54  68
ATOM     68  C   UNL A   1      40.300  34.230  36.751  1.00  0.00     0.023 A 
ATOM     69  C   UNL A   1      39.859  33.701  37.952  1.00  0.00     0.031 A 
ATOM     70  C   UNL A   1      40.674  35.500  36.653  1.00  0.00     0.131 A 
ATOM     71  C   UNL A   1      39.573  34.677  38.937  1.00  0.00     0.055 A 
ATOM     72  C   UNL A   1      40.489  36.367  37.703  1.00  0.00     0.041 A 
ATOM     73  F   UNL A   1      41.233  35.938  35.528  1.00  0.00    -0.206 F 
ATOM     74  C   UNL A   1      40.002  35.925  38.902  1.00  0.00     0.022 A 
BRANCH  71  75
ATOM     75  S   UNL A   1      38.548  34.178  40.343  1.00  0.00     0.124 S 
ATOM     76  O   UNL A   1      37.979  35.424  41.026  1.00  0.00    -0.237 OA
ATOM     77  O   UNL A   1      37.399  33.296  39.851  1.00  0.00    -0.237 OA
ATOM     78  O   UNL A   1      39.501  33.302  41.460  1.00  0.00    -0.744 OA
ENDBRANCH  71  75
ENDBRANCH  54  68
BRANCH  55  79
ATOM     79  C   UNL A   1      40.877  27.783  29.208  1.00  0.00     0.023 A 
ATOM     80  C   UNL A   1      41.877  27.864  28.254  1.00  0.00     0.031 A 
ATOM     81  C   UNL A   1      39.900  26.890  29.107  1.00  0.00     0.131 A 
ATOM     82  C   UNL A   1      41.599  27.145  27.067  1.00  0.00     0.055 A 
ATOM     83  C   UNL A   1      39.766  26.124  27.974  1.00  0.00     0.041 A 
ATOM     84  F   UNL A   1      39.041  26.735  30.111  1.00  0.00    -0.206 F 
ATOM     85  C   UNL A   1      40.687  26.195  26.965  1.00  0.00     0.022 A 
BRANCH  82  86
ATOM     86  S   UNL A   1      42.559  27.553  25.589  1.00  0.00     0.124 S 
ATOM     87  O   UNL A   1      42.458  26.404  24.582  1.00  0.00    -0.237 OA
ATOM     88  O   UNL A   1      42.006  28.833  24.959  1.00  0.00    -0.237 OA
ATOM     89  O   UNL A   1      44.196  27.791  26.019  1.00  0.00    -0.744 OA
ENDBRANCH  82  86
ENDBRANCH  55  79
BRANCH  67  90
ATOM     90  C   UNL A   1      44.384  28.731  35.219  1.00  0.00     0.023 A 
ATOM     91  C   UNL A   1      44.131  27.545  35.887  1.00  0.00     0.031 A 
ATOM     92  C   UNL A   1      45.582  29.303  35.260  1.00  0.00     0.131 A 
ATOM     93  C   UNL A   1      45.134  27.187  36.818  1.00  0.00     0.055 A 
ATOM     94  C   UNL A   1      46.560  28.817  36.093  1.00  0.00     0.041 A 
ATOM     95  F   UNL A   1      45.836  30.356  34.488  1.00  0.00    -0.206 F 
ATOM     96  C   UNL A   1      46.357  27.683  36.829  1.00  0.00     0.022 A 
BRANCH  93  97
ATOM     97  S   UNL A   1      44.712  25.963  38.083  1.00  0.00     0.124 S 
ATOM     98  O   UNL A   1      43.807  24.890  37.474  1.00  0.00    -0.237 OA
ATOM     99  O   UNL A   1      45.993  25.311  38.610  1.00  0.00    -0.237 OA
ATOM    100  O   UNL A   1      43.894  26.734  39.371  1.00  0.00    -0.744 OA
ENDBRANCH  93  97
ENDBRANCH  67  90
ENDBRANCH  41  42
ENDBRANCH  34  36
ENDBRANCH  33  34
ENDBRANCH  32  33
ENDBRANCH  31  32
ENDBRANCH  30  31
ENDBRANCH   1  30
TORSDOF 22
ENDMDL
