MODEL 1
REMARK VINA RESULT:     -10.6      0.000      0.000
REMARK SMILES Cc1ccnc(C(=O)c2[nH]c3ccc(OC(F)(F)F)cc3c2CC(=O)OCCOCCOCCOC(=O)c2ccc(-c3c4nc(c(-c5cc(S(=O)(=O)[O-])ccc5F)c5ccc([nH]5)c(-c5cc(S(=O)(=O)[O-])ccc5F)c5nc(c(-c6cc(S(=O)(=O)[O-])ccc6F)c6ccc3[nH]6)C=C5)C=C4)cc2)c1
REMARK SMILES IDX 30 1 29 2 28 3 27 4 26 5 24 6 25 7 23 8 22 9 9 10 10 11
REMARK SMILES IDX 11 12 21 14 12 15 20 16 13 17 14 18 7 19 8 20 6 21 1 22 2 23
REMARK SMILES IDX 3 24 101 25 4 26 5 27 15 28 16 29 17 30 18 31 19 32 31 33
REMARK SMILES IDX 32 34 33 35 34 36 35 37 36 38 37 39 38 40 39 41 100 42 40 43
REMARK SMILES IDX 99 44 41 45 42 46 43 47 93 48 44 49 98 50 92 51 94 52 45 53
REMARK SMILES IDX 97 54 91 55 90 56 46 58 78 59 58 60 77 61 59 62 62 63 76 64
REMARK SMILES IDX 95 65 60 66 61 67 75 69 96 70 63 71 47 72 48 73 56 74 49 75
REMARK SMILES IDX 55 76 57 77 54 78 50 79 51 80 52 81 53 82 79 83 80 84 88 85
REMARK SMILES IDX 81 86 87 87 89 88 86 89 82 90 83 91 84 92 85 93 64 94 65 95
REMARK SMILES IDX 73 96 66 97 72 98 74 99 71 100 67 101 68 102 69 103 70 104
REMARK H PARENT 10 13 94 57 62 68
REMARK Flexibility Score: inf
ROOT
ATOM      1  C   UNL A   1      32.440  30.538  26.851  1.00  0.00     0.188 C 
ENDROOT
BRANCH   1   2
ATOM      2  O   UNL A   1      32.183  29.192  26.465  1.00  0.00    -0.376 OA
BRANCH   2   3
ATOM      3  C   UNL A   1      33.138  28.548  25.634  1.00  0.00     0.202 C 
BRANCH   3   4
ATOM      4  C   UNL A   1      33.609  27.169  26.097  1.00  0.00     0.261 C 
BRANCH   4   5
ATOM      5  O   UNL A   1      32.516  26.238  26.267  1.00  0.00    -0.463 OA
BRANCH   5   6
ATOM      6  C   UNL A   1      32.852  24.926  26.184  1.00  0.00     0.310 C 
ATOM      7  O   UNL A   1      32.333  24.059  26.887  1.00  0.00    -0.252 OA
BRANCH   6   8
ATOM      8  C   UNL A   1      33.860  24.551  25.112  1.00  0.00     0.161 C 
BRANCH   8   9
ATOM      9  C   UNL A   1      33.417  23.873  23.832  1.00  0.00     0.000 A 
ATOM     10  C   UNL A   1      32.955  24.482  22.656  1.00  0.00     0.093 A 
ATOM     11  N   UNL A   1      32.688  23.475  21.757  1.00  0.00    -0.352 N 
ATOM     12  C   UNL A   1      32.603  22.274  22.412  1.00  0.00     0.046 A 
ATOM     13  H   UNL A   1      32.575  23.599  20.786  1.00  0.00     0.167 HD
ATOM     14  C   UNL A   1      33.077  22.483  23.704  1.00  0.00     0.008 A 
ATOM     15  C   UNL A   1      32.112  21.044  21.968  1.00  0.00     0.030 A 
ATOM     16  C   UNL A   1      33.035  21.403  24.609  1.00  0.00     0.057 A 
ATOM     17  C   UNL A   1      32.020  20.010  22.907  1.00  0.00     0.049 A 
ATOM     18  C   UNL A   1      32.451  20.188  24.220  1.00  0.00     0.130 A 
BRANCH  10  19
ATOM     19  C   UNL A   1      32.768  25.894  22.374  1.00  0.00     0.227 C 
ATOM     20  O   UNL A   1      33.610  26.560  21.774  1.00  0.00    -0.285 OA
BRANCH  19  21
ATOM     21  C   UNL A   1      31.533  26.588  22.849  1.00  0.00     0.113 A 
ATOM     22  C   UNL A   1      29.649  29.829  22.339  1.00  0.00     0.044 C 
ATOM     23  C   UNL A   1      30.013  28.433  22.752  1.00  0.00    -0.047 A 
ATOM     24  C   UNL A   1      29.044  27.600  23.318  1.00  0.00     0.023 A 
ATOM     25  C   UNL A   1      31.284  27.908  22.491  1.00  0.00     0.036 A 
ATOM     26  C   UNL A   1      29.405  26.317  23.687  1.00  0.00     0.112 A 
ATOM     27  N   UNL A   1      30.642  25.805  23.502  1.00  0.00    -0.253 NA
ENDBRANCH  19  21
ENDBRANCH  10  19
BRANCH  18  28
ATOM     28  O   UNL A   1      32.345  19.273  25.232  1.00  0.00    -0.406 OA
BRANCH  28  29
ATOM     29  C   UNL A   1      33.016  18.038  25.062  1.00  0.00     0.573 C 
ATOM     30  F   UNL A   1      32.403  17.250  24.152  1.00  0.00    -0.132 F 
ATOM     31  F   UNL A   1      34.300  18.237  24.691  1.00  0.00    -0.132 F 
ATOM     32  F   UNL A   1      33.023  17.382  26.244  1.00  0.00    -0.132 F 
ENDBRANCH  28  29
ENDBRANCH  18  28
ENDBRANCH   8   9
ENDBRANCH   6   8
ENDBRANCH   5   6
ENDBRANCH   4   5
ENDBRANCH   3   4
ENDBRANCH   2   3
ENDBRANCH   1   2
BRANCH   1  33
ATOM     33  C   UNL A   1      31.387  31.621  26.524  1.00  0.00     0.188 C 
BRANCH  33  34
ATOM     34  O   UNL A   1      31.582  32.949  26.996  1.00  0.00    -0.376 OA
BRANCH  34  35
ATOM     35  C   UNL A   1      32.821  33.232  27.631  1.00  0.00     0.202 C 
BRANCH  35  36
ATOM     36  C   UNL A   1      32.926  34.631  28.231  1.00  0.00     0.261 C 
BRANCH  36  37
ATOM     37  O   UNL A   1      32.601  34.622  29.634  1.00  0.00    -0.460 OA
BRANCH  37  38
ATOM     38  C   UNL A   1      33.642  34.952  30.435  1.00  0.00     0.338 C 
ATOM     39  O   UNL A   1      33.713  35.938  31.149  1.00  0.00    -0.246 OA
BRANCH  38  40
ATOM     40  C   UNL A   1      34.737  33.960  30.360  1.00  0.00     0.060 A 
ATOM     41  C   UNL A   1      34.682  32.784  31.100  1.00  0.00     0.016 A 
ATOM     42  C   UNL A   1      35.944  34.337  29.774  1.00  0.00     0.016 A 
ATOM     43  C   UNL A   1      35.856  32.090  31.409  1.00  0.00     0.010 A 
ATOM     44  C   UNL A   1      37.101  33.577  29.996  1.00  0.00     0.010 A 
ATOM     45  C   UNL A   1      37.092  32.489  30.887  1.00  0.00    -0.014 A 
BRANCH  45  46
ATOM     46  C   UNL A   1      38.368  31.858  31.359  1.00  0.00     0.031 A 
ATOM     47  C   UNL A   1      39.049  30.793  30.520  1.00  0.00     0.074 A 
ATOM     48  C   UNL A   1      38.972  32.266  32.495  1.00  0.00     0.049 A 
ATOM     49  N   UNL A   1      40.060  30.015  30.819  1.00  0.00    -0.248 NA
ATOM     50  C   UNL A   1      38.523  30.578  29.161  1.00  0.00     0.031 C 
ATOM     51  C   UNL A   1      38.505  33.349  33.363  1.00  0.00     0.029 A 
ATOM     52  N   UNL A   1      40.119  31.824  33.117  1.00  0.00    -0.354 N 
ATOM     53  C   UNL A   1      40.269  29.202  29.707  1.00  0.00     0.074 A 
ATOM     54  C   UNL A   1      39.267  29.569  28.729  1.00  0.00     0.031 C 
ATOM     55  C   UNL A   1      39.372  33.515  34.372  1.00  0.00     0.029 A 
ATOM     56  C   UNL A   1      40.391  32.474  34.301  1.00  0.00     0.049 A 
ATOM     57  H   UNL A   1      40.690  31.112  32.749  1.00  0.00     0.167 HD
ATOM     58  C   UNL A   1      41.204  28.236  29.517  1.00  0.00     0.034 A 
ATOM     59  C   UNL A   1      41.308  32.227  35.260  1.00  0.00     0.034 A 
ATOM     60  C   UNL A   1      42.202  27.871  30.495  1.00  0.00     0.049 A 
ATOM     61  C   UNL A   1      42.247  31.059  35.084  1.00  0.00     0.074 A 
ATOM     62  C   UNL A   1      43.157  26.868  30.423  1.00  0.00     0.029 A 
ATOM     63  N   UNL A   1      42.379  28.493  31.723  1.00  0.00    -0.354 N 
ATOM     64  N   UNL A   1      42.368  30.238  34.066  1.00  0.00    -0.248 NA
ATOM     65  C   UNL A   1      43.164  30.781  36.196  1.00  0.00     0.031 C 
ATOM     66  C   UNL A   1      43.860  26.839  31.631  1.00  0.00     0.029 A 
ATOM     67  C   UNL A   1      43.405  27.877  32.427  1.00  0.00     0.049 A 
ATOM     68  H   UNL A   1      41.856  29.260  32.047  1.00  0.00     0.167 HD
ATOM     69  C   UNL A   1      43.389  29.356  34.413  1.00  0.00     0.074 A 
ATOM     70  C   UNL A   1      43.875  29.775  35.711  1.00  0.00     0.031 C 
ATOM     71  C   UNL A   1      43.872  28.287  33.729  1.00  0.00     0.034 A 
BRANCH  58  72
ATOM     72  C   UNL A   1      41.151  27.453  28.226  1.00  0.00     0.023 A 
ATOM     73  C   UNL A   1      40.332  26.322  28.071  1.00  0.00     0.031 A 
ATOM     74  C   UNL A   1      41.931  27.856  27.126  1.00  0.00     0.131 A 
ATOM     75  C   UNL A   1      40.343  25.609  26.860  1.00  0.00     0.055 A 
ATOM     76  C   UNL A   1      41.888  27.183  25.904  1.00  0.00     0.041 A 
ATOM     77  F   UNL A   1      42.749  28.916  27.222  1.00  0.00    -0.206 F 
ATOM     78  C   UNL A   1      41.097  26.047  25.767  1.00  0.00     0.022 A 
BRANCH  75  79
ATOM     79  S   UNL A   1      39.442  24.037  26.767  1.00  0.00     0.124 S 
ATOM     80  O   UNL A   1      40.535  23.068  26.779  1.00  0.00    -0.237 OA
ATOM     81  O   UNL A   1      38.613  24.077  27.966  1.00  0.00    -0.237 OA
ATOM     82  O   UNL A   1      38.716  24.132  25.501  1.00  0.00    -0.744 OA
ENDBRANCH  75  79
ENDBRANCH  58  72
BRANCH  59  83
ATOM     83  C   UNL A   1      41.326  33.025  36.526  1.00  0.00     0.023 A 
ATOM     84  C   UNL A   1      40.490  32.700  37.606  1.00  0.00     0.031 A 
ATOM     85  C   UNL A   1      42.121  34.181  36.639  1.00  0.00     0.131 A 
ATOM     86  C   UNL A   1      40.425  33.551  38.722  1.00  0.00     0.055 A 
ATOM     87  C   UNL A   1      42.113  34.979  37.784  1.00  0.00     0.041 A 
ATOM     88  F   UNL A   1      42.924  34.559  35.631  1.00  0.00    -0.206 F 
ATOM     89  C   UNL A   1      41.247  34.675  38.828  1.00  0.00     0.022 A 
BRANCH  86  90
ATOM     90  S   UNL A   1      39.150  33.245  39.977  1.00  0.00     0.124 S 
ATOM     91  O   UNL A   1      39.681  32.072  40.660  1.00  0.00    -0.237 OA
ATOM     92  O   UNL A   1      39.165  34.492  40.735  1.00  0.00    -0.237 OA
ATOM     93  O   UNL A   1      37.944  33.014  39.185  1.00  0.00    -0.744 OA
ENDBRANCH  86  90
ENDBRANCH  59  83
BRANCH  71  94
ATOM     94  C   UNL A   1      45.012  27.532  34.372  1.00  0.00     0.023 A 
ATOM     95  C   UNL A   1      44.780  26.436  35.223  1.00  0.00     0.031 A 
ATOM     96  C   UNL A   1      46.339  27.960  34.196  1.00  0.00     0.131 A 
ATOM     97  C   UNL A   1      45.843  25.869  35.939  1.00  0.00     0.055 A 
ATOM     98  C   UNL A   1      47.404  27.340  34.852  1.00  0.00     0.041 A 
ATOM     99  F   UNL A   1      46.624  29.000  33.397  1.00  0.00    -0.206 F 
ATOM    100  C   UNL A   1      47.157  26.303  35.748  1.00  0.00     0.022 A 
BRANCH  97 101
ATOM    101  S   UNL A   1      45.466  24.660  37.239  1.00  0.00     0.124 S 
ATOM    102  O   UNL A   1      44.302  25.261  37.883  1.00  0.00    -0.237 OA
ATOM    103  O   UNL A   1      45.212  23.446  36.469  1.00  0.00    -0.237 OA
ATOM    104  O   UNL A   1      46.682  24.637  38.050  1.00  0.00    -0.744 OA
ENDBRANCH  97 101
ENDBRANCH  71  94
ENDBRANCH  45  46
ENDBRANCH  38  40
ENDBRANCH  37  38
ENDBRANCH  36  37
ENDBRANCH  35  36
ENDBRANCH  34  35
ENDBRANCH  33  34
ENDBRANCH   1  33
TORSDOF 25
ENDMDL
MODEL 2
REMARK VINA RESULT:     -10.5      1.798      2.057
REMARK SMILES Cc1ccnc(C(=O)c2[nH]c3ccc(OC(F)(F)F)cc3c2CC(=O)OCCOCCOCCOC(=O)c2ccc(-c3c4nc(c(-c5cc(S(=O)(=O)[O-])ccc5F)c5ccc([nH]5)c(-c5cc(S(=O)(=O)[O-])ccc5F)c5nc(c(-c6cc(S(=O)(=O)[O-])ccc6F)c6ccc3[nH]6)C=C5)C=C4)cc2)c1
REMARK SMILES IDX 30 1 29 2 28 3 27 4 26 5 24 6 25 7 23 8 22 9 9 10 10 11
REMARK SMILES IDX 11 12 21 14 12 15 20 16 13 17 14 18 7 19 8 20 6 21 1 22 2 23
REMARK SMILES IDX 3 24 101 25 4 26 5 27 15 28 16 29 17 30 18 31 19 32 31 33
REMARK SMILES IDX 32 34 33 35 34 36 35 37 36 38 37 39 38 40 39 41 100 42 40 43
REMARK SMILES IDX 99 44 41 45 42 46 43 47 93 48 44 49 98 50 92 51 94 52 45 53
REMARK SMILES IDX 97 54 91 55 90 56 46 58 78 59 58 60 77 61 59 62 62 63 76 64
REMARK SMILES IDX 95 65 60 66 61 67 75 69 96 70 63 71 47 72 48 73 56 74 49 75
REMARK SMILES IDX 55 76 57 77 54 78 50 79 51 80 52 81 53 82 79 83 80 84 88 85
REMARK SMILES IDX 81 86 87 87 89 88 86 89 82 90 83 91 84 92 85 93 64 94 65 95
REMARK SMILES IDX 73 96 66 97 72 98 74 99 71 100 67 101 68 102 69 103 70 104
REMARK H PARENT 10 13 94 57 62 68
REMARK Flexibility Score: inf
ROOT
ATOM      1  C   UNL A   1      32.694  30.667  26.918  1.00  0.00     0.188 C 
ENDROOT
BRANCH   1   2
ATOM      2  O   UNL A   1      32.461  29.294  26.620  1.00  0.00    -0.376 OA
BRANCH   2   3
ATOM      3  C   UNL A   1      33.316  28.667  25.675  1.00  0.00     0.202 C 
BRANCH   3   4
ATOM      4  C   UNL A   1      33.979  27.367  26.130  1.00  0.00     0.261 C 
BRANCH   4   5
ATOM      5  O   UNL A   1      33.083  26.234  26.060  1.00  0.00    -0.463 OA
BRANCH   5   6
ATOM      6  C   UNL A   1      33.685  25.025  25.930  1.00  0.00     0.310 C 
ATOM      7  O   UNL A   1      33.594  24.140  26.782  1.00  0.00    -0.252 OA
BRANCH   6   8
ATOM      8  C   UNL A   1      34.426  24.772  24.630  1.00  0.00     0.161 C 
BRANCH   8   9
ATOM      9  C   UNL A   1      33.732  24.118  23.454  1.00  0.00     0.000 A 
ATOM     10  C   UNL A   1      33.044  24.748  22.407  1.00  0.00     0.093 A 
ATOM     11  N   UNL A   1      32.597  23.758  21.562  1.00  0.00    -0.352 N 
ATOM     12  C   UNL A   1      32.643  22.544  22.199  1.00  0.00     0.046 A 
ATOM     13  H   UNL A   1      32.290  23.900  20.637  1.00  0.00     0.167 HD
ATOM     14  C   UNL A   1      33.369  22.730  23.372  1.00  0.00     0.008 A 
ATOM     15  C   UNL A   1      32.068  21.323  21.841  1.00  0.00     0.030 A 
ATOM     16  C   UNL A   1      33.507  21.634  24.247  1.00  0.00     0.057 A 
ATOM     17  C   UNL A   1      32.164  20.271  22.760  1.00  0.00     0.049 A 
ATOM     18  C   UNL A   1      32.853  20.426  23.962  1.00  0.00     0.130 A 
BRANCH  10  19
ATOM     19  C   UNL A   1      32.808  26.165  22.195  1.00  0.00     0.227 C 
ATOM     20  O   UNL A   1      33.614  26.882  21.604  1.00  0.00    -0.285 OA
BRANCH  19  21
ATOM     21  C   UNL A   1      31.566  26.799  22.731  1.00  0.00     0.113 A 
ATOM     22  C   UNL A   1      29.435  29.885  22.231  1.00  0.00     0.044 C 
ATOM     23  C   UNL A   1      29.921  28.536  22.672  1.00  0.00    -0.047 A 
ATOM     24  C   UNL A   1      29.054  27.669  23.342  1.00  0.00     0.023 A 
ATOM     25  C   UNL A   1      31.203  28.082  22.339  1.00  0.00     0.036 A 
ATOM     26  C   UNL A   1      29.527  26.430  23.736  1.00  0.00     0.112 A 
ATOM     27  N   UNL A   1      30.779  25.991  23.480  1.00  0.00    -0.253 NA
ENDBRANCH  19  21
ENDBRANCH  10  19
BRANCH  18  28
ATOM     28  O   UNL A   1      32.950  19.492  24.958  1.00  0.00    -0.406 OA
BRANCH  28  29
ATOM     29  C   UNL A   1      33.640  18.293  24.656  1.00  0.00     0.573 C 
ATOM     30  F   UNL A   1      33.309  17.811  23.438  1.00  0.00    -0.132 F 
ATOM     31  F   UNL A   1      34.977  18.479  24.717  1.00  0.00    -0.132 F 
ATOM     32  F   UNL A   1      33.310  17.359  25.577  1.00  0.00    -0.132 F 
ENDBRANCH  28  29
ENDBRANCH  18  28
ENDBRANCH   8   9
ENDBRANCH   6   8
ENDBRANCH   5   6
ENDBRANCH   4   5
ENDBRANCH   3   4
ENDBRANCH   2   3
ENDBRANCH   1   2
BRANCH   1  33
ATOM     33  C   UNL A   1      31.565  31.689  26.661  1.00  0.00     0.188 C 
BRANCH  33  34
ATOM     34  O   UNL A   1      31.705  33.020  27.144  1.00  0.00    -0.376 OA
BRANCH  34  35
ATOM     35  C   UNL A   1      32.984  33.397  27.634  1.00  0.00     0.202 C 
BRANCH  35  36
ATOM     36  C   UNL A   1      33.020  34.740  28.357  1.00  0.00     0.261 C 
BRANCH  36  37
ATOM     37  O   UNL A   1      32.645  34.599  29.740  1.00  0.00    -0.460 OA
BRANCH  37  38
ATOM     38  C   UNL A   1      33.623  34.951  30.608  1.00  0.00     0.338 C 
ATOM     39  O   UNL A   1      33.623  35.938  31.325  1.00  0.00    -0.246 OA
BRANCH  38  40
ATOM     40  C   UNL A   1      34.744  33.986  30.604  1.00  0.00     0.060 A 
ATOM     41  C   UNL A   1      34.662  32.799  31.322  1.00  0.00     0.016 A 
ATOM     42  C   UNL A   1      35.983  34.401  30.117  1.00  0.00     0.016 A 
ATOM     43  C   UNL A   1      35.825  32.128  31.711  1.00  0.00     0.010 A 
ATOM     44  C   UNL A   1      37.138  33.664  30.416  1.00  0.00     0.010 A 
ATOM     45  C   UNL A   1      37.088  32.563  31.290  1.00  0.00    -0.014 A 
BRANCH  45  46
ATOM     46  C   UNL A   1      38.339  31.956  31.850  1.00  0.00     0.031 A 
ATOM     47  C   UNL A   1      39.086  30.892  31.069  1.00  0.00     0.074 A 
ATOM     48  C   UNL A   1      38.864  32.384  33.018  1.00  0.00     0.049 A 
ATOM     49  N   UNL A   1      40.087  30.130  31.440  1.00  0.00    -0.248 NA
ATOM     50  C   UNL A   1      38.652  30.654  29.681  1.00  0.00     0.031 C 
ATOM     51  C   UNL A   1      38.328  33.470  33.841  1.00  0.00     0.029 A 
ATOM     52  N   UNL A   1      39.974  31.965  33.716  1.00  0.00    -0.354 N 
ATOM     53  C   UNL A   1      40.377  29.309  30.353  1.00  0.00     0.074 A 
ATOM     54  C   UNL A   1      39.435  29.651  29.310  1.00  0.00     0.031 C 
ATOM     55  C   UNL A   1      39.126  33.659  34.901  1.00  0.00     0.029 A 
ATOM     56  C   UNL A   1      40.161  32.632  34.908  1.00  0.00     0.049 A 
ATOM     57  H   UNL A   1      40.577  31.257  33.394  1.00  0.00     0.167 HD
ATOM     58  C   UNL A   1      41.335  28.354  30.235  1.00  0.00     0.034 A 
ATOM     59  C   UNL A   1      41.018  32.408  35.926  1.00  0.00     0.034 A 
ATOM     60  C   UNL A   1      42.273  28.013  31.279  1.00  0.00     0.049 A 
ATOM     61  C   UNL A   1      41.982  31.252  35.824  1.00  0.00     0.074 A 
ATOM     62  C   UNL A   1      43.244  27.023  31.280  1.00  0.00     0.029 A 
ATOM     63  N   UNL A   1      42.363  28.651  32.508  1.00  0.00    -0.354 N 
ATOM     64  N   UNL A   1      42.179  30.421  34.825  1.00  0.00    -0.248 NA
ATOM     65  C   UNL A   1      42.830  30.998  36.995  1.00  0.00     0.031 C 
ATOM     66  C   UNL A   1      43.869  27.018  32.531  1.00  0.00     0.029 A 
ATOM     67  C   UNL A   1      43.350  28.057  33.284  1.00  0.00     0.049 A 
ATOM     68  H   UNL A   1      41.810  29.414  32.790  1.00  0.00     0.167 HD
ATOM     69  C   UNL A   1      43.187  29.557  35.248  1.00  0.00     0.074 A 
ATOM     70  C   UNL A   1      43.584  29.997  36.569  1.00  0.00     0.031 C 
ATOM     71  C   UNL A   1      43.727  28.488  34.608  1.00  0.00     0.034 A 
BRANCH  58  72
ATOM     72  C   UNL A   1      41.375  27.556  28.953  1.00  0.00     0.023 A 
ATOM     73  C   UNL A   1      42.375  27.749  27.984  1.00  0.00     0.031 A 
ATOM     74  C   UNL A   1      40.397  26.576  28.702  1.00  0.00     0.131 A 
ATOM     75  C   UNL A   1      42.349  27.003  26.793  1.00  0.00     0.055 A 
ATOM     76  C   UNL A   1      40.415  25.792  27.548  1.00  0.00     0.041 A 
ATOM     77  F   UNL A   1      39.405  26.363  29.582  1.00  0.00    -0.206 F 
ATOM     78  C   UNL A   1      41.390  26.009  26.580  1.00  0.00     0.022 A 
BRANCH  75  79
ATOM     79  S   UNL A   1      43.523  27.427  25.476  1.00  0.00     0.124 S 
ATOM     80  O   UNL A   1      44.279  26.183  25.342  1.00  0.00    -0.237 OA
ATOM     81  O   UNL A   1      42.642  27.758  24.362  1.00  0.00    -0.237 OA
ATOM     82  O   UNL A   1      44.276  28.548  26.034  1.00  0.00    -0.744 OA
ENDBRANCH  75  79
ENDBRANCH  58  72
BRANCH  59  83
ATOM     83  C   UNL A   1      40.945  33.219  37.181  1.00  0.00     0.023 A 
ATOM     84  C   UNL A   1      40.188  32.793  38.284  1.00  0.00     0.031 A 
ATOM     85  C   UNL A   1      41.563  34.482  37.262  1.00  0.00     0.131 A 
ATOM     86  C   UNL A   1      40.022  33.642  39.390  1.00  0.00     0.055 A 
ATOM     87  C   UNL A   1      41.461  35.287  38.397  1.00  0.00     0.041 A 
ATOM     88  F   UNL A   1      42.281  34.957  36.231  1.00  0.00    -0.206 F 
ATOM     89  C   UNL A   1      40.671  34.877  39.463  1.00  0.00     0.022 A 
BRANCH  86  90
ATOM     90  S   UNL A   1      38.831  33.172  40.677  1.00  0.00     0.124 S 
ATOM     91  O   UNL A   1      39.365  33.864  41.843  1.00  0.00    -0.237 OA
ATOM     92  O   UNL A   1      37.579  33.694  40.138  1.00  0.00    -0.237 OA
ATOM     93  O   UNL A   1      38.930  31.715  40.716  1.00  0.00    -0.744 OA
ENDBRANCH  86  90
ENDBRANCH  59  83
BRANCH  71  94
ATOM     94  C   UNL A   1      44.834  27.756  35.332  1.00  0.00     0.023 A 
ATOM     95  C   UNL A   1      46.183  28.117  35.166  1.00  0.00     0.031 A 
ATOM     96  C   UNL A   1      44.543  26.638  36.133  1.00  0.00     0.131 A 
ATOM     97  C   UNL A   1      47.194  27.312  35.711  1.00  0.00     0.055 A 
ATOM     98  C   UNL A   1      45.552  25.886  36.738  1.00  0.00     0.041 A 
ATOM     99  F   UNL A   1      43.275  26.245  36.327  1.00  0.00    -0.206 F 
ATOM    100  C   UNL A   1      46.888  26.207  36.510  1.00  0.00     0.022 A 
BRANCH  97 101
ATOM    101  S   UNL A   1      48.914  27.639  35.235  1.00  0.00     0.124 S 
ATOM    102  O   UNL A   1      48.861  29.048  34.858  1.00  0.00    -0.237 OA
ATOM    103  O   UNL A   1      49.640  27.335  36.464  1.00  0.00    -0.237 OA
ATOM    104  O   UNL A   1      49.147  26.710  34.130  1.00  0.00    -0.744 OA
ENDBRANCH  97 101
ENDBRANCH  71  94
ENDBRANCH  45  46
ENDBRANCH  38  40
ENDBRANCH  37  38
ENDBRANCH  36  37
ENDBRANCH  35  36
ENDBRANCH  34  35
ENDBRANCH  33  34
ENDBRANCH   1  33
TORSDOF 25
ENDMDL
MODEL 3
REMARK VINA RESULT:     -10.2      3.897      7.906
REMARK SMILES Cc1ccnc(C(=O)c2[nH]c3ccc(OC(F)(F)F)cc3c2CC(=O)OCCOCCOCCOC(=O)c2ccc(-c3c4nc(c(-c5cc(S(=O)(=O)[O-])ccc5F)c5ccc([nH]5)c(-c5cc(S(=O)(=O)[O-])ccc5F)c5nc(c(-c6cc(S(=O)(=O)[O-])ccc6F)c6ccc3[nH]6)C=C5)C=C4)cc2)c1
REMARK SMILES IDX 30 1 29 2 28 3 27 4 26 5 24 6 25 7 23 8 22 9 9 10 10 11
REMARK SMILES IDX 11 12 21 14 12 15 20 16 13 17 14 18 7 19 8 20 6 21 1 22 2 23
REMARK SMILES IDX 3 24 101 25 4 26 5 27 15 28 16 29 17 30 18 31 19 32 31 33
REMARK SMILES IDX 32 34 33 35 34 36 35 37 36 38 37 39 38 40 39 41 100 42 40 43
REMARK SMILES IDX 99 44 41 45 42 46 43 47 93 48 44 49 98 50 92 51 94 52 45 53
REMARK SMILES IDX 97 54 91 55 90 56 46 58 78 59 58 60 77 61 59 62 62 63 76 64
REMARK SMILES IDX 95 65 60 66 61 67 75 69 96 70 63 71 47 72 48 73 56 74 49 75
REMARK SMILES IDX 55 76 57 77 54 78 50 79 51 80 52 81 53 82 79 83 80 84 88 85
REMARK SMILES IDX 81 86 87 87 89 88 86 89 82 90 83 91 84 92 85 93 64 94 65 95
REMARK SMILES IDX 73 96 66 97 72 98 74 99 71 100 67 101 68 102 69 103 70 104
REMARK H PARENT 10 13 94 57 62 68
REMARK Flexibility Score: inf
ROOT
ATOM      1  C   UNL A   1      32.319  30.663  26.753  1.00  0.00     0.188 C 
ENDROOT
BRANCH   1   2
ATOM      2  O   UNL A   1      31.801  29.512  27.413  1.00  0.00    -0.376 OA
BRANCH   2   3
ATOM      3  C   UNL A   1      31.461  28.388  26.614  1.00  0.00     0.202 C 
BRANCH   3   4
ATOM      4  C   UNL A   1      32.293  27.125  26.846  1.00  0.00     0.261 C 
BRANCH   4   5
ATOM      5  O   UNL A   1      31.507  25.916  26.740  1.00  0.00    -0.463 OA
BRANCH   5   6
ATOM      6  C   UNL A   1      32.205  24.758  26.851  1.00  0.00     0.310 C 
ATOM      7  O   UNL A   1      31.854  23.837  27.588  1.00  0.00    -0.252 OA
BRANCH   6   8
ATOM      8  C   UNL A   1      33.420  24.610  25.953  1.00  0.00     0.161 C 
BRANCH   8   9
ATOM      9  C   UNL A   1      33.274  24.149  24.517  1.00  0.00     0.000 A 
ATOM     10  C   UNL A   1      33.083  24.945  23.379  1.00  0.00     0.093 A 
ATOM     11  N   UNL A   1      33.024  24.096  22.297  1.00  0.00    -0.352 N 
ATOM     12  C   UNL A   1      32.799  22.812  22.723  1.00  0.00     0.046 A 
ATOM     13  H   UNL A   1      33.128  24.370  21.356  1.00  0.00     0.167 HD
ATOM     14  C   UNL A   1      32.974  22.807  24.104  1.00  0.00     0.008 A 
ATOM     15  C   UNL A   1      32.422  21.681  21.996  1.00  0.00     0.030 A 
ATOM     16  C   UNL A   1      32.735  21.604  24.797  1.00  0.00     0.057 A 
ATOM     17  C   UNL A   1      32.126  20.519  22.718  1.00  0.00     0.049 A 
ATOM     18  C   UNL A   1      32.255  20.481  24.106  1.00  0.00     0.130 A 
BRANCH  10  19
ATOM     19  C   UNL A   1      32.959  26.388  23.286  1.00  0.00     0.227 C 
ATOM     20  O   UNL A   1      33.922  27.140  23.433  1.00  0.00    -0.285 OA
BRANCH  19  21
ATOM     21  C   UNL A   1      31.621  27.005  23.037  1.00  0.00     0.113 A 
ATOM     22  C   UNL A   1      27.999  26.583  24.045  1.00  0.00     0.044 C 
ATOM     23  C   UNL A   1      29.274  27.138  23.480  1.00  0.00    -0.047 A 
ATOM     24  C   UNL A   1      29.305  28.445  22.986  1.00  0.00     0.023 A 
ATOM     25  C   UNL A   1      30.466  26.406  23.527  1.00  0.00     0.036 A 
ATOM     26  C   UNL A   1      30.493  28.932  22.473  1.00  0.00     0.112 A 
ATOM     27  N   UNL A   1      31.645  28.225  22.451  1.00  0.00    -0.253 NA
ENDBRANCH  19  21
ENDBRANCH  10  19
BRANCH  18  28
ATOM     28  O   UNL A   1      31.929  19.427  24.914  1.00  0.00    -0.406 OA
BRANCH  28  29
ATOM     29  C   UNL A   1      32.800  18.310  24.905  1.00  0.00     0.573 C 
ATOM     30  F   UNL A   1      34.098  18.681  24.866  1.00  0.00    -0.132 F 
ATOM     31  F   UNL A   1      32.588  17.527  25.984  1.00  0.00    -0.132 F 
ATOM     32  F   UNL A   1      32.546  17.571  23.801  1.00  0.00    -0.132 F 
ENDBRANCH  28  29
ENDBRANCH  18  28
ENDBRANCH   8   9
ENDBRANCH   6   8
ENDBRANCH   5   6
ENDBRANCH   4   5
ENDBRANCH   3   4
ENDBRANCH   2   3
ENDBRANCH   1   2
BRANCH   1  33
ATOM     33  C   UNL A   1      31.361  31.830  26.427  1.00  0.00     0.188 C 
BRANCH  33  34
ATOM     34  O   UNL A   1      31.577  33.099  27.032  1.00  0.00    -0.376 OA
BRANCH  34  35
ATOM     35  C   UNL A   1      32.875  33.356  27.547  1.00  0.00     0.202 C 
BRANCH  35  36
ATOM     36  C   UNL A   1      32.994  34.636  28.370  1.00  0.00     0.261 C 
BRANCH  36  37
ATOM     37  O   UNL A   1      32.848  34.368  29.777  1.00  0.00    -0.460 OA
BRANCH  37  38
ATOM     38  C   UNL A   1      33.940  34.692  30.508  1.00  0.00     0.338 C 
ATOM     39  O   UNL A   1      34.025  35.616  31.299  1.00  0.00    -0.246 OA
BRANCH  38  40
ATOM     40  C   UNL A   1      35.075  33.779  30.247  1.00  0.00     0.060 A 
ATOM     41  C   UNL A   1      35.382  32.755  31.135  1.00  0.00     0.016 A 
ATOM     42  C   UNL A   1      36.001  34.126  29.265  1.00  0.00     0.016 A 
ATOM     43  C   UNL A   1      36.669  32.210  31.165  1.00  0.00     0.010 A 
ATOM     44  C   UNL A   1      37.255  33.499  29.228  1.00  0.00     0.010 A 
ATOM     45  C   UNL A   1      37.640  32.591  30.230  1.00  0.00    -0.014 A 
BRANCH  45  46
ATOM     46  C   UNL A   1      39.064  32.144  30.371  1.00  0.00     0.031 A 
ATOM     47  C   UNL A   1      40.031  32.937  31.229  1.00  0.00     0.074 A 
ATOM     48  C   UNL A   1      39.498  31.000  29.801  1.00  0.00     0.049 A 
ATOM     49  N   UNL A   1      41.331  32.815  31.353  1.00  0.00    -0.248 NA
ATOM     50  C   UNL A   1      39.460  34.009  32.062  1.00  0.00     0.031 C 
ATOM     51  C   UNL A   1      38.671  30.068  29.032  1.00  0.00     0.029 A 
ATOM     52  N   UNL A   1      40.745  30.416  29.784  1.00  0.00    -0.354 N 
ATOM     53  C   UNL A   1      41.733  33.807  32.245  1.00  0.00     0.074 A 
ATOM     54  C   UNL A   1      40.540  34.536  32.620  1.00  0.00     0.031 C 
ATOM     55  C   UNL A   1      39.416  29.018  28.658  1.00  0.00     0.029 A 
ATOM     56  C   UNL A   1      40.801  29.253  29.048  1.00  0.00     0.049 A 
ATOM     57  H   UNL A   1      41.523  30.794  30.255  1.00  0.00     0.167 HD
ATOM     58  C   UNL A   1      42.978  34.090  32.705  1.00  0.00     0.034 A 
ATOM     59  C   UNL A   1      41.849  28.492  28.667  1.00  0.00     0.034 A 
ATOM     60  C   UNL A   1      44.167  33.361  32.328  1.00  0.00     0.049 A 
ATOM     61  C   UNL A   1      43.238  28.908  29.081  1.00  0.00     0.074 A 
ATOM     62  C   UNL A   1      45.482  33.603  32.693  1.00  0.00     0.029 A 
ATOM     63  N   UNL A   1      44.189  32.246  31.501  1.00  0.00    -0.354 N 
ATOM     64  N   UNL A   1      43.611  29.908  29.848  1.00  0.00    -0.248 NA
ATOM     65  C   UNL A   1      44.348  28.097  28.566  1.00  0.00     0.031 C 
ATOM     66  C   UNL A   1      46.301  32.682  32.033  1.00  0.00     0.029 A 
ATOM     67  C   UNL A   1      45.494  31.810  31.322  1.00  0.00     0.049 A 
ATOM     68  H   UNL A   1      43.394  31.825  31.101  1.00  0.00     0.167 HD
ATOM     69  C   UNL A   1      45.001  29.831  29.916  1.00  0.00     0.074 A 
ATOM     70  C   UNL A   1      45.390  28.664  29.153  1.00  0.00     0.031 C 
ATOM     71  C   UNL A   1      45.877  30.658  30.542  1.00  0.00     0.034 A 
BRANCH  58  72
ATOM     72  C   UNL A   1      43.134  35.283  33.619  1.00  0.00     0.023 A 
ATOM     73  C   UNL A   1      43.286  36.589  33.123  1.00  0.00     0.031 A 
ATOM     74  C   UNL A   1      43.119  35.107  35.015  1.00  0.00     0.131 A 
ATOM     75  C   UNL A   1      43.460  37.661  34.015  1.00  0.00     0.055 A 
ATOM     76  C   UNL A   1      43.225  36.184  35.897  1.00  0.00     0.041 A 
ATOM     77  F   UNL A   1      42.998  33.880  35.546  1.00  0.00    -0.206 F 
ATOM     78  C   UNL A   1      43.406  37.470  35.398  1.00  0.00     0.022 A 
BRANCH  75  79
ATOM     79  S   UNL A   1      43.869  39.296  33.341  1.00  0.00     0.124 S 
ATOM     80  O   UNL A   1      42.572  39.967  33.386  1.00  0.00    -0.237 OA
ATOM     81  O   UNL A   1      44.870  39.783  34.283  1.00  0.00    -0.237 OA
ATOM     82  O   UNL A   1      44.364  39.000  31.999  1.00  0.00    -0.744 OA
ENDBRANCH  75  79
ENDBRANCH  58  72
BRANCH  59  83
ATOM     83  C   UNL A   1      41.653  27.318  27.759  1.00  0.00     0.023 A 
ATOM     84  C   UNL A   1      41.696  26.002  28.246  1.00  0.00     0.031 A 
ATOM     85  C   UNL A   1      41.507  27.497  26.370  1.00  0.00     0.131 A 
ATOM     86  C   UNL A   1      41.654  24.922  27.350  1.00  0.00     0.055 A 
ATOM     87  C   UNL A   1      41.383  26.419  25.492  1.00  0.00     0.041 A 
ATOM     88  F   UNL A   1      41.482  28.730  25.840  1.00  0.00    -0.206 F 
ATOM     89  C   UNL A   1      41.475  25.121  25.979  1.00  0.00     0.022 A 
BRANCH  86  90
ATOM     90  S   UNL A   1      41.974  23.252  27.985  1.00  0.00     0.124 S 
ATOM     91  O   UNL A   1      40.646  22.654  27.934  1.00  0.00    -0.237 OA
ATOM     92  O   UNL A   1      42.944  22.742  27.021  1.00  0.00    -0.237 OA
ATOM     93  O   UNL A   1      42.499  23.493  29.327  1.00  0.00    -0.744 OA
ENDBRANCH  86  90
ENDBRANCH  59  83
BRANCH  71  94
ATOM     94  C   UNL A   1      47.340  30.288  30.447  1.00  0.00     0.023 A 
ATOM     95  C   UNL A   1      48.133  30.704  29.362  1.00  0.00     0.031 A 
ATOM     96  C   UNL A   1      47.927  29.449  31.410  1.00  0.00     0.131 A 
ATOM     97  C   UNL A   1      49.434  30.202  29.214  1.00  0.00     0.055 A 
ATOM     98  C   UNL A   1      49.250  29.015  31.297  1.00  0.00     0.041 A 
ATOM     99  F   UNL A   1      47.221  29.020  32.467  1.00  0.00    -0.206 F 
ATOM    100  C   UNL A   1      50.004  29.373  30.183  1.00  0.00     0.022 A 
BRANCH  97 101
ATOM    101  S   UNL A   1      50.316  30.524  27.661  1.00  0.00     0.124 S 
ATOM    102  O   UNL A   1      49.219  30.614  26.703  1.00  0.00    -0.237 OA
ATOM    103  O   UNL A   1      51.012  31.774  27.953  1.00  0.00    -0.237 OA
ATOM    104  O   UNL A   1      51.180  29.354  27.508  1.00  0.00    -0.744 OA
ENDBRANCH  97 101
ENDBRANCH  71  94
ENDBRANCH  45  46
ENDBRANCH  38  40
ENDBRANCH  37  38
ENDBRANCH  36  37
ENDBRANCH  35  36
ENDBRANCH  34  35
ENDBRANCH  33  34
ENDBRANCH   1  33
TORSDOF 25
ENDMDL
