MODEL 1
REMARK VINA RESULT:     -10.9      0.000      0.000
REMARK SMILES C[C@H]1[NH2+]CC[C@H]1C(=O)N1CCC(C(=O)OCCOCCOCCOC(=O)c2ccc(-c3c4nc(c(-c5cc(S(=O)(=O)[O-])ccc5F)c5ccc([nH]5)c(-c5cc(S(=O)(=O)[O-])ccc5F)c5nc(c(-c6cc(S(=O)(=O)[O-])ccc6F)c6ccc3[nH]6)C=C5)C=C4)cc2)CC1
REMARK SMILES IDX 20 1 19 2 18 3 17 4 16 5 15 6 13 7 14 8 12 9 7 10 8 11 9 12
REMARK SMILES IDX 10 13 91 14 11 15 90 16 6 17 1 18 2 19 3 20 4 21 5 24 21 25
REMARK SMILES IDX 22 26 23 27 24 28 25 29 26 30 27 31 28 32 89 33 29 34 88 35
REMARK SMILES IDX 30 36 31 37 32 38 82 39 33 40 87 41 81 42 83 43 34 44 86 45
REMARK SMILES IDX 80 46 79 47 35 49 67 50 47 51 66 52 48 53 51 54 65 55 84 56
REMARK SMILES IDX 49 57 50 58 64 60 85 61 52 62 36 63 37 64 45 65 38 66 44 67
REMARK SMILES IDX 46 68 43 69 39 70 40 71 41 72 42 73 68 74 69 75 77 76 70 77
REMARK SMILES IDX 76 78 78 79 75 80 71 81 72 82 73 83 74 84 53 85 54 86 62 87
REMARK SMILES IDX 55 88 61 89 63 90 60 91 56 92 57 93 58 94 59 95
REMARK H PARENT 3 22 3 23 83 48 51 59
REMARK Flexibility Score: inf
ROOT
ATOM      1  C   UNL A   1      32.987  30.008  26.438  1.00  0.00     0.188 C 
ENDROOT
BRANCH   1   2
ATOM      2  C   UNL A   1      32.610  29.454  25.063  1.00  0.00     0.188 C 
BRANCH   2   3
ATOM      3  O   UNL A   1      31.446  28.650  24.935  1.00  0.00    -0.376 OA
BRANCH   3   4
ATOM      4  C   UNL A   1      30.868  28.438  23.651  1.00  0.00     0.202 C 
BRANCH   4   5
ATOM      5  C   UNL A   1      30.828  27.014  23.068  1.00  0.00     0.261 C 
BRANCH   5   6
ATOM      6  O   UNL A   1      31.732  26.751  21.969  1.00  0.00    -0.463 OA
BRANCH   6   7
ATOM      7  C   UNL A   1      33.048  26.937  22.236  1.00  0.00     0.309 C 
ATOM      8  O   UNL A   1      33.660  27.966  21.956  1.00  0.00    -0.252 OA
BRANCH   7   9
ATOM      9  C   UNL A   1      33.747  25.793  22.965  1.00  0.00     0.103 C 
ATOM     10  C   UNL A   1      32.945  22.455  24.842  1.00  0.00     0.231 C 
ATOM     11  O   UNL A   1      31.964  22.996  25.356  1.00  0.00    -0.274 OA
ATOM     12  N   UNL A   1      33.962  23.205  24.265  1.00  0.00    -0.342 N 
ATOM     13  C   UNL A   1      34.421  24.388  24.972  1.00  0.00     0.120 C 
ATOM     14  C   UNL A   1      34.061  23.327  22.823  1.00  0.00     0.120 C 
ATOM     15  C   UNL A   1      33.700  25.664  24.504  1.00  0.00     0.037 C 
ATOM     16  C   UNL A   1      33.215  24.496  22.346  1.00  0.00     0.037 C 
BRANCH  10  17
ATOM     17  C   UNL A   1      33.157  20.947  24.973  1.00  0.00     0.142 C 
ATOM     18  C   UNL A   1      32.146  20.252  22.642  1.00  0.00     0.076 C 
ATOM     19  C   UNL A   1      32.378  19.952  24.114  1.00  0.00     0.192 C 
ATOM     20  N   UNL A   1      33.144  18.688  24.218  1.00  0.00    -0.343 N 
ATOM     21  C   UNL A   1      34.489  18.987  24.716  1.00  0.00     0.261 C 
ATOM     22  H   UNL A   1      33.208  18.250  23.298  1.00  0.00     0.346 HD
ATOM     23  H   UNL A   1      32.671  18.049  24.858  1.00  0.00     0.346 HD
ATOM     24  C   UNL A   1      34.599  20.488  24.887  1.00  0.00     0.081 C 
ENDBRANCH  10  17
ENDBRANCH   7   9
ENDBRANCH   6   7
ENDBRANCH   5   6
ENDBRANCH   4   5
ENDBRANCH   3   4
ENDBRANCH   2   3
ENDBRANCH   1   2
BRANCH   1  25
ATOM     25  O   UNL A   1      31.985  30.759  27.086  1.00  0.00    -0.376 OA
BRANCH  25  26
ATOM     26  C   UNL A   1      31.368  31.805  26.353  1.00  0.00     0.202 C 
BRANCH  26  27
ATOM     27  C   UNL A   1      31.799  33.234  26.719  1.00  0.00     0.261 C 
BRANCH  27  28
ATOM     28  O   UNL A   1      32.264  33.419  28.070  1.00  0.00    -0.460 OA
BRANCH  28  29
ATOM     29  C   UNL A   1      33.326  34.244  28.241  1.00  0.00     0.338 C 
ATOM     30  O   UNL A   1      33.284  35.457  28.376  1.00  0.00    -0.246 OA
BRANCH  29  31
ATOM     31  C   UNL A   1      34.520  33.406  28.524  1.00  0.00     0.060 A 
ATOM     32  C   UNL A   1      34.331  32.142  29.105  1.00  0.00     0.016 A 
ATOM     33  C   UNL A   1      35.806  33.839  28.198  1.00  0.00     0.016 A 
ATOM     34  C   UNL A   1      35.429  31.334  29.407  1.00  0.00     0.010 A 
ATOM     35  C   UNL A   1      36.908  33.038  28.522  1.00  0.00     0.010 A 
ATOM     36  C   UNL A   1      36.729  31.800  29.168  1.00  0.00    -0.014 A 
BRANCH  36  37
ATOM     37  C   UNL A   1      37.880  31.116  29.818  1.00  0.00     0.031 A 
ATOM     38  C   UNL A   1      38.191  31.470  31.252  1.00  0.00     0.074 A 
ATOM     39  C   UNL A   1      38.604  30.170  29.192  1.00  0.00     0.049 A 
ATOM     40  N   UNL A   1      39.143  31.031  32.033  1.00  0.00    -0.248 NA
ATOM     41  C   UNL A   1      37.303  32.460  31.881  1.00  0.00     0.031 C 
ATOM     42  C   UNL A   1      38.380  29.696  27.827  1.00  0.00     0.029 A 
ATOM     43  N   UNL A   1      39.681  29.436  29.629  1.00  0.00    -0.354 N 
ATOM     44  C   UNL A   1      38.971  31.693  33.246  1.00  0.00     0.074 A 
ATOM     45  C   UNL A   1      37.854  32.596  33.076  1.00  0.00     0.031 C 
ATOM     46  C   UNL A   1      39.295  28.754  27.538  1.00  0.00     0.029 A 
ATOM     47  C   UNL A   1      40.193  28.580  28.681  1.00  0.00     0.049 A 
ATOM     48  H   UNL A   1      40.052  29.516  30.536  1.00  0.00     0.167 HD
ATOM     49  C   UNL A   1      39.670  31.554  34.399  1.00  0.00     0.034 A 
ATOM     50  C   UNL A   1      41.269  27.767  28.723  1.00  0.00     0.034 A 
ATOM     51  C   UNL A   1      40.793  30.663  34.558  1.00  0.00     0.049 A 
ATOM     52  C   UNL A   1      42.091  27.695  29.992  1.00  0.00     0.074 A 
ATOM     53  C   UNL A   1      41.568  30.446  35.684  1.00  0.00     0.029 A 
ATOM     54  N   UNL A   1      41.311  29.848  33.559  1.00  0.00    -0.354 N 
ATOM     55  N   UNL A   1      41.916  28.322  31.134  1.00  0.00    -0.248 NA
ATOM     56  C   UNL A   1      43.249  26.789  29.981  1.00  0.00     0.031 C 
ATOM     57  C   UNL A   1      42.600  29.565  35.344  1.00  0.00     0.029 A 
ATOM     58  C   UNL A   1      42.414  29.153  34.034  1.00  0.00     0.049 A 
ATOM     59  H   UNL A   1      40.949  29.775  32.646  1.00  0.00     0.167 HD
ATOM     60  C   UNL A   1      42.916  27.852  31.985  1.00  0.00     0.074 A 
ATOM     61  C   UNL A   1      43.678  26.880  31.230  1.00  0.00     0.031 C 
ATOM     62  C   UNL A   1      43.176  28.188  33.276  1.00  0.00     0.034 A 
BRANCH  49  63
ATOM     63  C   UNL A   1      39.266  32.432  35.560  1.00  0.00     0.023 A 
ATOM     64  C   UNL A   1      39.675  33.774  35.655  1.00  0.00     0.031 A 
ATOM     65  C   UNL A   1      38.491  31.906  36.610  1.00  0.00     0.131 A 
ATOM     66  C   UNL A   1      39.373  34.519  36.805  1.00  0.00     0.055 A 
ATOM     67  C   UNL A   1      38.118  32.679  37.711  1.00  0.00     0.041 A 
ATOM     68  F   UNL A   1      38.094  30.623  36.590  1.00  0.00    -0.206 F 
ATOM     69  C   UNL A   1      38.573  33.990  37.821  1.00  0.00     0.022 A 
BRANCH  66  70
ATOM     70  S   UNL A   1      40.171  36.133  37.027  1.00  0.00     0.124 S 
ATOM     71  O   UNL A   1      39.933  36.760  35.729  1.00  0.00    -0.237 OA
ATOM     72  O   UNL A   1      39.437  36.696  38.153  1.00  0.00    -0.237 OA
ATOM     73  O   UNL A   1      41.565  35.790  37.298  1.00  0.00    -0.744 OA
ENDBRANCH  66  70
ENDBRANCH  49  63
BRANCH  50  74
ATOM     74  C   UNL A   1      41.674  26.972  27.525  1.00  0.00     0.023 A 
ATOM     75  C   UNL A   1      41.442  25.588  27.452  1.00  0.00     0.031 A 
ATOM     76  C   UNL A   1      42.374  27.575  26.465  1.00  0.00     0.131 A 
ATOM     77  C   UNL A   1      41.952  24.846  26.374  1.00  0.00     0.055 A 
ATOM     78  C   UNL A   1      42.827  26.843  25.365  1.00  0.00     0.041 A 
ATOM     79  F   UNL A   1      42.632  28.892  26.484  1.00  0.00    -0.206 F 
ATOM     80  C   UNL A   1      42.629  25.466  25.323  1.00  0.00     0.022 A 
BRANCH  77  81
ATOM     81  S   UNL A   1      41.804  23.037  26.414  1.00  0.00     0.124 S 
ATOM     82  O   UNL A   1      40.356  22.859  26.423  1.00  0.00    -0.237 OA
ATOM     83  O   UNL A   1      42.490  22.651  25.185  1.00  0.00    -0.237 OA
ATOM     84  O   UNL A   1      42.488  22.667  27.650  1.00  0.00    -0.744 OA
ENDBRANCH  77  81
ENDBRANCH  50  74
BRANCH  62  85
ATOM     85  C   UNL A   1      44.295  27.445  33.975  1.00  0.00     0.023 A 
ATOM     86  C   UNL A   1      44.066  26.285  34.735  1.00  0.00     0.031 A 
ATOM     87  C   UNL A   1      45.615  27.930  33.901  1.00  0.00     0.131 A 
ATOM     88  C   UNL A   1      45.120  25.696  35.453  1.00  0.00     0.055 A 
ATOM     89  C   UNL A   1      46.673  27.295  34.555  1.00  0.00     0.041 A 
ATOM     90  F   UNL A   1      45.901  29.035  33.193  1.00  0.00    -0.206 F 
ATOM     91  C   UNL A   1      46.425  26.183  35.351  1.00  0.00     0.022 A 
BRANCH  88  92
ATOM     92  S   UNL A   1      44.737  24.367  36.627  1.00  0.00     0.124 S 
ATOM     93  O   UNL A   1      43.566  24.900  37.316  1.00  0.00    -0.237 OA
ATOM     94  O   UNL A   1      44.496  23.231  35.745  1.00  0.00    -0.237 OA
ATOM     95  O   UNL A   1      45.946  24.273  37.444  1.00  0.00    -0.744 OA
ENDBRANCH  88  92
ENDBRANCH  62  85
ENDBRANCH  36  37
ENDBRANCH  29  31
ENDBRANCH  28  29
ENDBRANCH  27  28
ENDBRANCH  26  27
ENDBRANCH  25  26
ENDBRANCH   1  25
TORSDOF 21
ENDMDL
MODEL 2
REMARK VINA RESULT:     -10.6      1.703      2.274
REMARK SMILES C[C@H]1[NH2+]CC[C@H]1C(=O)N1CCC(C(=O)OCCOCCOCCOC(=O)c2ccc(-c3c4nc(c(-c5cc(S(=O)(=O)[O-])ccc5F)c5ccc([nH]5)c(-c5cc(S(=O)(=O)[O-])ccc5F)c5nc(c(-c6cc(S(=O)(=O)[O-])ccc6F)c6ccc3[nH]6)C=C5)C=C4)cc2)CC1
REMARK SMILES IDX 20 1 19 2 18 3 17 4 16 5 15 6 13 7 14 8 12 9 7 10 8 11 9 12
REMARK SMILES IDX 10 13 91 14 11 15 90 16 6 17 1 18 2 19 3 20 4 21 5 24 21 25
REMARK SMILES IDX 22 26 23 27 24 28 25 29 26 30 27 31 28 32 89 33 29 34 88 35
REMARK SMILES IDX 30 36 31 37 32 38 82 39 33 40 87 41 81 42 83 43 34 44 86 45
REMARK SMILES IDX 80 46 79 47 35 49 67 50 47 51 66 52 48 53 51 54 65 55 84 56
REMARK SMILES IDX 49 57 50 58 64 60 85 61 52 62 36 63 37 64 45 65 38 66 44 67
REMARK SMILES IDX 46 68 43 69 39 70 40 71 41 72 42 73 68 74 69 75 77 76 70 77
REMARK SMILES IDX 76 78 78 79 75 80 71 81 72 82 73 83 74 84 53 85 54 86 62 87
REMARK SMILES IDX 55 88 61 89 63 90 60 91 56 92 57 93 58 94 59 95
REMARK H PARENT 3 22 3 23 83 48 51 59
REMARK Flexibility Score: inf
ROOT
ATOM      1  C   UNL A   1      32.873  29.991  26.323  1.00  0.00     0.188 C 
ENDROOT
BRANCH   1   2
ATOM      2  C   UNL A   1      32.607  29.528  24.889  1.00  0.00     0.188 C 
BRANCH   2   3
ATOM      3  O   UNL A   1      31.362  28.919  24.577  1.00  0.00    -0.376 OA
BRANCH   3   4
ATOM      4  C   UNL A   1      30.581  29.416  23.495  1.00  0.00     0.202 C 
BRANCH   4   5
ATOM      5  C   UNL A   1      29.493  28.520  22.876  1.00  0.00     0.261 C 
BRANCH   5   6
ATOM      6  O   UNL A   1      29.832  27.122  22.721  1.00  0.00    -0.463 OA
BRANCH   6   7
ATOM      7  C   UNL A   1      29.387  26.299  23.701  1.00  0.00     0.309 C 
ATOM      8  O   UNL A   1      28.325  26.464  24.299  1.00  0.00    -0.252 OA
BRANCH   7   9
ATOM      9  C   UNL A   1      30.269  25.091  24.007  1.00  0.00     0.103 C 
ATOM     10  C   UNL A   1      34.031  24.128  24.483  1.00  0.00     0.231 C 
ATOM     11  O   UNL A   1      34.327  24.879  23.550  1.00  0.00    -0.274 OA
ATOM     12  N   UNL A   1      32.726  23.692  24.671  1.00  0.00    -0.342 N 
ATOM     13  C   UNL A   1      31.972  23.274  23.502  1.00  0.00     0.120 C 
ATOM     14  C   UNL A   1      31.896  24.277  25.708  1.00  0.00     0.120 C 
ATOM     15  C   UNL A   1      31.127  24.416  22.914  1.00  0.00     0.037 C 
ATOM     16  C   UNL A   1      31.184  25.505  25.164  1.00  0.00     0.037 C 
BRANCH  10  17
ATOM     17  C   UNL A   1      35.122  23.516  25.361  1.00  0.00     0.142 C 
ATOM     18  C   UNL A   1      34.631  20.988  24.811  1.00  0.00     0.076 C 
ATOM     19  C   UNL A   1      35.069  22.054  25.802  1.00  0.00     0.192 C 
ATOM     20  N   UNL A   1      36.449  21.744  26.241  1.00  0.00    -0.343 N 
ATOM     21  C   UNL A   1      37.357  22.764  25.707  1.00  0.00     0.261 C 
ATOM     22  H   UNL A   1      36.721  20.825  25.892  1.00  0.00     0.346 HD
ATOM     23  H   UNL A   1      36.494  21.740  27.261  1.00  0.00     0.346 HD
ATOM     24  C   UNL A   1      36.540  23.720  24.864  1.00  0.00     0.081 C 
ENDBRANCH  10  17
ENDBRANCH   7   9
ENDBRANCH   6   7
ENDBRANCH   5   6
ENDBRANCH   4   5
ENDBRANCH   3   4
ENDBRANCH   2   3
ENDBRANCH   1   2
BRANCH   1  25
ATOM     25  O   UNL A   1      31.813  30.683  26.944  1.00  0.00    -0.376 OA
BRANCH  25  26
ATOM     26  C   UNL A   1      31.263  31.797  26.261  1.00  0.00     0.202 C 
BRANCH  26  27
ATOM     27  C   UNL A   1      31.789  33.178  26.684  1.00  0.00     0.261 C 
BRANCH  27  28
ATOM     28  O   UNL A   1      32.372  33.246  28.000  1.00  0.00    -0.460 OA
BRANCH  28  29
ATOM     29  C   UNL A   1      33.412  34.101  28.162  1.00  0.00     0.338 C 
ATOM     30  O   UNL A   1      33.337  35.313  28.287  1.00  0.00    -0.246 OA
BRANCH  29  31
ATOM     31  C   UNL A   1      34.629  33.298  28.448  1.00  0.00     0.060 A 
ATOM     32  C   UNL A   1      34.472  31.973  28.885  1.00  0.00     0.016 A 
ATOM     33  C   UNL A   1      35.908  33.825  28.261  1.00  0.00     0.016 A 
ATOM     34  C   UNL A   1      35.591  31.193  29.186  1.00  0.00     0.010 A 
ATOM     35  C   UNL A   1      37.029  33.049  28.584  1.00  0.00     0.010 A 
ATOM     36  C   UNL A   1      36.875  31.744  29.090  1.00  0.00    -0.014 A 
BRANCH  36  37
ATOM     37  C   UNL A   1      38.016  31.054  29.753  1.00  0.00     0.031 A 
ATOM     38  C   UNL A   1      38.302  31.392  31.195  1.00  0.00     0.074 A 
ATOM     39  C   UNL A   1      38.752  30.116  29.128  1.00  0.00     0.049 A 
ATOM     40  N   UNL A   1      39.240  30.946  31.988  1.00  0.00    -0.248 NA
ATOM     41  C   UNL A   1      37.402  32.374  31.820  1.00  0.00     0.031 C 
ATOM     42  C   UNL A   1      38.552  29.657  27.754  1.00  0.00     0.029 A 
ATOM     43  N   UNL A   1      39.822  29.379  29.575  1.00  0.00    -0.354 N 
ATOM     44  C   UNL A   1      39.047  31.594  33.205  1.00  0.00     0.074 A 
ATOM     45  C   UNL A   1      37.932  32.497  33.026  1.00  0.00     0.031 C 
ATOM     46  C   UNL A   1      39.473  28.719  27.471  1.00  0.00     0.029 A 
ATOM     47  C   UNL A   1      40.351  28.534  28.627  1.00  0.00     0.049 A 
ATOM     48  H   UNL A   1      40.178  29.449  30.490  1.00  0.00     0.167 HD
ATOM     49  C   UNL A   1      39.726  31.443  34.368  1.00  0.00     0.034 A 
ATOM     50  C   UNL A   1      41.428  27.722  28.679  1.00  0.00     0.034 A 
ATOM     51  C   UNL A   1      40.848  30.551  34.537  1.00  0.00     0.049 A 
ATOM     52  C   UNL A   1      42.228  27.636  29.961  1.00  0.00     0.074 A 
ATOM     53  C   UNL A   1      41.603  30.322  35.673  1.00  0.00     0.029 A 
ATOM     54  N   UNL A   1      41.384  29.748  33.537  1.00  0.00    -0.354 N 
ATOM     55  N   UNL A   1      42.032  28.251  31.106  1.00  0.00    -0.248 NA
ATOM     56  C   UNL A   1      43.387  26.732  29.959  1.00  0.00     0.031 C 
ATOM     57  C   UNL A   1      42.642  29.447  35.342  1.00  0.00     0.029 A 
ATOM     58  C   UNL A   1      42.479  29.050  34.024  1.00  0.00     0.049 A 
ATOM     59  H   UNL A   1      41.038  29.685  32.618  1.00  0.00     0.167 HD
ATOM     60  C   UNL A   1      43.019  27.772  31.969  1.00  0.00     0.074 A 
ATOM     61  C   UNL A   1      43.794  26.810  31.217  1.00  0.00     0.031 C 
ATOM     62  C   UNL A   1      43.255  28.093  33.268  1.00  0.00     0.034 A 
BRANCH  49  63
ATOM     63  C   UNL A   1      39.301  32.307  35.532  1.00  0.00     0.023 A 
ATOM     64  C   UNL A   1      39.681  33.657  35.633  1.00  0.00     0.031 A 
ATOM     65  C   UNL A   1      38.534  31.760  36.577  1.00  0.00     0.131 A 
ATOM     66  C   UNL A   1      39.361  34.391  36.786  1.00  0.00     0.055 A 
ATOM     67  C   UNL A   1      38.143  32.521  37.680  1.00  0.00     0.041 A 
ATOM     68  F   UNL A   1      38.165  30.470  36.551  1.00  0.00    -0.206 F 
ATOM     69  C   UNL A   1      38.570  33.841  37.797  1.00  0.00     0.022 A 
BRANCH  66  70
ATOM     70  S   UNL A   1      40.125  36.020  37.016  1.00  0.00     0.124 S 
ATOM     71  O   UNL A   1      39.353  36.552  38.136  1.00  0.00    -0.237 OA
ATOM     72  O   UNL A   1      41.514  35.680  37.302  1.00  0.00    -0.237 OA
ATOM     73  O   UNL A   1      39.896  36.689  35.738  1.00  0.00    -0.744 OA
ENDBRANCH  66  70
ENDBRANCH  49  63
BRANCH  50  74
ATOM     74  C   UNL A   1      41.854  26.940  27.479  1.00  0.00     0.023 A 
ATOM     75  C   UNL A   1      41.677  25.548  27.410  1.00  0.00     0.031 A 
ATOM     76  C   UNL A   1      42.522  27.569  26.412  1.00  0.00     0.131 A 
ATOM     77  C   UNL A   1      42.207  24.824  26.330  1.00  0.00     0.055 A 
ATOM     78  C   UNL A   1      42.995  26.852  25.311  1.00  0.00     0.041 A 
ATOM     79  F   UNL A   1      42.728  28.895  26.427  1.00  0.00    -0.206 F 
ATOM     80  C   UNL A   1      42.852  25.469  25.272  1.00  0.00     0.022 A 
BRANCH  77  81
ATOM     81  S   UNL A   1      42.131  23.011  26.374  1.00  0.00     0.124 S 
ATOM     82  O   UNL A   1      42.644  22.662  25.054  1.00  0.00    -0.237 OA
ATOM     83  O   UNL A   1      42.999  22.700  27.504  1.00  0.00    -0.237 OA
ATOM     84  O   UNL A   1      40.711  22.736  26.587  1.00  0.00    -0.744 OA
ENDBRANCH  77  81
ENDBRANCH  50  74
BRANCH  62  85
ATOM     85  C   UNL A   1      44.363  27.344  33.978  1.00  0.00     0.023 A 
ATOM     86  C   UNL A   1      45.683  27.827  34.028  1.00  0.00     0.031 A 
ATOM     87  C   UNL A   1      44.096  26.106  34.592  1.00  0.00     0.131 A 
ATOM     88  C   UNL A   1      46.696  27.043  34.603  1.00  0.00     0.055 A 
ATOM     89  C   UNL A   1      45.093  25.367  35.231  1.00  0.00     0.041 A 
ATOM     90  F   UNL A   1      42.856  25.588  34.578  1.00  0.00    -0.206 F 
ATOM     91  C   UNL A   1      46.405  25.826  35.223  1.00  0.00     0.022 A 
BRANCH  88  92
ATOM     92  S   UNL A   1      48.421  27.574  34.414  1.00  0.00     0.124 S 
ATOM     93  O   UNL A   1      48.276  28.803  33.640  1.00  0.00    -0.237 OA
ATOM     94  O   UNL A   1      48.851  27.738  35.798  1.00  0.00    -0.237 OA
ATOM     95  O   UNL A   1      49.045  26.462  33.699  1.00  0.00    -0.744 OA
ENDBRANCH  88  92
ENDBRANCH  62  85
ENDBRANCH  36  37
ENDBRANCH  29  31
ENDBRANCH  28  29
ENDBRANCH  27  28
ENDBRANCH  26  27
ENDBRANCH  25  26
ENDBRANCH   1  25
TORSDOF 21
ENDMDL
MODEL 3
REMARK VINA RESULT:     -10.3      2.515      8.025
REMARK SMILES C[C@H]1[NH2+]CC[C@H]1C(=O)N1CCC(C(=O)OCCOCCOCCOC(=O)c2ccc(-c3c4nc(c(-c5cc(S(=O)(=O)[O-])ccc5F)c5ccc([nH]5)c(-c5cc(S(=O)(=O)[O-])ccc5F)c5nc(c(-c6cc(S(=O)(=O)[O-])ccc6F)c6ccc3[nH]6)C=C5)C=C4)cc2)CC1
REMARK SMILES IDX 20 1 19 2 18 3 17 4 16 5 15 6 13 7 14 8 12 9 7 10 8 11 9 12
REMARK SMILES IDX 10 13 91 14 11 15 90 16 6 17 1 18 2 19 3 20 4 21 5 24 21 25
REMARK SMILES IDX 22 26 23 27 24 28 25 29 26 30 27 31 28 32 89 33 29 34 88 35
REMARK SMILES IDX 30 36 31 37 32 38 82 39 33 40 87 41 81 42 83 43 34 44 86 45
REMARK SMILES IDX 80 46 79 47 35 49 67 50 47 51 66 52 48 53 51 54 65 55 84 56
REMARK SMILES IDX 49 57 50 58 64 60 85 61 52 62 36 63 37 64 45 65 38 66 44 67
REMARK SMILES IDX 46 68 43 69 39 70 40 71 41 72 42 73 68 74 69 75 77 76 70 77
REMARK SMILES IDX 76 78 78 79 75 80 71 81 72 82 73 83 74 84 53 85 54 86 62 87
REMARK SMILES IDX 55 88 61 89 63 90 60 91 56 92 57 93 58 94 59 95
REMARK H PARENT 3 22 3 23 83 48 51 59
REMARK Flexibility Score: inf
ROOT
ATOM      1  C   UNL A   1      32.778  27.853  23.267  1.00  0.00     0.188 C 
ENDROOT
BRANCH   1   2
ATOM      2  C   UNL A   1      32.045  27.583  21.952  1.00  0.00     0.188 C 
BRANCH   2   3
ATOM      3  O   UNL A   1      30.644  27.350  21.975  1.00  0.00    -0.376 OA
BRANCH   3   4
ATOM      4  C   UNL A   1      29.921  27.494  23.193  1.00  0.00     0.202 C 
BRANCH   4   5
ATOM      5  C   UNL A   1      29.279  26.255  23.841  1.00  0.00     0.261 C 
BRANCH   5   6
ATOM      6  O   UNL A   1      29.249  26.236  25.287  1.00  0.00    -0.463 OA
BRANCH   6   7
ATOM      7  C   UNL A   1      30.073  25.337  25.879  1.00  0.00     0.309 C 
ATOM      8  O   UNL A   1      29.691  24.492  26.687  1.00  0.00    -0.252 OA
BRANCH   7   9
ATOM      9  C   UNL A   1      31.536  25.391  25.447  1.00  0.00     0.103 C 
ATOM     10  C   UNL A   1      34.903  23.451  25.893  1.00  0.00     0.231 C 
ATOM     11  O   UNL A   1      34.625  23.269  27.080  1.00  0.00    -0.274 OA
ATOM     12  N   UNL A   1      34.257  24.424  25.142  1.00  0.00    -0.342 N 
ATOM     13  C   UNL A   1      34.036  25.723  25.756  1.00  0.00     0.120 C 
ATOM     14  C   UNL A   1      33.223  24.057  24.192  1.00  0.00     0.120 C 
ATOM     15  C   UNL A   1      32.653  25.825  26.421  1.00  0.00     0.037 C 
ATOM     16  C   UNL A   1      31.876  24.004  24.894  1.00  0.00     0.037 C 
BRANCH  10  17
ATOM     17  C   UNL A   1      36.088  22.726  25.254  1.00  0.00     0.142 C 
ATOM     18  C   UNL A   1      38.004  24.018  26.520  1.00  0.00     0.076 C 
ATOM     19  C   UNL A   1      37.493  23.327  25.266  1.00  0.00     0.192 C 
ATOM     20  N   UNL A   1      38.390  22.187  24.962  1.00  0.00    -0.343 N 
ATOM     21  C   UNL A   1      37.660  20.936  25.187  1.00  0.00     0.261 C 
ATOM     22  H   UNL A   1      39.207  22.222  25.573  1.00  0.00     0.346 HD
ATOM     23  H   UNL A   1      38.698  22.238  23.991  1.00  0.00     0.346 HD
ATOM     24  C   UNL A   1      36.277  21.288  25.695  1.00  0.00     0.081 C 
ENDBRANCH  10  17
ENDBRANCH   7   9
ENDBRANCH   6   7
ENDBRANCH   5   6
ENDBRANCH   4   5
ENDBRANCH   3   4
ENDBRANCH   2   3
ENDBRANCH   1   2
BRANCH   1  25
ATOM     25  O   UNL A   1      32.569  29.130  23.828  1.00  0.00    -0.376 OA
BRANCH  25  26
ATOM     26  C   UNL A   1      32.860  29.301  25.205  1.00  0.00     0.202 C 
BRANCH  26  27
ATOM     27  C   UNL A   1      32.068  30.399  25.933  1.00  0.00     0.261 C 
BRANCH  27  28
ATOM     28  O   UNL A   1      32.513  30.706  27.269  1.00  0.00    -0.460 OA
BRANCH  28  29
ATOM     29  C   UNL A   1      33.265  31.824  27.418  1.00  0.00     0.338 C 
ATOM     30  O   UNL A   1      32.861  32.975  27.391  1.00  0.00    -0.246 OA
BRANCH  29  31
ATOM     31  C   UNL A   1      34.608  31.414  27.905  1.00  0.00     0.060 A 
ATOM     32  C   UNL A   1      34.820  30.067  28.236  1.00  0.00     0.016 A 
ATOM     33  C   UNL A   1      35.655  32.332  28.006  1.00  0.00     0.016 A 
ATOM     34  C   UNL A   1      36.062  29.647  28.718  1.00  0.00     0.010 A 
ATOM     35  C   UNL A   1      36.893  31.914  28.511  1.00  0.00     0.010 A 
ATOM     36  C   UNL A   1      37.090  30.578  28.911  1.00  0.00    -0.014 A 
BRANCH  36  37
ATOM     37  C   UNL A   1      38.259  30.210  29.756  1.00  0.00     0.031 A 
ATOM     38  C   UNL A   1      39.250  29.221  29.193  1.00  0.00     0.074 A 
ATOM     39  C   UNL A   1      38.480  30.763  30.962  1.00  0.00     0.049 A 
ATOM     40  N   UNL A   1      40.335  28.727  29.730  1.00  0.00    -0.248 NA
ATOM     41  C   UNL A   1      38.968  28.722  27.837  1.00  0.00     0.031 C 
ATOM     42  C   UNL A   1      37.632  31.767  31.603  1.00  0.00     0.029 A 
ATOM     43  N   UNL A   1      39.494  30.554  31.867  1.00  0.00    -0.354 N 
ATOM     44  C   UNL A   1      40.864  27.857  28.781  1.00  0.00     0.074 A 
ATOM     45  C   UNL A   1      39.953  27.858  27.657  1.00  0.00     0.031 C 
ATOM     46  C   UNL A   1      38.160  32.083  32.799  1.00  0.00     0.029 A 
ATOM     47  C   UNL A   1      39.362  31.281  33.028  1.00  0.00     0.049 A 
ATOM     48  H   UNL A   1      40.245  29.940  31.700  1.00  0.00     0.167 HD
ATOM     49  C   UNL A   1      42.009  27.133  28.832  1.00  0.00     0.034 A 
ATOM     50  C   UNL A   1      40.112  31.284  34.150  1.00  0.00     0.034 A 
ATOM     51  C   UNL A   1      42.906  27.124  29.962  1.00  0.00     0.049 A 
ATOM     52  C   UNL A   1      41.338  30.399  34.223  1.00  0.00     0.074 A 
ATOM     53  C   UNL A   1      44.092  26.428  30.114  1.00  0.00     0.029 A 
ATOM     54  N   UNL A   1      42.712  27.836  31.139  1.00  0.00    -0.354 N 
ATOM     55  N   UNL A   1      41.830  29.584  33.316  1.00  0.00    -0.248 NA
ATOM     56  C   UNL A   1      42.117  30.448  35.468  1.00  0.00     0.031 C 
ATOM     57  C   UNL A   1      44.572  26.653  31.409  1.00  0.00     0.029 A 
ATOM     58  C   UNL A   1      43.739  27.569  32.033  1.00  0.00     0.049 A 
ATOM     59  H   UNL A   1      41.956  28.442  31.314  1.00  0.00     0.167 HD
ATOM     60  C   UNL A   1      42.999  29.060  33.870  1.00  0.00     0.074 A 
ATOM     61  C   UNL A   1      43.143  29.662  35.178  1.00  0.00     0.031 C 
ATOM     62  C   UNL A   1      43.877  28.168  33.340  1.00  0.00     0.034 A 
BRANCH  49  63
ATOM     63  C   UNL A   1      42.320  26.248  27.647  1.00  0.00     0.023 A 
ATOM     64  C   UNL A   1      42.018  24.875  27.645  1.00  0.00     0.031 A 
ATOM     65  C   UNL A   1      42.966  26.781  26.516  1.00  0.00     0.131 A 
ATOM     66  C   UNL A   1      42.427  24.070  26.572  1.00  0.00     0.055 A 
ATOM     67  C   UNL A   1      43.290  25.991  25.413  1.00  0.00     0.041 A 
ATOM     68  F   UNL A   1      43.305  28.079  26.471  1.00  0.00    -0.206 F 
ATOM     69  C   UNL A   1      43.036  24.623  25.443  1.00  0.00     0.022 A 
BRANCH  66  70
ATOM     70  S   UNL A   1      42.296  22.268  26.741  1.00  0.00     0.124 S 
ATOM     71  O   UNL A   1      42.108  22.120  28.182  1.00  0.00    -0.237 OA
ATOM     72  O   UNL A   1      41.138  21.957  25.911  1.00  0.00    -0.237 OA
ATOM     73  O   UNL A   1      43.577  21.782  26.234  1.00  0.00    -0.744 OA
ENDBRANCH  66  70
ENDBRANCH  49  63
BRANCH  50  74
ATOM     74  C   UNL A   1      39.724  32.121  35.326  1.00  0.00     0.023 A 
ATOM     75  C   UNL A   1      38.938  31.601  36.367  1.00  0.00     0.031 A 
ATOM     76  C   UNL A   1      40.070  33.483  35.383  1.00  0.00     0.131 A 
ATOM     77  C   UNL A   1      38.478  32.446  37.390  1.00  0.00     0.055 A 
ATOM     78  C   UNL A   1      39.661  34.306  36.435  1.00  0.00     0.041 A 
ATOM     79  F   UNL A   1      40.812  34.037  34.412  1.00  0.00    -0.206 F 
ATOM     80  C   UNL A   1      38.847  33.792  37.439  1.00  0.00     0.022 A 
BRANCH  77  81
ATOM     81  S   UNL A   1      37.306  31.783  38.607  1.00  0.00     0.124 S 
ATOM     82  O   UNL A   1      36.188  32.712  38.477  1.00  0.00    -0.237 OA
ATOM     83  O   UNL A   1      37.081  30.432  38.105  1.00  0.00    -0.237 OA
ATOM     84  O   UNL A   1      38.042  31.863  39.867  1.00  0.00    -0.744 OA
ENDBRANCH  77  81
ENDBRANCH  50  74
BRANCH  62  85
ATOM     85  C   UNL A   1      45.111  27.841  34.155  1.00  0.00     0.023 A 
ATOM     86  C   UNL A   1      46.275  28.627  34.101  1.00  0.00     0.031 A 
ATOM     87  C   UNL A   1      45.129  26.699  34.978  1.00  0.00     0.131 A 
ATOM     88  C   UNL A   1      47.429  28.221  34.792  1.00  0.00     0.055 A 
ATOM     89  C   UNL A   1      46.254  26.343  35.723  1.00  0.00     0.041 A 
ATOM     90  F   UNL A   1      44.050  25.905  35.072  1.00  0.00    -0.206 F 
ATOM     91  C   UNL A   1      47.419  27.095  35.617  1.00  0.00     0.022 A 
BRANCH  88  92
ATOM     92  S   UNL A   1      48.982  29.109  34.489  1.00  0.00     0.124 S 
ATOM     93  O   UNL A   1      49.547  28.359  33.372  1.00  0.00    -0.237 OA
ATOM     94  O   UNL A   1      48.516  30.457  34.182  1.00  0.00    -0.237 OA
ATOM     95  O   UNL A   1      49.704  28.976  35.753  1.00  0.00    -0.744 OA
ENDBRANCH  88  92
ENDBRANCH  62  85
ENDBRANCH  36  37
ENDBRANCH  29  31
ENDBRANCH  28  29
ENDBRANCH  27  28
ENDBRANCH  26  27
ENDBRANCH  25  26
ENDBRANCH   1  25
TORSDOF 21
ENDMDL
