MODEL 1
REMARK VINA RESULT:      -9.6      0.000      0.000
REMARK SMILES CC(C)[C@@](C)(CC(=O)N[C@H]1CCCC1(C)C)C(=O)OCCOCCOCCOC(=O)c1ccc(-c2c3nc(c(-c4cc(S(=O)(=O)[O-])ccc4F)c4ccc([nH]4)c(-c4cc(S(=O)(=O)[O-])ccc4F)c4nc(c(-c5cc(S(=O)(=O)[O-])ccc5F)c5ccc2[nH]5)C=C4)C=C3)cc1
REMARK SMILES IDX 23 1 22 2 21 3 20 4 19 5 17 6 18 7 4 8 5 9 2 10 1 11 3 12
REMARK SMILES IDX 6 13 7 14 8 15 9 16 10 18 11 19 14 20 12 21 13 22 15 23
REMARK SMILES IDX 16 24 24 25 25 26 26 27 27 28 28 29 29 30 30 31 31 32 32 33
REMARK SMILES IDX 93 34 33 35 92 36 34 37 35 38 36 39 86 40 37 41 91 42 85 43
REMARK SMILES IDX 87 44 38 45 90 46 84 47 83 48 39 50 71 51 51 52 70 53 52 54
REMARK SMILES IDX 55 55 69 56 88 57 53 58 54 59 68 61 89 62 56 63 40 64 41 65
REMARK SMILES IDX 49 66 42 67 48 68 50 69 47 70 43 71 44 72 45 73 46 74 72 75
REMARK SMILES IDX 73 76 81 77 74 78 80 79 82 80 79 81 75 82 76 83 77 84 78 85
REMARK SMILES IDX 57 86 58 87 66 88 59 89 65 90 67 91 64 92 60 93 61 94 62 95
REMARK SMILES IDX 63 96
REMARK H PARENT 9 17 87 49 55 60
REMARK Flexibility Score: inf
ROOT
ATOM      1  C   UNL A   1      40.301  21.963  26.998  1.00  0.00     0.188 C 
ENDROOT
BRANCH   1   2
ATOM      2  O   UNL A   1      39.039  22.134  26.358  1.00  0.00    -0.376 OA
BRANCH   2   3
ATOM      3  C   UNL A   1      38.512  23.450  26.285  1.00  0.00     0.202 C 
BRANCH   3   4
ATOM      4  C   UNL A   1      37.411  23.669  25.247  1.00  0.00     0.261 C 
BRANCH   4   5
ATOM      5  O   UNL A   1      36.086  23.260  25.670  1.00  0.00    -0.463 OA
BRANCH   5   6
ATOM      6  C   UNL A   1      35.614  22.169  25.025  1.00  0.00     0.312 C 
ATOM      7  O   UNL A   1      36.362  21.368  24.468  1.00  0.00    -0.252 OA
BRANCH   6   8
ATOM      8  C   UNL A   1      34.074  21.989  24.984  1.00  0.00     0.076 C 
ATOM      9  C   UNL A   1      33.963  20.429  24.865  1.00  0.00     0.024 C 
BRANCH   8  10
ATOM     10  C   UNL A   1      33.487  22.477  26.350  1.00  0.00     0.000 C 
ATOM     11  C   UNL A   1      31.961  22.670  26.406  1.00  0.00     0.008 C 
ATOM     12  C   UNL A   1      33.877  21.580  27.528  1.00  0.00     0.008 C 
ENDBRANCH   8  10
BRANCH   8  13
ATOM     13  C   UNL A   1      33.263  22.462  23.723  1.00  0.00     0.118 C 
BRANCH  13  14
ATOM     14  C   UNL A   1      33.520  23.670  22.818  1.00  0.00     0.221 C 
ATOM     15  O   UNL A   1      33.956  23.490  21.676  1.00  0.00    -0.275 OA
ATOM     16  N   UNL A   1      33.159  24.948  23.095  1.00  0.00    -0.353 N 
ATOM     17  H   UNL A   1      33.368  25.578  22.369  1.00  0.00     0.163 HD
BRANCH  16  18
ATOM     18  C   UNL A   1      32.525  25.585  24.245  1.00  0.00     0.087 C 
ATOM     19  C   UNL A   1      33.606  26.062  25.225  1.00  0.00     0.025 C 
ATOM     20  C   UNL A   1      31.766  26.894  23.918  1.00  0.00    -0.015 C 
ATOM     21  C   UNL A   1      33.924  27.517  24.860  1.00  0.00     0.003 C 
ATOM     22  C   UNL A   1      32.883  27.944  23.830  1.00  0.00     0.008 C 
ATOM     23  C   UNL A   1      30.955  26.829  22.623  1.00  0.00     0.013 C 
ATOM     24  C   UNL A   1      30.812  27.239  25.084  1.00  0.00     0.013 C 
ENDBRANCH  16  18
ENDBRANCH  13  14
ENDBRANCH   8  13
ENDBRANCH   6   8
ENDBRANCH   5   6
ENDBRANCH   4   5
ENDBRANCH   3   4
ENDBRANCH   2   3
ENDBRANCH   1   2
BRANCH   1  25
ATOM     25  C   UNL A   1      41.482  21.475  26.158  1.00  0.00     0.188 C 
BRANCH  25  26
ATOM     26  O   UNL A   1      42.082  20.293  26.675  1.00  0.00    -0.376 OA
BRANCH  26  27
ATOM     27  C   UNL A   1      42.044  19.199  25.771  1.00  0.00     0.202 C 
BRANCH  27  28
ATOM     28  C   UNL A   1      43.471  18.730  25.500  1.00  0.00     0.261 C 
BRANCH  28  29
ATOM     29  O   UNL A   1      43.973  19.171  24.220  1.00  0.00    -0.460 OA
BRANCH  29  30
ATOM     30  C   UNL A   1      45.166  19.790  24.247  1.00  0.00     0.338 C 
ATOM     31  O   UNL A   1      46.228  19.363  23.803  1.00  0.00    -0.246 OA
BRANCH  30  32
ATOM     32  C   UNL A   1      44.991  21.130  24.822  1.00  0.00     0.060 A 
ATOM     33  C   UNL A   1      44.498  22.159  24.014  1.00  0.00     0.016 A 
ATOM     34  C   UNL A   1      45.385  21.394  26.140  1.00  0.00     0.016 A 
ATOM     35  C   UNL A   1      44.436  23.456  24.521  1.00  0.00     0.010 A 
ATOM     36  C   UNL A   1      45.324  22.707  26.631  1.00  0.00     0.010 A 
ATOM     37  C   UNL A   1      44.880  23.759  25.812  1.00  0.00    -0.014 A 
BRANCH  37  38
ATOM     38  C   UNL A   1      45.055  25.189  26.208  1.00  0.00     0.031 A 
ATOM     39  C   UNL A   1      46.400  25.839  25.998  1.00  0.00     0.074 A 
ATOM     40  C   UNL A   1      44.026  25.951  26.626  1.00  0.00     0.049 A 
ATOM     41  N   UNL A   1      46.830  27.013  26.383  1.00  0.00    -0.248 NA
ATOM     42  C   UNL A   1      47.383  25.058  25.233  1.00  0.00     0.031 C 
ATOM     43  C   UNL A   1      42.633  25.516  26.723  1.00  0.00     0.029 A 
ATOM     44  N   UNL A   1      43.991  27.267  27.030  1.00  0.00    -0.354 N 
ATOM     45  C   UNL A   1      48.147  27.097  25.945  1.00  0.00     0.074 A 
ATOM     46  C   UNL A   1      48.441  25.854  25.262  1.00  0.00     0.031 C 
ATOM     47  C   UNL A   1      41.881  26.549  27.142  1.00  0.00     0.029 A 
ATOM     48  C   UNL A   1      42.744  27.695  27.427  1.00  0.00     0.049 A 
ATOM     49  H   UNL A   1      44.786  27.849  27.036  1.00  0.00     0.167 HD
ATOM     50  C   UNL A   1      49.034  28.111  26.103  1.00  0.00     0.034 A 
ATOM     51  C   UNL A   1      42.352  28.852  28.002  1.00  0.00     0.034 A 
ATOM     52  C   UNL A   1      48.731  29.354  26.769  1.00  0.00     0.049 A 
ATOM     53  C   UNL A   1      43.387  29.912  28.306  1.00  0.00     0.074 A 
ATOM     54  C   UNL A   1      49.573  30.421  27.035  1.00  0.00     0.029 A 
ATOM     55  N   UNL A   1      47.484  29.702  27.271  1.00  0.00    -0.354 N 
ATOM     56  N   UNL A   1      44.666  29.932  28.007  1.00  0.00    -0.248 NA
ATOM     57  C   UNL A   1      42.928  31.097  29.046  1.00  0.00     0.031 C 
ATOM     58  C   UNL A   1      48.854  31.383  27.752  1.00  0.00     0.029 A 
ATOM     59  C   UNL A   1      47.543  30.952  27.870  1.00  0.00     0.049 A 
ATOM     60  H   UNL A   1      46.677  29.144  27.211  1.00  0.00     0.167 HD
ATOM     61  C   UNL A   1      45.156  31.136  28.511  1.00  0.00     0.074 A 
ATOM     62  C   UNL A   1      44.034  31.825  29.112  1.00  0.00     0.031 C 
ATOM     63  C   UNL A   1      46.421  31.627  28.480  1.00  0.00     0.034 A 
BRANCH  50  64
ATOM     64  C   UNL A   1      50.447  27.864  25.633  1.00  0.00     0.023 A 
ATOM     65  C   UNL A   1      50.805  27.909  24.276  1.00  0.00     0.031 A 
ATOM     66  C   UNL A   1      51.439  27.513  26.568  1.00  0.00     0.131 A 
ATOM     67  C   UNL A   1      52.100  27.538  23.884  1.00  0.00     0.055 A 
ATOM     68  C   UNL A   1      52.746  27.221  26.178  1.00  0.00     0.041 A 
ATOM     69  F   UNL A   1      51.146  27.430  27.875  1.00  0.00    -0.206 F 
ATOM     70  C   UNL A   1      53.080  27.216  24.829  1.00  0.00     0.022 A 
BRANCH  67  71
ATOM     71  S   UNL A   1      52.448  27.329  22.116  1.00  0.00     0.124 S 
ATOM     72  O   UNL A   1      52.914  28.664  21.747  1.00  0.00    -0.237 OA
ATOM     73  O   UNL A   1      53.458  26.278  22.116  1.00  0.00    -0.237 OA
ATOM     74  O   UNL A   1      51.153  26.951  21.554  1.00  0.00    -0.744 OA
ENDBRANCH  67  71
ENDBRANCH  50  64
BRANCH  51  75
ATOM     75  C   UNL A   1      40.934  29.050  28.436  1.00  0.00     0.023 A 
ATOM     76  C   UNL A   1      40.563  28.972  29.788  1.00  0.00     0.031 A 
ATOM     77  C   UNL A   1      39.911  29.231  27.485  1.00  0.00     0.131 A 
ATOM     78  C   UNL A   1      39.205  29.032  30.147  1.00  0.00     0.055 A 
ATOM     79  C   UNL A   1      38.571  29.352  27.852  1.00  0.00     0.041 A 
ATOM     80  F   UNL A   1      40.204  29.292  26.176  1.00  0.00    -0.206 F 
ATOM     81  C   UNL A   1      38.210  29.239  29.190  1.00  0.00     0.022 A 
BRANCH  78  82
ATOM     82  S   UNL A   1      38.745  28.741  31.878  1.00  0.00     0.124 S 
ATOM     83  O   UNL A   1      37.546  29.561  32.009  1.00  0.00    -0.237 OA
ATOM     84  O   UNL A   1      38.540  27.296  31.899  1.00  0.00    -0.237 OA
ATOM     85  O   UNL A   1      39.910  29.214  32.625  1.00  0.00    -0.744 OA
ENDBRANCH  78  82
ENDBRANCH  51  75
BRANCH  63  86
ATOM     86  C   UNL A   1      46.649  32.994  29.081  1.00  0.00     0.023 A 
ATOM     87  C   UNL A   1      46.450  34.173  28.341  1.00  0.00     0.031 A 
ATOM     88  C   UNL A   1      47.074  33.117  30.417  1.00  0.00     0.131 A 
ATOM     89  C   UNL A   1      46.719  35.420  28.926  1.00  0.00     0.055 A 
ATOM     90  C   UNL A   1      47.289  34.362  31.009  1.00  0.00     0.041 A 
ATOM     91  F   UNL A   1      47.281  32.025  31.170  1.00  0.00    -0.206 F 
ATOM     92  C   UNL A   1      47.123  35.523  30.260  1.00  0.00     0.022 A 
BRANCH  89  93
ATOM     93  S   UNL A   1      46.609  36.912  27.897  1.00  0.00     0.124 S 
ATOM     94  O   UNL A   1      46.381  36.349  26.570  1.00  0.00    -0.237 OA
ATOM     95  O   UNL A   1      45.480  37.619  28.493  1.00  0.00    -0.237 OA
ATOM     96  O   UNL A   1      47.910  37.554  28.083  1.00  0.00    -0.744 OA
ENDBRANCH  89  93
ENDBRANCH  63  86
ENDBRANCH  37  38
ENDBRANCH  30  32
ENDBRANCH  29  30
ENDBRANCH  28  29
ENDBRANCH  27  28
ENDBRANCH  26  27
ENDBRANCH  25  26
ENDBRANCH   1  25
TORSDOF 24
ENDMDL
MODEL 2
REMARK VINA RESULT:      -9.2      0.846      7.585
REMARK SMILES CC(C)[C@@](C)(CC(=O)N[C@H]1CCCC1(C)C)C(=O)OCCOCCOCCOC(=O)c1ccc(-c2c3nc(c(-c4cc(S(=O)(=O)[O-])ccc4F)c4ccc([nH]4)c(-c4cc(S(=O)(=O)[O-])ccc4F)c4nc(c(-c5cc(S(=O)(=O)[O-])ccc5F)c5ccc2[nH]5)C=C4)C=C3)cc1
REMARK SMILES IDX 23 1 22 2 21 3 20 4 19 5 17 6 18 7 4 8 5 9 2 10 1 11 3 12
REMARK SMILES IDX 6 13 7 14 8 15 9 16 10 18 11 19 14 20 12 21 13 22 15 23
REMARK SMILES IDX 16 24 24 25 25 26 26 27 27 28 28 29 29 30 30 31 31 32 32 33
REMARK SMILES IDX 93 34 33 35 92 36 34 37 35 38 36 39 86 40 37 41 91 42 85 43
REMARK SMILES IDX 87 44 38 45 90 46 84 47 83 48 39 50 71 51 51 52 70 53 52 54
REMARK SMILES IDX 55 55 69 56 88 57 53 58 54 59 68 61 89 62 56 63 40 64 41 65
REMARK SMILES IDX 49 66 42 67 48 68 50 69 47 70 43 71 44 72 45 73 46 74 72 75
REMARK SMILES IDX 73 76 81 77 74 78 80 79 82 80 79 81 75 82 76 83 77 84 78 85
REMARK SMILES IDX 57 86 58 87 66 88 59 89 65 90 67 91 64 92 60 93 61 94 62 95
REMARK SMILES IDX 63 96
REMARK H PARENT 9 17 87 49 55 60
REMARK Flexibility Score: inf
ROOT
ATOM      1  C   UNL A   1      40.356  21.997  26.843  1.00  0.00     0.188 C 
ENDROOT
BRANCH   1   2
ATOM      2  O   UNL A   1      39.160  22.158  26.084  1.00  0.00    -0.376 OA
BRANCH   2   3
ATOM      3  C   UNL A   1      38.266  23.189  26.477  1.00  0.00     0.202 C 
BRANCH   3   4
ATOM      4  C   UNL A   1      37.371  23.749  25.371  1.00  0.00     0.261 C 
BRANCH   4   5
ATOM      5  O   UNL A   1      35.948  23.627  25.620  1.00  0.00    -0.463 OA
BRANCH   5   6
ATOM      6  C   UNL A   1      35.316  22.766  24.789  1.00  0.00     0.312 C 
ATOM      7  O   UNL A   1      35.914  22.163  23.900  1.00  0.00    -0.252 OA
BRANCH   6   8
ATOM      8  C   UNL A   1      33.786  22.600  24.983  1.00  0.00     0.076 C 
ATOM      9  C   UNL A   1      33.643  21.043  24.863  1.00  0.00     0.024 C 
BRANCH   8  10
ATOM     10  C   UNL A   1      33.419  23.074  26.428  1.00  0.00     0.000 C 
ATOM     11  C   UNL A   1      32.039  23.733  26.599  1.00  0.00     0.008 C 
ATOM     12  C   UNL A   1      33.528  21.960  27.473  1.00  0.00     0.008 C 
ENDBRANCH   8  10
BRANCH   8  13
ATOM     13  C   UNL A   1      32.797  23.097  23.866  1.00  0.00     0.118 C 
BRANCH  13  14
ATOM     14  C   UNL A   1      33.044  24.119  22.754  1.00  0.00     0.221 C 
ATOM     15  O   UNL A   1      33.307  23.723  21.613  1.00  0.00    -0.275 OA
ATOM     16  N   UNL A   1      32.844  25.457  22.861  1.00  0.00    -0.353 N 
ATOM     17  H   UNL A   1      33.014  25.944  22.023  1.00  0.00     0.163 HD
BRANCH  16  18
ATOM     18  C   UNL A   1      32.429  26.325  23.958  1.00  0.00     0.087 C 
ATOM     19  C   UNL A   1      33.672  26.861  24.683  1.00  0.00     0.025 C 
ATOM     20  C   UNL A   1      31.713  27.624  23.514  1.00  0.00    -0.015 C 
ATOM     21  C   UNL A   1      34.021  28.203  24.030  1.00  0.00     0.003 C 
ATOM     22  C   UNL A   1      32.867  28.545  23.093  1.00  0.00     0.008 C 
ATOM     23  C   UNL A   1      30.716  27.419  22.373  1.00  0.00     0.013 C 
ATOM     24  C   UNL A   1      30.966  28.236  24.720  1.00  0.00     0.013 C 
ENDBRANCH  16  18
ENDBRANCH  13  14
ENDBRANCH   8  13
ENDBRANCH   6   8
ENDBRANCH   5   6
ENDBRANCH   4   5
ENDBRANCH   3   4
ENDBRANCH   2   3
ENDBRANCH   1   2
BRANCH   1  25
ATOM     25  C   UNL A   1      41.588  21.419  26.145  1.00  0.00     0.188 C 
BRANCH  25  26
ATOM     26  O   UNL A   1      42.051  20.213  26.743  1.00  0.00    -0.376 OA
BRANCH  26  27
ATOM     27  C   UNL A   1      42.008  19.097  25.866  1.00  0.00     0.202 C 
BRANCH  27  28
ATOM     28  C   UNL A   1      43.421  18.805  25.367  1.00  0.00     0.261 C 
BRANCH  28  29
ATOM     29  O   UNL A   1      43.804  19.634  24.250  1.00  0.00    -0.460 OA
BRANCH  29  30
ATOM     30  C   UNL A   1      45.044  20.150  24.307  1.00  0.00     0.338 C 
ATOM     31  O   UNL A   1      46.073  19.647  23.865  1.00  0.00    -0.246 OA
BRANCH  30  32
ATOM     32  C   UNL A   1      44.973  21.485  24.916  1.00  0.00     0.060 A 
ATOM     33  C   UNL A   1      44.749  22.595  24.098  1.00  0.00     0.016 A 
ATOM     34  C   UNL A   1      45.204  21.652  26.287  1.00  0.00     0.016 A 
ATOM     35  C   UNL A   1      44.792  23.873  24.653  1.00  0.00     0.010 A 
ATOM     36  C   UNL A   1      45.253  22.946  26.828  1.00  0.00     0.010 A 
ATOM     37  C   UNL A   1      45.082  24.073  26.006  1.00  0.00    -0.014 A 
BRANCH  37  38
ATOM     38  C   UNL A   1      45.391  25.452  26.491  1.00  0.00     0.031 A 
ATOM     39  C   UNL A   1      44.273  26.283  27.070  1.00  0.00     0.074 A 
ATOM     40  C   UNL A   1      46.649  25.931  26.547  1.00  0.00     0.049 A 
ATOM     41  N   UNL A   1      44.266  27.542  27.427  1.00  0.00    -0.248 NA
ATOM     42  C   UNL A   1      42.996  25.588  27.289  1.00  0.00     0.031 C 
ATOM     43  C   UNL A   1      47.855  25.189  26.182  1.00  0.00     0.029 A 
ATOM     44  N   UNL A   1      47.125  27.157  26.956  1.00  0.00    -0.354 N 
ATOM     45  C   UNL A   1      42.975  27.802  27.874  1.00  0.00     0.074 A 
ATOM     46  C   UNL A   1      42.230  26.566  27.743  1.00  0.00     0.031 C 
ATOM     47  C   UNL A   1      48.930  25.969  26.399  1.00  0.00     0.029 A 
ATOM     48  C   UNL A   1      48.489  27.293  26.834  1.00  0.00     0.049 A 
ATOM     49  H   UNL A   1      46.541  27.871  27.302  1.00  0.00     0.167 HD
ATOM     50  C   UNL A   1      42.453  28.964  28.341  1.00  0.00     0.034 A 
ATOM     51  C   UNL A   1      49.285  28.372  27.002  1.00  0.00     0.034 A 
ATOM     52  C   UNL A   1      43.204  30.187  28.485  1.00  0.00     0.049 A 
ATOM     53  C   UNL A   1      48.661  29.697  27.379  1.00  0.00     0.074 A 
ATOM     54  C   UNL A   1      42.758  31.434  28.892  1.00  0.00     0.029 A 
ATOM     55  N   UNL A   1      44.563  30.319  28.232  1.00  0.00    -0.354 N 
ATOM     56  N   UNL A   1      47.409  29.970  27.673  1.00  0.00    -0.248 NA
ATOM     57  C   UNL A   1      49.554  30.864  27.424  1.00  0.00     0.031 C 
ATOM     58  C   UNL A   1      43.829  32.330  28.822  1.00  0.00     0.029 A 
ATOM     59  C   UNL A   1      44.963  31.630  28.445  1.00  0.00     0.049 A 
ATOM     60  H   UNL A   1      45.156  29.589  27.943  1.00  0.00     0.167 HD
ATOM     61  C   UNL A   1      47.374  31.336  27.952  1.00  0.00     0.074 A 
ATOM     62  C   UNL A   1      48.729  31.826  27.813  1.00  0.00     0.031 C 
ATOM     63  C   UNL A   1      46.315  32.115  28.290  1.00  0.00     0.034 A 
BRANCH  50  64
ATOM     64  C   UNL A   1      40.972  28.982  28.629  1.00  0.00     0.023 A 
ATOM     65  C   UNL A   1      40.462  28.956  29.937  1.00  0.00     0.031 A 
ATOM     66  C   UNL A   1      40.056  28.962  27.561  1.00  0.00     0.131 A 
ATOM     67  C   UNL A   1      39.079  28.837  30.144  1.00  0.00     0.055 A 
ATOM     68  C   UNL A   1      38.678  28.923  27.775  1.00  0.00     0.041 A 
ATOM     69  F   UNL A   1      40.489  28.960  26.290  1.00  0.00    -0.206 F 
ATOM     70  C   UNL A   1      38.182  28.843  29.071  1.00  0.00     0.022 A 
BRANCH  67  71
ATOM     71  S   UNL A   1      38.474  28.516  31.824  1.00  0.00     0.124 S 
ATOM     72  O   UNL A   1      37.137  29.106  31.774  1.00  0.00    -0.237 OA
ATOM     73  O   UNL A   1      38.528  27.062  31.906  1.00  0.00    -0.237 OA
ATOM     74  O   UNL A   1      39.429  29.227  32.673  1.00  0.00    -0.744 OA
ENDBRANCH  67  71
ENDBRANCH  50  64
BRANCH  51  75
ATOM     75  C   UNL A   1      50.750  28.294  26.715  1.00  0.00     0.023 A 
ATOM     76  C   UNL A   1      51.259  28.514  25.424  1.00  0.00     0.031 A 
ATOM     77  C   UNL A   1      51.659  27.907  27.720  1.00  0.00     0.131 A 
ATOM     78  C   UNL A   1      52.624  28.305  25.163  1.00  0.00     0.055 A 
ATOM     79  C   UNL A   1      53.023  27.760  27.468  1.00  0.00     0.041 A 
ATOM     80  F   UNL A   1      51.227  27.662  28.967  1.00  0.00    -0.206 F 
ATOM     81  C   UNL A   1      53.511  27.947  26.181  1.00  0.00     0.022 A 
BRANCH  78  82
ATOM     82  S   UNL A   1      53.212  28.415  23.450  1.00  0.00     0.124 S 
ATOM     83  O   UNL A   1      52.401  27.397  22.792  1.00  0.00    -0.237 OA
ATOM     84  O   UNL A   1      52.905  29.800  23.111  1.00  0.00    -0.237 OA
ATOM     85  O   UNL A   1      54.637  28.103  23.558  1.00  0.00    -0.744 OA
ENDBRANCH  78  82
ENDBRANCH  51  75
BRANCH  63  86
ATOM     86  C   UNL A   1      46.589  33.574  28.572  1.00  0.00     0.023 A 
ATOM     87  C   UNL A   1      46.579  34.541  27.552  1.00  0.00     0.031 A 
ATOM     88  C   UNL A   1      46.867  34.000  29.884  1.00  0.00     0.131 A 
ATOM     89  C   UNL A   1      46.886  35.877  27.852  1.00  0.00     0.055 A 
ATOM     90  C   UNL A   1      47.120  35.339  30.185  1.00  0.00     0.041 A 
ATOM     91  F   UNL A   1      46.891  33.119  30.897  1.00  0.00    -0.206 F 
ATOM     92  C   UNL A   1      47.141  36.285  29.164  1.00  0.00     0.022 A 
BRANCH  89  93
ATOM     93  S   UNL A   1      47.024  37.071  26.492  1.00  0.00     0.124 S 
ATOM     94  O   UNL A   1      45.678  37.633  26.443  1.00  0.00    -0.237 OA
ATOM     95  O   UNL A   1      48.073  37.967  26.969  1.00  0.00    -0.237 OA
ATOM     96  O   UNL A   1      47.393  36.243  25.344  1.00  0.00    -0.744 OA
ENDBRANCH  89  93
ENDBRANCH  63  86
ENDBRANCH  37  38
ENDBRANCH  30  32
ENDBRANCH  29  30
ENDBRANCH  28  29
ENDBRANCH  27  28
ENDBRANCH  26  27
ENDBRANCH  25  26
ENDBRANCH   1  25
TORSDOF 24
ENDMDL
MODEL 3
REMARK VINA RESULT:      -9.1      1.709      7.856
REMARK SMILES CC(C)[C@@](C)(CC(=O)N[C@H]1CCCC1(C)C)C(=O)OCCOCCOCCOC(=O)c1ccc(-c2c3nc(c(-c4cc(S(=O)(=O)[O-])ccc4F)c4ccc([nH]4)c(-c4cc(S(=O)(=O)[O-])ccc4F)c4nc(c(-c5cc(S(=O)(=O)[O-])ccc5F)c5ccc2[nH]5)C=C4)C=C3)cc1
REMARK SMILES IDX 23 1 22 2 21 3 20 4 19 5 17 6 18 7 4 8 5 9 2 10 1 11 3 12
REMARK SMILES IDX 6 13 7 14 8 15 9 16 10 18 11 19 14 20 12 21 13 22 15 23
REMARK SMILES IDX 16 24 24 25 25 26 26 27 27 28 28 29 29 30 30 31 31 32 32 33
REMARK SMILES IDX 93 34 33 35 92 36 34 37 35 38 36 39 86 40 37 41 91 42 85 43
REMARK SMILES IDX 87 44 38 45 90 46 84 47 83 48 39 50 71 51 51 52 70 53 52 54
REMARK SMILES IDX 55 55 69 56 88 57 53 58 54 59 68 61 89 62 56 63 40 64 41 65
REMARK SMILES IDX 49 66 42 67 48 68 50 69 47 70 43 71 44 72 45 73 46 74 72 75
REMARK SMILES IDX 73 76 81 77 74 78 80 79 82 80 79 81 75 82 76 83 77 84 78 85
REMARK SMILES IDX 57 86 58 87 66 88 59 89 65 90 67 91 64 92 60 93 61 94 62 95
REMARK SMILES IDX 63 96
REMARK H PARENT 9 17 87 49 55 60
REMARK Flexibility Score: inf
ROOT
ATOM      1  C   UNL A   1      39.574  21.546  26.104  1.00  0.00     0.188 C 
ENDROOT
BRANCH   1   2
ATOM      2  O   UNL A   1      38.342  22.262  26.138  1.00  0.00    -0.376 OA
BRANCH   2   3
ATOM      3  C   UNL A   1      37.324  21.861  25.233  1.00  0.00     0.202 C 
BRANCH   3   4
ATOM      4  C   UNL A   1      36.783  22.956  24.313  1.00  0.00     0.261 C 
BRANCH   4   5
ATOM      5  O   UNL A   1      35.415  22.761  23.875  1.00  0.00    -0.463 OA
BRANCH   5   6
ATOM      6  C   UNL A   1      34.488  23.227  24.743  1.00  0.00     0.312 C 
ATOM      7  O   UNL A   1      34.716  24.174  25.494  1.00  0.00    -0.252 OA
BRANCH   6   8
ATOM      8  C   UNL A   1      33.126  22.486  24.780  1.00  0.00     0.076 C 
ATOM      9  C   UNL A   1      32.934  22.146  23.261  1.00  0.00     0.024 C 
BRANCH   8  10
ATOM     10  C   UNL A   1      33.303  21.175  25.616  1.00  0.00     0.000 C 
ATOM     11  C   UNL A   1      34.014  20.007  24.910  1.00  0.00     0.008 C 
ATOM     12  C   UNL A   1      34.017  21.405  26.952  1.00  0.00     0.008 C 
ENDBRANCH   8  10
BRANCH   8  13
ATOM     13  C   UNL A   1      31.808  23.283  25.096  1.00  0.00     0.118 C 
BRANCH  13  14
ATOM     14  C   UNL A   1      31.596  24.422  26.098  1.00  0.00     0.221 C 
ATOM     15  O   UNL A   1      31.275  24.156  27.261  1.00  0.00    -0.275 OA
ATOM     16  N   UNL A   1      31.885  25.728  25.871  1.00  0.00    -0.353 N 
ATOM     17  H   UNL A   1      31.723  26.304  26.652  1.00  0.00     0.163 HD
BRANCH  16  18
ATOM     18  C   UNL A   1      32.386  26.459  24.711  1.00  0.00     0.087 C 
ATOM     19  C   UNL A   1      31.214  26.814  23.785  1.00  0.00     0.025 C 
ATOM     20  C   UNL A   1      32.990  27.847  25.037  1.00  0.00    -0.015 C 
ATOM     21  C   UNL A   1      30.734  28.211  24.196  1.00  0.00     0.003 C 
ATOM     22  C   UNL A   1      31.756  28.747  25.193  1.00  0.00     0.008 C 
ATOM     23  C   UNL A   1      33.856  27.861  26.298  1.00  0.00     0.013 C 
ATOM     24  C   UNL A   1      33.844  28.328  23.844  1.00  0.00     0.013 C 
ENDBRANCH  16  18
ENDBRANCH  13  14
ENDBRANCH   8  13
ENDBRANCH   6   8
ENDBRANCH   5   6
ENDBRANCH   4   5
ENDBRANCH   3   4
ENDBRANCH   2   3
ENDBRANCH   1   2
BRANCH   1  25
ATOM     25  C   UNL A   1      40.584  21.783  27.228  1.00  0.00     0.188 C 
BRANCH  25  26
ATOM     26  O   UNL A   1      41.489  20.699  27.401  1.00  0.00    -0.376 OA
BRANCH  26  27
ATOM     27  C   UNL A   1      41.311  19.659  26.450  1.00  0.00     0.202 C 
BRANCH  27  28
ATOM     28  C   UNL A   1      42.658  19.340  25.806  1.00  0.00     0.261 C 
BRANCH  28  29
ATOM     29  O   UNL A   1      43.184  20.441  25.035  1.00  0.00    -0.460 OA
BRANCH  29  30
ATOM     30  C   UNL A   1      44.485  20.349  24.705  1.00  0.00     0.338 C 
ATOM     31  O   UNL A   1      45.041  19.401  24.157  1.00  0.00    -0.246 OA
BRANCH  30  32
ATOM     32  C   UNL A   1      45.145  21.621  25.024  1.00  0.00     0.060 A 
ATOM     33  C   UNL A   1      45.381  21.950  26.361  1.00  0.00     0.016 A 
ATOM     34  C   UNL A   1      45.466  22.529  24.006  1.00  0.00     0.016 A 
ATOM     35  C   UNL A   1      45.904  23.203  26.675  1.00  0.00     0.010 A 
ATOM     36  C   UNL A   1      45.984  23.789  24.341  1.00  0.00     0.010 A 
ATOM     37  C   UNL A   1      46.175  24.152  25.685  1.00  0.00    -0.014 A 
BRANCH  37  38
ATOM     38  C   UNL A   1      46.466  25.562  26.083  1.00  0.00     0.031 A 
ATOM     39  C   UNL A   1      45.328  26.427  26.565  1.00  0.00     0.074 A 
ATOM     40  C   UNL A   1      47.721  26.049  26.146  1.00  0.00     0.049 A 
ATOM     41  N   UNL A   1      45.307  27.707  26.833  1.00  0.00    -0.248 NA
ATOM     42  C   UNL A   1      44.046  25.743  26.789  1.00  0.00     0.031 C 
ATOM     43  C   UNL A   1      48.939  25.289  25.873  1.00  0.00     0.029 A 
ATOM     44  N   UNL A   1      48.180  27.302  26.484  1.00  0.00    -0.354 N 
ATOM     45  C   UNL A   1      44.001  27.993  27.218  1.00  0.00     0.074 A 
ATOM     46  C   UNL A   1      43.264  26.748  27.150  1.00  0.00     0.031 C 
ATOM     47  C   UNL A   1      50.005  26.086  26.070  1.00  0.00     0.029 A 
ATOM     48  C   UNL A   1      49.548  27.435  26.398  1.00  0.00     0.049 A 
ATOM     49  H   UNL A   1      47.584  28.036  26.760  1.00  0.00     0.167 HD
ATOM     50  C   UNL A   1      43.462  29.183  27.586  1.00  0.00     0.034 A 
ATOM     51  C   UNL A   1      50.335  28.526  26.516  1.00  0.00     0.034 A 
ATOM     52  C   UNL A   1      44.206  30.416  27.669  1.00  0.00     0.049 A 
ATOM     53  C   UNL A   1      49.697  29.871  26.779  1.00  0.00     0.074 A 
ATOM     54  C   UNL A   1      43.745  31.686  27.973  1.00  0.00     0.029 A 
ATOM     55  N   UNL A   1      45.572  30.535  27.452  1.00  0.00    -0.354 N 
ATOM     56  N   UNL A   1      48.436  30.160  27.012  1.00  0.00    -0.248 NA
ATOM     57  C   UNL A   1      50.586  31.043  26.772  1.00  0.00     0.031 C 
ATOM     58  C   UNL A   1      44.816  32.579  27.877  1.00  0.00     0.029 A 
ATOM     59  C   UNL A   1      45.963  31.860  27.586  1.00  0.00     0.049 A 
ATOM     60  H   UNL A   1      46.176  29.789  27.234  1.00  0.00     0.167 HD
ATOM     61  C   UNL A   1      48.389  31.541  27.194  1.00  0.00     0.074 A 
ATOM     62  C   UNL A   1      49.747  32.026  27.065  1.00  0.00     0.031 C 
ATOM     63  C   UNL A   1      47.318  32.338  27.443  1.00  0.00     0.034 A 
BRANCH  50  64
ATOM     64  C   UNL A   1      41.973  29.214  27.823  1.00  0.00     0.023 A 
ATOM     65  C   UNL A   1      41.419  29.215  29.114  1.00  0.00     0.031 A 
ATOM     66  C   UNL A   1      41.093  29.180  26.726  1.00  0.00     0.131 A 
ATOM     67  C   UNL A   1      40.028  29.108  29.276  1.00  0.00     0.055 A 
ATOM     68  C   UNL A   1      39.709  29.152  26.893  1.00  0.00     0.041 A 
ATOM     69  F   UNL A   1      41.569  29.152  25.470  1.00  0.00    -0.206 F 
ATOM     70  C   UNL A   1      39.168  29.100  28.173  1.00  0.00     0.022 A 
BRANCH  67  71
ATOM     71  S   UNL A   1      39.366  28.823  30.940  1.00  0.00     0.124 S 
ATOM     72  O   UNL A   1      38.374  29.892  31.050  1.00  0.00    -0.237 OA
ATOM     73  O   UNL A   1      38.836  27.469  30.840  1.00  0.00    -0.237 OA
ATOM     74  O   UNL A   1      40.534  28.976  31.805  1.00  0.00    -0.744 OA
ENDBRANCH  67  71
ENDBRANCH  50  64
BRANCH  51  75
ATOM     75  C   UNL A   1      51.810  28.434  26.284  1.00  0.00     0.023 A 
ATOM     76  C   UNL A   1      52.347  28.382  24.986  1.00  0.00     0.031 A 
ATOM     77  C   UNL A   1      52.701  28.306  27.367  1.00  0.00     0.131 A 
ATOM     78  C   UNL A   1      53.724  28.165  24.805  1.00  0.00     0.055 A 
ATOM     79  C   UNL A   1      54.075  28.151  27.182  1.00  0.00     0.041 A 
ATOM     80  F   UNL A   1      52.243  28.327  28.628  1.00  0.00    -0.206 F 
ATOM     81  C   UNL A   1      54.592  28.067  25.895  1.00  0.00     0.022 A 
BRANCH  78  82
ATOM     82  S   UNL A   1      54.355  27.915  23.123  1.00  0.00     0.124 S 
ATOM     83  O   UNL A   1      53.483  28.789  22.346  1.00  0.00    -0.237 OA
ATOM     84  O   UNL A   1      55.744  28.344  23.252  1.00  0.00    -0.237 OA
ATOM     85  O   UNL A   1      54.166  26.483  22.897  1.00  0.00    -0.744 OA
ENDBRANCH  78  82
ENDBRANCH  51  75
BRANCH  63  86
ATOM     86  C   UNL A   1      47.581  33.813  27.631  1.00  0.00     0.023 A 
ATOM     87  C   UNL A   1      47.932  34.351  28.882  1.00  0.00     0.031 A 
ATOM     88  C   UNL A   1      47.474  34.695  26.541  1.00  0.00     0.131 A 
ATOM     89  C   UNL A   1      48.121  35.734  29.022  1.00  0.00     0.055 A 
ATOM     90  C   UNL A   1      47.715  36.063  26.674  1.00  0.00     0.041 A 
ATOM     91  F   UNL A   1      47.141  34.238  25.323  1.00  0.00    -0.206 F 
ATOM     92  C   UNL A   1      48.029  36.592  27.923  1.00  0.00     0.022 A 
BRANCH  89  93
ATOM     93  S   UNL A   1      48.414  36.416  30.678  1.00  0.00     0.124 S 
ATOM     94  O   UNL A   1      47.568  35.566  31.510  1.00  0.00    -0.237 OA
ATOM     95  O   UNL A   1      49.853  36.237  30.839  1.00  0.00    -0.237 OA
ATOM     96  O   UNL A   1      47.972  37.805  30.562  1.00  0.00    -0.744 OA
ENDBRANCH  89  93
ENDBRANCH  63  86
ENDBRANCH  37  38
ENDBRANCH  30  32
ENDBRANCH  29  30
ENDBRANCH  28  29
ENDBRANCH  27  28
ENDBRANCH  26  27
ENDBRANCH  25  26
ENDBRANCH   1  25
TORSDOF 24
ENDMDL
