MODEL 1
REMARK VINA RESULT:      -9.3      0.000      0.000
REMARK SMILES COc1cc2c(cc1OC)-c1c(c(C(=O)Nc3ccc(C(=O)OCCOCCOCCOC(=O)c4ccc(-c5c6nc(c(-c7cc(S(=O)(=O)[O-])ccc7F)c7ccc([nH]7)c(-c7cc(S(=O)(=O)[O-])ccc7F)c7nc(c(-c8cc(S(=O)(=O)[O-])ccc8F)c8ccc5[nH]8)C=C7)C=C6)cc4)cc3)nn1-c1ccc(F)cc1)C2
REMARK SMILES IDX 27 1 26 2 25 3 24 4 23 5 21 6 22 7 20 8 17 9 18 10 99 11
REMARK SMILES IDX 19 12 98 13 16 14 14 15 15 16 13 18 3 19 4 20 8 21 5 22 7 23
REMARK SMILES IDX 6 24 109 25 11 26 12 27 101 28 100 29 2 30 1 31 9 32 10 33
REMARK SMILES IDX 102 34 103 35 108 36 104 37 107 38 105 39 106 40 28 41 29 42
REMARK SMILES IDX 30 43 31 44 32 45 33 46 34 47 35 48 36 49 97 50 37 51 96 52
REMARK SMILES IDX 38 53 39 54 40 55 90 56 41 57 95 58 89 59 91 60 42 61 94 62
REMARK SMILES IDX 88 63 87 64 43 66 75 67 55 68 74 69 56 70 59 71 73 72 92 73
REMARK SMILES IDX 57 74 58 75 72 77 93 78 60 79 44 80 45 81 53 82 46 83 52 84
REMARK SMILES IDX 54 85 51 86 47 87 48 88 49 89 50 90 76 91 77 92 85 93 78 94
REMARK SMILES IDX 84 95 86 96 83 97 79 98 80 99 81 100 82 101 61 102 62 103
REMARK SMILES IDX 70 104 63 105 69 106 71 107 68 108 64 109 65 110 66 111
REMARK SMILES IDX 67 112
REMARK H PARENT 16 17 91 65 59 76
REMARK Flexibility Score: inf
ROOT
ATOM      1  C   UNL A   1      33.118  35.590  32.584  1.00  0.00     0.188 C 
ENDROOT
BRANCH   1   2
ATOM      2  O   UNL A   1      32.675  35.228  31.288  1.00  0.00    -0.376 OA
BRANCH   2   3
ATOM      3  C   UNL A   1      33.602  34.961  30.238  1.00  0.00     0.202 C 
BRANCH   3   4
ATOM      4  C   UNL A   1      34.289  33.595  30.030  1.00  0.00     0.261 C 
BRANCH   4   5
ATOM      5  O   UNL A   1      34.190  33.040  28.702  1.00  0.00    -0.460 OA
BRANCH   5   6
ATOM      6  C   UNL A   1      35.352  32.921  28.017  1.00  0.00     0.338 C 
ATOM      7  O   UNL A   1      35.867  33.817  27.365  1.00  0.00    -0.246 OA
BRANCH   6   8
ATOM      8  C   UNL A   1      36.082  31.663  28.376  1.00  0.00     0.060 A 
ATOM      9  C   UNL A   1      37.626  29.608  29.623  1.00  0.00     0.041 A 
ATOM     10  C   UNL A   1      38.079  30.907  29.578  1.00  0.00     0.027 A 
ATOM     11  C   UNL A   1      36.482  29.303  28.869  1.00  0.00     0.027 A 
ATOM     12  C   UNL A   1      37.287  31.904  29.001  1.00  0.00     0.018 A 
ATOM     13  C   UNL A   1      35.690  30.332  28.271  1.00  0.00     0.018 A 
BRANCH   9  14
ATOM     14  N   UNL A   1      38.292  28.636  30.416  1.00  0.00    -0.321 N 
ATOM     15  C   UNL A   1      38.867  27.398  30.069  1.00  0.00     0.276 C 
ATOM     16  O   UNL A   1      38.632  26.417  30.774  1.00  0.00    -0.267 OA
ATOM     17  H   UNL A   1      38.365  28.867  31.370  1.00  0.00     0.170 HD
BRANCH  15  18
ATOM     18  C   UNL A   1      39.894  27.309  28.976  1.00  0.00     0.155 A 
ATOM     19  C   UNL A   1      42.117  21.898  26.147  1.00  0.00     0.161 A 
ATOM     20  C   UNL A   1      40.542  22.614  26.591  1.00  0.00     0.055 A 
ATOM     21  C   UNL A   1      43.478  23.035  25.850  1.00  0.00     0.161 A 
ATOM     22  C   UNL A   1      40.283  24.401  26.713  1.00  0.00    -0.030 A 
ATOM     23  C   UNL A   1      43.125  25.009  26.108  1.00  0.00     0.061 A 
ATOM     24  C   UNL A   1      41.536  25.592  26.476  1.00  0.00     0.008 A 
ATOM     25  C   UNL A   1      39.299  25.084  27.607  1.00  0.00     0.076 C 
ATOM     26  C   UNL A   1      41.099  26.735  27.206  1.00  0.00     0.079 A 
ATOM     27  C   UNL A   1      39.959  26.401  27.898  1.00  0.00     0.016 A 
ATOM     28  N   UNL A   1      41.686  27.818  27.803  1.00  0.00    -0.232 N 
ATOM     29  N   UNL A   1      40.968  28.158  28.915  1.00  0.00    -0.162 NA
BRANCH  19  30
ATOM     30  O   UNL A   1      42.281  20.550  26.346  1.00  0.00    -0.493 OA
ATOM     31  C   UNL A   1      43.148  19.912  25.403  1.00  0.00     0.278 C 
ENDBRANCH  19  30
BRANCH  21  32
ATOM     32  O   UNL A   1      44.653  22.329  25.463  1.00  0.00    -0.493 OA
ATOM     33  C   UNL A   1      45.110  22.585  24.120  1.00  0.00     0.278 C 
ENDBRANCH  21  32
BRANCH  28  34
ATOM     34  C   UNL A   1      42.887  28.500  27.392  1.00  0.00     0.065 A 
ATOM     35  C   UNL A   1      42.894  29.877  27.099  1.00  0.00     0.031 A 
ATOM     36  C   UNL A   1      44.108  27.800  27.334  1.00  0.00     0.031 A 
ATOM     37  C   UNL A   1      44.112  30.552  26.894  1.00  0.00     0.041 A 
ATOM     38  C   UNL A   1      45.314  28.471  27.089  1.00  0.00     0.041 A 
ATOM     39  C   UNL A   1      45.310  29.847  26.901  1.00  0.00     0.123 A 
ATOM     40  F   UNL A   1      46.475  30.487  26.723  1.00  0.00    -0.207 F 
ENDBRANCH  28  34
ENDBRANCH  15  18
ENDBRANCH   9  14
ENDBRANCH   6   8
ENDBRANCH   5   6
ENDBRANCH   4   5
ENDBRANCH   3   4
ENDBRANCH   2   3
ENDBRANCH   1   2
BRANCH   1  41
ATOM     41  C   UNL A   1      34.594  36.056  32.589  1.00  0.00     0.188 C 
BRANCH  41  42
ATOM     42  O   UNL A   1      35.508  35.381  33.450  1.00  0.00    -0.376 OA
BRANCH  42  43
ATOM     43  C   UNL A   1      35.162  34.045  33.846  1.00  0.00     0.202 C 
BRANCH  43  44
ATOM     44  C   UNL A   1      36.181  32.895  33.523  1.00  0.00     0.261 C 
BRANCH  44  45
ATOM     45  O   UNL A   1      36.964  32.472  34.674  1.00  0.00    -0.460 OA
BRANCH  45  46
ATOM     46  C   UNL A   1      38.300  32.755  34.891  1.00  0.00     0.338 C 
ATOM     47  O   UNL A   1      38.755  33.783  35.349  1.00  0.00    -0.246 OA
BRANCH  46  48
ATOM     48  C   UNL A   1      39.060  31.502  34.511  1.00  0.00     0.060 A 
ATOM     49  C   UNL A   1      38.777  30.066  33.459  1.00  0.00     0.016 A 
ATOM     50  C   UNL A   1      40.582  31.495  35.407  1.00  0.00     0.016 A 
ATOM     51  C   UNL A   1      39.971  28.655  33.358  1.00  0.00     0.010 A 
ATOM     52  C   UNL A   1      41.870  29.969  35.214  1.00  0.00     0.010 A 
ATOM     53  C   UNL A   1      41.536  28.594  34.258  1.00  0.00    -0.014 A 
BRANCH  53  54
ATOM     54  C   UNL A   1      42.873  27.858  34.078  1.00  0.00     0.031 A 
ATOM     55  C   UNL A   1      42.947  26.812  35.053  1.00  0.00     0.074 A 
ATOM     56  C   UNL A   1      43.930  27.937  33.170  1.00  0.00     0.049 A 
ATOM     57  N   UNL A   1      43.300  27.047  36.272  1.00  0.00    -0.248 NA
ATOM     58  C   UNL A   1      42.416  25.489  34.788  1.00  0.00     0.031 C 
ATOM     59  C   UNL A   1      44.356  29.129  32.431  1.00  0.00     0.029 A 
ATOM     60  N   UNL A   1      44.899  27.000  32.694  1.00  0.00    -0.354 N 
ATOM     61  C   UNL A   1      43.514  25.779  36.726  1.00  0.00     0.074 A 
ATOM     62  C   UNL A   1      42.547  24.966  36.013  1.00  0.00     0.031 C 
ATOM     63  C   UNL A   1      45.358  28.820  31.572  1.00  0.00     0.029 A 
ATOM     64  C   UNL A   1      45.605  27.368  31.497  1.00  0.00     0.049 A 
ATOM     65  H   UNL A   1      45.073  26.150  33.160  1.00  0.00     0.167 HD
ATOM     66  C   UNL A   1      44.788  25.427  37.074  1.00  0.00     0.034 A 
ATOM     67  C   UNL A   1      46.754  26.917  30.849  1.00  0.00     0.034 A 
ATOM     68  C   UNL A   1      45.711  26.555  37.109  1.00  0.00     0.049 A 
ATOM     69  C   UNL A   1      47.723  26.708  31.931  1.00  0.00     0.074 A 
ATOM     70  C   UNL A   1      45.633  27.850  37.590  1.00  0.00     0.029 A 
ATOM     71  N   UNL A   1      46.796  26.531  36.261  1.00  0.00    -0.354 N 
ATOM     72  N   UNL A   1      48.406  27.638  32.517  1.00  0.00    -0.248 NA
ATOM     73  C   UNL A   1      47.736  25.403  32.569  1.00  0.00     0.031 C 
ATOM     74  C   UNL A   1      46.502  28.639  36.795  1.00  0.00     0.029 A 
ATOM     75  C   UNL A   1      47.204  27.807  35.928  1.00  0.00     0.049 A 
ATOM     76  H   UNL A   1      47.227  25.708  35.935  1.00  0.00     0.167 HD
ATOM     77  C   UNL A   1      48.363  27.231  33.827  1.00  0.00     0.074 A 
ATOM     78  C   UNL A   1      48.163  25.788  33.769  1.00  0.00     0.031 C 
ATOM     79  C   UNL A   1      48.057  28.143  34.789  1.00  0.00     0.034 A 
BRANCH  66  80
ATOM     80  C   UNL A   1      45.216  23.995  37.037  1.00  0.00     0.023 A 
ATOM     81  C   UNL A   1      45.351  23.203  38.193  1.00  0.00     0.031 A 
ATOM     82  C   UNL A   1      45.502  23.384  35.815  1.00  0.00     0.131 A 
ATOM     83  C   UNL A   1      45.954  21.950  38.141  1.00  0.00     0.055 A 
ATOM     84  C   UNL A   1      45.985  22.076  35.747  1.00  0.00     0.041 A 
ATOM     85  F   UNL A   1      45.327  24.049  34.663  1.00  0.00    -0.206 F 
ATOM     86  C   UNL A   1      46.257  21.367  36.917  1.00  0.00     0.022 A 
BRANCH  83  87
ATOM     87  S   UNL A   1      46.491  21.145  39.676  1.00  0.00     0.124 S 
ATOM     88  O   UNL A   1      45.867  19.834  39.558  1.00  0.00    -0.237 OA
ATOM     89  O   UNL A   1      47.945  21.176  39.534  1.00  0.00    -0.237 OA
ATOM     90  O   UNL A   1      45.964  22.020  40.721  1.00  0.00    -0.744 OA
ENDBRANCH  83  87
ENDBRANCH  66  80
BRANCH  67  91
ATOM     91  C   UNL A   1      47.114  26.194  29.522  1.00  0.00     0.023 A 
ATOM     92  C   UNL A   1      48.200  26.471  28.660  1.00  0.00     0.031 A 
ATOM     93  C   UNL A   1      46.217  25.212  29.002  1.00  0.00     0.131 A 
ATOM     94  C   UNL A   1      48.342  25.849  27.382  1.00  0.00     0.055 A 
ATOM     95  C   UNL A   1      46.321  24.641  27.718  1.00  0.00     0.041 A 
ATOM     96  F   UNL A   1      45.165  24.790  29.721  1.00  0.00    -0.206 F 
ATOM     97  C   UNL A   1      47.384  24.966  26.897  1.00  0.00     0.022 A 
BRANCH  94  98
ATOM     98  S   UNL A   1      49.785  26.139  26.286  1.00  0.00     0.124 S 
ATOM     99  O   UNL A   1      50.214  27.490  26.644  1.00  0.00    -0.237 OA
ATOM    100  O   UNL A   1      50.698  25.079  26.681  1.00  0.00    -0.237 OA
ATOM    101  O   UNL A   1      49.238  26.036  24.937  1.00  0.00    -0.744 OA
ENDBRANCH  94  98
ENDBRANCH  67  91
BRANCH  79 102
ATOM    102  C   UNL A   1      48.425  29.618  34.577  1.00  0.00     0.023 A 
ATOM    103  C   UNL A   1      47.420  30.414  33.999  1.00  0.00     0.031 A 
ATOM    104  C   UNL A   1      49.671  30.252  34.779  1.00  0.00     0.131 A 
ATOM    105  C   UNL A   1      47.687  31.715  33.552  1.00  0.00     0.055 A 
ATOM    106  C   UNL A   1      49.929  31.566  34.360  1.00  0.00     0.041 A 
ATOM    107  F   UNL A   1      50.708  29.649  35.363  1.00  0.00    -0.206 F 
ATOM    108  C   UNL A   1      48.943  32.296  33.718  1.00  0.00     0.022 A 
BRANCH 105 109
ATOM    109  S   UNL A   1      46.424  32.651  32.660  1.00  0.00     0.124 S 
ATOM    110  O   UNL A   1      45.211  32.305  33.397  1.00  0.00    -0.237 OA
ATOM    111  O   UNL A   1      46.887  34.027  32.825  1.00  0.00    -0.237 OA
ATOM    112  O   UNL A   1      46.495  32.130  31.299  1.00  0.00    -0.744 OA
ENDBRANCH 105 109
ENDBRANCH  79 102
ENDBRANCH  53  54
ENDBRANCH  46  48
ENDBRANCH  45  46
ENDBRANCH  44  45
ENDBRANCH  43  44
ENDBRANCH  42  43
ENDBRANCH  41  42
ENDBRANCH   1  41
TORSDOF 25
ENDMDL
MODEL 2
REMARK VINA RESULT:      -8.4      1.866      2.198
REMARK SMILES COc1cc2c(cc1OC)-c1c(c(C(=O)Nc3ccc(C(=O)OCCOCCOCCOC(=O)c4ccc(-c5c6nc(c(-c7cc(S(=O)(=O)[O-])ccc7F)c7ccc([nH]7)c(-c7cc(S(=O)(=O)[O-])ccc7F)c7nc(c(-c8cc(S(=O)(=O)[O-])ccc8F)c8ccc5[nH]8)C=C7)C=C6)cc4)cc3)nn1-c1ccc(F)cc1)C2
REMARK SMILES IDX 27 1 26 2 25 3 24 4 23 5 21 6 22 7 20 8 17 9 18 10 99 11
REMARK SMILES IDX 19 12 98 13 16 14 14 15 15 16 13 18 3 19 4 20 8 21 5 22 7 23
REMARK SMILES IDX 6 24 109 25 11 26 12 27 101 28 100 29 2 30 1 31 9 32 10 33
REMARK SMILES IDX 102 34 103 35 108 36 104 37 107 38 105 39 106 40 28 41 29 42
REMARK SMILES IDX 30 43 31 44 32 45 33 46 34 47 35 48 36 49 97 50 37 51 96 52
REMARK SMILES IDX 38 53 39 54 40 55 90 56 41 57 95 58 89 59 91 60 42 61 94 62
REMARK SMILES IDX 88 63 87 64 43 66 75 67 55 68 74 69 56 70 59 71 73 72 92 73
REMARK SMILES IDX 57 74 58 75 72 77 93 78 60 79 44 80 45 81 53 82 46 83 52 84
REMARK SMILES IDX 54 85 51 86 47 87 48 88 49 89 50 90 76 91 77 92 85 93 78 94
REMARK SMILES IDX 84 95 86 96 83 97 79 98 80 99 81 100 82 101 61 102 62 103
REMARK SMILES IDX 70 104 63 105 69 106 71 107 68 108 64 109 65 110 66 111
REMARK SMILES IDX 67 112
REMARK H PARENT 16 17 91 65 59 76
REMARK Flexibility Score: inf
ROOT
ATOM      1  C   UNL A   1      33.111  35.990  32.405  1.00  0.00     0.188 C 
ENDROOT
BRANCH   1   2
ATOM      2  O   UNL A   1      32.643  35.676  31.105  1.00  0.00    -0.376 OA
BRANCH   2   3
ATOM      3  C   UNL A   1      33.537  35.252  30.080  1.00  0.00     0.202 C 
BRANCH   3   4
ATOM      4  C   UNL A   1      34.105  33.820  29.980  1.00  0.00     0.261 C 
BRANCH   4   5
ATOM      5  O   UNL A   1      33.974  33.183  28.691  1.00  0.00    -0.460 OA
BRANCH   5   6
ATOM      6  C   UNL A   1      35.113  33.052  27.972  1.00  0.00     0.338 C 
ATOM      7  O   UNL A   1      35.582  33.920  27.252  1.00  0.00    -0.246 OA
BRANCH   6   8
ATOM      8  C   UNL A   1      35.887  31.835  28.376  1.00  0.00     0.060 A 
ATOM      9  C   UNL A   1      37.507  29.883  29.693  1.00  0.00     0.041 A 
ATOM     10  C   UNL A   1      37.914  31.195  29.596  1.00  0.00     0.027 A 
ATOM     11  C   UNL A   1      36.370  29.511  28.958  1.00  0.00     0.027 A 
ATOM     12  C   UNL A   1      37.086  32.141  28.985  1.00  0.00     0.018 A 
ATOM     13  C   UNL A   1      35.542  30.488  28.325  1.00  0.00     0.018 A 
BRANCH   9  14
ATOM     14  N   UNL A   1      38.209  28.967  30.520  1.00  0.00    -0.321 N 
ATOM     15  C   UNL A   1      38.840  27.745  30.215  1.00  0.00     0.276 C 
ATOM     16  O   UNL A   1      38.643  26.777  30.948  1.00  0.00    -0.267 OA
ATOM     17  H   UNL A   1      38.264  29.230  31.467  1.00  0.00     0.170 HD
BRANCH  15  18
ATOM     18  C   UNL A   1      39.877  27.668  29.132  1.00  0.00     0.155 A 
ATOM     19  C   UNL A   1      41.842  22.331  25.988  1.00  0.00     0.161 A 
ATOM     20  C   UNL A   1      40.302  23.104  26.458  1.00  0.00     0.055 A 
ATOM     21  C   UNL A   1      43.269  23.406  25.781  1.00  0.00     0.161 A 
ATOM     22  C   UNL A   1      40.141  24.892  26.691  1.00  0.00    -0.030 A 
ATOM     23  C   UNL A   1      43.022  25.376  26.161  1.00  0.00     0.061 A 
ATOM     24  C   UNL A   1      41.462  26.023  26.546  1.00  0.00     0.008 A 
ATOM     25  C   UNL A   1      39.182  25.571  27.615  1.00  0.00     0.076 C 
ATOM     26  C   UNL A   1      41.077  27.140  27.343  1.00  0.00     0.079 A 
ATOM     27  C   UNL A   1      39.909  26.828  27.998  1.00  0.00     0.016 A 
ATOM     28  N   UNL A   1      41.714  28.148  28.015  1.00  0.00    -0.232 N 
ATOM     29  N   UNL A   1      40.998  28.458  29.138  1.00  0.00    -0.162 NA
BRANCH  19  30
ATOM     30  O   UNL A   1      41.928  20.966  26.102  1.00  0.00    -0.493 OA
ATOM     31  C   UNL A   1      42.029  20.487  27.447  1.00  0.00     0.278 C 
ENDBRANCH  19  30
BRANCH  21  32
ATOM     32  O   UNL A   1      44.408  22.660  25.365  1.00  0.00    -0.493 OA
ATOM     33  C   UNL A   1      44.904  22.979  24.049  1.00  0.00     0.278 C 
ENDBRANCH  21  32
BRANCH  28  34
ATOM     34  C   UNL A   1      42.957  28.786  27.664  1.00  0.00     0.065 A 
ATOM     35  C   UNL A   1      44.052  28.054  27.168  1.00  0.00     0.031 A 
ATOM     36  C   UNL A   1      43.079  30.187  27.758  1.00  0.00     0.031 A 
ATOM     37  C   UNL A   1      45.177  28.724  26.650  1.00  0.00     0.041 A 
ATOM     38  C   UNL A   1      44.219  30.845  27.278  1.00  0.00     0.041 A 
ATOM     39  C   UNL A   1      45.246  30.111  26.700  1.00  0.00     0.123 A 
ATOM     40  F   UNL A   1      46.309  30.755  26.194  1.00  0.00    -0.207 F 
ENDBRANCH  28  34
ENDBRANCH  15  18
ENDBRANCH   9  14
ENDBRANCH   6   8
ENDBRANCH   5   6
ENDBRANCH   4   5
ENDBRANCH   3   4
ENDBRANCH   2   3
ENDBRANCH   1   2
BRANCH   1  41
ATOM     41  C   UNL A   1      34.640  36.224  32.435  1.00  0.00     0.188 C 
BRANCH  41  42
ATOM     42  O   UNL A   1      35.393  35.608  33.477  1.00  0.00    -0.376 OA
BRANCH  42  43
ATOM     43  C   UNL A   1      34.842  34.417  34.060  1.00  0.00     0.202 C 
BRANCH  43  44
ATOM     44  C   UNL A   1      35.606  33.065  33.832  1.00  0.00     0.261 C 
BRANCH  44  45
ATOM     45  O   UNL A   1      36.390  32.639  34.980  1.00  0.00    -0.460 OA
BRANCH  45  46
ATOM     46  C   UNL A   1      37.650  33.100  35.314  1.00  0.00     0.338 C 
ATOM     47  O   UNL A   1      37.908  33.989  36.099  1.00  0.00    -0.246 OA
BRANCH  46  48
ATOM     48  C   UNL A   1      38.630  32.224  34.562  1.00  0.00     0.060 A 
ATOM     49  C   UNL A   1      38.973  31.825  32.838  1.00  0.00     0.016 A 
ATOM     50  C   UNL A   1      39.623  31.374  35.748  1.00  0.00     0.016 A 
ATOM     51  C   UNL A   1      40.242  30.573  32.340  1.00  0.00     0.010 A 
ATOM     52  C   UNL A   1      41.029  30.072  35.153  1.00  0.00     0.010 A 
ATOM     53  C   UNL A   1      41.280  29.670  33.512  1.00  0.00    -0.014 A 
BRANCH  53  54
ATOM     54  C   UNL A   1      42.638  28.955  33.445  1.00  0.00     0.031 A 
ATOM     55  C   UNL A   1      42.734  28.063  34.560  1.00  0.00     0.074 A 
ATOM     56  C   UNL A   1      43.699  28.933  32.539  1.00  0.00     0.049 A 
ATOM     57  N   UNL A   1      43.071  28.481  35.734  1.00  0.00    -0.248 NA
ATOM     58  C   UNL A   1      42.243  26.700  34.486  1.00  0.00     0.031 C 
ATOM     59  C   UNL A   1      44.096  30.020  31.636  1.00  0.00     0.029 A 
ATOM     60  N   UNL A   1      44.698  27.967  32.205  1.00  0.00    -0.354 N 
ATOM     61  C   UNL A   1      43.318  27.298  36.367  1.00  0.00     0.074 A 
ATOM     62  C   UNL A   1      42.380  26.363  35.774  1.00  0.00     0.031 C 
ATOM     63  C   UNL A   1      45.113  29.619  30.835  1.00  0.00     0.029 A 
ATOM     64  C   UNL A   1      45.403  28.179  30.970  1.00  0.00     0.049 A 
ATOM     65  H   UNL A   1      44.893  27.198  32.789  1.00  0.00     0.167 HD
ATOM     66  C   UNL A   1      44.599  27.038  36.766  1.00  0.00     0.034 A 
ATOM     67  C   UNL A   1      46.569  27.674  30.398  1.00  0.00     0.034 A 
ATOM     68  C   UNL A   1      45.489  28.186  36.641  1.00  0.00     0.049 A 
ATOM     69  C   UNL A   1      47.535  27.651  31.502  1.00  0.00     0.074 A 
ATOM     70  C   UNL A   1      45.371  29.534  36.930  1.00  0.00     0.029 A 
ATOM     71  N   UNL A   1      46.581  28.072  35.809  1.00  0.00    -0.354 N 
ATOM     72  N   UNL A   1      48.186  28.676  31.950  1.00  0.00    -0.248 NA
ATOM     73  C   UNL A   1      47.581  26.453  32.321  1.00  0.00     0.031 C 
ATOM     74  C   UNL A   1      46.223  30.225  36.033  1.00  0.00     0.029 A 
ATOM     75  C   UNL A   1      46.954  29.299  35.297  1.00  0.00     0.049 A 
ATOM     76  H   UNL A   1      47.038  27.223  35.606  1.00  0.00     0.167 HD
ATOM     77  C   UNL A   1      48.145  28.461  33.305  1.00  0.00     0.074 A 
ATOM     78  C   UNL A   1      47.987  27.018  33.454  1.00  0.00     0.031 C 
ATOM     79  C   UNL A   1      47.806  29.493  34.125  1.00  0.00     0.034 A 
BRANCH  66  80
ATOM     80  C   UNL A   1      45.069  25.629  36.937  1.00  0.00     0.023 A 
ATOM     81  C   UNL A   1      45.444  24.808  35.856  1.00  0.00     0.031 A 
ATOM     82  C   UNL A   1      45.153  25.072  38.213  1.00  0.00     0.131 A 
ATOM     83  C   UNL A   1      45.668  23.446  36.030  1.00  0.00     0.055 A 
ATOM     84  C   UNL A   1      45.508  23.734  38.405  1.00  0.00     0.041 A 
ATOM     85  F   UNL A   1      44.885  25.812  39.300  1.00  0.00    -0.206 F 
ATOM     86  C   UNL A   1      45.723  22.902  37.307  1.00  0.00     0.022 A 
BRANCH  83  87
ATOM     87  S   UNL A   1      45.731  22.351  34.584  1.00  0.00     0.124 S 
ATOM     88  O   UNL A   1      45.172  23.202  33.543  1.00  0.00    -0.237 OA
ATOM     89  O   UNL A   1      47.162  22.076  34.484  1.00  0.00    -0.237 OA
ATOM     90  O   UNL A   1      44.919  21.207  34.990  1.00  0.00    -0.744 OA
ENDBRANCH  83  87
ENDBRANCH  66  80
BRANCH  67  91
ATOM     91  C   UNL A   1      46.960  26.779  29.190  1.00  0.00     0.023 A 
ATOM     92  C   UNL A   1      47.723  27.147  28.059  1.00  0.00     0.031 A 
ATOM     93  C   UNL A   1      46.414  25.462  29.099  1.00  0.00     0.131 A 
ATOM     94  C   UNL A   1      47.884  26.286  26.929  1.00  0.00     0.055 A 
ATOM     95  C   UNL A   1      46.521  24.634  27.963  1.00  0.00     0.041 A 
ATOM     96  F   UNL A   1      45.714  24.934  30.115  1.00  0.00    -0.206 F 
ATOM     97  C   UNL A   1      47.252  25.050  26.867  1.00  0.00     0.022 A 
BRANCH  94  98
ATOM     98  S   UNL A   1      48.934  26.719  25.488  1.00  0.00     0.124 S 
ATOM     99  O   UNL A   1      48.452  28.045  25.105  1.00  0.00    -0.237 OA
ATOM    100  O   UNL A   1      50.272  26.690  26.055  1.00  0.00    -0.237 OA
ATOM    101  O   UNL A   1      48.639  25.682  24.504  1.00  0.00    -0.744 OA
ENDBRANCH  94  98
ENDBRANCH  67  91
BRANCH  79 102
ATOM    102  C   UNL A   1      48.133  30.931  33.704  1.00  0.00     0.023 A 
ATOM    103  C   UNL A   1      49.420  31.383  34.049  1.00  0.00     0.031 A 
ATOM    104  C   UNL A   1      47.280  31.894  33.121  1.00  0.00     0.131 A 
ATOM    105  C   UNL A   1      49.777  32.733  33.922  1.00  0.00     0.055 A 
ATOM    106  C   UNL A   1      47.649  33.238  32.964  1.00  0.00     0.041 A 
ATOM    107  F   UNL A   1      46.049  31.609  32.692  1.00  0.00    -0.206 F 
ATOM    108  C   UNL A   1      48.893  33.671  33.391  1.00  0.00     0.022 A 
BRANCH 105 109
ATOM    109  S   UNL A   1      51.375  33.315  34.532  1.00  0.00     0.124 S 
ATOM    110  O   UNL A   1      52.029  33.756  33.302  1.00  0.00    -0.237 OA
ATOM    111  O   UNL A   1      50.984  34.381  35.451  1.00  0.00    -0.237 OA
ATOM    112  O   UNL A   1      51.963  32.137  35.162  1.00  0.00    -0.744 OA
ENDBRANCH 105 109
ENDBRANCH  79 102
ENDBRANCH  53  54
ENDBRANCH  46  48
ENDBRANCH  45  46
ENDBRANCH  44  45
ENDBRANCH  43  44
ENDBRANCH  42  43
ENDBRANCH  41  42
ENDBRANCH   1  41
TORSDOF 25
ENDMDL
MODEL 3
REMARK VINA RESULT:      -8.2      3.933      9.573
REMARK SMILES COc1cc2c(cc1OC)-c1c(c(C(=O)Nc3ccc(C(=O)OCCOCCOCCOC(=O)c4ccc(-c5c6nc(c(-c7cc(S(=O)(=O)[O-])ccc7F)c7ccc([nH]7)c(-c7cc(S(=O)(=O)[O-])ccc7F)c7nc(c(-c8cc(S(=O)(=O)[O-])ccc8F)c8ccc5[nH]8)C=C7)C=C6)cc4)cc3)nn1-c1ccc(F)cc1)C2
REMARK SMILES IDX 27 1 26 2 25 3 24 4 23 5 21 6 22 7 20 8 17 9 18 10 99 11
REMARK SMILES IDX 19 12 98 13 16 14 14 15 15 16 13 18 3 19 4 20 8 21 5 22 7 23
REMARK SMILES IDX 6 24 109 25 11 26 12 27 101 28 100 29 2 30 1 31 9 32 10 33
REMARK SMILES IDX 102 34 103 35 108 36 104 37 107 38 105 39 106 40 28 41 29 42
REMARK SMILES IDX 30 43 31 44 32 45 33 46 34 47 35 48 36 49 97 50 37 51 96 52
REMARK SMILES IDX 38 53 39 54 40 55 90 56 41 57 95 58 89 59 91 60 42 61 94 62
REMARK SMILES IDX 88 63 87 64 43 66 75 67 55 68 74 69 56 70 59 71 73 72 92 73
REMARK SMILES IDX 57 74 58 75 72 77 93 78 60 79 44 80 45 81 53 82 46 83 52 84
REMARK SMILES IDX 54 85 51 86 47 87 48 88 49 89 50 90 76 91 77 92 85 93 78 94
REMARK SMILES IDX 84 95 86 96 83 97 79 98 80 99 81 100 82 101 61 102 62 103
REMARK SMILES IDX 70 104 63 105 69 106 71 107 68 108 64 109 65 110 66 111
REMARK SMILES IDX 67 112
REMARK H PARENT 16 17 91 65 59 76
REMARK Flexibility Score: inf
ROOT
ATOM      1  C   UNL A   1      38.061  22.746  26.034  1.00  0.00     0.188 C 
ENDROOT
BRANCH   1   2
ATOM      2  O   UNL A   1      37.137  23.805  25.857  1.00  0.00    -0.376 OA
BRANCH   2   3
ATOM      3  C   UNL A   1      35.859  23.580  25.269  1.00  0.00     0.202 C 
BRANCH   3   4
ATOM      4  C   UNL A   1      34.525  23.939  25.958  1.00  0.00     0.261 C 
BRANCH   4   5
ATOM      5  O   UNL A   1      33.909  25.170  25.525  1.00  0.00    -0.460 OA
BRANCH   5   6
ATOM      6  C   UNL A   1      32.810  25.561  26.211  1.00  0.00     0.338 C 
ATOM      7  O   UNL A   1      31.969  24.799  26.666  1.00  0.00    -0.246 OA
BRANCH   6   8
ATOM      8  C   UNL A   1      32.882  27.006  26.600  1.00  0.00     0.060 A 
ATOM      9  C   UNL A   1      33.274  29.834  26.720  1.00  0.00     0.041 A 
ATOM     10  C   UNL A   1      34.257  29.001  26.236  1.00  0.00     0.027 A 
ATOM     11  C   UNL A   1      32.162  29.226  27.326  1.00  0.00     0.027 A 
ATOM     12  C   UNL A   1      34.027  27.625  26.147  1.00  0.00     0.018 A 
ATOM     13  C   UNL A   1      31.949  27.815  27.240  1.00  0.00     0.018 A 
BRANCH   9  14
ATOM     14  N   UNL A   1      33.389  31.243  26.589  1.00  0.00    -0.321 N 
ATOM     15  C   UNL A   1      33.449  32.259  27.562  1.00  0.00     0.276 C 
ATOM     16  O   UNL A   1      32.754  33.264  27.414  1.00  0.00    -0.267 OA
ATOM     17  H   UNL A   1      33.435  31.565  25.659  1.00  0.00     0.170 HD
BRANCH  15  18
ATOM     18  C   UNL A   1      34.473  32.210  28.660  1.00  0.00     0.155 A 
ATOM     19  C   UNL A   1      38.999  27.636  29.566  1.00  0.00     0.161 A 
ATOM     20  C   UNL A   1      38.369  28.634  28.226  1.00  0.00     0.055 A 
ATOM     21  C   UNL A   1      38.832  28.300  31.230  1.00  0.00     0.161 A 
ATOM     22  C   UNL A   1      37.620  30.260  28.489  1.00  0.00    -0.030 A 
ATOM     23  C   UNL A   1      37.890  30.076  31.440  1.00  0.00     0.061 A 
ATOM     24  C   UNL A   1      37.380  30.987  30.058  1.00  0.00     0.008 A 
ATOM     25  C   UNL A   1      36.566  30.887  27.635  1.00  0.00     0.076 C 
ATOM     26  C   UNL A   1      36.299  31.898  29.878  1.00  0.00     0.079 A 
ATOM     27  C   UNL A   1      35.804  31.743  28.605  1.00  0.00     0.016 A 
ATOM     28  N   UNL A   1      35.338  32.468  30.669  1.00  0.00    -0.232 N 
ATOM     29  N   UNL A   1      34.197  32.633  29.934  1.00  0.00    -0.162 NA
BRANCH  19  30
ATOM     30  O   UNL A   1      39.294  26.323  29.297  1.00  0.00    -0.493 OA
ATOM     31  C   UNL A   1      40.489  26.128  28.533  1.00  0.00     0.278 C 
ENDBRANCH  19  30
BRANCH  21  32
ATOM     32  O   UNL A   1      39.415  27.421  32.186  1.00  0.00    -0.493 OA
ATOM     33  C   UNL A   1      40.658  27.874  32.759  1.00  0.00     0.278 C 
ENDBRANCH  21  32
BRANCH  28  34
ATOM     34  C   UNL A   1      35.444  32.818  32.062  1.00  0.00     0.065 A 
ATOM     35  C   UNL A   1      36.686  32.870  32.721  1.00  0.00     0.031 A 
ATOM     36  C   UNL A   1      34.290  33.180  32.785  1.00  0.00     0.031 A 
ATOM     37  C   UNL A   1      36.779  33.403  34.021  1.00  0.00     0.041 A 
ATOM     38  C   UNL A   1      34.384  33.673  34.094  1.00  0.00     0.041 A 
ATOM     39  C   UNL A   1      35.630  33.809  34.691  1.00  0.00     0.123 A 
ATOM     40  F   UNL A   1      35.714  34.333  35.923  1.00  0.00    -0.207 F 
ENDBRANCH  28  34
ENDBRANCH  15  18
ENDBRANCH   9  14
ENDBRANCH   6   8
ENDBRANCH   5   6
ENDBRANCH   4   5
ENDBRANCH   3   4
ENDBRANCH   2   3
ENDBRANCH   1   2
BRANCH   1  41
ATOM     41  C   UNL A   1      39.304  23.183  26.846  1.00  0.00     0.188 C 
BRANCH  41  42
ATOM     42  O   UNL A   1      40.108  22.167  27.442  1.00  0.00    -0.376 OA
BRANCH  42  43
ATOM     43  C   UNL A   1      40.603  21.137  26.572  1.00  0.00     0.202 C 
BRANCH  43  44
ATOM     44  C   UNL A   1      42.072  21.272  26.035  1.00  0.00     0.261 C 
BRANCH  44  45
ATOM     45  O   UNL A   1      42.281  22.447  25.203  1.00  0.00    -0.460 OA
BRANCH  45  46
ATOM     46  C   UNL A   1      43.502  22.913  24.754  1.00  0.00     0.338 C 
ATOM     47  O   UNL A   1      44.272  22.328  24.020  1.00  0.00    -0.246 OA
BRANCH  46  48
ATOM     48  C   UNL A   1      43.642  24.318  25.301  1.00  0.00     0.060 A 
ATOM     49  C   UNL A   1      42.897  25.928  24.982  1.00  0.00     0.016 A 
ATOM     50  C   UNL A   1      44.912  24.301  26.528  1.00  0.00     0.016 A 
ATOM     51  C   UNL A   1      43.455  27.470  25.840  1.00  0.00     0.010 A 
ATOM     52  C   UNL A   1      45.437  25.991  27.473  1.00  0.00     0.010 A 
ATOM     53  C   UNL A   1      44.754  27.511  27.096  1.00  0.00    -0.014 A 
BRANCH  53  54
ATOM     54  C   UNL A   1      45.130  28.452  28.251  1.00  0.00     0.031 A 
ATOM     55  C   UNL A   1      43.937  29.084  28.725  1.00  0.00     0.074 A 
ATOM     56  C   UNL A   1      46.305  28.741  28.946  1.00  0.00     0.049 A 
ATOM     57  N   UNL A   1      43.431  30.109  28.124  1.00  0.00    -0.248 NA
ATOM     58  C   UNL A   1      43.115  28.480  29.755  1.00  0.00     0.031 C 
ATOM     59  C   UNL A   1      47.672  28.650  28.422  1.00  0.00     0.029 A 
ATOM     60  N   UNL A   1      46.585  29.206  30.269  1.00  0.00    -0.354 N 
ATOM     61  C   UNL A   1      42.531  30.534  29.057  1.00  0.00     0.074 A 
ATOM     62  C   UNL A   1      42.074  29.319  29.705  1.00  0.00     0.031 C 
ATOM     63  C   UNL A   1      48.571  28.920  29.400  1.00  0.00     0.029 A 
ATOM     64  C   UNL A   1      47.938  29.047  30.726  1.00  0.00     0.049 A 
ATOM     65  H   UNL A   1      45.889  29.613  30.834  1.00  0.00     0.167 HD
ATOM     66  C   UNL A   1      42.737  31.751  29.642  1.00  0.00     0.034 A 
ATOM     67  C   UNL A   1      48.692  29.559  31.781  1.00  0.00     0.034 A 
ATOM     68  C   UNL A   1      43.800  32.525  29.010  1.00  0.00     0.049 A 
ATOM     69  C   UNL A   1      48.337  30.981  31.824  1.00  0.00     0.074 A 
ATOM     70  C   UNL A   1      44.160  32.776  27.698  1.00  0.00     0.029 A 
ATOM     71  N   UNL A   1      44.892  32.872  29.775  1.00  0.00    -0.354 N 
ATOM     72  N   UNL A   1      48.802  31.895  31.034  1.00  0.00    -0.248 NA
ATOM     73  C   UNL A   1      47.194  31.359  32.638  1.00  0.00     0.031 C 
ATOM     74  C   UNL A   1      45.560  32.997  27.688  1.00  0.00     0.029 A 
ATOM     75  C   UNL A   1      46.025  33.014  28.999  1.00  0.00     0.049 A 
ATOM     76  H   UNL A   1      44.867  33.002  30.750  1.00  0.00     0.167 HD
ATOM     77  C   UNL A   1      47.682  32.650  30.791  1.00  0.00     0.074 A 
ATOM     78  C   UNL A   1      46.820  32.432  31.947  1.00  0.00     0.031 C 
ATOM     79  C   UNL A   1      47.395  33.006  29.509  1.00  0.00     0.034 A 
BRANCH  66  80
ATOM     80  C   UNL A   1      42.181  32.046  30.998  1.00  0.00     0.023 A 
ATOM     81  C   UNL A   1      42.906  31.840  32.187  1.00  0.00     0.031 A 
ATOM     82  C   UNL A   1      40.887  32.551  31.126  1.00  0.00     0.131 A 
ATOM     83  C   UNL A   1      42.288  31.920  33.431  1.00  0.00     0.055 A 
ATOM     84  C   UNL A   1      40.304  32.759  32.379  1.00  0.00     0.041 A 
ATOM     85  F   UNL A   1      40.158  32.843  30.038  1.00  0.00    -0.206 F 
ATOM     86  C   UNL A   1      40.989  32.400  33.539  1.00  0.00     0.022 A 
BRANCH  83  87
ATOM     87  S   UNL A   1      43.121  31.248  34.897  1.00  0.00     0.124 S 
ATOM     88  O   UNL A   1      44.391  31.961  34.869  1.00  0.00    -0.237 OA
ATOM     89  O   UNL A   1      42.198  31.628  35.963  1.00  0.00    -0.237 OA
ATOM     90  O   UNL A   1      43.179  29.813  34.625  1.00  0.00    -0.744 OA
ENDBRANCH  83  87
ENDBRANCH  66  80
BRANCH  67  91
ATOM     91  C   UNL A   1      49.354  29.028  33.082  1.00  0.00     0.023 A 
ATOM     92  C   UNL A   1      48.706  28.508  34.225  1.00  0.00     0.031 A 
ATOM     93  C   UNL A   1      50.766  29.168  33.249  1.00  0.00     0.131 A 
ATOM     94  C   UNL A   1      49.407  28.200  35.432  1.00  0.00     0.055 A 
ATOM     95  C   UNL A   1      51.452  28.922  34.455  1.00  0.00     0.041 A 
ATOM     96  F   UNL A   1      51.540  29.591  32.238  1.00  0.00    -0.206 F 
ATOM     97  C   UNL A   1      50.770  28.443  35.557  1.00  0.00     0.022 A 
BRANCH  94  98
ATOM     98  S   UNL A   1      48.593  27.453  36.896  1.00  0.00     0.124 S 
ATOM     99  O   UNL A   1      49.345  26.216  37.106  1.00  0.00    -0.237 OA
ATOM    100  O   UNL A   1      48.786  28.470  37.916  1.00  0.00    -0.237 OA
ATOM    101  O   UNL A   1      47.215  27.235  36.469  1.00  0.00    -0.744 OA
ENDBRANCH  94  98
ENDBRANCH  67  91
BRANCH  79 102
ATOM    102  C   UNL A   1      48.538  33.194  28.503  1.00  0.00     0.023 A 
ATOM    103  C   UNL A   1      49.328  34.342  28.694  1.00  0.00     0.031 A 
ATOM    104  C   UNL A   1      48.830  32.432  27.350  1.00  0.00     0.131 A 
ATOM    105  C   UNL A   1      50.262  34.753  27.733  1.00  0.00     0.055 A 
ATOM    106  C   UNL A   1      49.788  32.827  26.403  1.00  0.00     0.041 A 
ATOM    107  F   UNL A   1      48.206  31.291  27.055  1.00  0.00    -0.206 F 
ATOM    108  C   UNL A   1      50.491  34.007  26.578  1.00  0.00     0.022 A 
BRANCH 105 109
ATOM    109  S   UNL A   1      51.139  36.321  27.925  1.00  0.00     0.124 S 
ATOM    110  O   UNL A   1      50.693  37.065  26.749  1.00  0.00    -0.237 OA
ATOM    111  O   UNL A   1      50.626  36.806  29.204  1.00  0.00    -0.237 OA
ATOM    112  O   UNL A   1      52.548  35.942  27.924  1.00  0.00    -0.744 OA
ENDBRANCH 105 109
ENDBRANCH  79 102
ENDBRANCH  53  54
ENDBRANCH  46  48
ENDBRANCH  45  46
ENDBRANCH  44  45
ENDBRANCH  43  44
ENDBRANCH  42  43
ENDBRANCH  41  42
ENDBRANCH   1  41
TORSDOF 25
ENDMDL
