MODEL 1
REMARK VINA RESULT:      -9.9      0.000      0.000
REMARK SMILES CC(C)[C@H]([NH2+]C[C@H]1CC[C@@H](C(=O)OCCOCCOCCOC(=O)c2ccc(-c3c4nc(c(-c5cc(S(=O)(=O)[O-])ccc5F)c5ccc([nH]5)c(-c5cc(S(=O)(=O)[O-])ccc5F)c5nc(c(-c6cc(S(=O)(=O)[O-])ccc6F)c6ccc3[nH]6)C=C5)C=C4)cc2)CC1)c1ccccc1
REMARK SMILES IDX 17 1 16 2 15 3 14 4 13 5 11 6 12 7 10 8 7 9 8 10 89 11 9 12
REMARK SMILES IDX 88 13 6 14 5 15 4 18 2 19 1 20 3 21 90 22 91 23 95 24 92 25
REMARK SMILES IDX 94 26 93 27 18 28 19 29 20 30 21 31 22 32 23 33 24 34 25 35
REMARK SMILES IDX 26 36 87 37 27 38 86 39 28 40 29 41 30 42 80 43 31 44 85 45
REMARK SMILES IDX 79 46 81 47 32 48 84 49 78 50 77 51 33 53 65 54 45 55 64 56
REMARK SMILES IDX 46 57 49 58 63 59 82 60 47 61 48 62 62 64 83 65 50 66 34 67
REMARK SMILES IDX 35 68 43 69 36 70 42 71 44 72 41 73 37 74 38 75 39 76 40 77
REMARK SMILES IDX 66 78 67 79 75 80 68 81 74 82 76 83 73 84 69 85 70 86 71 87
REMARK SMILES IDX 72 88 51 89 52 90 60 91 53 92 59 93 61 94 58 95 54 96 55 97
REMARK SMILES IDX 56 98 57 99
REMARK H PARENT 5 16 5 17 81 52 49 63
REMARK Flexibility Score: inf
ROOT
ATOM      1  C   UNL A   1      42.481  40.258  28.766  1.00  0.00     0.188 C 
ENDROOT
BRANCH   1   2
ATOM      2  O   UNL A   1      42.906  40.138  27.414  1.00  0.00    -0.376 OA
BRANCH   2   3
ATOM      3  C   UNL A   1      42.660  41.222  26.529  1.00  0.00     0.202 C 
BRANCH   3   4
ATOM      4  C   UNL A   1      43.596  41.398  25.325  1.00  0.00     0.261 C 
BRANCH   4   5
ATOM      5  O   UNL A   1      43.072  42.160  24.210  1.00  0.00    -0.463 OA
BRANCH   5   6
ATOM      6  C   UNL A   1      43.982  42.560  23.283  1.00  0.00     0.309 C 
ATOM      7  O   UNL A   1      43.997  42.146  22.127  1.00  0.00    -0.252 OA
BRANCH   6   8
ATOM      8  C   UNL A   1      45.084  43.501  23.789  1.00  0.00     0.099 C 
ATOM      9  C   UNL A   1      46.273  45.055  21.535  1.00  0.00     0.044 C 
ATOM     10  C   UNL A   1      44.840  45.299  22.041  1.00  0.00     0.010 C 
ATOM     11  C   UNL A   1      46.837  43.684  21.929  1.00  0.00     0.010 C 
ATOM     12  C   UNL A   1      44.663  44.943  23.512  1.00  0.00     0.016 C 
ATOM     13  C   UNL A   1      46.551  43.328  23.384  1.00  0.00     0.016 C 
BRANCH   9  14
ATOM     14  C   UNL A   1      46.364  45.292  20.014  1.00  0.00     0.264 C 
BRANCH  14  15
ATOM     15  N   UNL A   1      45.219  46.043  19.482  1.00  0.00    -0.340 N 
ATOM     16  H   UNL A   1      44.444  45.937  20.137  1.00  0.00     0.346 HD
ATOM     17  H   UNL A   1      45.541  47.005  19.376  1.00  0.00     0.346 HD
BRANCH  15  18
ATOM     18  C   UNL A   1      44.745  45.626  18.144  1.00  0.00     0.216 C 
BRANCH  18  19
ATOM     19  C   UNL A   1      44.054  44.204  18.209  1.00  0.00     0.046 C 
ATOM     20  C   UNL A   1      42.966  44.165  19.288  1.00  0.00     0.014 C 
ATOM     21  C   UNL A   1      43.446  43.711  16.886  1.00  0.00     0.014 C 
ENDBRANCH  18  19
BRANCH  18  22
ATOM     22  C   UNL A   1      43.855  46.720  17.532  1.00  0.00     0.009 A 
ATOM     23  C   UNL A   1      42.692  46.431  16.801  1.00  0.00     0.010 A 
ATOM     24  C   UNL A   1      44.090  48.065  17.882  1.00  0.00     0.010 A 
ATOM     25  C   UNL A   1      41.786  47.438  16.459  1.00  0.00     0.001 A 
ATOM     26  C   UNL A   1      43.155  49.062  17.593  1.00  0.00     0.001 A 
ATOM     27  C   UNL A   1      42.002  48.747  16.881  1.00  0.00     0.000 A 
ENDBRANCH  18  22
ENDBRANCH  15  18
ENDBRANCH  14  15
ENDBRANCH   9  14
ENDBRANCH   6   8
ENDBRANCH   5   6
ENDBRANCH   4   5
ENDBRANCH   3   4
ENDBRANCH   2   3
ENDBRANCH   1   2
BRANCH   1  28
ATOM     28  C   UNL A   1      43.230  39.456  29.841  1.00  0.00     0.188 C 
BRANCH  28  29
ATOM     29  O   UNL A   1      44.589  39.814  30.007  1.00  0.00    -0.376 OA
BRANCH  29  30
ATOM     30  C   UNL A   1      45.219  39.334  31.180  1.00  0.00     0.202 C 
BRANCH  30  31
ATOM     31  C   UNL A   1      45.828  37.935  31.017  1.00  0.00     0.261 C 
BRANCH  31  32
ATOM     32  O   UNL A   1      46.346  37.640  29.707  1.00  0.00    -0.460 OA
BRANCH  32  33
ATOM     33  C   UNL A   1      47.145  36.550  29.603  1.00  0.00     0.338 C 
ATOM     34  O   UNL A   1      48.349  36.521  29.807  1.00  0.00    -0.246 OA
BRANCH  33  35
ATOM     35  C   UNL A   1      46.282  35.350  29.470  1.00  0.00     0.060 A 
ATOM     36  C   UNL A   1      46.486  34.275  30.349  1.00  0.00     0.016 A 
ATOM     37  C   UNL A   1      45.270  35.284  28.509  1.00  0.00     0.016 A 
ATOM     38  C   UNL A   1      45.718  33.114  30.232  1.00  0.00     0.010 A 
ATOM     39  C   UNL A   1      44.513  34.113  28.381  1.00  0.00     0.010 A 
ATOM     40  C   UNL A   1      44.763  33.004  29.212  1.00  0.00    -0.014 A 
BRANCH  40  41
ATOM     41  C   UNL A   1      44.236  31.659  28.853  1.00  0.00     0.031 A 
ATOM     42  C   UNL A   1      42.899  31.254  29.420  1.00  0.00     0.074 A 
ATOM     43  C   UNL A   1      44.881  30.833  28.009  1.00  0.00     0.049 A 
ATOM     44  N   UNL A   1      42.231  30.138  29.279  1.00  0.00    -0.248 NA
ATOM     45  C   UNL A   1      42.230  32.252  30.269  1.00  0.00     0.031 C 
ATOM     46  C   UNL A   1      46.158  31.116  27.357  1.00  0.00     0.029 A 
ATOM     47  N   UNL A   1      44.546  29.576  27.562  1.00  0.00    -0.354 N 
ATOM     48  C   UNL A   1      41.064  30.301  30.020  1.00  0.00     0.074 A 
ATOM     49  C   UNL A   1      41.148  31.598  30.655  1.00  0.00     0.031 C 
ATOM     50  C   UNL A   1      46.504  30.058  26.602  1.00  0.00     0.029 A 
ATOM     51  C   UNL A   1      45.493  29.008  26.741  1.00  0.00     0.049 A 
ATOM     52  H   UNL A   1      43.706  29.125  27.806  1.00  0.00     0.167 HD
ATOM     53  C   UNL A   1      40.008  29.458  30.146  1.00  0.00     0.034 A 
ATOM     54  C   UNL A   1      45.550  27.778  26.189  1.00  0.00     0.034 A 
ATOM     55  C   UNL A   1      39.945  28.155  29.529  1.00  0.00     0.049 A 
ATOM     56  C   UNL A   1      44.408  26.812  26.416  1.00  0.00     0.074 A 
ATOM     57  C   UNL A   1      38.930  27.217  29.600  1.00  0.00     0.029 A 
ATOM     58  N   UNL A   1      40.943  27.598  28.739  1.00  0.00    -0.354 N 
ATOM     59  N   UNL A   1      43.307  26.977  27.116  1.00  0.00    -0.248 NA
ATOM     60  C   UNL A   1      44.510  25.499  25.765  1.00  0.00     0.031 C 
ATOM     61  C   UNL A   1      39.348  26.066  28.922  1.00  0.00     0.029 A 
ATOM     62  C   UNL A   1      40.582  26.319  28.343  1.00  0.00     0.049 A 
ATOM     63  H   UNL A   1      41.786  28.046  28.496  1.00  0.00     0.167 HD
ATOM     64  C   UNL A   1      42.573  25.801  26.957  1.00  0.00     0.074 A 
ATOM     65  C   UNL A   1      43.349  24.946  26.085  1.00  0.00     0.031 C 
ATOM     66  C   UNL A   1      41.365  25.464  27.480  1.00  0.00     0.034 A 
BRANCH  53  67
ATOM     67  C   UNL A   1      38.871  29.914  31.030  1.00  0.00     0.023 A 
ATOM     68  C   UNL A   1      37.877  30.794  30.562  1.00  0.00     0.031 A 
ATOM     69  C   UNL A   1      38.810  29.515  32.377  1.00  0.00     0.131 A 
ATOM     70  C   UNL A   1      36.928  31.317  31.452  1.00  0.00     0.055 A 
ATOM     71  C   UNL A   1      37.804  29.965  33.234  1.00  0.00     0.041 A 
ATOM     72  F   UNL A   1      39.743  28.699  32.892  1.00  0.00    -0.206 F 
ATOM     73  C   UNL A   1      36.867  30.887  32.779  1.00  0.00     0.022 A 
BRANCH  70  74
ATOM     74  S   UNL A   1      35.896  32.702  30.897  1.00  0.00     0.124 S 
ATOM     75  O   UNL A   1      34.562  32.251  31.288  1.00  0.00    -0.237 OA
ATOM     76  O   UNL A   1      36.439  33.825  31.652  1.00  0.00    -0.237 OA
ATOM     77  O   UNL A   1      36.129  32.747  29.454  1.00  0.00    -0.744 OA
ENDBRANCH  70  74
ENDBRANCH  53  67
BRANCH  54  78
ATOM     78  C   UNL A   1      46.749  27.359  25.403  1.00  0.00     0.023 A 
ATOM     79  C   UNL A   1      46.967  27.812  24.090  1.00  0.00     0.031 A 
ATOM     80  C   UNL A   1      47.671  26.444  25.943  1.00  0.00     0.131 A 
ATOM     81  C   UNL A   1      48.055  27.318  23.350  1.00  0.00     0.055 A 
ATOM     82  C   UNL A   1      48.782  26.000  25.223  1.00  0.00     0.041 A 
ATOM     83  F   UNL A   1      47.506  25.969  27.188  1.00  0.00    -0.206 F 
ATOM     84  C   UNL A   1      48.972  26.428  23.913  1.00  0.00     0.022 A 
BRANCH  81  85
ATOM     85  S   UNL A   1      48.208  27.786  21.602  1.00  0.00     0.124 S 
ATOM     86  O   UNL A   1      49.283  28.769  21.652  1.00  0.00    -0.237 OA
ATOM     87  O   UNL A   1      48.533  26.510  20.974  1.00  0.00    -0.237 OA
ATOM     88  O   UNL A   1      46.887  28.320  21.276  1.00  0.00    -0.744 OA
ENDBRANCH  81  85
ENDBRANCH  54  78
BRANCH  66  89
ATOM     89  C   UNL A   1      40.779  24.129  27.072  1.00  0.00     0.023 A 
ATOM     90  C   UNL A   1      41.512  22.931  27.158  1.00  0.00     0.031 A 
ATOM     91  C   UNL A   1      39.467  24.059  26.567  1.00  0.00     0.131 A 
ATOM     92  C   UNL A   1      40.956  21.734  26.679  1.00  0.00     0.055 A 
ATOM     93  C   UNL A   1      38.892  22.853  26.163  1.00  0.00     0.041 A 
ATOM     94  F   UNL A   1      38.716  25.168  26.457  1.00  0.00    -0.206 F 
ATOM     95  C   UNL A   1      39.644  21.683  26.201  1.00  0.00     0.022 A 
BRANCH  92  96
ATOM     96  S   UNL A   1      42.015  20.263  26.570  1.00  0.00     0.124 S 
ATOM     97  O   UNL A   1      42.188  19.910  27.975  1.00  0.00    -0.237 OA
ATOM     98  O   UNL A   1      41.198  19.350  25.778  1.00  0.00    -0.237 OA
ATOM     99  O   UNL A   1      43.218  20.757  25.901  1.00  0.00    -0.744 OA
ENDBRANCH  92  96
ENDBRANCH  66  89
ENDBRANCH  40  41
ENDBRANCH  33  35
ENDBRANCH  32  33
ENDBRANCH  31  32
ENDBRANCH  30  31
ENDBRANCH  29  30
ENDBRANCH  28  29
ENDBRANCH   1  28
TORSDOF 25
ENDMDL
MODEL 2
REMARK VINA RESULT:      -9.9      7.470     17.562
REMARK SMILES CC(C)[C@H]([NH2+]C[C@H]1CC[C@@H](C(=O)OCCOCCOCCOC(=O)c2ccc(-c3c4nc(c(-c5cc(S(=O)(=O)[O-])ccc5F)c5ccc([nH]5)c(-c5cc(S(=O)(=O)[O-])ccc5F)c5nc(c(-c6cc(S(=O)(=O)[O-])ccc6F)c6ccc3[nH]6)C=C5)C=C4)cc2)CC1)c1ccccc1
REMARK SMILES IDX 17 1 16 2 15 3 14 4 13 5 11 6 12 7 10 8 7 9 8 10 89 11 9 12
REMARK SMILES IDX 88 13 6 14 5 15 4 18 2 19 1 20 3 21 90 22 91 23 95 24 92 25
REMARK SMILES IDX 94 26 93 27 18 28 19 29 20 30 21 31 22 32 23 33 24 34 25 35
REMARK SMILES IDX 26 36 87 37 27 38 86 39 28 40 29 41 30 42 80 43 31 44 85 45
REMARK SMILES IDX 79 46 81 47 32 48 84 49 78 50 77 51 33 53 65 54 45 55 64 56
REMARK SMILES IDX 46 57 49 58 63 59 82 60 47 61 48 62 62 64 83 65 50 66 34 67
REMARK SMILES IDX 35 68 43 69 36 70 42 71 44 72 41 73 37 74 38 75 39 76 40 77
REMARK SMILES IDX 66 78 67 79 75 80 68 81 74 82 76 83 73 84 69 85 70 86 71 87
REMARK SMILES IDX 72 88 51 89 52 90 60 91 53 92 59 93 61 94 58 95 54 96 55 97
REMARK SMILES IDX 56 98 57 99
REMARK H PARENT 5 16 5 17 81 52 49 63
REMARK Flexibility Score: inf
ROOT
ATOM      1  C   UNL A   1      39.947  24.968  27.494  1.00  0.00     0.188 C 
ENDROOT
BRANCH   1   2
ATOM      2  O   UNL A   1      39.245  24.383  26.403  1.00  0.00    -0.376 OA
BRANCH   2   3
ATOM      3  C   UNL A   1      38.444  23.236  26.651  1.00  0.00     0.202 C 
BRANCH   3   4
ATOM      4  C   UNL A   1      38.031  22.371  25.452  1.00  0.00     0.261 C 
BRANCH   4   5
ATOM      5  O   UNL A   1      36.910  21.478  25.660  1.00  0.00    -0.463 OA
BRANCH   5   6
ATOM      6  C   UNL A   1      35.680  22.057  25.649  1.00  0.00     0.309 C 
ATOM      7  O   UNL A   1      34.735  21.649  26.319  1.00  0.00    -0.252 OA
BRANCH   6   8
ATOM      8  C   UNL A   1      35.492  23.214  24.658  1.00  0.00     0.099 C 
ATOM      9  C   UNL A   1      32.732  24.334  24.841  1.00  0.00     0.044 C 
ATOM     10  C   UNL A   1      33.774  24.517  25.959  1.00  0.00     0.010 C 
ATOM     11  C   UNL A   1      33.047  23.169  23.895  1.00  0.00     0.010 C 
ATOM     12  C   UNL A   1      35.208  24.492  25.444  1.00  0.00     0.016 C 
ATOM     13  C   UNL A   1      34.514  23.128  23.483  1.00  0.00     0.016 C 
BRANCH   9  14
ATOM     14  C   UNL A   1      31.311  24.223  25.429  1.00  0.00     0.264 C 
BRANCH  14  15
ATOM     15  N   UNL A   1      30.685  25.531  25.667  1.00  0.00    -0.340 N 
ATOM     16  H   UNL A   1      29.676  25.419  25.567  1.00  0.00     0.346 HD
ATOM     17  H   UNL A   1      30.980  25.815  26.601  1.00  0.00     0.346 HD
BRANCH  15  18
ATOM     18  C   UNL A   1      31.113  26.620  24.761  1.00  0.00     0.216 C 
BRANCH  18  19
ATOM     19  C   UNL A   1      29.870  27.253  24.016  1.00  0.00     0.046 C 
ATOM     20  C   UNL A   1      30.254  27.742  22.614  1.00  0.00     0.014 C 
ATOM     21  C   UNL A   1      28.643  26.335  23.891  1.00  0.00     0.014 C 
ENDBRANCH  18  19
BRANCH  18  22
ATOM     22  C   UNL A   1      31.964  27.644  25.528  1.00  0.00     0.009 A 
ATOM     23  C   UNL A   1      31.615  28.120  26.802  1.00  0.00     0.010 A 
ATOM     24  C   UNL A   1      33.244  27.972  25.036  1.00  0.00     0.010 A 
ATOM     25  C   UNL A   1      32.517  28.865  27.566  1.00  0.00     0.001 A 
ATOM     26  C   UNL A   1      34.167  28.664  25.824  1.00  0.00     0.001 A 
ATOM     27  C   UNL A   1      33.801  29.111  27.090  1.00  0.00     0.000 A 
ENDBRANCH  18  22
ENDBRANCH  15  18
ENDBRANCH  14  15
ENDBRANCH   9  14
ENDBRANCH   6   8
ENDBRANCH   5   6
ENDBRANCH   4   5
ENDBRANCH   3   4
ENDBRANCH   2   3
ENDBRANCH   1   2
BRANCH   1  28
ATOM     28  C   UNL A   1      39.911  26.496  27.651  1.00  0.00     0.188 C 
BRANCH  28  29
ATOM     29  O   UNL A   1      39.531  26.950  28.937  1.00  0.00    -0.376 OA
BRANCH  29  30
ATOM     30  C   UNL A   1      38.469  27.883  28.978  1.00  0.00     0.202 C 
BRANCH  30  31
ATOM     31  C   UNL A   1      38.571  28.876  30.143  1.00  0.00     0.261 C 
BRANCH  31  32
ATOM     32  O   UNL A   1      37.568  28.728  31.165  1.00  0.00    -0.460 OA
BRANCH  32  33
ATOM     33  C   UNL A   1      38.013  28.454  32.415  1.00  0.00     0.338 C 
ATOM     34  O   UNL A   1      38.006  27.359  32.955  1.00  0.00    -0.246 OA
BRANCH  33  35
ATOM     35  C   UNL A   1      38.755  29.638  32.916  1.00  0.00     0.060 A 
ATOM     36  C   UNL A   1      38.101  30.878  32.942  1.00  0.00     0.016 A 
ATOM     37  C   UNL A   1      40.071  29.532  33.373  1.00  0.00     0.016 A 
ATOM     38  C   UNL A   1      38.778  32.022  33.373  1.00  0.00     0.010 A 
ATOM     39  C   UNL A   1      40.754  30.682  33.787  1.00  0.00     0.010 A 
ATOM     40  C   UNL A   1      40.126  31.941  33.747  1.00  0.00    -0.014 A 
BRANCH  40  41
ATOM     41  C   UNL A   1      40.934  33.189  33.828  1.00  0.00     0.031 A 
ATOM     42  C   UNL A   1      41.520  33.731  32.548  1.00  0.00     0.074 A 
ATOM     43  C   UNL A   1      41.108  33.862  34.979  1.00  0.00     0.049 A 
ATOM     44  N   UNL A   1      42.273  34.781  32.350  1.00  0.00    -0.248 NA
ATOM     45  C   UNL A   1      41.212  32.971  31.327  1.00  0.00     0.031 C 
ATOM     46  C   UNL A   1      40.563  33.474  36.279  1.00  0.00     0.029 A 
ATOM     47  N   UNL A   1      41.805  35.020  35.239  1.00  0.00    -0.354 N 
ATOM     48  C   UNL A   1      42.528  34.810  30.981  1.00  0.00     0.074 A 
ATOM     49  C   UNL A   1      41.899  33.637  30.414  1.00  0.00     0.031 C 
ATOM     50  C   UNL A   1      40.956  34.372  37.200  1.00  0.00     0.029 A 
ATOM     51  C   UNL A   1      41.808  35.380  36.566  1.00  0.00     0.049 A 
ATOM     52  H   UNL A   1      42.259  35.542  34.539  1.00  0.00     0.167 HD
ATOM     53  C   UNL A   1      43.205  35.736  30.258  1.00  0.00     0.034 A 
ATOM     54  C   UNL A   1      42.443  36.389  37.199  1.00  0.00     0.034 A 
ATOM     55  C   UNL A   1      43.851  36.889  30.837  1.00  0.00     0.049 A 
ATOM     56  C   UNL A   1      43.275  37.361  36.391  1.00  0.00     0.074 A 
ATOM     57  C   UNL A   1      44.573  37.882  30.199  1.00  0.00     0.029 A 
ATOM     58  N   UNL A   1      43.867  37.197  32.191  1.00  0.00    -0.354 N 
ATOM     59  N   UNL A   1      43.507  37.380  35.098  1.00  0.00    -0.248 NA
ATOM     60  C   UNL A   1      43.917  38.457  37.130  1.00  0.00     0.031 C 
ATOM     61  C   UNL A   1      45.090  38.744  31.174  1.00  0.00     0.029 A 
ATOM     62  C   UNL A   1      44.611  38.346  32.412  1.00  0.00     0.049 A 
ATOM     63  H   UNL A   1      43.416  36.675  32.894  1.00  0.00     0.167 HD
ATOM     64  C   UNL A   1      44.292  38.510  34.867  1.00  0.00     0.074 A 
ATOM     65  C   UNL A   1      44.479  39.151  36.151  1.00  0.00     0.031 C 
ATOM     66  C   UNL A   1      44.805  38.977  33.699  1.00  0.00     0.034 A 
BRANCH  53  67
ATOM     67  C   UNL A   1      43.318  35.494  28.771  1.00  0.00     0.023 A 
ATOM     68  C   UNL A   1      44.216  34.548  28.242  1.00  0.00     0.031 A 
ATOM     69  C   UNL A   1      42.567  36.262  27.864  1.00  0.00     0.131 A 
ATOM     70  C   UNL A   1      44.407  34.462  26.855  1.00  0.00     0.055 A 
ATOM     71  C   UNL A   1      42.693  36.103  26.482  1.00  0.00     0.041 A 
ATOM     72  F   UNL A   1      41.714  37.200  28.304  1.00  0.00    -0.206 F 
ATOM     73  C   UNL A   1      43.631  35.212  25.969  1.00  0.00     0.022 A 
BRANCH  70  74
ATOM     74  S   UNL A   1      45.809  33.491  26.235  1.00  0.00     0.124 S 
ATOM     75  O   UNL A   1      45.131  32.356  25.615  1.00  0.00    -0.237 OA
ATOM     76  O   UNL A   1      46.461  34.424  25.323  1.00  0.00    -0.237 OA
ATOM     77  O   UNL A   1      46.564  33.168  27.445  1.00  0.00    -0.744 OA
ENDBRANCH  70  74
ENDBRANCH  53  67
BRANCH  54  78
ATOM     78  C   UNL A   1      42.365  36.515  38.686  1.00  0.00     0.023 A 
ATOM     79  C   UNL A   1      41.301  37.183  39.315  1.00  0.00     0.031 A 
ATOM     80  C   UNL A   1      43.396  36.011  39.499  1.00  0.00     0.131 A 
ATOM     81  C   UNL A   1      41.315  37.365  40.709  1.00  0.00     0.055 A 
ATOM     82  C   UNL A   1      43.376  36.144  40.888  1.00  0.00     0.041 A 
ATOM     83  F   UNL A   1      44.443  35.373  38.950  1.00  0.00    -0.206 F 
ATOM     84  C   UNL A   1      42.337  36.836  41.501  1.00  0.00     0.022 A 
BRANCH  81  85
ATOM     85  S   UNL A   1      40.019  38.384  41.470  1.00  0.00     0.124 S 
ATOM     86  O   UNL A   1      38.836  37.960  40.731  1.00  0.00    -0.237 OA
ATOM     87  O   UNL A   1      40.086  37.966  42.867  1.00  0.00    -0.237 OA
ATOM     88  O   UNL A   1      40.463  39.752  41.209  1.00  0.00    -0.744 OA
ENDBRANCH  81  85
ENDBRANCH  54  78
BRANCH  66  89
ATOM     89  C   UNL A   1      45.572  40.282  33.748  1.00  0.00     0.023 A 
ATOM     90  C   UNL A   1      44.926  41.529  33.808  1.00  0.00     0.031 A 
ATOM     91  C   UNL A   1      46.980  40.274  33.713  1.00  0.00     0.131 A 
ATOM     92  C   UNL A   1      45.680  42.713  33.758  1.00  0.00     0.055 A 
ATOM     93  C   UNL A   1      47.727  41.452  33.739  1.00  0.00     0.041 A 
ATOM     94  F   UNL A   1      47.656  39.115  33.652  1.00  0.00    -0.206 F 
ATOM     95  C   UNL A   1      47.077  42.682  33.744  1.00  0.00     0.022 A 
BRANCH  92  96
ATOM     96  S   UNL A   1      44.809  44.295  33.581  1.00  0.00     0.124 S 
ATOM     97  O   UNL A   1      43.556  44.031  34.281  1.00  0.00    -0.237 OA
ATOM     98  O   UNL A   1      45.721  45.227  34.236  1.00  0.00    -0.237 OA
ATOM     99  O   UNL A   1      44.688  44.460  32.133  1.00  0.00    -0.744 OA
ENDBRANCH  92  96
ENDBRANCH  66  89
ENDBRANCH  40  41
ENDBRANCH  33  35
ENDBRANCH  32  33
ENDBRANCH  31  32
ENDBRANCH  30  31
ENDBRANCH  29  30
ENDBRANCH  28  29
ENDBRANCH   1  28
TORSDOF 25
ENDMDL
MODEL 3
REMARK VINA RESULT:      -9.7     10.286     15.491
REMARK SMILES CC(C)[C@H]([NH2+]C[C@H]1CC[C@@H](C(=O)OCCOCCOCCOC(=O)c2ccc(-c3c4nc(c(-c5cc(S(=O)(=O)[O-])ccc5F)c5ccc([nH]5)c(-c5cc(S(=O)(=O)[O-])ccc5F)c5nc(c(-c6cc(S(=O)(=O)[O-])ccc6F)c6ccc3[nH]6)C=C5)C=C4)cc2)CC1)c1ccccc1
REMARK SMILES IDX 17 1 16 2 15 3 14 4 13 5 11 6 12 7 10 8 7 9 8 10 89 11 9 12
REMARK SMILES IDX 88 13 6 14 5 15 4 18 2 19 1 20 3 21 90 22 91 23 95 24 92 25
REMARK SMILES IDX 94 26 93 27 18 28 19 29 20 30 21 31 22 32 23 33 24 34 25 35
REMARK SMILES IDX 26 36 87 37 27 38 86 39 28 40 29 41 30 42 80 43 31 44 85 45
REMARK SMILES IDX 79 46 81 47 32 48 84 49 78 50 77 51 33 53 65 54 45 55 64 56
REMARK SMILES IDX 46 57 49 58 63 59 82 60 47 61 48 62 62 64 83 65 50 66 34 67
REMARK SMILES IDX 35 68 43 69 36 70 42 71 44 72 41 73 37 74 38 75 39 76 40 77
REMARK SMILES IDX 66 78 67 79 75 80 68 81 74 82 76 83 73 84 69 85 70 86 71 87
REMARK SMILES IDX 72 88 51 89 52 90 60 91 53 92 59 93 61 94 58 95 54 96 55 97
REMARK SMILES IDX 56 98 57 99
REMARK H PARENT 5 16 5 17 81 52 49 63
REMARK Flexibility Score: inf
ROOT
ATOM      1  C   UNL A   1      39.213  25.683  27.573  1.00  0.00     0.188 C 
ENDROOT
BRANCH   1   2
ATOM      2  O   UNL A   1      39.252  24.746  26.504  1.00  0.00    -0.376 OA
BRANCH   2   3
ATOM      3  C   UNL A   1      38.355  23.645  26.537  1.00  0.00     0.202 C 
BRANCH   3   4
ATOM      4  C   UNL A   1      38.794  22.336  25.865  1.00  0.00     0.261 C 
BRANCH   4   5
ATOM      5  O   UNL A   1      37.763  21.339  25.668  1.00  0.00    -0.463 OA
BRANCH   5   6
ATOM      6  C   UNL A   1      36.824  21.632  24.729  1.00  0.00     0.309 C 
ATOM      7  O   UNL A   1      37.074  22.232  23.687  1.00  0.00    -0.252 OA
BRANCH   6   8
ATOM      8  C   UNL A   1      35.378  21.259  25.088  1.00  0.00     0.099 C 
ATOM      9  C   UNL A   1      33.761  23.700  25.665  1.00  0.00     0.044 C 
ATOM     10  C   UNL A   1      34.256  23.352  24.249  1.00  0.00     0.010 C 
ATOM     11  C   UNL A   1      34.544  22.994  26.779  1.00  0.00     0.010 C 
ATOM     12  C   UNL A   1      34.443  21.855  24.037  1.00  0.00     0.016 C 
ATOM     13  C   UNL A   1      34.792  21.520  26.477  1.00  0.00     0.016 C 
BRANCH   9  14
ATOM     14  C   UNL A   1      33.725  25.227  25.872  1.00  0.00     0.264 C 
BRANCH  14  15
ATOM     15  N   UNL A   1      33.470  25.969  24.630  1.00  0.00    -0.340 N 
ATOM     16  H   UNL A   1      34.113  26.760  24.599  1.00  0.00     0.346 HD
ATOM     17  H   UNL A   1      33.603  25.298  23.873  1.00  0.00     0.346 HD
BRANCH  15  18
ATOM     18  C   UNL A   1      32.096  26.492  24.468  1.00  0.00     0.216 C 
BRANCH  18  19
ATOM     19  C   UNL A   1      31.027  25.344  24.675  1.00  0.00     0.046 C 
ATOM     20  C   UNL A   1      29.702  25.908  25.200  1.00  0.00     0.014 C 
ATOM     21  C   UNL A   1      30.733  24.491  23.430  1.00  0.00     0.014 C 
ENDBRANCH  18  19
BRANCH  18  22
ATOM     22  C   UNL A   1      31.881  27.710  25.379  1.00  0.00     0.009 A 
ATOM     23  C   UNL A   1      32.184  27.696  26.750  1.00  0.00     0.010 A 
ATOM     24  C   UNL A   1      31.562  28.952  24.793  1.00  0.00     0.010 A 
ATOM     25  C   UNL A   1      32.198  28.876  27.498  1.00  0.00     0.001 A 
ATOM     26  C   UNL A   1      31.636  30.139  25.527  1.00  0.00     0.001 A 
ATOM     27  C   UNL A   1      31.954  30.099  26.881  1.00  0.00     0.000 A 
ENDBRANCH  18  22
ENDBRANCH  15  18
ENDBRANCH  14  15
ENDBRANCH   9  14
ENDBRANCH   6   8
ENDBRANCH   5   6
ENDBRANCH   4   5
ENDBRANCH   3   4
ENDBRANCH   2   3
ENDBRANCH   1   2
BRANCH   1  28
ATOM     28  C   UNL A   1      40.100  26.935  27.481  1.00  0.00     0.188 C 
BRANCH  28  29
ATOM     29  O   UNL A   1      39.528  28.107  28.030  1.00  0.00    -0.376 OA
BRANCH  29  30
ATOM     30  C   UNL A   1      38.190  27.995  28.475  1.00  0.00     0.202 C 
BRANCH  30  31
ATOM     31  C   UNL A   1      37.605  29.316  28.993  1.00  0.00     0.261 C 
BRANCH  31  32
ATOM     32  O   UNL A   1      36.696  29.192  30.103  1.00  0.00    -0.460 OA
BRANCH  32  33
ATOM     33  C   UNL A   1      36.976  29.937  31.199  1.00  0.00     0.338 C 
ATOM     34  O   UNL A   1      36.212  30.715  31.751  1.00  0.00    -0.246 OA
BRANCH  33  35
ATOM     35  C   UNL A   1      38.255  29.457  31.777  1.00  0.00     0.060 A 
ATOM     36  C   UNL A   1      39.306  30.372  31.936  1.00  0.00     0.016 A 
ATOM     37  C   UNL A   1      38.419  28.129  32.179  1.00  0.00     0.016 A 
ATOM     38  C   UNL A   1      40.537  29.951  32.444  1.00  0.00     0.010 A 
ATOM     39  C   UNL A   1      39.659  27.703  32.670  1.00  0.00     0.010 A 
ATOM     40  C   UNL A   1      40.740  28.601  32.763  1.00  0.00    -0.014 A 
BRANCH  40  41
ATOM     41  C   UNL A   1      42.130  28.093  32.927  1.00  0.00     0.031 A 
ATOM     42  C   UNL A   1      42.905  27.755  31.679  1.00  0.00     0.074 A 
ATOM     43  C   UNL A   1      42.719  27.981  34.131  1.00  0.00     0.049 A 
ATOM     44  N   UNL A   1      44.116  27.279  31.548  1.00  0.00    -0.248 NA
ATOM     45  C   UNL A   1      42.206  27.982  30.404  1.00  0.00     0.031 C 
ATOM     46  C   UNL A   1      42.100  28.314  35.412  1.00  0.00     0.029 A 
ATOM     47  N   UNL A   1      43.980  27.546  34.469  1.00  0.00    -0.354 N 
ATOM     48  C   UNL A   1      44.325  27.152  30.177  1.00  0.00     0.074 A 
ATOM     49  C   UNL A   1      43.093  27.543  29.528  1.00  0.00     0.031 C 
ATOM     50  C   UNL A   1      42.979  28.060  36.398  1.00  0.00     0.029 A 
ATOM     51  C   UNL A   1      44.211  27.515  35.824  1.00  0.00     0.049 A 
ATOM     52  H   UNL A   1      44.654  27.282  33.802  1.00  0.00     0.167 HD
ATOM     53  C   UNL A   1      45.445  26.765  29.517  1.00  0.00     0.034 A 
ATOM     54  C   UNL A   1      45.279  27.074  36.521  1.00  0.00     0.034 A 
ATOM     55  C   UNL A   1      46.661  26.351  30.174  1.00  0.00     0.049 A 
ATOM     56  C   UNL A   1      46.487  26.555  35.772  1.00  0.00     0.074 A 
ATOM     57  C   UNL A   1      47.848  25.929  29.603  1.00  0.00     0.029 A 
ATOM     58  N   UNL A   1      46.842  26.292  31.550  1.00  0.00    -0.354 N 
ATOM     59  N   UNL A   1      46.676  26.442  34.476  1.00  0.00    -0.248 NA
ATOM     60  C   UNL A   1      47.633  26.118  36.583  1.00  0.00     0.031 C 
ATOM     61  C   UNL A   1      48.716  25.542  30.630  1.00  0.00     0.029 A 
ATOM     62  C   UNL A   1      48.109  25.813  31.846  1.00  0.00     0.049 A 
ATOM     63  H   UNL A   1      46.168  26.554  32.220  1.00  0.00     0.167 HD
ATOM     64  C   UNL A   1      47.974  25.956  34.320  1.00  0.00     0.074 A 
ATOM     65  C   UNL A   1      48.524  25.813  35.651  1.00  0.00     0.031 C 
ATOM     66  C   UNL A   1      48.650  25.661  33.179  1.00  0.00     0.034 A 
BRANCH  53  67
ATOM     67  C   UNL A   1      45.370  26.724  28.008  1.00  0.00     0.023 A 
ATOM     68  C   UNL A   1      44.995  25.556  27.317  1.00  0.00     0.031 A 
ATOM     69  C   UNL A   1      45.739  27.846  27.245  1.00  0.00     0.131 A 
ATOM     70  C   UNL A   1      45.088  25.508  25.919  1.00  0.00     0.055 A 
ATOM     71  C   UNL A   1      45.736  27.820  25.848  1.00  0.00     0.041 A 
ATOM     72  F   UNL A   1      46.133  28.981  27.843  1.00  0.00    -0.206 F 
ATOM     73  C   UNL A   1      45.429  26.641  25.177  1.00  0.00     0.022 A 
BRANCH  70  74
ATOM     74  S   UNL A   1      44.937  23.897  25.099  1.00  0.00     0.124 S 
ATOM     75  O   UNL A   1      43.538  23.909  24.679  1.00  0.00    -0.237 OA
ATOM     76  O   UNL A   1      45.926  23.991  24.031  1.00  0.00    -0.237 OA
ATOM     77  O   UNL A   1      45.251  22.941  26.159  1.00  0.00    -0.744 OA
ENDBRANCH  70  74
ENDBRANCH  53  67
BRANCH  54  78
ATOM     78  C   UNL A   1      45.250  27.055  38.015  1.00  0.00     0.023 A 
ATOM     79  C   UNL A   1      45.729  28.135  38.777  1.00  0.00     0.031 A 
ATOM     80  C   UNL A   1      44.791  25.918  38.704  1.00  0.00     0.131 A 
ATOM     81  C   UNL A   1      45.775  28.037  40.178  1.00  0.00     0.055 A 
ATOM     82  C   UNL A   1      44.785  25.849  40.098  1.00  0.00     0.041 A 
ATOM     83  F   UNL A   1      44.333  24.852  38.026  1.00  0.00    -0.206 F 
ATOM     84  C   UNL A   1      45.291  26.908  40.844  1.00  0.00     0.022 A 
BRANCH  81  85
ATOM     85  S   UNL A   1      46.560  29.374  41.122  1.00  0.00     0.124 S 
ATOM     86  O   UNL A   1      47.786  28.733  41.582  1.00  0.00    -0.237 OA
ATOM     87  O   UNL A   1      46.719  30.409  40.106  1.00  0.00    -0.237 OA
ATOM     88  O   UNL A   1      45.582  29.674  42.166  1.00  0.00    -0.744 OA
ENDBRANCH  81  85
ENDBRANCH  54  78
BRANCH  66  89
ATOM     89  C   UNL A   1      50.089  25.209  33.320  1.00  0.00     0.023 A 
ATOM     90  C   UNL A   1      50.462  23.857  33.215  1.00  0.00     0.031 A 
ATOM     91  C   UNL A   1      51.102  26.150  33.585  1.00  0.00     0.131 A 
ATOM     92  C   UNL A   1      51.794  23.478  33.447  1.00  0.00     0.055 A 
ATOM     93  C   UNL A   1      52.437  25.776  33.739  1.00  0.00     0.041 A 
ATOM     94  F   UNL A   1      50.809  27.456  33.699  1.00  0.00    -0.206 F 
ATOM     95  C   UNL A   1      52.788  24.430  33.688  1.00  0.00     0.022 A 
BRANCH  92  96
ATOM     96  S   UNL A   1      52.191  21.710  33.556  1.00  0.00     0.124 S 
ATOM     97  O   UNL A   1      50.950  21.093  33.102  1.00  0.00    -0.237 OA
ATOM     98  O   UNL A   1      53.331  21.591  32.652  1.00  0.00    -0.237 OA
ATOM     99  O   UNL A   1      52.500  21.515  34.972  1.00  0.00    -0.744 OA
ENDBRANCH  92  96
ENDBRANCH  66  89
ENDBRANCH  40  41
ENDBRANCH  33  35
ENDBRANCH  32  33
ENDBRANCH  31  32
ENDBRANCH  30  31
ENDBRANCH  29  30
ENDBRANCH  28  29
ENDBRANCH   1  28
TORSDOF 25
ENDMDL
