MODEL 1
REMARK VINA RESULT:     -10.2      0.000      0.000
REMARK SMILES [NH3+][C@@]1(C(=O)OCCOCCOCCOC(=O)c2ccc(-c3c4nc(c(-c5cc(S(=O)(=O)[O-])ccc5F)c5ccc([nH]5)c(-c5cc(S(=O)(=O)[O-])ccc5F)c5nc(c(-c6cc(S(=O)(=O)[O-])ccc6F)c6ccc3[nH]6)C=C5)C=C4)cc2)CCC[C@@H](Oc2ccccc2[N+](=O)[O-])C1
REMARK SMILES IDX 9 1 8 2 7 3 6 4 5 5 3 6 4 7 2 8 80 9 94 10 81 11 83 12 82 13
REMARK SMILES IDX 1 14 84 18 85 19 86 20 90 21 87 22 89 23 88 24 91 25 92 26
REMARK SMILES IDX 93 27 10 28 11 29 12 30 13 31 14 32 15 33 16 34 17 35 18 36
REMARK SMILES IDX 79 37 19 38 78 39 20 40 21 41 22 42 72 43 23 44 77 45 71 46
REMARK SMILES IDX 73 47 24 48 76 49 70 50 69 51 25 53 57 54 37 55 56 56 38 57
REMARK SMILES IDX 41 58 55 59 74 60 39 61 40 62 54 64 75 65 42 66 26 67 27 68
REMARK SMILES IDX 35 69 28 70 34 71 36 72 33 73 29 74 30 75 31 76 32 77 58 78
REMARK SMILES IDX 59 79 67 80 60 81 66 82 68 83 65 84 61 85 62 86 63 87 64 88
REMARK SMILES IDX 43 89 44 90 52 91 45 92 51 93 53 94 50 95 46 96 47 97 48 98
REMARK SMILES IDX 49 99
REMARK H PARENT 1 15 1 16 1 17 73 52 41 63
REMARK Flexibility Score: inf
ROOT
ATOM      1  C   UNL A   1      32.953  28.760  25.497  1.00  0.00     0.188 C 
ENDROOT
BRANCH   1   2
ATOM      2  O   UNL A   1      33.811  28.528  24.387  1.00  0.00    -0.376 OA
BRANCH   2   3
ATOM      3  C   UNL A   1      33.394  28.887  23.084  1.00  0.00     0.202 C 
BRANCH   3   4
ATOM      4  C   UNL A   1      33.806  27.975  21.926  1.00  0.00     0.261 C 
BRANCH   4   5
ATOM      5  O   UNL A   1      33.612  26.577  22.163  1.00  0.00    -0.459 OA
BRANCH   5   6
ATOM      6  C   UNL A   1      32.410  26.023  21.796  1.00  0.00     0.368 C 
ATOM      7  O   UNL A   1      31.985  25.971  20.652  1.00  0.00    -0.245 OA
BRANCH   6   8
ATOM      8  C   UNL A   1      31.667  25.473  23.062  1.00  0.00     0.196 C 
ATOM      9  C   UNL A   1      30.617  26.440  23.634  1.00  0.00     0.081 C 
ATOM     10  C   UNL A   1      32.747  25.221  24.128  1.00  0.00     0.126 C 
ATOM     11  C   UNL A   1      29.971  25.890  24.916  1.00  0.00     0.011 C 
ATOM     12  C   UNL A   1      32.235  24.753  25.497  1.00  0.00     0.180 C 
ATOM     13  C   UNL A   1      30.994  25.519  25.991  1.00  0.00     0.046 C 
BRANCH   8  14
ATOM     14  N   UNL A   1      30.963  24.223  22.698  1.00  0.00    -0.343 N 
ATOM     15  H   UNL A   1      30.827  24.192  21.687  1.00  0.00     0.345 HD
ATOM     16  H   UNL A   1      30.056  24.197  23.164  1.00  0.00     0.345 HD
ATOM     17  H   UNL A   1      31.520  23.422  22.991  1.00  0.00     0.345 HD
ENDBRANCH   8  14
BRANCH  12  18
ATOM     18  O   UNL A   1      32.259  23.322  25.721  1.00  0.00    -0.483 OA
BRANCH  18  19
ATOM     19  C   UNL A   1      33.450  22.663  25.669  1.00  0.00     0.197 A 
ATOM     20  C   UNL A   1      34.446  23.033  26.577  1.00  0.00     0.054 A 
ATOM     21  C   UNL A   1      33.755  21.689  24.707  1.00  0.00     0.310 A 
ATOM     22  C   UNL A   1      35.667  22.352  26.614  1.00  0.00     0.004 A 
ATOM     23  C   UNL A   1      34.977  20.990  24.748  1.00  0.00     0.090 A 
ATOM     24  C   UNL A   1      35.923  21.313  25.720  1.00  0.00     0.007 A 
BRANCH  21  25
ATOM     25  N   UNL A   1      32.777  21.269  23.708  1.00  0.00     0.066 N 
ATOM     26  O   UNL A   1      32.122  20.240  23.950  1.00  0.00    -0.258 OA
ATOM     27  O   UNL A   1      32.689  21.923  22.661  1.00  0.00    -0.258 OA
ENDBRANCH  21  25
ENDBRANCH  18  19
ENDBRANCH  12  18
ENDBRANCH   6   8
ENDBRANCH   5   6
ENDBRANCH   4   5
ENDBRANCH   3   4
ENDBRANCH   2   3
ENDBRANCH   1   2
BRANCH   1  28
ATOM     28  C   UNL A   1      31.653  29.571  25.331  1.00  0.00     0.188 C 
BRANCH  28  29
ATOM     29  O   UNL A   1      31.359  30.412  26.433  1.00  0.00    -0.376 OA
BRANCH  29  30
ATOM     30  C   UNL A   1      32.462  31.168  26.910  1.00  0.00     0.202 C 
BRANCH  30  31
ATOM     31  C   UNL A   1      32.126  32.645  27.152  1.00  0.00     0.261 C 
BRANCH  31  32
ATOM     32  O   UNL A   1      33.238  33.567  27.133  1.00  0.00    -0.460 OA
BRANCH  32  33
ATOM     33  C   UNL A   1      33.716  34.021  28.316  1.00  0.00     0.338 C 
ATOM     34  O   UNL A   1      33.156  34.819  29.050  1.00  0.00    -0.246 OA
BRANCH  33  35
ATOM     35  C   UNL A   1      34.920  33.227  28.691  1.00  0.00     0.060 A 
ATOM     36  C   UNL A   1      34.746  31.936  29.207  1.00  0.00     0.016 A 
ATOM     37  C   UNL A   1      36.216  33.728  28.521  1.00  0.00     0.016 A 
ATOM     38  C   UNL A   1      35.855  31.159  29.576  1.00  0.00     0.010 A 
ATOM     39  C   UNL A   1      37.325  32.953  28.908  1.00  0.00     0.010 A 
ATOM     40  C   UNL A   1      37.156  31.671  29.464  1.00  0.00    -0.014 A 
BRANCH  40  41
ATOM     41  C   UNL A   1      38.310  30.934  30.069  1.00  0.00     0.031 A 
ATOM     42  C   UNL A   1      38.696  31.230  31.500  1.00  0.00     0.074 A 
ATOM     43  C   UNL A   1      38.992  29.987  29.394  1.00  0.00     0.049 A 
ATOM     44  N   UNL A   1      39.659  30.725  32.229  1.00  0.00    -0.248 NA
ATOM     45  C   UNL A   1      37.880  32.236  32.196  1.00  0.00     0.031 C 
ATOM     46  C   UNL A   1      38.716  29.562  28.024  1.00  0.00     0.029 A 
ATOM     47  N   UNL A   1      40.063  29.210  29.774  1.00  0.00    -0.354 N 
ATOM     48  C   UNL A   1      39.567  31.347  33.471  1.00  0.00     0.074 A 
ATOM     49  C   UNL A   1      38.477  32.297  33.376  1.00  0.00     0.031 C 
ATOM     50  C   UNL A   1      39.595  28.603  27.678  1.00  0.00     0.029 A 
ATOM     51  C   UNL A   1      40.523  28.369  28.785  1.00  0.00     0.049 A 
ATOM     52  H   UNL A   1      40.465  29.252  30.672  1.00  0.00     0.167 HD
ATOM     53  C   UNL A   1      40.308  31.144  34.591  1.00  0.00     0.034 A 
ATOM     54  C   UNL A   1      41.578  27.524  28.762  1.00  0.00     0.034 A 
ATOM     55  C   UNL A   1      41.408  30.213  34.681  1.00  0.00     0.049 A 
ATOM     56  C   UNL A   1      42.450  27.384  29.992  1.00  0.00     0.074 A 
ATOM     57  C   UNL A   1      42.209  29.931  35.776  1.00  0.00     0.029 A 
ATOM     58  N   UNL A   1      41.880  29.424  33.640  1.00  0.00    -0.354 N 
ATOM     59  N   UNL A   1      42.336  27.967  31.163  1.00  0.00    -0.248 NA
ATOM     60  C   UNL A   1      43.589  26.458  29.893  1.00  0.00     0.031 C 
ATOM     61  C   UNL A   1      43.212  29.040  35.375  1.00  0.00     0.029 A 
ATOM     62  C   UNL A   1      42.982  28.688  34.055  1.00  0.00     0.049 A 
ATOM     63  H   UNL A   1      41.489  29.392  32.737  1.00  0.00     0.167 HD
ATOM     64  C   UNL A   1      43.371  27.452  31.947  1.00  0.00     0.074 A 
ATOM     65  C   UNL A   1      44.076  26.494  31.124  1.00  0.00     0.031 C 
ATOM     66  C   UNL A   1      43.705  27.746  33.231  1.00  0.00     0.034 A 
BRANCH  53  67
ATOM     67  C   UNL A   1      39.982  31.993  35.799  1.00  0.00     0.023 A 
ATOM     68  C   UNL A   1      39.013  31.603  36.741  1.00  0.00     0.031 A 
ATOM     69  C   UNL A   1      40.635  33.222  36.000  1.00  0.00     0.131 A 
ATOM     70  C   UNL A   1      38.673  32.466  37.794  1.00  0.00     0.055 A 
ATOM     71  C   UNL A   1      40.354  34.037  37.098  1.00  0.00     0.041 A 
ATOM     72  F   UNL A   1      41.554  33.660  35.124  1.00  0.00    -0.206 F 
ATOM     73  C   UNL A   1      39.356  33.668  37.995  1.00  0.00     0.022 A 
BRANCH  70  74
ATOM     74  S   UNL A   1      37.222  32.067  38.807  1.00  0.00     0.124 S 
ATOM     75  O   UNL A   1      36.216  32.970  38.252  1.00  0.00    -0.237 OA
ATOM     76  O   UNL A   1      37.027  30.648  38.533  1.00  0.00    -0.237 OA
ATOM     77  O   UNL A   1      37.653  32.388  40.166  1.00  0.00    -0.744 OA
ENDBRANCH  70  74
ENDBRANCH  53  67
BRANCH  54  78
ATOM     78  C   UNL A   1      41.921  26.763  27.521  1.00  0.00     0.023 A 
ATOM     79  C   UNL A   1      41.695  25.378  27.423  1.00  0.00     0.031 A 
ATOM     80  C   UNL A   1      42.564  27.399  26.444  1.00  0.00     0.131 A 
ATOM     81  C   UNL A   1      42.155  24.670  26.300  1.00  0.00     0.055 A 
ATOM     82  C   UNL A   1      42.964  26.701  25.302  1.00  0.00     0.041 A 
ATOM     83  F   UNL A   1      42.820  28.716  26.489  1.00  0.00    -0.206 F 
ATOM     84  C   UNL A   1      42.773  25.325  25.232  1.00  0.00     0.022 A 
BRANCH  81  85
ATOM     85  S   UNL A   1      42.025  22.860  26.297  1.00  0.00     0.124 S 
ATOM     86  O   UNL A   1      42.658  22.519  25.027  1.00  0.00    -0.237 OA
ATOM     87  O   UNL A   1      42.768  22.500  27.499  1.00  0.00    -0.237 OA
ATOM     88  O   UNL A   1      40.585  22.621  26.360  1.00  0.00    -0.744 OA
ENDBRANCH  81  85
ENDBRANCH  54  78
BRANCH  66  89
ATOM     89  C   UNL A   1      44.866  26.983  33.837  1.00  0.00     0.023 A 
ATOM     90  C   UNL A   1      44.687  25.746  34.483  1.00  0.00     0.031 A 
ATOM     91  C   UNL A   1      46.164  27.525  33.812  1.00  0.00     0.131 A 
ATOM     92  C   UNL A   1      45.764  25.137  35.149  1.00  0.00     0.055 A 
ATOM     93  C   UNL A   1      47.248  26.875  34.409  1.00  0.00     0.041 A 
ATOM     94  F   UNL A   1      46.403  28.704  33.216  1.00  0.00    -0.206 F 
ATOM     95  C   UNL A   1      47.047  25.685  35.101  1.00  0.00     0.022 A 
BRANCH  92  96
ATOM     96  S   UNL A   1      45.433  23.697  36.203  1.00  0.00     0.124 S 
ATOM     97  O   UNL A   1      46.592  22.852  35.933  1.00  0.00    -0.237 OA
ATOM     98  O   UNL A   1      45.373  24.292  37.533  1.00  0.00    -0.237 OA
ATOM     99  O   UNL A   1      44.161  23.185  35.694  1.00  0.00    -0.744 OA
ENDBRANCH  92  96
ENDBRANCH  66  89
ENDBRANCH  40  41
ENDBRANCH  33  35
ENDBRANCH  32  33
ENDBRANCH  31  32
ENDBRANCH  30  31
ENDBRANCH  29  30
ENDBRANCH  28  29
ENDBRANCH   1  28
TORSDOF 24
ENDMDL
MODEL 2
REMARK VINA RESULT:      -9.9      1.511      2.005
REMARK SMILES [NH3+][C@@]1(C(=O)OCCOCCOCCOC(=O)c2ccc(-c3c4nc(c(-c5cc(S(=O)(=O)[O-])ccc5F)c5ccc([nH]5)c(-c5cc(S(=O)(=O)[O-])ccc5F)c5nc(c(-c6cc(S(=O)(=O)[O-])ccc6F)c6ccc3[nH]6)C=C5)C=C4)cc2)CCC[C@@H](Oc2ccccc2[N+](=O)[O-])C1
REMARK SMILES IDX 9 1 8 2 7 3 6 4 5 5 3 6 4 7 2 8 80 9 94 10 81 11 83 12 82 13
REMARK SMILES IDX 1 14 84 18 85 19 86 20 90 21 87 22 89 23 88 24 91 25 92 26
REMARK SMILES IDX 93 27 10 28 11 29 12 30 13 31 14 32 15 33 16 34 17 35 18 36
REMARK SMILES IDX 79 37 19 38 78 39 20 40 21 41 22 42 72 43 23 44 77 45 71 46
REMARK SMILES IDX 73 47 24 48 76 49 70 50 69 51 25 53 57 54 37 55 56 56 38 57
REMARK SMILES IDX 41 58 55 59 74 60 39 61 40 62 54 64 75 65 42 66 26 67 27 68
REMARK SMILES IDX 35 69 28 70 34 71 36 72 33 73 29 74 30 75 31 76 32 77 58 78
REMARK SMILES IDX 59 79 67 80 60 81 66 82 68 83 65 84 61 85 62 86 63 87 64 88
REMARK SMILES IDX 43 89 44 90 52 91 45 92 51 93 53 94 50 95 46 96 47 97 48 98
REMARK SMILES IDX 49 99
REMARK H PARENT 1 15 1 16 1 17 73 52 41 63
REMARK Flexibility Score: inf
ROOT
ATOM      1  C   UNL A   1      28.886  31.328  22.299  1.00  0.00     0.188 C 
ENDROOT
BRANCH   1   2
ATOM      2  O   UNL A   1      28.512  30.079  21.731  1.00  0.00    -0.376 OA
BRANCH   2   3
ATOM      3  C   UNL A   1      28.719  28.882  22.454  1.00  0.00     0.202 C 
BRANCH   3   4
ATOM      4  C   UNL A   1      30.163  28.433  22.693  1.00  0.00     0.261 C 
BRANCH   4   5
ATOM      5  O   UNL A   1      30.384  27.753  23.933  1.00  0.00    -0.459 OA
BRANCH   5   6
ATOM      6  C   UNL A   1      29.816  26.514  24.099  1.00  0.00     0.368 C 
ATOM      7  O   UNL A   1      28.653  26.240  23.846  1.00  0.00    -0.245 OA
BRANCH   6   8
ATOM      8  C   UNL A   1      30.880  25.510  24.662  1.00  0.00     0.196 C 
ATOM      9  C   UNL A   1      31.255  25.763  26.132  1.00  0.00     0.081 C 
ATOM     10  C   UNL A   1      32.138  25.671  23.791  1.00  0.00     0.126 C 
ATOM     11  C   UNL A   1      32.355  24.805  26.616  1.00  0.00     0.011 C 
ATOM     12  C   UNL A   1      33.353  24.835  24.215  1.00  0.00     0.180 C 
ATOM     13  C   UNL A   1      33.605  24.833  25.734  1.00  0.00     0.046 C 
BRANCH   8  14
ATOM     14  N   UNL A   1      30.334  24.137  24.578  1.00  0.00    -0.343 N 
ATOM     15  H   UNL A   1      29.317  24.172  24.649  1.00  0.00     0.345 HD
ATOM     16  H   UNL A   1      30.709  23.575  25.341  1.00  0.00     0.345 HD
ATOM     17  H   UNL A   1      30.598  23.721  23.685  1.00  0.00     0.345 HD
ENDBRANCH   8  14
BRANCH  12  18
ATOM     18  O   UNL A   1      33.527  23.578  23.517  1.00  0.00    -0.483 OA
BRANCH  18  19
ATOM     19  C   UNL A   1      34.549  22.754  23.880  1.00  0.00     0.197 A 
ATOM     20  C   UNL A   1      35.850  23.129  23.533  1.00  0.00     0.054 A 
ATOM     21  C   UNL A   1      34.360  21.517  24.514  1.00  0.00     0.310 A 
ATOM     22  C   UNL A   1      36.946  22.357  23.931  1.00  0.00     0.004 A 
ATOM     23  C   UNL A   1      35.460  20.742  24.930  1.00  0.00     0.090 A 
ATOM     24  C   UNL A   1      36.754  21.180  24.653  1.00  0.00     0.007 A 
BRANCH  21  25
ATOM     25  N   UNL A   1      33.029  21.044  24.883  1.00  0.00     0.066 N 
ATOM     26  O   UNL A   1      32.432  20.325  24.063  1.00  0.00    -0.258 OA
ATOM     27  O   UNL A   1      32.548  21.424  25.959  1.00  0.00    -0.258 OA
ENDBRANCH  21  25
ENDBRANCH  18  19
ENDBRANCH  12  18
ENDBRANCH   6   8
ENDBRANCH   5   6
ENDBRANCH   4   5
ENDBRANCH   3   4
ENDBRANCH   2   3
ENDBRANCH   1   2
BRANCH   1  28
ATOM     28  C   UNL A   1      28.703  31.592  23.806  1.00  0.00     0.188 C 
BRANCH  28  29
ATOM     29  O   UNL A   1      29.835  32.181  24.424  1.00  0.00    -0.376 OA
BRANCH  29  30
ATOM     30  C   UNL A   1      30.562  31.310  25.276  1.00  0.00     0.202 C 
BRANCH  30  31
ATOM     31  C   UNL A   1      31.104  32.003  26.533  1.00  0.00     0.261 C 
BRANCH  31  32
ATOM     32  O   UNL A   1      32.488  31.748  26.860  1.00  0.00    -0.460 OA
BRANCH  32  33
ATOM     33  C   UNL A   1      33.187  32.717  27.496  1.00  0.00     0.338 C 
ATOM     34  O   UNL A   1      32.763  33.824  27.792  1.00  0.00    -0.246 OA
BRANCH  33  35
ATOM     35  C   UNL A   1      34.476  32.149  27.983  1.00  0.00     0.060 A 
ATOM     36  C   UNL A   1      34.540  30.783  28.290  1.00  0.00     0.016 A 
ATOM     37  C   UNL A   1      35.625  32.936  28.117  1.00  0.00     0.016 A 
ATOM     38  C   UNL A   1      35.735  30.211  28.755  1.00  0.00     0.010 A 
ATOM     39  C   UNL A   1      36.816  32.364  28.600  1.00  0.00     0.010 A 
ATOM     40  C   UNL A   1      36.878  31.002  28.949  1.00  0.00    -0.014 A 
BRANCH  40  41
ATOM     41  C   UNL A   1      38.071  30.440  29.657  1.00  0.00     0.031 A 
ATOM     42  C   UNL A   1      38.348  30.874  31.078  1.00  0.00     0.074 A 
ATOM     43  C   UNL A   1      38.883  29.529  29.085  1.00  0.00     0.049 A 
ATOM     44  N   UNL A   1      39.321  30.529  31.884  1.00  0.00    -0.248 NA
ATOM     45  C   UNL A   1      37.394  31.829  31.661  1.00  0.00     0.031 C 
ATOM     46  C   UNL A   1      38.726  28.983  27.738  1.00  0.00     0.029 A 
ATOM     47  N   UNL A   1      40.010  28.902  29.568  1.00  0.00    -0.354 N 
ATOM     48  C   UNL A   1      39.098  31.221  33.071  1.00  0.00     0.074 A 
ATOM     49  C   UNL A   1      37.920  32.036  32.859  1.00  0.00     0.031 C 
ATOM     50  C   UNL A   1      39.719  28.105  27.504  1.00  0.00     0.029 A 
ATOM     51  C   UNL A   1      40.607  28.051  28.665  1.00  0.00     0.049 A 
ATOM     52  H   UNL A   1      40.358  29.050  30.477  1.00  0.00     0.167 HD
ATOM     53  C   UNL A   1      39.798  31.178  34.235  1.00  0.00     0.034 A 
ATOM     54  C   UNL A   1      41.746  27.328  28.751  1.00  0.00     0.034 A 
ATOM     55  C   UNL A   1      40.985  30.381  34.442  1.00  0.00     0.049 A 
ATOM     56  C   UNL A   1      42.564  27.369  30.025  1.00  0.00     0.074 A 
ATOM     57  C   UNL A   1      41.753  30.265  35.590  1.00  0.00     0.029 A 
ATOM     58  N   UNL A   1      41.591  29.580  33.484  1.00  0.00    -0.354 N 
ATOM     59  N   UNL A   1      42.328  28.015  31.144  1.00  0.00    -0.248 NA
ATOM     60  C   UNL A   1      43.798  26.570  30.046  1.00  0.00     0.031 C 
ATOM     61  C   UNL A   1      42.864  29.464  35.300  1.00  0.00     0.029 A 
ATOM     62  C   UNL A   1      42.742  29.000  34.001  1.00  0.00     0.049 A 
ATOM     63  H   UNL A   1      41.253  29.443  32.569  1.00  0.00     0.167 HD
ATOM     64  C   UNL A   1      43.369  27.672  32.009  1.00  0.00     0.074 A 
ATOM     65  C   UNL A   1      44.214  26.743  31.291  1.00  0.00     0.031 C 
ATOM     66  C   UNL A   1      43.603  28.088  33.281  1.00  0.00     0.034 A 
BRANCH  53  67
ATOM     67  C   UNL A   1      39.321  32.066  35.362  1.00  0.00     0.023 A 
ATOM     68  C   UNL A   1      38.695  31.542  36.507  1.00  0.00     0.031 A 
ATOM     69  C   UNL A   1      39.475  33.462  35.279  1.00  0.00     0.131 A 
ATOM     70  C   UNL A   1      38.180  32.410  37.483  1.00  0.00     0.055 A 
ATOM     71  C   UNL A   1      39.039  34.315  36.295  1.00  0.00     0.041 A 
ATOM     72  F   UNL A   1      40.045  34.024  34.200  1.00  0.00    -0.206 F 
ATOM     73  C   UNL A   1      38.372  33.791  37.398  1.00  0.00     0.022 A 
BRANCH  70  74
ATOM     74  S   UNL A   1      37.124  31.719  38.786  1.00  0.00     0.124 S 
ATOM     75  O   UNL A   1      36.829  30.391  38.255  1.00  0.00    -0.237 OA
ATOM     76  O   UNL A   1      37.995  31.762  39.954  1.00  0.00    -0.237 OA
ATOM     77  O   UNL A   1      35.983  32.633  38.822  1.00  0.00    -0.744 OA
ENDBRANCH  70  74
ENDBRANCH  53  67
BRANCH  54  78
ATOM     78  C   UNL A   1      42.232  26.525  27.586  1.00  0.00     0.023 A 
ATOM     79  C   UNL A   1      42.098  25.126  27.550  1.00  0.00     0.031 A 
ATOM     80  C   UNL A   1      42.922  27.144  26.526  1.00  0.00     0.131 A 
ATOM     81  C   UNL A   1      42.688  24.390  26.509  1.00  0.00     0.055 A 
ATOM     82  C   UNL A   1      43.452  26.412  25.461  1.00  0.00     0.041 A 
ATOM     83  F   UNL A   1      43.095  28.475  26.515  1.00  0.00    -0.206 F 
ATOM     84  C   UNL A   1      43.349  25.026  25.456  1.00  0.00     0.022 A 
BRANCH  81  85
ATOM     85  S   UNL A   1      42.665  22.577  26.600  1.00  0.00     0.124 S 
ATOM     86  O   UNL A   1      42.436  22.355  28.023  1.00  0.00    -0.237 OA
ATOM     87  O   UNL A   1      41.558  22.242  25.712  1.00  0.00    -0.237 OA
ATOM     88  O   UNL A   1      43.989  22.195  26.114  1.00  0.00    -0.744 OA
ENDBRANCH  81  85
ENDBRANCH  54  78
BRANCH  66  89
ATOM     89  C   UNL A   1      44.805  27.501  33.993  1.00  0.00     0.023 A 
ATOM     90  C   UNL A   1      44.725  26.301  34.724  1.00  0.00     0.031 A 
ATOM     91  C   UNL A   1      46.039  28.177  33.981  1.00  0.00     0.131 A 
ATOM     92  C   UNL A   1      45.825  25.862  35.479  1.00  0.00     0.055 A 
ATOM     93  C   UNL A   1      47.154  27.693  34.671  1.00  0.00     0.041 A 
ATOM     94  F   UNL A   1      46.184  29.329  33.306  1.00  0.00    -0.206 F 
ATOM     95  C   UNL A   1      47.044  26.541  35.444  1.00  0.00     0.022 A 
BRANCH  92  96
ATOM     96  S   UNL A   1      45.594  24.474  36.626  1.00  0.00     0.124 S 
ATOM     97  O   UNL A   1      44.847  25.100  37.712  1.00  0.00    -0.237 OA
ATOM     98  O   UNL A   1      44.854  23.517  35.811  1.00  0.00    -0.237 OA
ATOM     99  O   UNL A   1      46.961  24.076  36.962  1.00  0.00    -0.744 OA
ENDBRANCH  92  96
ENDBRANCH  66  89
ENDBRANCH  40  41
ENDBRANCH  33  35
ENDBRANCH  32  33
ENDBRANCH  31  32
ENDBRANCH  30  31
ENDBRANCH  29  30
ENDBRANCH  28  29
ENDBRANCH   1  28
TORSDOF 24
ENDMDL
MODEL 3
REMARK VINA RESULT:      -9.7      1.915      2.346
REMARK SMILES [NH3+][C@@]1(C(=O)OCCOCCOCCOC(=O)c2ccc(-c3c4nc(c(-c5cc(S(=O)(=O)[O-])ccc5F)c5ccc([nH]5)c(-c5cc(S(=O)(=O)[O-])ccc5F)c5nc(c(-c6cc(S(=O)(=O)[O-])ccc6F)c6ccc3[nH]6)C=C5)C=C4)cc2)CCC[C@@H](Oc2ccccc2[N+](=O)[O-])C1
REMARK SMILES IDX 9 1 8 2 7 3 6 4 5 5 3 6 4 7 2 8 80 9 94 10 81 11 83 12 82 13
REMARK SMILES IDX 1 14 84 18 85 19 86 20 90 21 87 22 89 23 88 24 91 25 92 26
REMARK SMILES IDX 93 27 10 28 11 29 12 30 13 31 14 32 15 33 16 34 17 35 18 36
REMARK SMILES IDX 79 37 19 38 78 39 20 40 21 41 22 42 72 43 23 44 77 45 71 46
REMARK SMILES IDX 73 47 24 48 76 49 70 50 69 51 25 53 57 54 37 55 56 56 38 57
REMARK SMILES IDX 41 58 55 59 74 60 39 61 40 62 54 64 75 65 42 66 26 67 27 68
REMARK SMILES IDX 35 69 28 70 34 71 36 72 33 73 29 74 30 75 31 76 32 77 58 78
REMARK SMILES IDX 59 79 67 80 60 81 66 82 68 83 65 84 61 85 62 86 63 87 64 88
REMARK SMILES IDX 43 89 44 90 52 91 45 92 51 93 53 94 50 95 46 96 47 97 48 98
REMARK SMILES IDX 49 99
REMARK H PARENT 1 15 1 16 1 17 73 52 41 63
REMARK Flexibility Score: inf
ROOT
ATOM      1  C   UNL A   1      28.889  31.386  22.321  1.00  0.00     0.188 C 
ENDROOT
BRANCH   1   2
ATOM      2  O   UNL A   1      28.474  30.137  21.783  1.00  0.00    -0.376 OA
BRANCH   2   3
ATOM      3  C   UNL A   1      28.758  28.938  22.476  1.00  0.00     0.202 C 
BRANCH   3   4
ATOM      4  C   UNL A   1      30.223  28.509  22.593  1.00  0.00     0.261 C 
BRANCH   4   5
ATOM      5  O   UNL A   1      30.534  27.741  23.760  1.00  0.00    -0.459 OA
BRANCH   5   6
ATOM      6  C   UNL A   1      29.899  26.535  23.926  1.00  0.00     0.368 C 
ATOM      7  O   UNL A   1      28.742  26.306  23.608  1.00  0.00    -0.245 OA
BRANCH   6   8
ATOM      8  C   UNL A   1      30.876  25.503  24.584  1.00  0.00     0.196 C 
ATOM      9  C   UNL A   1      31.155  25.774  26.072  1.00  0.00     0.081 C 
ATOM     10  C   UNL A   1      32.199  25.593  23.804  1.00  0.00     0.126 C 
ATOM     11  C   UNL A   1      32.177  24.783  26.654  1.00  0.00     0.011 C 
ATOM     12  C   UNL A   1      33.346  24.719  24.331  1.00  0.00     0.180 C 
ATOM     13  C   UNL A   1      33.488  24.741  25.865  1.00  0.00     0.046 C 
BRANCH   8  14
ATOM     14  N   UNL A   1      30.281  24.151  24.488  1.00  0.00    -0.343 N 
ATOM     15  H   UNL A   1      30.448  23.773  23.555  1.00  0.00     0.345 HD
ATOM     16  H   UNL A   1      29.277  24.210  24.656  1.00  0.00     0.345 HD
ATOM     17  H   UNL A   1      30.709  23.542  25.184  1.00  0.00     0.345 HD
ENDBRANCH   8  14
BRANCH  12  18
ATOM     18  O   UNL A   1      33.516  23.440  23.673  1.00  0.00    -0.483 OA
BRANCH  18  19
ATOM     19  C   UNL A   1      34.601  22.677  23.979  1.00  0.00     0.197 A 
ATOM     20  C   UNL A   1      35.856  23.113  23.543  1.00  0.00     0.054 A 
ATOM     21  C   UNL A   1      34.519  21.443  24.641  1.00  0.00     0.310 A 
ATOM     22  C   UNL A   1      37.015  22.405  23.879  1.00  0.00     0.004 A 
ATOM     23  C   UNL A   1      35.683  20.733  24.995  1.00  0.00     0.090 A 
ATOM     24  C   UNL A   1      36.932  21.232  24.629  1.00  0.00     0.007 A 
BRANCH  21  25
ATOM     25  N   UNL A   1      33.242  20.908  25.103  1.00  0.00     0.066 N 
ATOM     26  O   UNL A   1      32.561  20.270  24.282  1.00  0.00    -0.258 OA
ATOM     27  O   UNL A   1      32.883  21.161  26.261  1.00  0.00    -0.258 OA
ENDBRANCH  21  25
ENDBRANCH  18  19
ENDBRANCH  12  18
ENDBRANCH   6   8
ENDBRANCH   5   6
ENDBRANCH   4   5
ENDBRANCH   3   4
ENDBRANCH   2   3
ENDBRANCH   1   2
BRANCH   1  28
ATOM     28  C   UNL A   1      28.746  31.679  23.827  1.00  0.00     0.188 C 
BRANCH  28  29
ATOM     29  O   UNL A   1      29.890  32.285  24.403  1.00  0.00    -0.376 OA
BRANCH  29  30
ATOM     30  C   UNL A   1      30.630  31.442  25.273  1.00  0.00     0.202 C 
BRANCH  30  31
ATOM     31  C   UNL A   1      31.165  32.169  26.513  1.00  0.00     0.261 C 
BRANCH  31  32
ATOM     32  O   UNL A   1      32.544  31.914  26.860  1.00  0.00    -0.460 OA
BRANCH  32  33
ATOM     33  C   UNL A   1      33.216  32.861  27.556  1.00  0.00     0.338 C 
ATOM     34  O   UNL A   1      32.775  33.951  27.884  1.00  0.00    -0.246 OA
BRANCH  33  35
ATOM     35  C   UNL A   1      34.494  32.281  28.058  1.00  0.00     0.060 A 
ATOM     36  C   UNL A   1      34.553  30.908  28.335  1.00  0.00     0.016 A 
ATOM     37  C   UNL A   1      35.640  33.065  28.236  1.00  0.00     0.016 A 
ATOM     38  C   UNL A   1      35.737  30.326  28.812  1.00  0.00     0.010 A 
ATOM     39  C   UNL A   1      36.820  32.481  28.731  1.00  0.00     0.010 A 
ATOM     40  C   UNL A   1      36.875  31.111  29.049  1.00  0.00    -0.014 A 
BRANCH  40  41
ATOM     41  C   UNL A   1      38.052  30.532  29.770  1.00  0.00     0.031 A 
ATOM     42  C   UNL A   1      38.322  30.965  31.193  1.00  0.00     0.074 A 
ATOM     43  C   UNL A   1      38.857  29.608  29.207  1.00  0.00     0.049 A 
ATOM     44  N   UNL A   1      39.281  30.606  32.009  1.00  0.00    -0.248 NA
ATOM     45  C   UNL A   1      37.377  31.935  31.765  1.00  0.00     0.031 C 
ATOM     46  C   UNL A   1      38.705  29.062  27.860  1.00  0.00     0.029 A 
ATOM     47  N   UNL A   1      39.969  28.966  29.703  1.00  0.00    -0.354 N 
ATOM     48  C   UNL A   1      39.058  31.303  33.193  1.00  0.00     0.074 A 
ATOM     49  C   UNL A   1      37.894  32.136  32.968  1.00  0.00     0.031 C 
ATOM     50  C   UNL A   1      39.686  28.170  27.637  1.00  0.00     0.029 A 
ATOM     51  C   UNL A   1      40.562  28.104  28.807  1.00  0.00     0.049 A 
ATOM     52  H   UNL A   1      40.310  29.109  30.615  1.00  0.00     0.167 HD
ATOM     53  C   UNL A   1      39.745  31.252  34.364  1.00  0.00     0.034 A 
ATOM     54  C   UNL A   1      41.689  27.364  28.906  1.00  0.00     0.034 A 
ATOM     55  C   UNL A   1      40.917  30.438  34.584  1.00  0.00     0.049 A 
ATOM     56  C   UNL A   1      42.495  27.395  30.187  1.00  0.00     0.074 A 
ATOM     57  C   UNL A   1      41.673  30.312  35.739  1.00  0.00     0.029 A 
ATOM     58  N   UNL A   1      41.521  29.626  33.633  1.00  0.00    -0.354 N 
ATOM     59  N   UNL A   1      42.257  28.046  31.303  1.00  0.00    -0.248 NA
ATOM     60  C   UNL A   1      43.716  26.577  30.222  1.00  0.00     0.031 C 
ATOM     61  C   UNL A   1      42.774  29.494  35.462  1.00  0.00     0.029 A 
ATOM     62  C   UNL A   1      42.658  29.029  34.162  1.00  0.00     0.049 A 
ATOM     63  H   UNL A   1      41.190  29.492  32.715  1.00  0.00     0.167 HD
ATOM     64  C   UNL A   1      43.285  27.689  32.179  1.00  0.00     0.074 A 
ATOM     65  C   UNL A   1      44.123  26.746  31.470  1.00  0.00     0.031 C 
ATOM     66  C   UNL A   1      43.512  28.103  33.453  1.00  0.00     0.034 A 
BRANCH  53  67
ATOM     67  C   UNL A   1      39.270  32.149  35.484  1.00  0.00     0.023 A 
ATOM     68  C   UNL A   1      39.774  33.451  35.657  1.00  0.00     0.031 A 
ATOM     69  C   UNL A   1      38.316  31.687  36.408  1.00  0.00     0.131 A 
ATOM     70  C   UNL A   1      39.378  34.214  36.767  1.00  0.00     0.055 A 
ATOM     71  C   UNL A   1      37.862  32.484  37.461  1.00  0.00     0.041 A 
ATOM     72  F   UNL A   1      37.815  30.445  36.310  1.00  0.00    -0.206 F 
ATOM     73  C   UNL A   1      38.405  33.750  37.655  1.00  0.00     0.022 A 
BRANCH  70  74
ATOM     74  S   UNL A   1      40.266  35.757  37.118  1.00  0.00     0.124 S 
ATOM     75  O   UNL A   1      41.371  35.280  37.946  1.00  0.00    -0.237 OA
ATOM     76  O   UNL A   1      40.622  36.226  35.785  1.00  0.00    -0.237 OA
ATOM     77  O   UNL A   1      39.275  36.569  37.823  1.00  0.00    -0.744 OA
ENDBRANCH  70  74
ENDBRANCH  53  67
BRANCH  54  78
ATOM     78  C   UNL A   1      42.174  26.552  27.746  1.00  0.00     0.023 A 
ATOM     79  C   UNL A   1      41.956  25.165  27.678  1.00  0.00     0.031 A 
ATOM     80  C   UNL A   1      42.946  27.144  26.729  1.00  0.00     0.131 A 
ATOM     81  C   UNL A   1      42.543  24.411  26.648  1.00  0.00     0.055 A 
ATOM     82  C   UNL A   1      43.475  26.399  25.673  1.00  0.00     0.041 A 
ATOM     83  F   UNL A   1      43.201  28.462  26.751  1.00  0.00    -0.206 F 
ATOM     84  C   UNL A   1      43.287  25.022  25.637  1.00  0.00     0.022 A 
BRANCH  81  85
ATOM     85  S   UNL A   1      42.405  22.602  26.703  1.00  0.00     0.124 S 
ATOM     86  O   UNL A   1      43.785  22.207  26.967  1.00  0.00    -0.237 OA
ATOM     87  O   UNL A   1      41.462  22.402  27.797  1.00  0.00    -0.237 OA
ATOM     88  O   UNL A   1      41.900  22.257  25.376  1.00  0.00    -0.744 OA
ENDBRANCH  81  85
ENDBRANCH  54  78
BRANCH  66  89
ATOM     89  C   UNL A   1      44.698  27.499  34.177  1.00  0.00     0.023 A 
ATOM     90  C   UNL A   1      44.590  26.309  34.919  1.00  0.00     0.031 A 
ATOM     91  C   UNL A   1      45.946  28.151  34.166  1.00  0.00     0.131 A 
ATOM     92  C   UNL A   1      45.676  25.855  35.685  1.00  0.00     0.055 A 
ATOM     93  C   UNL A   1      47.046  27.651  34.868  1.00  0.00     0.041 A 
ATOM     94  F   UNL A   1      46.117  29.293  33.482  1.00  0.00    -0.206 F 
ATOM     95  C   UNL A   1      46.909  26.509  35.650  1.00  0.00     0.022 A 
BRANCH  92  96
ATOM     96  S   UNL A   1      45.411  24.483  36.843  1.00  0.00     0.124 S 
ATOM     97  O   UNL A   1      44.899  25.175  38.020  1.00  0.00    -0.237 OA
ATOM     98  O   UNL A   1      44.453  23.650  36.125  1.00  0.00    -0.237 OA
ATOM     99  O   UNL A   1      46.745  23.901  36.997  1.00  0.00    -0.744 OA
ENDBRANCH  92  96
ENDBRANCH  66  89
ENDBRANCH  40  41
ENDBRANCH  33  35
ENDBRANCH  32  33
ENDBRANCH  31  32
ENDBRANCH  30  31
ENDBRANCH  29  30
ENDBRANCH  28  29
ENDBRANCH   1  28
TORSDOF 24
ENDMDL
