MODEL 1
REMARK VINA RESULT:     -10.3      0.000      0.000
REMARK SMILES CCCN1CCC[C@@]2(CCN(c3ccc(C(=O)OCCOCCOCCOC(=O)c4ccc(-c5c6nc(c(-c7cc(S(=O)(=O)[O-])ccc7F)c7ccc([nH]7)c(-c7cc(S(=O)(=O)[O-])ccc7F)c7nc(c(-c8cc(S(=O)(=O)[O-])ccc8F)c8ccc5[nH]8)C=C7)C=C6)cc4)cn3)C2)C1=O
REMARK SMILES IDX 22 1 21 2 20 3 19 4 18 5 16 6 17 7 15 8 12 9 13 10 94 11
REMARK SMILES IDX 14 12 93 13 11 14 4 15 5 16 96 17 6 18 8 19 97 20 7 21 9 22
REMARK SMILES IDX 95 23 10 24 3 25 2 26 1 27 23 28 24 29 25 30 26 31 27 32
REMARK SMILES IDX 28 33 29 34 30 35 31 36 92 37 32 38 91 39 33 40 34 41 35 42
REMARK SMILES IDX 85 43 36 44 90 45 84 46 86 47 37 48 89 49 83 50 82 51 38 53
REMARK SMILES IDX 70 54 50 55 69 56 51 57 54 58 68 59 87 60 52 61 53 62 67 64
REMARK SMILES IDX 88 65 55 66 39 67 40 68 48 69 41 70 47 71 49 72 46 73 42 74
REMARK SMILES IDX 43 75 44 76 45 77 71 78 72 79 80 80 73 81 79 82 81 83 78 84
REMARK SMILES IDX 74 85 75 86 76 87 77 88 56 89 57 90 65 91 58 92 64 93 66 94
REMARK SMILES IDX 63 95 59 96 60 97 61 98 62 99
REMARK H PARENT 86 52 54 63
REMARK Flexibility Score: inf
ROOT
ATOM      1  C   UNL A   1      34.942  34.392  29.333  1.00  0.00     0.188 C 
ENDROOT
BRANCH   1   2
ATOM      2  O   UNL A   1      35.751  33.296  28.915  1.00  0.00    -0.376 OA
BRANCH   2   3
ATOM      3  C   UNL A   1      35.244  32.350  27.983  1.00  0.00     0.202 C 
BRANCH   3   4
ATOM      4  C   UNL A   1      33.832  31.778  28.176  1.00  0.00     0.261 C 
BRANCH   4   5
ATOM      5  O   UNL A   1      33.477  30.722  27.270  1.00  0.00    -0.460 OA
BRANCH   5   6
ATOM      6  C   UNL A   1      32.209  30.779  26.774  1.00  0.00     0.339 C 
ATOM      7  O   UNL A   1      31.545  31.767  26.579  1.00  0.00    -0.246 OA
BRANCH   6   8
ATOM      8  C   UNL A   1      31.788  29.426  26.357  1.00  0.00     0.078 A 
ATOM      9  C   UNL A   1      31.076  26.825  25.772  1.00  0.00     0.128 A 
ATOM     10  C   UNL A   1      31.067  27.796  24.765  1.00  0.00     0.048 A 
ATOM     11  N   UNL A   1      31.373  27.143  27.046  1.00  0.00    -0.238 NA
ATOM     12  C   UNL A   1      31.412  29.114  25.057  1.00  0.00     0.021 A 
ATOM     13  C   UNL A   1      31.743  28.421  27.311  1.00  0.00     0.129 A 
BRANCH   9  14
ATOM     14  N   UNL A   1      30.911  25.498  25.413  1.00  0.00    -0.356 N 
ATOM     15  N   UNL A   1      34.310  22.874  24.578  1.00  0.00    -0.342 N 
ATOM     16  C   UNL A   1      34.242  22.576  23.156  1.00  0.00     0.119 C 
ATOM     17  C   UNL A   1      33.167  22.915  25.377  1.00  0.00     0.230 C 
ATOM     18  C   UNL A   1      32.983  23.059  22.457  1.00  0.00     0.023 C 
ATOM     19  C   UNL A   1      31.898  23.432  24.691  1.00  0.00     0.069 C 
ATOM     20  O   UNL A   1      33.197  22.689  26.585  1.00  0.00    -0.274 OA
ATOM     21  C   UNL A   1      31.747  22.797  23.306  1.00  0.00     0.021 C 
ATOM     22  C   UNL A   1      30.645  23.207  25.567  1.00  0.00     0.040 C 
ATOM     23  C   UNL A   1      32.016  24.975  24.607  1.00  0.00     0.135 C 
ATOM     24  C   UNL A   1      30.532  24.492  26.396  1.00  0.00     0.119 C 
BRANCH  15  25
ATOM     25  C   UNL A   1      35.619  22.989  25.236  1.00  0.00     0.119 C 
BRANCH  25  26
ATOM     26  C   UNL A   1      36.281  21.699  25.731  1.00  0.00     0.018 C 
ATOM     27  C   UNL A   1      35.781  20.434  25.043  1.00  0.00     0.006 C 
ENDBRANCH  25  26
ENDBRANCH  15  25
ENDBRANCH   9  14
ENDBRANCH   6   8
ENDBRANCH   5   6
ENDBRANCH   4   5
ENDBRANCH   3   4
ENDBRANCH   2   3
ENDBRANCH   1   2
BRANCH   1  28
ATOM     28  C   UNL A   1      34.545  34.533  30.820  1.00  0.00     0.188 C 
BRANCH  28  29
ATOM     29  O   UNL A   1      34.007  33.351  31.372  1.00  0.00    -0.376 OA
BRANCH  29  30
ATOM     30  C   UNL A   1      34.886  32.476  32.059  1.00  0.00     0.202 C 
BRANCH  30  31
ATOM     31  C   UNL A   1      35.602  32.898  33.356  1.00  0.00     0.261 C 
BRANCH  31  32
ATOM     32  O   UNL A   1      36.500  31.961  33.965  1.00  0.00    -0.460 OA
BRANCH  32  33
ATOM     33  C   UNL A   1      37.774  32.375  34.163  1.00  0.00     0.338 C 
ATOM     34  O   UNL A   1      38.169  33.100  35.058  1.00  0.00    -0.246 OA
BRANCH  33  35
ATOM     35  C   UNL A   1      38.645  31.654  33.208  1.00  0.00     0.060 A 
ATOM     36  C   UNL A   1      39.645  30.809  33.704  1.00  0.00     0.016 A 
ATOM     37  C   UNL A   1      38.487  31.829  31.830  1.00  0.00     0.016 A 
ATOM     38  C   UNL A   1      40.524  30.174  32.823  1.00  0.00     0.010 A 
ATOM     39  C   UNL A   1      39.379  31.205  30.950  1.00  0.00     0.010 A 
ATOM     40  C   UNL A   1      40.428  30.410  31.445  1.00  0.00    -0.014 A 
BRANCH  40  41
ATOM     41  C   UNL A   1      41.555  30.026  30.553  1.00  0.00     0.031 A 
ATOM     42  C   UNL A   1      41.434  28.741  29.775  1.00  0.00     0.074 A 
ATOM     43  C   UNL A   1      42.641  30.804  30.401  1.00  0.00     0.049 A 
ATOM     44  N   UNL A   1      42.285  28.170  28.962  1.00  0.00    -0.248 NA
ATOM     45  C   UNL A   1      40.176  27.999  29.951  1.00  0.00     0.031 C 
ATOM     46  C   UNL A   1      42.852  32.097  31.049  1.00  0.00     0.029 A 
ATOM     47  N   UNL A   1      43.773  30.617  29.646  1.00  0.00    -0.354 N 
ATOM     48  C   UNL A   1      41.664  27.002  28.527  1.00  0.00     0.074 A 
ATOM     49  C   UNL A   1      40.394  26.922  29.215  1.00  0.00     0.031 C 
ATOM     50  C   UNL A   1      44.041  32.590  30.657  1.00  0.00     0.029 A 
ATOM     51  C   UNL A   1      44.692  31.632  29.764  1.00  0.00     0.049 A 
ATOM     52  H   UNL A   1      43.913  29.828  29.074  1.00  0.00     0.167 HD
ATOM     53  C   UNL A   1      42.102  26.091  27.622  1.00  0.00     0.034 A 
ATOM     54  C   UNL A   1      45.922  31.763  29.223  1.00  0.00     0.034 A 
ATOM     55  C   UNL A   1      43.384  26.169  26.965  1.00  0.00     0.049 A 
ATOM     56  C   UNL A   1      46.444  30.675  28.313  1.00  0.00     0.074 A 
ATOM     57  C   UNL A   1      43.940  25.295  26.048  1.00  0.00     0.029 A 
ATOM     58  N   UNL A   1      44.318  27.178  27.164  1.00  0.00    -0.354 N 
ATOM     59  N   UNL A   1      45.857  29.569  27.916  1.00  0.00    -0.248 NA
ATOM     60  C   UNL A   1      47.797  30.861  27.771  1.00  0.00     0.031 C 
ATOM     61  C   UNL A   1      45.236  25.733  25.752  1.00  0.00     0.029 A 
ATOM     62  C   UNL A   1      45.457  26.931  26.411  1.00  0.00     0.049 A 
ATOM     63  H   UNL A   1      44.191  27.957  27.753  1.00  0.00     0.167 HD
ATOM     64  C   UNL A   1      46.751  28.955  27.040  1.00  0.00     0.074 A 
ATOM     65  C   UNL A   1      47.914  29.816  26.966  1.00  0.00     0.031 C 
ATOM     66  C   UNL A   1      46.617  27.794  26.346  1.00  0.00     0.034 A 
BRANCH  53  67
ATOM     67  C   UNL A   1      41.200  24.907  27.352  1.00  0.00     0.023 A 
ATOM     68  C   UNL A   1      41.636  23.585  27.558  1.00  0.00     0.031 A 
ATOM     69  C   UNL A   1      39.916  25.096  26.812  1.00  0.00     0.131 A 
ATOM     70  C   UNL A   1      40.840  22.510  27.136  1.00  0.00     0.055 A 
ATOM     71  C   UNL A   1      39.088  24.021  26.484  1.00  0.00     0.041 A 
ATOM     72  F   UNL A   1      39.452  26.332  26.567  1.00  0.00    -0.206 F 
ATOM     73  C   UNL A   1      39.557  22.717  26.624  1.00  0.00     0.022 A 
BRANCH  70  74
ATOM     74  S   UNL A   1      41.578  20.853  27.085  1.00  0.00     0.124 S 
ATOM     75  O   UNL A   1      42.536  20.924  28.187  1.00  0.00    -0.237 OA
ATOM     76  O   UNL A   1      40.425  19.987  27.296  1.00  0.00    -0.237 OA
ATOM     77  O   UNL A   1      42.177  20.784  25.755  1.00  0.00    -0.744 OA
ENDBRANCH  70  74
ENDBRANCH  53  67
BRANCH  54  78
ATOM     78  C   UNL A   1      46.763  32.957  29.530  1.00  0.00     0.023 A 
ATOM     79  C   UNL A   1      46.654  34.135  28.773  1.00  0.00     0.031 A 
ATOM     80  C   UNL A   1      47.736  32.916  30.545  1.00  0.00     0.131 A 
ATOM     81  C   UNL A   1      47.531  35.205  29.010  1.00  0.00     0.055 A 
ATOM     82  C   UNL A   1      48.568  34.004  30.814  1.00  0.00     0.041 A 
ATOM     83  F   UNL A   1      47.891  31.812  31.293  1.00  0.00    -0.206 F 
ATOM     84  C   UNL A   1      48.478  35.152  30.035  1.00  0.00     0.022 A 
BRANCH  81  85
ATOM     85  S   UNL A   1      47.483  36.635  27.893  1.00  0.00     0.124 S 
ATOM     86  O   UNL A   1      47.069  36.018  26.639  1.00  0.00    -0.237 OA
ATOM     87  O   UNL A   1      46.499  37.495  28.542  1.00  0.00    -0.237 OA
ATOM     88  O   UNL A   1      48.856  37.134  27.920  1.00  0.00    -0.744 OA
ENDBRANCH  81  85
ENDBRANCH  54  78
BRANCH  66  89
ATOM     89  C   UNL A   1      47.729  27.423  25.392  1.00  0.00     0.023 A 
ATOM     90  C   UNL A   1      47.707  27.786  24.034  1.00  0.00     0.031 A 
ATOM     91  C   UNL A   1      48.829  26.676  25.855  1.00  0.00     0.131 A 
ATOM     92  C   UNL A   1      48.729  27.351  23.175  1.00  0.00     0.055 A 
ATOM     93  C   UNL A   1      49.876  26.304  25.011  1.00  0.00     0.041 A 
ATOM     94  F   UNL A   1      48.907  26.297  27.140  1.00  0.00    -0.206 F 
ATOM     95  C   UNL A   1      49.822  26.628  23.659  1.00  0.00     0.022 A 
BRANCH  92  96
ATOM     96  S   UNL A   1      48.559  27.648  21.393  1.00  0.00     0.124 S 
ATOM     97  O   UNL A   1      47.203  28.178  21.299  1.00  0.00    -0.237 OA
ATOM     98  O   UNL A   1      49.635  28.600  21.132  1.00  0.00    -0.237 OA
ATOM     99  O   UNL A   1      48.749  26.324  20.804  1.00  0.00    -0.744 OA
ENDBRANCH  92  96
ENDBRANCH  66  89
ENDBRANCH  40  41
ENDBRANCH  33  35
ENDBRANCH  32  33
ENDBRANCH  31  32
ENDBRANCH  30  31
ENDBRANCH  29  30
ENDBRANCH  28  29
ENDBRANCH   1  28
TORSDOF 23
ENDMDL
MODEL 2
REMARK VINA RESULT:     -10.3      3.881     11.588
REMARK SMILES CCCN1CCC[C@@]2(CCN(c3ccc(C(=O)OCCOCCOCCOC(=O)c4ccc(-c5c6nc(c(-c7cc(S(=O)(=O)[O-])ccc7F)c7ccc([nH]7)c(-c7cc(S(=O)(=O)[O-])ccc7F)c7nc(c(-c8cc(S(=O)(=O)[O-])ccc8F)c8ccc5[nH]8)C=C7)C=C6)cc4)cn3)C2)C1=O
REMARK SMILES IDX 22 1 21 2 20 3 19 4 18 5 16 6 17 7 15 8 12 9 13 10 94 11
REMARK SMILES IDX 14 12 93 13 11 14 4 15 5 16 96 17 6 18 8 19 97 20 7 21 9 22
REMARK SMILES IDX 95 23 10 24 3 25 2 26 1 27 23 28 24 29 25 30 26 31 27 32
REMARK SMILES IDX 28 33 29 34 30 35 31 36 92 37 32 38 91 39 33 40 34 41 35 42
REMARK SMILES IDX 85 43 36 44 90 45 84 46 86 47 37 48 89 49 83 50 82 51 38 53
REMARK SMILES IDX 70 54 50 55 69 56 51 57 54 58 68 59 87 60 52 61 53 62 67 64
REMARK SMILES IDX 88 65 55 66 39 67 40 68 48 69 41 70 47 71 49 72 46 73 42 74
REMARK SMILES IDX 43 75 44 76 45 77 71 78 72 79 80 80 73 81 79 82 81 83 78 84
REMARK SMILES IDX 74 85 75 86 76 87 77 88 56 89 57 90 65 91 58 92 64 93 66 94
REMARK SMILES IDX 63 95 59 96 60 97 61 98 62 99
REMARK H PARENT 86 52 54 63
REMARK Flexibility Score: inf
ROOT
ATOM      1  C   UNL A   1      44.678  19.498  24.059  1.00  0.00     0.188 C 
ENDROOT
BRANCH   1   2
ATOM      2  O   UNL A   1      43.354  19.277  24.536  1.00  0.00    -0.376 OA
BRANCH   2   3
ATOM      3  C   UNL A   1      43.036  19.529  25.898  1.00  0.00     0.202 C 
BRANCH   3   4
ATOM      4  C   UNL A   1      41.639  20.053  26.265  1.00  0.00     0.261 C 
BRANCH   4   5
ATOM      5  O   UNL A   1      41.337  21.368  25.772  1.00  0.00    -0.460 OA
BRANCH   5   6
ATOM      6  C   UNL A   1      40.703  22.191  26.654  1.00  0.00     0.339 C 
ATOM      7  O   UNL A   1      41.195  22.785  27.582  1.00  0.00    -0.246 OA
BRANCH   6   8
ATOM      8  C   UNL A   1      39.303  22.382  26.223  1.00  0.00     0.078 A 
ATOM      9  C   UNL A   1      36.699  22.539  25.322  1.00  0.00     0.128 A 
ATOM     10  C   UNL A   1      37.333  23.677  25.831  1.00  0.00     0.048 A 
ATOM     11  N   UNL A   1      37.315  21.342  25.313  1.00  0.00    -0.238 NA
ATOM     12  C   UNL A   1      38.644  23.602  26.300  1.00  0.00     0.021 A 
ATOM     13  C   UNL A   1      38.603  21.288  25.737  1.00  0.00     0.129 A 
BRANCH   9  14
ATOM     14  N   UNL A   1      35.474  22.689  24.697  1.00  0.00    -0.356 N 
ATOM     15  N   UNL A   1      32.696  25.895  25.764  1.00  0.00    -0.342 N 
ATOM     16  C   UNL A   1      31.552  25.240  26.380  1.00  0.00     0.119 C 
ATOM     17  C   UNL A   1      33.329  25.365  24.640  1.00  0.00     0.230 C 
ATOM     18  C   UNL A   1      31.557  23.724  26.296  1.00  0.00     0.023 C 
ATOM     19  C   UNL A   1      33.368  23.835  24.562  1.00  0.00     0.069 C 
ATOM     20  O   UNL A   1      33.940  26.065  23.834  1.00  0.00    -0.274 OA
ATOM     21  C   UNL A   1      32.000  23.250  24.920  1.00  0.00     0.021 C 
ATOM     22  C   UNL A   1      33.859  23.348  23.179  1.00  0.00     0.040 C 
ATOM     23  C   UNL A   1      34.474  23.352  25.534  1.00  0.00     0.135 C 
ATOM     24  C   UNL A   1      35.378  23.222  23.344  1.00  0.00     0.119 C 
BRANCH  15  25
ATOM     25  C   UNL A   1      33.114  27.223  26.232  1.00  0.00     0.119 C 
BRANCH  25  26
ATOM     26  C   UNL A   1      32.043  28.128  26.851  1.00  0.00     0.018 C 
ATOM     27  C   UNL A   1      31.739  29.384  26.041  1.00  0.00     0.006 C 
ENDBRANCH  25  26
ENDBRANCH  15  25
ENDBRANCH   9  14
ENDBRANCH   6   8
ENDBRANCH   5   6
ENDBRANCH   4   5
ENDBRANCH   3   4
ENDBRANCH   2   3
ENDBRANCH   1   2
BRANCH   1  28
ATOM     28  C   UNL A   1      45.629  20.440  24.831  1.00  0.00     0.188 C 
BRANCH  28  29
ATOM     29  O   UNL A   1      45.494  21.796  24.466  1.00  0.00    -0.376 OA
BRANCH  29  30
ATOM     30  C   UNL A   1      44.582  22.597  25.198  1.00  0.00     0.202 C 
BRANCH  30  31
ATOM     31  C   UNL A   1      44.148  23.992  24.706  1.00  0.00     0.261 C 
BRANCH  31  32
ATOM     32  O   UNL A   1      43.864  24.994  25.690  1.00  0.00    -0.460 OA
BRANCH  32  33
ATOM     33  C   UNL A   1      42.790  25.786  25.463  1.00  0.00     0.338 C 
ATOM     34  O   UNL A   1      41.715  25.436  25.009  1.00  0.00    -0.246 OA
BRANCH  33  35
ATOM     35  C   UNL A   1      43.078  27.124  26.026  1.00  0.00     0.060 A 
ATOM     36  C   UNL A   1      44.145  27.270  26.920  1.00  0.00     0.016 A 
ATOM     37  C   UNL A   1      42.283  28.224  25.689  1.00  0.00     0.016 A 
ATOM     38  C   UNL A   1      44.392  28.508  27.519  1.00  0.00     0.010 A 
ATOM     39  C   UNL A   1      42.521  29.459  26.302  1.00  0.00     0.010 A 
ATOM     40  C   UNL A   1      43.549  29.596  27.253  1.00  0.00    -0.014 A 
BRANCH  40  41
ATOM     41  C   UNL A   1      43.591  30.792  28.135  1.00  0.00     0.031 A 
ATOM     42  C   UNL A   1      44.662  31.822  27.880  1.00  0.00     0.074 A 
ATOM     43  C   UNL A   1      42.689  30.988  29.113  1.00  0.00     0.049 A 
ATOM     44  N   UNL A   1      44.932  32.928  28.524  1.00  0.00    -0.248 NA
ATOM     45  C   UNL A   1      45.552  31.554  26.740  1.00  0.00     0.031 C 
ATOM     46  C   UNL A   1      41.571  30.100  29.423  1.00  0.00     0.029 A 
ATOM     47  N   UNL A   1      42.573  32.007  30.027  1.00  0.00    -0.354 N 
ATOM     48  C   UNL A   1      46.022  33.490  27.866  1.00  0.00     0.074 A 
ATOM     49  C   UNL A   1      46.396  32.570  26.814  1.00  0.00     0.031 C 
ATOM     50  C   UNL A   1      40.877  30.617  30.453  1.00  0.00     0.029 A 
ATOM     51  C   UNL A   1      41.524  31.851  30.901  1.00  0.00     0.049 A 
ATOM     52  H   UNL A   1      43.186  32.778  30.054  1.00  0.00     0.167 HD
ATOM     53  C   UNL A   1      46.643  34.673  28.103  1.00  0.00     0.034 A 
ATOM     54  C   UNL A   1      41.140  32.611  31.948  1.00  0.00     0.034 A 
ATOM     55  C   UNL A   1      46.278  35.567  29.174  1.00  0.00     0.049 A 
ATOM     56  C   UNL A   1      41.922  33.863  32.274  1.00  0.00     0.074 A 
ATOM     57  C   UNL A   1      46.847  36.779  29.521  1.00  0.00     0.029 A 
ATOM     58  N   UNL A   1      45.251  35.340  30.084  1.00  0.00    -0.354 N 
ATOM     59  N   UNL A   1      42.958  34.381  31.655  1.00  0.00    -0.248 NA
ATOM     60  C   UNL A   1      41.472  34.638  33.438  1.00  0.00     0.031 C 
ATOM     61  C   UNL A   1      46.218  37.246  30.681  1.00  0.00     0.029 A 
ATOM     62  C   UNL A   1      45.193  36.373  31.007  1.00  0.00     0.049 A 
ATOM     63  H   UNL A   1      44.652  34.559  30.074  1.00  0.00     0.167 HD
ATOM     64  C   UNL A   1      43.250  35.567  32.327  1.00  0.00     0.074 A 
ATOM     65  C   UNL A   1      42.279  35.687  33.395  1.00  0.00     0.031 C 
ATOM     66  C   UNL A   1      44.222  36.483  32.074  1.00  0.00     0.034 A 
BRANCH  53  67
ATOM     67  C   UNL A   1      47.818  35.019  27.215  1.00  0.00     0.023 A 
ATOM     68  C   UNL A   1      49.138  34.688  27.574  1.00  0.00     0.031 A 
ATOM     69  C   UNL A   1      47.626  35.753  26.032  1.00  0.00     0.131 A 
ATOM     70  C   UNL A   1      50.213  35.174  26.818  1.00  0.00     0.055 A 
ATOM     71  C   UNL A   1      48.697  36.150  25.229  1.00  0.00     0.041 A 
ATOM     72  F   UNL A   1      46.394  36.122  25.647  1.00  0.00    -0.206 F 
ATOM     73  C   UNL A   1      50.002  35.880  25.631  1.00  0.00     0.022 A 
BRANCH  70  74
ATOM     74  S   UNL A   1      51.888  35.035  27.504  1.00  0.00     0.124 S 
ATOM     75  O   UNL A   1      52.159  33.610  27.333  1.00  0.00    -0.237 OA
ATOM     76  O   UNL A   1      52.654  35.937  26.653  1.00  0.00    -0.237 OA
ATOM     77  O   UNL A   1      51.728  35.469  28.889  1.00  0.00    -0.744 OA
ENDBRANCH  70  74
ENDBRANCH  53  67
BRANCH  54  78
ATOM     78  C   UNL A   1      39.971  32.213  32.787  1.00  0.00     0.023 A 
ATOM     79  C   UNL A   1      38.690  32.735  32.539  1.00  0.00     0.031 A 
ATOM     80  C   UNL A   1      40.128  31.355  33.890  1.00  0.00     0.131 A 
ATOM     81  C   UNL A   1      37.629  32.432  33.407  1.00  0.00     0.055 A 
ATOM     82  C   UNL A   1      39.057  31.012  34.717  1.00  0.00     0.041 A 
ATOM     83  F   UNL A   1      41.332  30.835  34.179  1.00  0.00    -0.206 F 
ATOM     84  C   UNL A   1      37.802  31.562  34.486  1.00  0.00     0.022 A 
BRANCH  81  85
ATOM     85  S   UNL A   1      36.037  33.269  33.163  1.00  0.00     0.124 S 
ATOM     86  O   UNL A   1      36.463  34.594  32.727  1.00  0.00    -0.237 OA
ATOM     87  O   UNL A   1      35.405  32.431  32.149  1.00  0.00    -0.237 OA
ATOM     88  O   UNL A   1      35.419  33.217  34.486  1.00  0.00    -0.744 OA
ENDBRANCH  81  85
ENDBRANCH  54  78
BRANCH  66  89
ATOM     89  C   UNL A   1      44.238  37.732  32.928  1.00  0.00     0.023 A 
ATOM     90  C   UNL A   1      43.452  38.857  32.627  1.00  0.00     0.031 A 
ATOM     91  C   UNL A   1      45.073  37.795  34.059  1.00  0.00     0.131 A 
ATOM     92  C   UNL A   1      43.562  40.018  33.410  1.00  0.00     0.055 A 
ATOM     93  C   UNL A   1      45.128  38.928  34.872  1.00  0.00     0.041 A 
ATOM     94  F   UNL A   1      45.850  36.754  34.397  1.00  0.00    -0.206 F 
ATOM     95  C   UNL A   1      44.381  40.054  34.541  1.00  0.00     0.022 A 
BRANCH  92  96
ATOM     96  S   UNL A   1      42.701  41.522  32.868  1.00  0.00     0.124 S 
ATOM     97  O   UNL A   1      41.875  41.836  34.029  1.00  0.00    -0.237 OA
ATOM     98  O   UNL A   1      43.808  42.437  32.606  1.00  0.00    -0.237 OA
ATOM     99  O   UNL A   1      41.965  41.088  31.682  1.00  0.00    -0.744 OA
ENDBRANCH  92  96
ENDBRANCH  66  89
ENDBRANCH  40  41
ENDBRANCH  33  35
ENDBRANCH  32  33
ENDBRANCH  31  32
ENDBRANCH  30  31
ENDBRANCH  29  30
ENDBRANCH  28  29
ENDBRANCH   1  28
TORSDOF 23
ENDMDL
MODEL 3
REMARK VINA RESULT:     -10.2      3.191      9.536
REMARK SMILES CCCN1CCC[C@@]2(CCN(c3ccc(C(=O)OCCOCCOCCOC(=O)c4ccc(-c5c6nc(c(-c7cc(S(=O)(=O)[O-])ccc7F)c7ccc([nH]7)c(-c7cc(S(=O)(=O)[O-])ccc7F)c7nc(c(-c8cc(S(=O)(=O)[O-])ccc8F)c8ccc5[nH]8)C=C7)C=C6)cc4)cn3)C2)C1=O
REMARK SMILES IDX 22 1 21 2 20 3 19 4 18 5 16 6 17 7 15 8 12 9 13 10 94 11
REMARK SMILES IDX 14 12 93 13 11 14 4 15 5 16 96 17 6 18 8 19 97 20 7 21 9 22
REMARK SMILES IDX 95 23 10 24 3 25 2 26 1 27 23 28 24 29 25 30 26 31 27 32
REMARK SMILES IDX 28 33 29 34 30 35 31 36 92 37 32 38 91 39 33 40 34 41 35 42
REMARK SMILES IDX 85 43 36 44 90 45 84 46 86 47 37 48 89 49 83 50 82 51 38 53
REMARK SMILES IDX 70 54 50 55 69 56 51 57 54 58 68 59 87 60 52 61 53 62 67 64
REMARK SMILES IDX 88 65 55 66 39 67 40 68 48 69 41 70 47 71 49 72 46 73 42 74
REMARK SMILES IDX 43 75 44 76 45 77 71 78 72 79 80 80 73 81 79 82 81 83 78 84
REMARK SMILES IDX 74 85 75 86 76 87 77 88 56 89 57 90 65 91 58 92 64 93 66 94
REMARK SMILES IDX 63 95 59 96 60 97 61 98 62 99
REMARK H PARENT 86 52 54 63
REMARK Flexibility Score: inf
ROOT
ATOM      1  C   UNL A   1      42.458  19.775  26.337  1.00  0.00     0.188 C 
ENDROOT
BRANCH   1   2
ATOM      2  O   UNL A   1      41.561  20.745  25.805  1.00  0.00    -0.376 OA
BRANCH   2   3
ATOM      3  C   UNL A   1      40.642  21.411  26.659  1.00  0.00     0.202 C 
BRANCH   3   4
ATOM      4  C   UNL A   1      39.857  22.621  26.130  1.00  0.00     0.261 C 
BRANCH   4   5
ATOM      5  O   UNL A   1      38.460  22.631  26.467  1.00  0.00    -0.460 OA
BRANCH   5   6
ATOM      6  C   UNL A   1      37.626  22.125  25.515  1.00  0.00     0.339 C 
ATOM      7  O   UNL A   1      37.869  21.248  24.723  1.00  0.00    -0.246 OA
BRANCH   6   8
ATOM      8  C   UNL A   1      36.284  22.717  25.679  1.00  0.00     0.078 A 
ATOM      9  C   UNL A   1      33.863  24.019  25.931  1.00  0.00     0.128 A 
ATOM     10  C   UNL A   1      34.007  22.711  26.406  1.00  0.00     0.048 A 
ATOM     11  N   UNL A   1      34.871  24.646  25.296  1.00  0.00    -0.238 NA
ATOM     12  C   UNL A   1      35.223  22.043  26.270  1.00  0.00     0.021 A 
ATOM     13  C   UNL A   1      36.060  24.000  25.202  1.00  0.00     0.129 A 
BRANCH   9  14
ATOM     14  N   UNL A   1      32.709  24.714  26.248  1.00  0.00    -0.356 N 
ATOM     15  N   UNL A   1      31.823  28.649  24.555  1.00  0.00    -0.342 N 
ATOM     16  C   UNL A   1      31.896  29.585  25.667  1.00  0.00     0.119 C 
ATOM     17  C   UNL A   1      31.235  27.391  24.690  1.00  0.00     0.230 C 
ATOM     18  C   UNL A   1      32.045  28.946  27.036  1.00  0.00     0.023 C 
ATOM     19  C   UNL A   1      31.408  26.723  26.059  1.00  0.00     0.069 C 
ATOM     20  O   UNL A   1      30.734  26.790  23.742  1.00  0.00    -0.274 OA
ATOM     21  C   UNL A   1      31.140  27.731  27.179  1.00  0.00     0.021 C 
ATOM     22  C   UNL A   1      30.523  25.463  26.193  1.00  0.00     0.040 C 
ATOM     23  C   UNL A   1      32.853  26.165  26.120  1.00  0.00     0.135 C 
ATOM     24  C   UNL A   1      31.418  24.321  25.698  1.00  0.00     0.119 C 
BRANCH  15  25
ATOM     25  C   UNL A   1      32.237  29.079  23.213  1.00  0.00     0.119 C 
BRANCH  25  26
ATOM     26  C   UNL A   1      33.625  28.649  22.726  1.00  0.00     0.018 C 
ATOM     27  C   UNL A   1      33.780  27.146  22.521  1.00  0.00     0.006 C 
ENDBRANCH  25  26
ENDBRANCH  15  25
ENDBRANCH   9  14
ENDBRANCH   6   8
ENDBRANCH   5   6
ENDBRANCH   4   5
ENDBRANCH   3   4
ENDBRANCH   2   3
ENDBRANCH   1   2
BRANCH   1  28
ATOM     28  C   UNL A   1      43.504  19.105  25.418  1.00  0.00     0.188 C 
BRANCH  28  29
ATOM     29  O   UNL A   1      44.837  19.395  25.779  1.00  0.00    -0.376 OA
BRANCH  29  30
ATOM     30  C   UNL A   1      45.664  20.031  24.819  1.00  0.00     0.202 C 
BRANCH  30  31
ATOM     31  C   UNL A   1      45.953  21.544  24.872  1.00  0.00     0.261 C 
BRANCH  31  32
ATOM     32  O   UNL A   1      45.079  22.369  25.653  1.00  0.00    -0.460 OA
BRANCH  32  33
ATOM     33  C   UNL A   1      44.142  23.077  24.981  1.00  0.00     0.338 C 
ATOM     34  O   UNL A   1      43.522  22.708  23.999  1.00  0.00    -0.246 OA
BRANCH  33  35
ATOM     35  C   UNL A   1      43.864  24.314  25.744  1.00  0.00     0.060 A 
ATOM     36  C   UNL A   1      43.462  25.464  25.054  1.00  0.00     0.016 A 
ATOM     37  C   UNL A   1      44.021  24.342  27.133  1.00  0.00     0.016 A 
ATOM     38  C   UNL A   1      43.264  26.661  25.745  1.00  0.00     0.010 A 
ATOM     39  C   UNL A   1      43.838  25.547  27.822  1.00  0.00     0.010 A 
ATOM     40  C   UNL A   1      43.501  26.722  27.126  1.00  0.00    -0.014 A 
BRANCH  40  41
ATOM     41  C   UNL A   1      43.631  28.045  27.792  1.00  0.00     0.031 A 
ATOM     42  C   UNL A   1      42.390  28.666  28.378  1.00  0.00     0.074 A 
ATOM     43  C   UNL A   1      44.816  28.669  27.913  1.00  0.00     0.049 A 
ATOM     44  N   UNL A   1      42.230  29.818  28.976  1.00  0.00    -0.248 NA
ATOM     45  C   UNL A   1      41.157  27.871  28.262  1.00  0.00     0.031 C 
ATOM     46  C   UNL A   1      46.098  28.147  27.443  1.00  0.00     0.029 A 
ATOM     47  N   UNL A   1      45.131  29.882  28.474  1.00  0.00    -0.354 N 
ATOM     48  C   UNL A   1      40.881  29.886  29.310  1.00  0.00     0.074 A 
ATOM     49  C   UNL A   1      40.261  28.685  28.793  1.00  0.00     0.031 C 
ATOM     50  C   UNL A   1      47.064  29.035  27.743  1.00  0.00     0.029 A 
ATOM     51  C   UNL A   1      46.465  30.203  28.388  1.00  0.00     0.049 A 
ATOM     52  H   UNL A   1      44.463  30.468  28.898  1.00  0.00     0.167 HD
ATOM     53  C   UNL A   1      40.222  30.850  30.002  1.00  0.00     0.034 A 
ATOM     54  C   UNL A   1      47.121  31.317  28.774  1.00  0.00     0.034 A 
ATOM     55  C   UNL A   1      40.848  32.055  30.488  1.00  0.00     0.049 A 
ATOM     56  C   UNL A   1      46.346  32.436  29.434  1.00  0.00     0.074 A 
ATOM     57  C   UNL A   1      40.277  33.108  31.181  1.00  0.00     0.029 A 
ATOM     58  N   UNL A   1      42.190  32.377  30.319  1.00  0.00    -0.354 N 
ATOM     59  N   UNL A   1      45.069  32.498  29.735  1.00  0.00    -0.248 NA
ATOM     60  C   UNL A   1      47.109  33.633  29.812  1.00  0.00     0.031 C 
ATOM     61  C   UNL A   1      41.252  34.095  31.365  1.00  0.00     0.029 A 
ATOM     62  C   UNL A   1      42.455  33.623  30.868  1.00  0.00     0.049 A 
ATOM     63  H   UNL A   1      42.856  31.804  29.876  1.00  0.00     0.167 HD
ATOM     64  C   UNL A   1      44.888  33.719  30.383  1.00  0.00     0.074 A 
ATOM     65  C   UNL A   1      46.188  34.358  30.429  1.00  0.00     0.031 C 
ATOM     66  C   UNL A   1      43.755  34.256  30.906  1.00  0.00     0.034 A 
BRANCH  53  67
ATOM     67  C   UNL A   1      38.737  30.648  30.210  1.00  0.00     0.023 A 
ATOM     68  C   UNL A   1      37.785  31.265  29.377  1.00  0.00     0.031 A 
ATOM     69  C   UNL A   1      38.264  29.893  31.297  1.00  0.00     0.131 A 
ATOM     70  C   UNL A   1      36.422  31.198  29.701  1.00  0.00     0.055 A 
ATOM     71  C   UNL A   1      36.900  29.749  31.557  1.00  0.00     0.041 A 
ATOM     72  F   UNL A   1      39.121  29.301  32.145  1.00  0.00    -0.206 F 
ATOM     73  C   UNL A   1      35.970  30.422  30.770  1.00  0.00     0.022 A 
BRANCH  70  74
ATOM     74  S   UNL A   1      35.270  32.291  28.823  1.00  0.00     0.124 S 
ATOM     75  O   UNL A   1      34.400  31.326  28.154  1.00  0.00    -0.237 OA
ATOM     76  O   UNL A   1      34.664  33.050  29.910  1.00  0.00    -0.237 OA
ATOM     77  O   UNL A   1      36.135  33.059  27.932  1.00  0.00    -0.744 OA
ENDBRANCH  70  74
ENDBRANCH  53  67
BRANCH  54  78
ATOM     78  C   UNL A   1      48.589  31.454  28.540  1.00  0.00     0.023 A 
ATOM     79  C   UNL A   1      49.083  32.129  27.412  1.00  0.00     0.031 A 
ATOM     80  C   UNL A   1      49.520  30.856  29.408  1.00  0.00     0.131 A 
ATOM     81  C   UNL A   1      50.463  32.151  27.155  1.00  0.00     0.055 A 
ATOM     82  C   UNL A   1      50.895  30.928  29.178  1.00  0.00     0.041 A 
ATOM     83  F   UNL A   1      49.104  30.190  30.496  1.00  0.00    -0.206 F 
ATOM     84  C   UNL A   1      51.373  31.567  28.039  1.00  0.00     0.022 A 
BRANCH  81  85
ATOM     85  S   UNL A   1      51.049  32.871  25.595  1.00  0.00     0.124 S 
ATOM     86  O   UNL A   1      49.886  33.641  25.170  1.00  0.00    -0.237 OA
ATOM     87  O   UNL A   1      52.207  33.643  26.033  1.00  0.00    -0.237 OA
ATOM     88  O   UNL A   1      51.356  31.702  24.775  1.00  0.00    -0.744 OA
ENDBRANCH  81  85
ENDBRANCH  54  78
BRANCH  66  89
ATOM     89  C   UNL A   1      43.886  35.573  31.639  1.00  0.00     0.023 A 
ATOM     90  C   UNL A   1      43.880  36.809  30.969  1.00  0.00     0.031 A 
ATOM     91  C   UNL A   1      44.034  35.584  33.038  1.00  0.00     0.131 A 
ATOM     92  C   UNL A   1      44.081  37.997  31.690  1.00  0.00     0.055 A 
ATOM     93  C   UNL A   1      44.166  36.773  33.757  1.00  0.00     0.041 A 
ATOM     94  F   UNL A   1      44.050  34.436  33.734  1.00  0.00    -0.206 F 
ATOM     95  C   UNL A   1      44.206  37.989  33.081  1.00  0.00     0.022 A 
BRANCH  92  96
ATOM     96  S   UNL A   1      44.287  39.551  30.774  1.00  0.00     0.124 S 
ATOM     97  O   UNL A   1      45.737  39.713  30.768  1.00  0.00    -0.237 OA
ATOM     98  O   UNL A   1      43.676  39.237  29.485  1.00  0.00    -0.237 OA
ATOM     99  O   UNL A   1      43.557  40.526  31.582  1.00  0.00    -0.744 OA
ENDBRANCH  92  96
ENDBRANCH  66  89
ENDBRANCH  40  41
ENDBRANCH  33  35
ENDBRANCH  32  33
ENDBRANCH  31  32
ENDBRANCH  30  31
ENDBRANCH  29  30
ENDBRANCH  28  29
ENDBRANCH   1  28
TORSDOF 23
ENDMDL
