MODEL 1
REMARK VINA RESULT:     -11.1      0.000      0.000
REMARK SMILES Cc1cc2c(c(C)c1Cl)C=C(C(=O)OCCOCCOCCOC(=O)c1ccc(-c3c4nc(c(-c5cc(S(=O)(=O)[O-])ccc5F)c5ccc([nH]5)c(-c5cc(S(=O)(=O)[O-])ccc5F)c5nc(c(-c6cc(S(=O)(=O)[O-])ccc6F)c6ccc3[nH]6)C=C5)C=C4)cc1)[C@@H](C(F)(F)F)O2
REMARK SMILES IDX 19 1 18 2 17 3 16 4 15 5 14 6 12 7 13 8 11 9 1 10 2 11 3 12
REMARK SMILES IDX 8 13 4 14 6 15 9 16 5 17 94 18 7 19 10 20 89 21 90 22 91 23
REMARK SMILES IDX 92 24 93 25 20 26 21 27 22 28 23 29 24 30 25 31 26 32 27 33
REMARK SMILES IDX 88 34 28 35 87 36 29 37 30 38 31 39 81 40 32 41 86 42 80 43
REMARK SMILES IDX 82 44 33 45 85 46 79 47 78 48 34 50 66 51 46 52 65 53 47 54
REMARK SMILES IDX 50 55 64 56 83 57 48 58 49 59 63 61 84 62 51 63 35 64 36 65
REMARK SMILES IDX 44 66 37 67 43 68 45 69 42 70 38 71 39 72 40 73 41 74 67 75
REMARK SMILES IDX 68 76 76 77 69 78 75 79 77 80 74 81 70 82 71 83 72 84 73 85
REMARK SMILES IDX 52 86 53 87 61 88 54 89 60 90 62 91 59 92 55 93 56 94 57 95
REMARK SMILES IDX 58 96
REMARK H PARENT 82 49 50 60
REMARK Flexibility Score: inf
ROOT
ATOM      1  C   UNL A   1      33.326  29.744  26.846  1.00  0.00     0.188 C 
ENDROOT
BRANCH   1   2
ATOM      2  C   UNL A   1      32.640  28.376  26.647  1.00  0.00     0.188 C 
BRANCH   2   3
ATOM      3  O   UNL A   1      31.738  28.292  25.568  1.00  0.00    -0.376 OA
BRANCH   3   4
ATOM      4  C   UNL A   1      31.965  29.001  24.365  1.00  0.00     0.202 C 
BRANCH   4   5
ATOM      5  C   UNL A   1      33.088  28.731  23.344  1.00  0.00     0.261 C 
BRANCH   5   6
ATOM      6  O   UNL A   1      33.898  27.572  23.539  1.00  0.00    -0.460 OA
BRANCH   6   7
ATOM      7  C   UNL A   1      33.708  26.569  22.647  1.00  0.00     0.338 C 
ATOM      8  O   UNL A   1      33.825  26.639  21.436  1.00  0.00    -0.246 OA
BRANCH   7   9
ATOM      9  C   UNL A   1      33.454  25.314  23.382  1.00  0.00     0.087 C 
ATOM     10  C   UNL A   1      33.118  19.283  25.681  1.00  0.00     0.046 C 
ATOM     11  C   UNL A   1      33.595  20.628  25.198  1.00  0.00    -0.028 A 
ATOM     12  C   UNL A   1      32.647  21.660  25.166  1.00  0.00     0.052 A 
ATOM     13  C   UNL A   1      34.906  20.898  24.762  1.00  0.00     0.047 A 
ATOM     14  C   UNL A   1      32.965  22.911  24.642  1.00  0.00     0.128 A 
ATOM     15  C   UNL A   1      35.255  22.174  24.250  1.00  0.00    -0.021 A 
ATOM     16  Cl  UNL A   1      36.093  19.633  24.837  1.00  0.00    -0.084 Cl
ATOM     17  C   UNL A   1      34.247  23.168  24.146  1.00  0.00     0.022 A 
ATOM     18  O   UNL A   1      31.938  23.812  24.655  1.00  0.00    -0.475 OA
ATOM     19  C   UNL A   1      36.670  22.497  23.819  1.00  0.00     0.047 C 
ATOM     20  C   UNL A   1      34.472  24.449  23.477  1.00  0.00     0.027 C 
ATOM     21  C   UNL A   1      32.101  25.087  23.989  1.00  0.00     0.316 C 
BRANCH  21  22
ATOM     22  C   UNL A   1      30.964  25.243  22.970  1.00  0.00     0.430 C 
ATOM     23  F   UNL A   1      30.462  26.503  22.982  1.00  0.00    -0.167 F 
ATOM     24  F   UNL A   1      31.386  25.013  21.703  1.00  0.00    -0.167 F 
ATOM     25  F   UNL A   1      29.937  24.399  23.213  1.00  0.00    -0.167 F 
ENDBRANCH  21  22
ENDBRANCH   7   9
ENDBRANCH   6   7
ENDBRANCH   5   6
ENDBRANCH   4   5
ENDBRANCH   3   4
ENDBRANCH   2   3
ENDBRANCH   1   2
BRANCH   1  26
ATOM     26  O   UNL A   1      32.666  30.774  27.564  1.00  0.00    -0.376 OA
BRANCH  26  27
ATOM     27  C   UNL A   1      31.935  31.758  26.845  1.00  0.00     0.202 C 
BRANCH  27  28
ATOM     28  C   UNL A   1      32.232  33.264  26.969  1.00  0.00     0.261 C 
BRANCH  28  29
ATOM     29  O   UNL A   1      32.475  33.762  28.292  1.00  0.00    -0.460 OA
BRANCH  29  30
ATOM     30  C   UNL A   1      33.574  34.550  28.428  1.00  0.00     0.338 C 
ATOM     31  O   UNL A   1      33.621  35.767  28.352  1.00  0.00    -0.246 OA
BRANCH  30  32
ATOM     32  C   UNL A   1      34.706  33.717  28.880  1.00  0.00     0.060 A 
ATOM     33  C   UNL A   1      34.462  32.689  29.801  1.00  0.00     0.016 A 
ATOM     34  C   UNL A   1      35.996  33.951  28.405  1.00  0.00     0.016 A 
ATOM     35  C   UNL A   1      35.510  31.882  30.240  1.00  0.00     0.010 A 
ATOM     36  C   UNL A   1      37.052  33.160  28.871  1.00  0.00     0.010 A 
ATOM     37  C   UNL A   1      36.816  32.129  29.797  1.00  0.00    -0.014 A 
BRANCH  37  38
ATOM     38  C   UNL A   1      37.949  31.397  30.416  1.00  0.00     0.031 A 
ATOM     39  C   UNL A   1      38.303  31.690  31.847  1.00  0.00     0.074 A 
ATOM     40  C   UNL A   1      38.621  30.453  29.730  1.00  0.00     0.049 A 
ATOM     41  N   UNL A   1      39.256  31.184  32.583  1.00  0.00    -0.248 NA
ATOM     42  C   UNL A   1      37.467  32.684  32.539  1.00  0.00     0.031 C 
ATOM     43  C   UNL A   1      38.332  30.038  28.359  1.00  0.00     0.029 A 
ATOM     44  N   UNL A   1      39.682  29.665  30.102  1.00  0.00    -0.354 N 
ATOM     45  C   UNL A   1      39.126  31.782  33.831  1.00  0.00     0.074 A 
ATOM     46  C   UNL A   1      38.029  32.722  33.739  1.00  0.00     0.031 C 
ATOM     47  C   UNL A   1      39.189  29.065  28.008  1.00  0.00     0.029 A 
ATOM     48  C   UNL A   1      40.112  28.810  29.115  1.00  0.00     0.049 A 
ATOM     49  H   UNL A   1      40.097  29.706  30.995  1.00  0.00     0.167 HD
ATOM     50  C   UNL A   1      39.844  31.555  34.957  1.00  0.00     0.034 A 
ATOM     51  C   UNL A   1      41.139  27.934  29.099  1.00  0.00     0.034 A 
ATOM     52  C   UNL A   1      40.944  30.630  35.038  1.00  0.00     0.049 A 
ATOM     53  C   UNL A   1      42.004  27.789  30.330  1.00  0.00     0.074 A 
ATOM     54  C   UNL A   1      41.743  30.341  36.130  1.00  0.00     0.029 A 
ATOM     55  N   UNL A   1      41.403  29.846  33.989  1.00  0.00    -0.354 N 
ATOM     56  N   UNL A   1      41.890  28.386  31.493  1.00  0.00    -0.248 NA
ATOM     57  C   UNL A   1      43.137  26.855  30.245  1.00  0.00     0.031 C 
ATOM     58  C   UNL A   1      42.727  29.435  35.725  1.00  0.00     0.029 A 
ATOM     59  C   UNL A   1      42.492  29.097  34.401  1.00  0.00     0.049 A 
ATOM     60  H   UNL A   1      41.012  29.825  33.086  1.00  0.00     0.167 HD
ATOM     61  C   UNL A   1      42.913  27.873  32.287  1.00  0.00     0.074 A 
ATOM     62  C   UNL A   1      43.640  26.924  31.471  1.00  0.00     0.031 C 
ATOM     63  C   UNL A   1      43.212  28.156  33.579  1.00  0.00     0.034 A 
BRANCH  50  64
ATOM     64  C   UNL A   1      39.481  32.342  36.187  1.00  0.00     0.023 A 
ATOM     65  C   UNL A   1      38.532  31.864  37.106  1.00  0.00     0.031 A 
ATOM     66  C   UNL A   1      40.113  33.567  36.460  1.00  0.00     0.131 A 
ATOM     67  C   UNL A   1      38.217  32.626  38.241  1.00  0.00     0.055 A 
ATOM     68  C   UNL A   1      39.841  34.289  37.621  1.00  0.00     0.041 A 
ATOM     69  F   UNL A   1      41.013  34.076  35.604  1.00  0.00    -0.206 F 
ATOM     70  C   UNL A   1      38.884  33.822  38.517  1.00  0.00     0.022 A 
BRANCH  67  71
ATOM     71  S   UNL A   1      36.869  32.067  39.315  1.00  0.00     0.124 S 
ATOM     72  O   UNL A   1      35.749  32.867  38.822  1.00  0.00    -0.237 OA
ATOM     73  O   UNL A   1      36.806  30.638  39.030  1.00  0.00    -0.237 OA
ATOM     74  O   UNL A   1      37.332  32.415  40.656  1.00  0.00    -0.744 OA
ENDBRANCH  67  71
ENDBRANCH  50  64
BRANCH  51  75
ATOM     75  C   UNL A   1      41.425  27.134  27.876  1.00  0.00     0.023 A 
ATOM     76  C   UNL A   1      41.111  25.768  27.815  1.00  0.00     0.031 A 
ATOM     77  C   UNL A   1      42.035  27.722  26.753  1.00  0.00     0.131 A 
ATOM     78  C   UNL A   1      41.429  25.027  26.666  1.00  0.00     0.055 A 
ATOM     79  C   UNL A   1      42.313  26.991  25.597  1.00  0.00     0.041 A 
ATOM     80  F   UNL A   1      42.358  29.025  26.761  1.00  0.00    -0.206 F 
ATOM     81  C   UNL A   1      42.015  25.632  25.552  1.00  0.00     0.022 A 
BRANCH  78  82
ATOM     82  S   UNL A   1      41.104  23.243  26.661  1.00  0.00     0.124 S 
ATOM     83  O   UNL A   1      39.675  23.203  26.371  1.00  0.00    -0.237 OA
ATOM     84  O   UNL A   1      41.989  22.776  25.599  1.00  0.00    -0.237 OA
ATOM     85  O   UNL A   1      41.480  22.825  28.010  1.00  0.00    -0.744 OA
ENDBRANCH  78  82
ENDBRANCH  51  75
BRANCH  63  86
ATOM     86  C   UNL A   1      44.348  27.405  34.225  1.00  0.00     0.023 A 
ATOM     87  C   UNL A   1      44.157  26.152  34.831  1.00  0.00     0.031 A 
ATOM     88  C   UNL A   1      45.658  27.914  34.148  1.00  0.00     0.131 A 
ATOM     89  C   UNL A   1      45.258  25.455  35.349  1.00  0.00     0.055 A 
ATOM     90  C   UNL A   1      46.754  27.195  34.625  1.00  0.00     0.041 A 
ATOM     91  F   UNL A   1      45.894  29.103  33.571  1.00  0.00    -0.206 F 
ATOM     92  C   UNL A   1      46.557  25.959  35.232  1.00  0.00     0.022 A 
BRANCH  89  93
ATOM     93  S   UNL A   1      44.975  23.873  36.192  1.00  0.00     0.124 S 
ATOM     94  O   UNL A   1      46.218  23.158  35.917  1.00  0.00    -0.237 OA
ATOM     95  O   UNL A   1      44.769  24.284  37.577  1.00  0.00    -0.237 OA
ATOM     96  O   UNL A   1      43.790  23.335  35.525  1.00  0.00    -0.744 OA
ENDBRANCH  89  93
ENDBRANCH  63  86
ENDBRANCH  37  38
ENDBRANCH  30  32
ENDBRANCH  29  30
ENDBRANCH  28  29
ENDBRANCH  27  28
ENDBRANCH  26  27
ENDBRANCH   1  26
TORSDOF 21
ENDMDL
MODEL 2
REMARK VINA RESULT:     -10.2      5.678     11.197
REMARK SMILES Cc1cc2c(c(C)c1Cl)C=C(C(=O)OCCOCCOCCOC(=O)c1ccc(-c3c4nc(c(-c5cc(S(=O)(=O)[O-])ccc5F)c5ccc([nH]5)c(-c5cc(S(=O)(=O)[O-])ccc5F)c5nc(c(-c6cc(S(=O)(=O)[O-])ccc6F)c6ccc3[nH]6)C=C5)C=C4)cc1)[C@@H](C(F)(F)F)O2
REMARK SMILES IDX 19 1 18 2 17 3 16 4 15 5 14 6 12 7 13 8 11 9 1 10 2 11 3 12
REMARK SMILES IDX 8 13 4 14 6 15 9 16 5 17 94 18 7 19 10 20 89 21 90 22 91 23
REMARK SMILES IDX 92 24 93 25 20 26 21 27 22 28 23 29 24 30 25 31 26 32 27 33
REMARK SMILES IDX 88 34 28 35 87 36 29 37 30 38 31 39 81 40 32 41 86 42 80 43
REMARK SMILES IDX 82 44 33 45 85 46 79 47 78 48 34 50 66 51 46 52 65 53 47 54
REMARK SMILES IDX 50 55 64 56 83 57 48 58 49 59 63 61 84 62 51 63 35 64 36 65
REMARK SMILES IDX 44 66 37 67 43 68 45 69 42 70 38 71 39 72 40 73 41 74 67 75
REMARK SMILES IDX 68 76 76 77 69 78 75 79 77 80 74 81 70 82 71 83 72 84 73 85
REMARK SMILES IDX 52 86 53 87 61 88 54 89 60 90 62 91 59 92 55 93 56 94 57 95
REMARK SMILES IDX 58 96
REMARK H PARENT 82 49 50 60
REMARK Flexibility Score: inf
ROOT
ATOM      1  C   UNL A   1      36.498  22.479  25.154  1.00  0.00     0.188 C 
ENDROOT
BRANCH   1   2
ATOM      2  C   UNL A   1      35.087  22.178  25.705  1.00  0.00     0.188 C 
BRANCH   2   3
ATOM      3  O   UNL A   1      34.081  21.977  24.740  1.00  0.00    -0.376 OA
BRANCH   3   4
ATOM      4  C   UNL A   1      32.727  21.809  25.115  1.00  0.00     0.202 C 
BRANCH   4   5
ATOM      5  C   UNL A   1      31.623  22.883  25.048  1.00  0.00     0.261 C 
BRANCH   5   6
ATOM      6  O   UNL A   1      32.007  24.244  25.238  1.00  0.00    -0.460 OA
BRANCH   6   7
ATOM      7  C   UNL A   1      32.231  24.953  24.104  1.00  0.00     0.338 C 
ATOM      8  O   UNL A   1      32.495  24.502  23.004  1.00  0.00    -0.246 OA
BRANCH   7   9
ATOM      9  C   UNL A   1      31.980  26.383  24.374  1.00  0.00     0.087 C 
ATOM     10  C   UNL A   1      31.346  32.358  26.753  1.00  0.00     0.046 C 
ATOM     11  C   UNL A   1      31.881  31.023  26.306  1.00  0.00    -0.028 A 
ATOM     12  C   UNL A   1      31.104  30.306  25.387  1.00  0.00     0.052 A 
ATOM     13  C   UNL A   1      33.082  30.453  26.768  1.00  0.00     0.047 A 
ATOM     14  C   UNL A   1      31.463  29.020  24.991  1.00  0.00     0.128 A 
ATOM     15  C   UNL A   1      33.479  29.155  26.355  1.00  0.00    -0.021 A 
ATOM     16  Cl  UNL A   1      34.069  31.355  27.877  1.00  0.00    -0.084 Cl
ATOM     17  C   UNL A   1      32.621  28.419  25.495  1.00  0.00     0.022 A 
ATOM     18  O   UNL A   1      30.601  28.433  24.108  1.00  0.00    -0.475 OA
ATOM     19  C   UNL A   1      34.789  28.544  26.804  1.00  0.00     0.047 C 
ATOM     20  C   UNL A   1      32.863  27.017  25.156  1.00  0.00     0.027 C 
ATOM     21  C   UNL A   1      30.783  27.042  23.754  1.00  0.00     0.316 C 
BRANCH  21  22
ATOM     22  C   UNL A   1      29.476  26.296  24.058  1.00  0.00     0.430 C 
ATOM     23  F   UNL A   1      29.439  25.092  23.434  1.00  0.00    -0.167 F 
ATOM     24  F   UNL A   1      29.335  26.043  25.382  1.00  0.00    -0.167 F 
ATOM     25  F   UNL A   1      28.386  26.989  23.662  1.00  0.00    -0.167 F 
ENDBRANCH  21  22
ENDBRANCH   7   9
ENDBRANCH   6   7
ENDBRANCH   5   6
ENDBRANCH   4   5
ENDBRANCH   3   4
ENDBRANCH   2   3
ENDBRANCH   1   2
BRANCH   1  26
ATOM     26  O   UNL A   1      37.645  22.173  25.929  1.00  0.00    -0.376 OA
BRANCH  26  27
ATOM     27  C   UNL A   1      38.603  21.258  25.412  1.00  0.00     0.202 C 
BRANCH  27  28
ATOM     28  C   UNL A   1      39.771  20.717  26.260  1.00  0.00     0.261 C 
BRANCH  28  29
ATOM     29  O   UNL A   1      40.517  19.627  25.701  1.00  0.00    -0.460 OA
BRANCH  29  30
ATOM     30  C   UNL A   1      41.806  19.524  26.119  1.00  0.00     0.338 C 
ATOM     31  O   UNL A   1      42.491  18.515  26.149  1.00  0.00    -0.246 OA
BRANCH  30  32
ATOM     32  C   UNL A   1      42.338  20.879  26.363  1.00  0.00     0.060 A 
ATOM     33  C   UNL A   1      42.586  21.280  27.684  1.00  0.00     0.016 A 
ATOM     34  C   UNL A   1      42.583  21.750  25.301  1.00  0.00     0.016 A 
ATOM     35  C   UNL A   1      43.095  22.551  27.944  1.00  0.00     0.010 A 
ATOM     36  C   UNL A   1      43.065  23.037  25.567  1.00  0.00     0.010 A 
ATOM     37  C   UNL A   1      43.313  23.447  26.889  1.00  0.00    -0.014 A 
BRANCH  37  38
ATOM     38  C   UNL A   1      43.666  24.856  27.187  1.00  0.00     0.031 A 
ATOM     39  C   UNL A   1      45.058  25.333  26.878  1.00  0.00     0.074 A 
ATOM     40  C   UNL A   1      42.749  25.711  27.679  1.00  0.00     0.049 A 
ATOM     41  N   UNL A   1      45.588  26.512  27.066  1.00  0.00    -0.248 NA
ATOM     42  C   UNL A   1      45.970  24.349  26.273  1.00  0.00     0.031 C 
ATOM     43  C   UNL A   1      41.354  25.382  27.962  1.00  0.00     0.029 A 
ATOM     44  N   UNL A   1      42.857  27.037  28.020  1.00  0.00    -0.354 N 
ATOM     45  C   UNL A   1      46.890  26.420  26.587  1.00  0.00     0.074 A 
ATOM     46  C   UNL A   1      47.083  25.057  26.141  1.00  0.00     0.031 C 
ATOM     47  C   UNL A   1      40.732  26.480  28.424  1.00  0.00     0.029 A 
ATOM     48  C   UNL A   1      41.692  27.582  28.506  1.00  0.00     0.049 A 
ATOM     49  H   UNL A   1      43.691  27.551  27.924  1.00  0.00     0.167 HD
ATOM     50  C   UNL A   1      47.834  27.389  26.510  1.00  0.00     0.034 A 
ATOM     51  C   UNL A   1      41.432  28.820  28.975  1.00  0.00     0.034 A 
ATOM     52  C   UNL A   1      47.641  28.740  26.969  1.00  0.00     0.049 A 
ATOM     53  C   UNL A   1      42.538  29.850  28.992  1.00  0.00     0.074 A 
ATOM     54  C   UNL A   1      48.542  29.790  26.948  1.00  0.00     0.029 A 
ATOM     55  N   UNL A   1      46.471  29.228  27.536  1.00  0.00    -0.354 N 
ATOM     56  N   UNL A   1      43.775  29.738  28.567  1.00  0.00    -0.248 NA
ATOM     57  C   UNL A   1      42.215  31.170  29.555  1.00  0.00     0.031 C 
ATOM     58  C   UNL A   1      47.942  30.893  27.561  1.00  0.00     0.029 A 
ATOM     59  C   UNL A   1      46.640  30.555  27.894  1.00  0.00     0.049 A 
ATOM     60  H   UNL A   1      45.646  28.709  27.663  1.00  0.00     0.167 HD
ATOM     61  C   UNL A   1      44.364  30.983  28.779  1.00  0.00     0.074 A 
ATOM     62  C   UNL A   1      43.352  31.829  29.376  1.00  0.00     0.031 C 
ATOM     63  C   UNL A   1      45.626  31.389  28.491  1.00  0.00     0.034 A 
BRANCH  50  64
ATOM     64  C   UNL A   1      49.171  27.016  25.931  1.00  0.00     0.023 A 
ATOM     65  C   UNL A   1      49.558  27.442  24.650  1.00  0.00     0.031 A 
ATOM     66  C   UNL A   1      50.082  26.252  26.681  1.00  0.00     0.131 A 
ATOM     67  C   UNL A   1      50.812  27.074  24.143  1.00  0.00     0.055 A 
ATOM     68  C   UNL A   1      51.352  25.941  26.196  1.00  0.00     0.041 A 
ATOM     69  F   UNL A   1      49.753  25.804  27.903  1.00  0.00    -0.206 F 
ATOM     70  C   UNL A   1      51.721  26.348  24.916  1.00  0.00     0.022 A 
BRANCH  67  71
ATOM     71  S   UNL A   1      51.212  27.493  22.425  1.00  0.00     0.124 S 
ATOM     72  O   UNL A   1      52.608  27.071  22.337  1.00  0.00    -0.237 OA
ATOM     73  O   UNL A   1      50.254  26.692  21.671  1.00  0.00    -0.237 OA
ATOM     74  O   UNL A   1      50.999  28.937  22.367  1.00  0.00    -0.744 OA
ENDBRANCH  67  71
ENDBRANCH  50  64
BRANCH  51  75
ATOM     75  C   UNL A   1      40.074  29.160  29.484  1.00  0.00     0.023 A 
ATOM     76  C   UNL A   1      39.816  29.235  30.861  1.00  0.00     0.031 A 
ATOM     77  C   UNL A   1      39.007  29.396  28.598  1.00  0.00     0.131 A 
ATOM     78  C   UNL A   1      38.517  29.516  31.315  1.00  0.00     0.055 A 
ATOM     79  C   UNL A   1      37.727  29.715  29.053  1.00  0.00     0.041 A 
ATOM     80  F   UNL A   1      39.201  29.334  27.271  1.00  0.00    -0.206 F 
ATOM     81  C   UNL A   1      37.475  29.770  30.421  1.00  0.00     0.022 A 
BRANCH  78  82
ATOM     82  S   UNL A   1      38.196  29.503  33.100  1.00  0.00     0.124 S 
ATOM     83  O   UNL A   1      37.886  30.905  33.355  1.00  0.00    -0.237 OA
ATOM     84  O   UNL A   1      37.080  28.569  33.201  1.00  0.00    -0.237 OA
ATOM     85  O   UNL A   1      39.456  29.029  33.668  1.00  0.00    -0.744 OA
ENDBRANCH  78  82
ENDBRANCH  51  75
BRANCH  63  86
ATOM     86  C   UNL A   1      45.991  32.824  28.771  1.00  0.00     0.023 A 
ATOM     87  C   UNL A   1      45.817  33.832  27.808  1.00  0.00     0.031 A 
ATOM     88  C   UNL A   1      46.432  33.198  30.054  1.00  0.00     0.131 A 
ATOM     89  C   UNL A   1      46.096  35.166  28.140  1.00  0.00     0.055 A 
ATOM     90  C   UNL A   1      46.665  34.530  30.391  1.00  0.00     0.041 A 
ATOM     91  F   UNL A   1      46.606  32.272  31.011  1.00  0.00    -0.206 F 
ATOM     92  C   UNL A   1      46.499  35.524  29.431  1.00  0.00     0.022 A 
BRANCH  89  93
ATOM     93  S   UNL A   1      45.934  36.440  26.859  1.00  0.00     0.124 S 
ATOM     94  O   UNL A   1      46.908  37.435  27.297  1.00  0.00    -0.237 OA
ATOM     95  O   UNL A   1      46.273  35.709  25.641  1.00  0.00    -0.237 OA
ATOM     96  O   UNL A   1      44.535  36.854  26.960  1.00  0.00    -0.744 OA
ENDBRANCH  89  93
ENDBRANCH  63  86
ENDBRANCH  37  38
ENDBRANCH  30  32
ENDBRANCH  29  30
ENDBRANCH  28  29
ENDBRANCH  27  28
ENDBRANCH  26  27
ENDBRANCH   1  26
TORSDOF 21
ENDMDL
MODEL 3
REMARK VINA RESULT:      -9.8      5.382     11.077
REMARK SMILES Cc1cc2c(c(C)c1Cl)C=C(C(=O)OCCOCCOCCOC(=O)c1ccc(-c3c4nc(c(-c5cc(S(=O)(=O)[O-])ccc5F)c5ccc([nH]5)c(-c5cc(S(=O)(=O)[O-])ccc5F)c5nc(c(-c6cc(S(=O)(=O)[O-])ccc6F)c6ccc3[nH]6)C=C5)C=C4)cc1)[C@@H](C(F)(F)F)O2
REMARK SMILES IDX 19 1 18 2 17 3 16 4 15 5 14 6 12 7 13 8 11 9 1 10 2 11 3 12
REMARK SMILES IDX 8 13 4 14 6 15 9 16 5 17 94 18 7 19 10 20 89 21 90 22 91 23
REMARK SMILES IDX 92 24 93 25 20 26 21 27 22 28 23 29 24 30 25 31 26 32 27 33
REMARK SMILES IDX 88 34 28 35 87 36 29 37 30 38 31 39 81 40 32 41 86 42 80 43
REMARK SMILES IDX 82 44 33 45 85 46 79 47 78 48 34 50 66 51 46 52 65 53 47 54
REMARK SMILES IDX 50 55 64 56 83 57 48 58 49 59 63 61 84 62 51 63 35 64 36 65
REMARK SMILES IDX 44 66 37 67 43 68 45 69 42 70 38 71 39 72 40 73 41 74 67 75
REMARK SMILES IDX 68 76 76 77 69 78 75 79 77 80 74 81 70 82 71 83 72 84 73 85
REMARK SMILES IDX 52 86 53 87 61 88 54 89 60 90 62 91 59 92 55 93 56 94 57 95
REMARK SMILES IDX 58 96
REMARK H PARENT 82 49 50 60
REMARK Flexibility Score: inf
ROOT
ATOM      1  C   UNL A   1      35.774  21.488  25.181  1.00  0.00     0.188 C 
ENDROOT
BRANCH   1   2
ATOM      2  C   UNL A   1      34.535  21.456  26.101  1.00  0.00     0.188 C 
BRANCH   2   3
ATOM      3  O   UNL A   1      33.432  20.726  25.620  1.00  0.00    -0.376 OA
BRANCH   3   4
ATOM      4  C   UNL A   1      32.143  21.307  25.543  1.00  0.00     0.202 C 
BRANCH   4   5
ATOM      5  C   UNL A   1      31.675  22.351  24.511  1.00  0.00     0.261 C 
BRANCH   5   6
ATOM      6  O   UNL A   1      32.289  23.639  24.543  1.00  0.00    -0.460 OA
BRANCH   6   7
ATOM      7  C   UNL A   1      32.030  24.383  25.647  1.00  0.00     0.338 C 
ATOM      8  O   UNL A   1      32.194  24.048  26.807  1.00  0.00    -0.246 OA
BRANCH   7   9
ATOM      9  C   UNL A   1      31.626  25.740  25.228  1.00  0.00     0.087 C 
ATOM     10  C   UNL A   1      29.160  31.043  22.476  1.00  0.00     0.046 C 
ATOM     11  C   UNL A   1      29.342  29.714  23.162  1.00  0.00    -0.028 A 
ATOM     12  C   UNL A   1      30.589  29.473  23.754  1.00  0.00     0.052 A 
ATOM     13  C   UNL A   1      28.359  28.708  23.220  1.00  0.00     0.047 A 
ATOM     14  C   UNL A   1      30.888  28.238  24.323  1.00  0.00     0.128 A 
ATOM     15  C   UNL A   1      28.636  27.453  23.820  1.00  0.00    -0.021 A 
ATOM     16  Cl  UNL A   1      26.799  29.017  22.523  1.00  0.00    -0.084 Cl
ATOM     17  C   UNL A   1      29.939  27.210  24.328  1.00  0.00     0.022 A 
ATOM     18  O   UNL A   1      32.148  28.139  24.843  1.00  0.00    -0.475 OA
ATOM     19  C   UNL A   1      27.578  26.376  23.933  1.00  0.00     0.047 C 
ATOM     20  C   UNL A   1      30.364  25.895  24.807  1.00  0.00     0.027 C 
ATOM     21  C   UNL A   1      32.625  26.856  25.312  1.00  0.00     0.316 C 
BRANCH  21  22
ATOM     22  C   UNL A   1      33.933  26.534  24.575  1.00  0.00     0.430 C 
ATOM     23  F   UNL A   1      34.661  27.655  24.352  1.00  0.00    -0.167 F 
ATOM     24  F   UNL A   1      34.725  25.701  25.293  1.00  0.00    -0.167 F 
ATOM     25  F   UNL A   1      33.715  25.949  23.376  1.00  0.00    -0.167 F 
ENDBRANCH  21  22
ENDBRANCH   7   9
ENDBRANCH   6   7
ENDBRANCH   5   6
ENDBRANCH   4   5
ENDBRANCH   3   4
ENDBRANCH   2   3
ENDBRANCH   1   2
BRANCH   1  26
ATOM     26  O   UNL A   1      37.066  21.677  25.733  1.00  0.00    -0.376 OA
BRANCH  26  27
ATOM     27  C   UNL A   1      38.133  20.844  25.297  1.00  0.00     0.202 C 
BRANCH  27  28
ATOM     28  C   UNL A   1      39.411  20.633  26.130  1.00  0.00     0.261 C 
BRANCH  28  29
ATOM     29  O   UNL A   1      40.320  19.625  25.665  1.00  0.00    -0.460 OA
BRANCH  29  30
ATOM     30  C   UNL A   1      41.522  19.583  26.297  1.00  0.00     0.338 C 
ATOM     31  O   UNL A   1      42.214  18.598  26.498  1.00  0.00    -0.246 OA
BRANCH  30  32
ATOM     32  C   UNL A   1      41.976  20.965  26.550  1.00  0.00     0.060 A 
ATOM     33  C   UNL A   1      42.214  21.366  27.872  1.00  0.00     0.016 A 
ATOM     34  C   UNL A   1      42.158  21.859  25.495  1.00  0.00     0.016 A 
ATOM     35  C   UNL A   1      42.650  22.662  28.140  1.00  0.00     0.010 A 
ATOM     36  C   UNL A   1      42.567  23.169  25.768  1.00  0.00     0.010 A 
ATOM     37  C   UNL A   1      42.804  23.580  27.092  1.00  0.00    -0.014 A 
BRANCH  37  38
ATOM     38  C   UNL A   1      43.077  25.005  27.401  1.00  0.00     0.031 A 
ATOM     39  C   UNL A   1      44.419  25.578  27.040  1.00  0.00     0.074 A 
ATOM     40  C   UNL A   1      42.129  25.789  27.949  1.00  0.00     0.049 A 
ATOM     41  N   UNL A   1      44.878  26.787  27.227  1.00  0.00    -0.248 NA
ATOM     42  C   UNL A   1      45.365  24.667  26.378  1.00  0.00     0.031 C 
ATOM     43  C   UNL A   1      40.772  25.363  28.287  1.00  0.00     0.029 A 
ATOM     44  N   UNL A   1      42.165  27.114  28.310  1.00  0.00    -0.354 N 
ATOM     45  C   UNL A   1      46.160  26.789  26.690  1.00  0.00     0.074 A 
ATOM     46  C   UNL A   1      46.422  25.449  26.211  1.00  0.00     0.031 C 
ATOM     47  C   UNL A   1      40.101  26.410  28.797  1.00  0.00     0.029 A 
ATOM     48  C   UNL A   1      40.989  27.571  28.857  1.00  0.00     0.049 A 
ATOM     49  H   UNL A   1      42.958  27.683  28.188  1.00  0.00     0.167 HD
ATOM     50  C   UNL A   1      47.034  27.820  26.590  1.00  0.00     0.034 A 
ATOM     51  C   UNL A   1      40.670  28.783  29.360  1.00  0.00     0.034 A 
ATOM     52  C   UNL A   1      46.774  29.147  27.083  1.00  0.00     0.049 A 
ATOM     53  C   UNL A   1      41.705  29.883  29.349  1.00  0.00     0.074 A 
ATOM     54  C   UNL A   1      47.602  30.255  27.042  1.00  0.00     0.029 A 
ATOM     55  N   UNL A   1      45.601  29.548  27.710  1.00  0.00    -0.354 N 
ATOM     56  N   UNL A   1      42.926  29.861  28.868  1.00  0.00    -0.248 NA
ATOM     57  C   UNL A   1      41.322  31.169  29.951  1.00  0.00     0.031 C 
ATOM     58  C   UNL A   1      46.959  31.306  27.702  1.00  0.00     0.029 A 
ATOM     59  C   UNL A   1      45.698  30.876  28.085  1.00  0.00     0.049 A 
ATOM     60  H   UNL A   1      44.818  28.972  27.864  1.00  0.00     0.167 HD
ATOM     61  C   UNL A   1      43.441  31.138  29.077  1.00  0.00     0.074 A 
ATOM     62  C   UNL A   1      42.404  31.906  29.734  1.00  0.00     0.031 C 
ATOM     63  C   UNL A   1      44.660  31.631  28.742  1.00  0.00     0.034 A 
BRANCH  50  64
ATOM     64  C   UNL A   1      48.366  27.546  25.946  1.00  0.00     0.023 A 
ATOM     65  C   UNL A   1      48.534  27.621  24.554  1.00  0.00     0.031 A 
ATOM     66  C   UNL A   1      49.487  27.237  26.736  1.00  0.00     0.131 A 
ATOM     67  C   UNL A   1      49.790  27.357  23.989  1.00  0.00     0.055 A 
ATOM     68  C   UNL A   1      50.747  27.037  26.173  1.00  0.00     0.041 A 
ATOM     69  F   UNL A   1      49.375  27.134  28.070  1.00  0.00    -0.206 F 
ATOM     70  C   UNL A   1      50.903  27.091  24.791  1.00  0.00     0.022 A 
BRANCH  67  71
ATOM     71  S   UNL A   1      49.934  27.294  22.183  1.00  0.00     0.124 S 
ATOM     72  O   UNL A   1      51.331  26.900  22.013  1.00  0.00    -0.237 OA
ATOM     73  O   UNL A   1      48.939  26.291  21.820  1.00  0.00    -0.237 OA
ATOM     74  O   UNL A   1      49.623  28.658  21.766  1.00  0.00    -0.744 OA
ENDBRANCH  67  71
ENDBRANCH  50  64
BRANCH  51  75
ATOM     75  C   UNL A   1      39.317  29.023  29.935  1.00  0.00     0.023 A 
ATOM     76  C   UNL A   1      38.316  29.662  29.187  1.00  0.00     0.031 A 
ATOM     77  C   UNL A   1      39.011  28.634  31.252  1.00  0.00     0.131 A 
ATOM     78  C   UNL A   1      37.063  29.915  29.767  1.00  0.00     0.055 A 
ATOM     79  C   UNL A   1      37.750  28.852  31.811  1.00  0.00     0.041 A 
ATOM     80  F   UNL A   1      39.934  28.022  32.011  1.00  0.00    -0.206 F 
ATOM     81  C   UNL A   1      36.769  29.501  31.068  1.00  0.00     0.022 A 
BRANCH  78  82
ATOM     82  S   UNL A   1      35.828  30.834  28.808  1.00  0.00     0.124 S 
ATOM     83  O   UNL A   1      35.106  29.755  28.144  1.00  0.00    -0.237 OA
ATOM     84  O   UNL A   1      35.101  31.547  29.854  1.00  0.00    -0.237 OA
ATOM     85  O   UNL A   1      36.637  31.677  27.931  1.00  0.00    -0.744 OA
ENDBRANCH  78  82
ENDBRANCH  51  75
BRANCH  63  86
ATOM     86  C   UNL A   1      44.942  33.083  29.033  1.00  0.00     0.023 A 
ATOM     87  C   UNL A   1      44.508  34.107  28.175  1.00  0.00     0.031 A 
ATOM     88  C   UNL A   1      45.575  33.447  30.237  1.00  0.00     0.131 A 
ATOM     89  C   UNL A   1      44.724  35.448  28.527  1.00  0.00     0.055 A 
ATOM     90  C   UNL A   1      45.747  34.782  30.601  1.00  0.00     0.041 A 
ATOM     91  F   UNL A   1      46.001  32.505  31.094  1.00  0.00    -0.206 F 
ATOM     92  C   UNL A   1      45.322  35.791  29.743  1.00  0.00     0.022 A 
BRANCH  89  93
ATOM     93  S   UNL A   1      44.219  36.749  27.368  1.00  0.00     0.124 S 
ATOM     94  O   UNL A   1      43.362  36.014  26.443  1.00  0.00    -0.237 OA
ATOM     95  O   UNL A   1      43.545  37.706  28.240  1.00  0.00    -0.237 OA
ATOM     96  O   UNL A   1      45.485  37.216  26.802  1.00  0.00    -0.744 OA
ENDBRANCH  89  93
ENDBRANCH  63  86
ENDBRANCH  37  38
ENDBRANCH  30  32
ENDBRANCH  29  30
ENDBRANCH  28  29
ENDBRANCH  27  28
ENDBRANCH  26  27
ENDBRANCH   1  26
TORSDOF 21
ENDMDL
