MODEL 1
REMARK VINA RESULT:      -9.7      0.000      0.000
REMARK SMILES O=C(CCSc1nc(-c2cccs2)cc(C(F)(F)F)n1)OCCOCCOCCOC(=O)c1ccc(-c2c3nc(c(-c4cc(S(=O)(=O)[O-])ccc4F)c4ccc([nH]4)c(-c4cc(S(=O)(=O)[O-])ccc4F)c4nc(c(-c5cc(S(=O)(=O)[O-])ccc5F)c5ccc2[nH]5)C=C4)C=C3)cc1
REMARK SMILES IDX 25 1 24 2 23 3 22 4 21 5 2 6 1 7 3 8 4 9 5 10 6 11 7 12
REMARK SMILES IDX 20 13 8 14 15 15 14 16 9 17 10 18 13 19 11 20 12 21 16 22
REMARK SMILES IDX 17 23 18 24 19 25 26 26 27 27 28 28 29 29 30 30 31 31 32 32
REMARK SMILES IDX 33 33 34 34 95 35 35 36 94 37 36 38 37 39 38 40 88 41 39 42
REMARK SMILES IDX 93 43 87 44 89 45 40 46 92 47 86 48 85 49 41 51 73 52 53 53
REMARK SMILES IDX 72 54 54 55 57 56 71 57 90 58 55 59 56 60 70 62 91 63 58 64
REMARK SMILES IDX 42 65 43 66 51 67 44 68 50 69 52 70 49 71 45 72 46 73 47 74
REMARK SMILES IDX 48 75 74 76 75 77 83 78 76 79 82 80 84 81 81 82 77 83 78 84
REMARK SMILES IDX 79 85 80 86 59 87 60 88 68 89 61 90 67 91 69 92 66 93 62 94
REMARK SMILES IDX 63 95 64 96 65 97
REMARK H PARENT 89 50 57 61
REMARK Flexibility Score: inf
ROOT
ATOM      1  C   UNL A   1      34.520  21.642  24.640  1.00  0.00     0.188 C 
ENDROOT
BRANCH   1   2
ATOM      2  O   UNL A   1      33.637  20.767  25.313  1.00  0.00    -0.376 OA
BRANCH   2   3
ATOM      3  C   UNL A   1      33.626  20.832  26.726  1.00  0.00     0.202 C 
BRANCH   3   4
ATOM      4  C   UNL A   1      33.500  22.212  27.378  1.00  0.00     0.261 C 
BRANCH   4   5
ATOM      5  O   UNL A   1      32.335  22.993  27.022  1.00  0.00    -0.463 OA
BRANCH   5   6
ATOM      6  C   UNL A   1      32.277  24.036  26.169  1.00  0.00     0.306 C 
ATOM      7  O   UNL A   1      33.090  24.953  26.253  1.00  0.00    -0.252 OA
BRANCH   6   8
ATOM      8  C   UNL A   1      31.179  24.057  25.152  1.00  0.00     0.134 C 
BRANCH   8   9
ATOM      9  C   UNL A   1      30.354  25.333  25.185  1.00  0.00     0.090 C 
BRANCH   9  10
ATOM     10  S   UNL A   1      29.784  25.983  23.562  1.00  0.00    -0.086 SA
BRANCH  10  11
ATOM     11  C   UNL A   1      30.163  27.712  23.762  1.00  0.00     0.188 A 
ATOM     12  N   UNL A   1      31.199  28.039  24.552  1.00  0.00    -0.222 NA
ATOM     13  N   UNL A   1      29.316  28.583  23.208  1.00  0.00    -0.218 NA
ATOM     14  C   UNL A   1      31.313  29.340  24.892  1.00  0.00     0.085 A 
ATOM     15  C   UNL A   1      29.500  29.893  23.504  1.00  0.00     0.149 A 
ATOM     16  C   UNL A   1      30.481  30.311  24.383  1.00  0.00     0.063 A 
BRANCH  14  17
ATOM     17  C   UNL A   1      32.325  29.695  25.901  1.00  0.00     0.053 A 
ATOM     18  C   UNL A   1      32.416  30.860  26.649  1.00  0.00     0.022 A 
ATOM     19  S   UNL A   1      33.631  28.643  26.260  1.00  0.00    -0.142 S 
ATOM     20  C   UNL A   1      33.573  30.903  27.479  1.00  0.00     0.012 A 
ATOM     21  C   UNL A   1      34.326  29.758  27.361  1.00  0.00     0.065 A 
ENDBRANCH  14  17
BRANCH  15  22
ATOM     22  C   UNL A   1      28.603  30.923  22.844  1.00  0.00     0.433 C 
ATOM     23  F   UNL A   1      29.165  31.473  21.729  1.00  0.00    -0.165 F 
ATOM     24  F   UNL A   1      27.395  30.427  22.459  1.00  0.00    -0.165 F 
ATOM     25  F   UNL A   1      28.322  31.984  23.660  1.00  0.00    -0.165 F 
ENDBRANCH  15  22
ENDBRANCH  10  11
ENDBRANCH   9  10
ENDBRANCH   8   9
ENDBRANCH   6   8
ENDBRANCH   5   6
ENDBRANCH   4   5
ENDBRANCH   3   4
ENDBRANCH   2   3
ENDBRANCH   1   2
BRANCH   1  26
ATOM     26  C   UNL A   1      36.004  21.453  25.018  1.00  0.00     0.188 C 
BRANCH  26  27
ATOM     27  O   UNL A   1      36.575  20.150  25.034  1.00  0.00    -0.376 OA
BRANCH  27  28
ATOM     28  C   UNL A   1      37.934  19.956  24.659  1.00  0.00     0.202 C 
BRANCH  28  29
ATOM     29  C   UNL A   1      38.953  19.298  25.608  1.00  0.00     0.261 C 
BRANCH  29  30
ATOM     30  O   UNL A   1      39.836  20.200  26.294  1.00  0.00    -0.460 OA
BRANCH  30  31
ATOM     31  C   UNL A   1      41.162  19.901  26.232  1.00  0.00     0.338 C 
ATOM     32  O   UNL A   1      41.653  18.865  25.843  1.00  0.00    -0.246 OA
BRANCH  31  33
ATOM     33  C   UNL A   1      41.952  21.130  26.501  1.00  0.00     0.060 A 
ATOM     34  C   UNL A   1      42.238  21.448  27.839  1.00  0.00     0.016 A 
ATOM     35  C   UNL A   1      42.427  21.941  25.471  1.00  0.00     0.016 A 
ATOM     36  C   UNL A   1      43.009  22.570  28.150  1.00  0.00     0.010 A 
ATOM     37  C   UNL A   1      43.154  23.096  25.787  1.00  0.00     0.010 A 
ATOM     38  C   UNL A   1      43.435  23.426  27.127  1.00  0.00    -0.014 A 
BRANCH  38  39
ATOM     39  C   UNL A   1      43.967  24.773  27.458  1.00  0.00     0.031 A 
ATOM     40  C   UNL A   1      42.987  25.806  27.945  1.00  0.00     0.074 A 
ATOM     41  C   UNL A   1      45.268  25.085  27.312  1.00  0.00     0.049 A 
ATOM     42  N   UNL A   1      43.166  27.079  28.175  1.00  0.00    -0.248 NA
ATOM     43  C   UNL A   1      41.616  25.332  28.198  1.00  0.00     0.031 C 
ATOM     44  C   UNL A   1      46.322  24.156  26.911  1.00  0.00     0.029 A 
ATOM     45  N   UNL A   1      45.921  26.286  27.464  1.00  0.00    -0.354 N 
ATOM     46  C   UNL A   1      41.928  27.565  28.580  1.00  0.00     0.074 A 
ATOM     47  C   UNL A   1      41.006  26.451  28.555  1.00  0.00     0.031 C 
ATOM     48  C   UNL A   1      47.483  24.829  26.817  1.00  0.00     0.029 A 
ATOM     49  C   UNL A   1      47.248  26.246  27.101  1.00  0.00     0.049 A 
ATOM     50  H   UNL A   1      45.480  27.100  27.803  1.00  0.00     0.167 HD
ATOM     51  C   UNL A   1      41.591  28.829  28.932  1.00  0.00     0.034 A 
ATOM     52  C   UNL A   1      48.149  27.243  26.967  1.00  0.00     0.034 A 
ATOM     53  C   UNL A   1      42.518  29.930  28.937  1.00  0.00     0.049 A 
ATOM     54  C   UNL A   1      47.720  28.667  27.265  1.00  0.00     0.074 A 
ATOM     55  C   UNL A   1      42.289  31.241  29.316  1.00  0.00     0.029 A 
ATOM     56  N   UNL A   1      43.841  29.860  28.522  1.00  0.00    -0.354 N 
ATOM     57  N   UNL A   1      46.555  29.109  27.679  1.00  0.00    -0.248 NA
ATOM     58  C   UNL A   1      48.724  29.723  27.074  1.00  0.00     0.031 C 
ATOM     59  C   UNL A   1      43.442  31.981  29.041  1.00  0.00     0.029 A 
ATOM     60  C   UNL A   1      44.423  31.115  28.581  1.00  0.00     0.049 A 
ATOM     61  H   UNL A   1      44.297  29.038  28.228  1.00  0.00     0.167 HD
ATOM     62  C   UNL A   1      46.700  30.489  27.824  1.00  0.00     0.074 A 
ATOM     63  C   UNL A   1      48.066  30.803  27.470  1.00  0.00     0.031 C 
ATOM     64  C   UNL A   1      45.787  31.414  28.218  1.00  0.00     0.034 A 
BRANCH  51  65
ATOM     65  C   UNL A   1      40.146  29.101  29.263  1.00  0.00     0.023 A 
ATOM     66  C   UNL A   1      39.680  29.163  30.586  1.00  0.00     0.031 A 
ATOM     67  C   UNL A   1      39.217  29.297  28.225  1.00  0.00     0.131 A 
ATOM     68  C   UNL A   1      38.314  29.365  30.837  1.00  0.00     0.055 A 
ATOM     69  C   UNL A   1      37.873  29.573  28.482  1.00  0.00     0.041 A 
ATOM     70  F   UNL A   1      39.599  29.219  26.941  1.00  0.00    -0.206 F 
ATOM     71  C   UNL A   1      37.413  29.597  29.795  1.00  0.00     0.022 A 
BRANCH  68  72
ATOM     72  S   UNL A   1      37.709  29.199  32.539  1.00  0.00     0.124 S 
ATOM     73  O   UNL A   1      36.361  29.750  32.429  1.00  0.00    -0.237 OA
ATOM     74  O   UNL A   1      37.796  27.761  32.764  1.00  0.00    -0.237 OA
ATOM     75  O   UNL A   1      38.645  30.010  33.316  1.00  0.00    -0.744 OA
ENDBRANCH  68  72
ENDBRANCH  51  65
BRANCH  52  76
ATOM     76  C   UNL A   1      49.527  26.971  26.449  1.00  0.00     0.023 A 
ATOM     77  C   UNL A   1      50.637  26.933  27.308  1.00  0.00     0.031 A 
ATOM     78  C   UNL A   1      49.765  26.842  25.068  1.00  0.00     0.131 A 
ATOM     79  C   UNL A   1      51.934  26.833  26.777  1.00  0.00     0.055 A 
ATOM     80  C   UNL A   1      51.052  26.676  24.549  1.00  0.00     0.041 A 
ATOM     81  F   UNL A   1      48.746  26.884  24.195  1.00  0.00    -0.206 F 
ATOM     82  C   UNL A   1      52.147  26.688  25.404  1.00  0.00     0.022 A 
BRANCH  79  83
ATOM     83  S   UNL A   1      53.350  27.022  27.897  1.00  0.00     0.124 S 
ATOM     84  O   UNL A   1      54.472  26.777  26.997  1.00  0.00    -0.237 OA
ATOM     85  O   UNL A   1      53.186  28.394  28.362  1.00  0.00    -0.237 OA
ATOM     86  O   UNL A   1      53.123  25.991  28.908  1.00  0.00    -0.744 OA
ENDBRANCH  79  83
ENDBRANCH  52  76
BRANCH  64  87
ATOM     87  C   UNL A   1      46.248  32.848  28.332  1.00  0.00     0.023 A 
ATOM     88  C   UNL A   1      46.823  33.352  29.513  1.00  0.00     0.031 A 
ATOM     89  C   UNL A   1      46.136  33.715  27.230  1.00  0.00     0.131 A 
ATOM     90  C   UNL A   1      47.230  34.694  29.574  1.00  0.00     0.055 A 
ATOM     91  C   UNL A   1      46.599  35.030  27.277  1.00  0.00     0.041 A 
ATOM     92  F   UNL A   1      45.593  33.289  26.078  1.00  0.00    -0.206 F 
ATOM     93  C   UNL A   1      47.141  35.530  28.457  1.00  0.00     0.022 A 
BRANCH  90  94
ATOM     94  S   UNL A   1      47.815  35.358  31.157  1.00  0.00     0.124 S 
ATOM     95  O   UNL A   1      46.904  36.477  31.372  1.00  0.00    -0.237 OA
ATOM     96  O   UNL A   1      47.650  34.219  32.055  1.00  0.00    -0.237 OA
ATOM     97  O   UNL A   1      49.202  35.731  30.882  1.00  0.00    -0.744 OA
ENDBRANCH  90  94
ENDBRANCH  64  87
ENDBRANCH  38  39
ENDBRANCH  31  33
ENDBRANCH  30  31
ENDBRANCH  29  30
ENDBRANCH  28  29
ENDBRANCH  27  28
ENDBRANCH  26  27
ENDBRANCH   1  26
TORSDOF 25
ENDMDL
MODEL 2
REMARK VINA RESULT:      -9.7      3.695      8.851
REMARK SMILES O=C(CCSc1nc(-c2cccs2)cc(C(F)(F)F)n1)OCCOCCOCCOC(=O)c1ccc(-c2c3nc(c(-c4cc(S(=O)(=O)[O-])ccc4F)c4ccc([nH]4)c(-c4cc(S(=O)(=O)[O-])ccc4F)c4nc(c(-c5cc(S(=O)(=O)[O-])ccc5F)c5ccc2[nH]5)C=C4)C=C3)cc1
REMARK SMILES IDX 25 1 24 2 23 3 22 4 21 5 2 6 1 7 3 8 4 9 5 10 6 11 7 12
REMARK SMILES IDX 20 13 8 14 15 15 14 16 9 17 10 18 13 19 11 20 12 21 16 22
REMARK SMILES IDX 17 23 18 24 19 25 26 26 27 27 28 28 29 29 30 30 31 31 32 32
REMARK SMILES IDX 33 33 34 34 95 35 35 36 94 37 36 38 37 39 38 40 88 41 39 42
REMARK SMILES IDX 93 43 87 44 89 45 40 46 92 47 86 48 85 49 41 51 73 52 53 53
REMARK SMILES IDX 72 54 54 55 57 56 71 57 90 58 55 59 56 60 70 62 91 63 58 64
REMARK SMILES IDX 42 65 43 66 51 67 44 68 50 69 52 70 49 71 45 72 46 73 47 74
REMARK SMILES IDX 48 75 74 76 75 77 83 78 76 79 82 80 84 81 81 82 77 83 78 84
REMARK SMILES IDX 79 85 80 86 59 87 60 88 68 89 61 90 67 91 69 92 66 93 62 94
REMARK SMILES IDX 63 95 64 96 65 97
REMARK H PARENT 89 50 57 61
REMARK Flexibility Score: inf
ROOT
ATOM      1  C   UNL A   1      34.772  23.836  25.609  1.00  0.00     0.188 C 
ENDROOT
BRANCH   1   2
ATOM      2  O   UNL A   1      33.464  24.344  25.777  1.00  0.00    -0.376 OA
BRANCH   2   3
ATOM      3  C   UNL A   1      33.286  25.733  25.572  1.00  0.00     0.202 C 
BRANCH   3   4
ATOM      4  C   UNL A   1      34.234  26.441  24.600  1.00  0.00     0.261 C 
BRANCH   4   5
ATOM      5  O   UNL A   1      33.625  27.096  23.462  1.00  0.00    -0.463 OA
BRANCH   5   6
ATOM      6  C   UNL A   1      33.139  26.516  22.347  1.00  0.00     0.306 C 
ATOM      7  O   UNL A   1      33.902  26.017  21.523  1.00  0.00    -0.252 OA
BRANCH   6   8
ATOM      8  C   UNL A   1      31.658  26.534  22.129  1.00  0.00     0.134 C 
BRANCH   8   9
ATOM      9  C   UNL A   1      30.931  25.412  22.850  1.00  0.00     0.090 C 
BRANCH   9  10
ATOM     10  S   UNL A   1      29.440  25.888  23.815  1.00  0.00    -0.086 SA
BRANCH  10  11
ATOM     11  C   UNL A   1      29.759  27.624  24.055  1.00  0.00     0.188 A 
ATOM     12  N   UNL A   1      29.048  28.499  23.324  1.00  0.00    -0.222 NA
ATOM     13  N   UNL A   1      30.773  27.945  24.863  1.00  0.00    -0.218 NA
ATOM     14  C   UNL A   1      29.474  29.780  23.332  1.00  0.00     0.085 A 
ATOM     15  C   UNL A   1      31.131  29.252  24.911  1.00  0.00     0.149 A 
ATOM     16  C   UNL A   1      30.519  30.205  24.122  1.00  0.00     0.063 A 
BRANCH  14  17
ATOM     17  C   UNL A   1      28.829  30.718  22.399  1.00  0.00     0.053 A 
ATOM     18  C   UNL A   1      28.300  30.449  21.144  1.00  0.00     0.022 A 
ATOM     19  S   UNL A   1      28.687  32.387  22.769  1.00  0.00    -0.142 S 
ATOM     20  C   UNL A   1      27.822  31.614  20.478  1.00  0.00     0.012 A 
ATOM     21  C   UNL A   1      27.976  32.741  21.252  1.00  0.00     0.065 A 
ENDBRANCH  14  17
BRANCH  15  22
ATOM     22  C   UNL A   1      32.234  29.670  25.866  1.00  0.00     0.433 C 
ATOM     23  F   UNL A   1      32.067  30.940  26.338  1.00  0.00    -0.165 F 
ATOM     24  F   UNL A   1      32.344  28.867  26.958  1.00  0.00    -0.165 F 
ATOM     25  F   UNL A   1      33.471  29.669  25.281  1.00  0.00    -0.165 F 
ENDBRANCH  15  22
ENDBRANCH  10  11
ENDBRANCH   9  10
ENDBRANCH   8   9
ENDBRANCH   6   8
ENDBRANCH   5   6
ENDBRANCH   4   5
ENDBRANCH   3   4
ENDBRANCH   2   3
ENDBRANCH   1   2
BRANCH   1  26
ATOM     26  C   UNL A   1      35.096  22.620  26.502  1.00  0.00     0.188 C 
BRANCH  26  27
ATOM     27  O   UNL A   1      35.744  21.481  25.947  1.00  0.00    -0.376 OA
BRANCH  27  28
ATOM     28  C   UNL A   1      36.957  21.629  25.219  1.00  0.00     0.202 C 
BRANCH  28  29
ATOM     29  C   UNL A   1      38.066  22.595  25.675  1.00  0.00     0.261 C 
BRANCH  29  30
ATOM     30  O   UNL A   1      39.066  22.032  26.539  1.00  0.00    -0.460 OA
BRANCH  30  31
ATOM     31  C   UNL A   1      40.325  22.526  26.399  1.00  0.00     0.338 C 
ATOM     32  O   UNL A   1      41.244  22.009  25.805  1.00  0.00    -0.246 OA
BRANCH  31  33
ATOM     33  C   UNL A   1      40.357  23.926  26.895  1.00  0.00     0.060 A 
ATOM     34  C   UNL A   1      40.736  24.935  25.996  1.00  0.00     0.016 A 
ATOM     35  C   UNL A   1      39.999  24.252  28.204  1.00  0.00     0.016 A 
ATOM     36  C   UNL A   1      40.747  26.273  26.397  1.00  0.00     0.010 A 
ATOM     37  C   UNL A   1      40.064  25.588  28.620  1.00  0.00     0.010 A 
ATOM     38  C   UNL A   1      40.453  26.603  27.725  1.00  0.00    -0.014 A 
BRANCH  38  39
ATOM     39  C   UNL A   1      40.771  27.959  28.242  1.00  0.00     0.031 A 
ATOM     40  C   UNL A   1      42.220  28.288  28.480  1.00  0.00     0.074 A 
ATOM     41  C   UNL A   1      39.814  28.864  28.518  1.00  0.00     0.049 A 
ATOM     42  N   UNL A   1      42.753  29.340  29.042  1.00  0.00    -0.248 NA
ATOM     43  C   UNL A   1      43.198  27.286  28.024  1.00  0.00     0.031 C 
ATOM     44  C   UNL A   1      38.385  28.687  28.271  1.00  0.00     0.029 A 
ATOM     45  N   UNL A   1      39.903  30.111  29.090  1.00  0.00    -0.354 N 
ATOM     46  C   UNL A   1      44.126  29.119  29.028  1.00  0.00     0.074 A 
ATOM     47  C   UNL A   1      44.342  27.830  28.409  1.00  0.00     0.031 C 
ATOM     48  C   UNL A   1      37.728  29.771  28.720  1.00  0.00     0.029 A 
ATOM     49  C   UNL A   1      38.681  30.698  29.332  1.00  0.00     0.049 A 
ATOM     50  H   UNL A   1      40.760  30.545  29.307  1.00  0.00     0.167 HD
ATOM     51  C   UNL A   1      45.115  29.917  29.497  1.00  0.00     0.034 A 
ATOM     52  C   UNL A   1      38.370  31.824  30.011  1.00  0.00     0.034 A 
ATOM     53  C   UNL A   1      44.882  31.192  30.124  1.00  0.00     0.049 A 
ATOM     54  C   UNL A   1      39.488  32.648  30.620  1.00  0.00     0.074 A 
ATOM     55  C   UNL A   1      45.815  32.098  30.597  1.00  0.00     0.029 A 
ATOM     56  N   UNL A   1      43.631  31.732  30.390  1.00  0.00    -0.354 N 
ATOM     57  N   UNL A   1      40.785  32.445  30.571  1.00  0.00    -0.248 NA
ATOM     58  C   UNL A   1      39.101  33.847  31.377  1.00  0.00     0.031 C 
ATOM     59  C   UNL A   1      45.129  33.137  31.232  1.00  0.00     0.029 A 
ATOM     60  C   UNL A   1      43.767  32.930  31.071  1.00  0.00     0.049 A 
ATOM     61  H   UNL A   1      42.773  31.323  30.132  1.00  0.00     0.167 HD
ATOM     62  C   UNL A   1      41.363  33.507  31.265  1.00  0.00     0.074 A 
ATOM     63  C   UNL A   1      40.279  34.355  31.708  1.00  0.00     0.031 C 
ATOM     64  C   UNL A   1      42.674  33.762  31.512  1.00  0.00     0.034 A 
BRANCH  51  65
ATOM     65  C   UNL A   1      46.528  29.398  29.420  1.00  0.00     0.023 A 
ATOM     66  C   UNL A   1      47.371  29.684  28.335  1.00  0.00     0.031 A 
ATOM     67  C   UNL A   1      47.034  28.596  30.459  1.00  0.00     0.131 A 
ATOM     68  C   UNL A   1      48.660  29.130  28.288  1.00  0.00     0.055 A 
ATOM     69  C   UNL A   1      48.343  28.111  30.443  1.00  0.00     0.041 A 
ATOM     70  F   UNL A   1      46.263  28.267  31.507  1.00  0.00    -0.206 F 
ATOM     71  C   UNL A   1      49.160  28.369  29.347  1.00  0.00     0.022 A 
BRANCH  68  72
ATOM     72  S   UNL A   1      49.631  29.317  26.768  1.00  0.00     0.124 S 
ATOM     73  O   UNL A   1      48.815  28.584  25.803  1.00  0.00    -0.237 OA
ATOM     74  O   UNL A   1      49.676  30.765  26.598  1.00  0.00    -0.237 OA
ATOM     75  O   UNL A   1      50.909  28.687  27.098  1.00  0.00    -0.744 OA
ENDBRANCH  68  72
ENDBRANCH  51  65
BRANCH  52  76
ATOM     76  C   UNL A   1      36.944  32.215  30.239  1.00  0.00     0.023 A 
ATOM     77  C   UNL A   1      36.216  32.927  29.271  1.00  0.00     0.031 A 
ATOM     78  C   UNL A   1      36.317  31.967  31.475  1.00  0.00     0.131 A 
ATOM     79  C   UNL A   1      34.935  33.418  29.575  1.00  0.00     0.055 A 
ATOM     80  C   UNL A   1      35.017  32.399  31.748  1.00  0.00     0.041 A 
ATOM     81  F   UNL A   1      36.966  31.303  32.445  1.00  0.00    -0.206 F 
ATOM     82  C   UNL A   1      34.324  33.144  30.801  1.00  0.00     0.022 A 
BRANCH  79  83
ATOM     83  S   UNL A   1      34.124  34.527  28.389  1.00  0.00     0.124 S 
ATOM     84  O   UNL A   1      35.025  34.445  27.245  1.00  0.00    -0.237 OA
ATOM     85  O   UNL A   1      32.820  33.894  28.227  1.00  0.00    -0.237 OA
ATOM     86  O   UNL A   1      34.110  35.813  29.082  1.00  0.00    -0.744 OA
ENDBRANCH  79  83
ENDBRANCH  52  76
BRANCH  64  87
ATOM     87  C   UNL A   1      43.012  35.032  32.257  1.00  0.00     0.023 A 
ATOM     88  C   UNL A   1      42.995  35.096  33.662  1.00  0.00     0.031 A 
ATOM     89  C   UNL A   1      43.389  36.187  31.549  1.00  0.00     0.131 A 
ATOM     90  C   UNL A   1      43.310  36.300  34.311  1.00  0.00     0.055 A 
ATOM     91  C   UNL A   1      43.761  37.363  32.200  1.00  0.00     0.041 A 
ATOM     92  F   UNL A   1      43.422  36.185  30.206  1.00  0.00    -0.206 F 
ATOM     93  C   UNL A   1      43.714  37.428  33.589  1.00  0.00     0.022 A 
BRANCH  90  94
ATOM     94  S   UNL A   1      43.120  36.399  36.112  1.00  0.00     0.124 S 
ATOM     95  O   UNL A   1      41.717  36.776  36.248  1.00  0.00    -0.237 OA
ATOM     96  O   UNL A   1      43.461  35.045  36.538  1.00  0.00    -0.237 OA
ATOM     97  O   UNL A   1      44.081  37.429  36.503  1.00  0.00    -0.744 OA
ENDBRANCH  90  94
ENDBRANCH  64  87
ENDBRANCH  38  39
ENDBRANCH  31  33
ENDBRANCH  30  31
ENDBRANCH  29  30
ENDBRANCH  28  29
ENDBRANCH  27  28
ENDBRANCH  26  27
ENDBRANCH   1  26
TORSDOF 25
ENDMDL
MODEL 3
REMARK VINA RESULT:      -9.6      2.214      7.922
REMARK SMILES O=C(CCSc1nc(-c2cccs2)cc(C(F)(F)F)n1)OCCOCCOCCOC(=O)c1ccc(-c2c3nc(c(-c4cc(S(=O)(=O)[O-])ccc4F)c4ccc([nH]4)c(-c4cc(S(=O)(=O)[O-])ccc4F)c4nc(c(-c5cc(S(=O)(=O)[O-])ccc5F)c5ccc2[nH]5)C=C4)C=C3)cc1
REMARK SMILES IDX 25 1 24 2 23 3 22 4 21 5 2 6 1 7 3 8 4 9 5 10 6 11 7 12
REMARK SMILES IDX 20 13 8 14 15 15 14 16 9 17 10 18 13 19 11 20 12 21 16 22
REMARK SMILES IDX 17 23 18 24 19 25 26 26 27 27 28 28 29 29 30 30 31 31 32 32
REMARK SMILES IDX 33 33 34 34 95 35 35 36 94 37 36 38 37 39 38 40 88 41 39 42
REMARK SMILES IDX 93 43 87 44 89 45 40 46 92 47 86 48 85 49 41 51 73 52 53 53
REMARK SMILES IDX 72 54 54 55 57 56 71 57 90 58 55 59 56 60 70 62 91 63 58 64
REMARK SMILES IDX 42 65 43 66 51 67 44 68 50 69 52 70 49 71 45 72 46 73 47 74
REMARK SMILES IDX 48 75 74 76 75 77 83 78 76 79 82 80 84 81 81 82 77 83 78 84
REMARK SMILES IDX 79 85 80 86 59 87 60 88 68 89 61 90 67 91 69 92 66 93 62 94
REMARK SMILES IDX 63 95 64 96 65 97
REMARK H PARENT 89 50 57 61
REMARK Flexibility Score: inf
ROOT
ATOM      1  C   UNL A   1      34.973  21.863  24.681  1.00  0.00     0.188 C 
ENDROOT
BRANCH   1   2
ATOM      2  O   UNL A   1      33.861  21.959  25.548  1.00  0.00    -0.376 OA
BRANCH   2   3
ATOM      3  C   UNL A   1      33.891  22.994  26.513  1.00  0.00     0.202 C 
BRANCH   3   4
ATOM      4  C   UNL A   1      33.303  24.353  26.124  1.00  0.00     0.261 C 
BRANCH   4   5
ATOM      5  O   UNL A   1      34.166  25.242  25.374  1.00  0.00    -0.463 OA
BRANCH   5   6
ATOM      6  C   UNL A   1      34.012  26.568  25.189  1.00  0.00     0.306 C 
ATOM      7  O   UNL A   1      34.030  27.044  24.055  1.00  0.00    -0.252 OA
BRANCH   6   8
ATOM      8  C   UNL A   1      33.860  27.438  26.397  1.00  0.00     0.134 C 
BRANCH   8   9
ATOM      9  C   UNL A   1      33.843  28.922  26.072  1.00  0.00     0.090 C 
BRANCH   9  10
ATOM     10  S   UNL A   1      32.265  29.812  26.386  1.00  0.00    -0.086 SA
BRANCH  10  11
ATOM     11  C   UNL A   1      31.280  29.199  25.035  1.00  0.00     0.188 A 
ATOM     12  N   UNL A   1      30.752  30.096  24.185  1.00  0.00    -0.222 NA
ATOM     13  N   UNL A   1      31.028  27.887  25.019  1.00  0.00    -0.218 NA
ATOM     14  C   UNL A   1      29.813  29.639  23.330  1.00  0.00     0.085 A 
ATOM     15  C   UNL A   1      30.138  27.442  24.098  1.00  0.00     0.149 A 
ATOM     16  C   UNL A   1      29.476  28.306  23.248  1.00  0.00     0.063 A 
BRANCH  14  17
ATOM     17  C   UNL A   1      29.089  30.631  22.520  1.00  0.00     0.053 A 
ATOM     18  C   UNL A   1      28.610  30.494  21.225  1.00  0.00     0.022 A 
ATOM     19  S   UNL A   1      28.770  32.207  23.118  1.00  0.00    -0.142 S 
ATOM     20  C   UNL A   1      28.023  31.688  20.715  1.00  0.00     0.012 A 
ATOM     21  C   UNL A   1      28.048  32.702  21.645  1.00  0.00     0.065 A 
ENDBRANCH  14  17
BRANCH  15  22
ATOM     22  C   UNL A   1      29.873  25.952  24.001  1.00  0.00     0.433 C 
ATOM     23  F   UNL A   1      28.634  25.670  23.505  1.00  0.00    -0.165 F 
ATOM     24  F   UNL A   1      30.761  25.289  23.211  1.00  0.00    -0.165 F 
ATOM     25  F   UNL A   1      29.921  25.324  25.216  1.00  0.00    -0.165 F 
ENDBRANCH  15  22
ENDBRANCH  10  11
ENDBRANCH   9  10
ENDBRANCH   8   9
ENDBRANCH   6   8
ENDBRANCH   5   6
ENDBRANCH   4   5
ENDBRANCH   3   4
ENDBRANCH   2   3
ENDBRANCH   1   2
BRANCH   1  26
ATOM     26  C   UNL A   1      36.184  21.126  25.289  1.00  0.00     0.188 C 
BRANCH  26  27
ATOM     27  O   UNL A   1      36.399  19.750  25.001  1.00  0.00    -0.376 OA
BRANCH  27  28
ATOM     28  C   UNL A   1      37.722  19.238  24.884  1.00  0.00     0.202 C 
BRANCH  28  29
ATOM     29  C   UNL A   1      38.947  20.029  25.381  1.00  0.00     0.261 C 
BRANCH  29  30
ATOM     30  O   UNL A   1      39.818  19.325  26.281  1.00  0.00    -0.460 OA
BRANCH  30  31
ATOM     31  C   UNL A   1      41.133  19.666  26.229  1.00  0.00     0.338 C 
ATOM     32  O   UNL A   1      42.036  18.999  25.777  1.00  0.00    -0.246 OA
BRANCH  31  33
ATOM     33  C   UNL A   1      41.282  21.095  26.606  1.00  0.00     0.060 A 
ATOM     34  C   UNL A   1      40.649  22.057  25.802  1.00  0.00     0.016 A 
ATOM     35  C   UNL A   1      42.001  21.488  27.735  1.00  0.00     0.016 A 
ATOM     36  C   UNL A   1      40.723  23.414  26.131  1.00  0.00     0.010 A 
ATOM     37  C   UNL A   1      42.120  22.852  28.032  1.00  0.00     0.010 A 
ATOM     38  C   UNL A   1      41.497  23.822  27.224  1.00  0.00    -0.014 A 
BRANCH  38  39
ATOM     39  C   UNL A   1      41.846  25.256  27.392  1.00  0.00     0.031 A 
ATOM     40  C   UNL A   1      43.215  25.694  26.944  1.00  0.00     0.074 A 
ATOM     41  C   UNL A   1      40.996  26.141  27.944  1.00  0.00     0.049 A 
ATOM     42  N   UNL A   1      43.811  26.846  27.095  1.00  0.00    -0.248 NA
ATOM     43  C   UNL A   1      44.019  24.686  26.232  1.00  0.00     0.031 C 
ATOM     44  C   UNL A   1      39.625  25.854  28.357  1.00  0.00     0.029 A 
ATOM     45  N   UNL A   1      41.175  27.465  28.273  1.00  0.00    -0.354 N 
ATOM     46  C   UNL A   1      45.068  26.697  26.519  1.00  0.00     0.074 A 
ATOM     47  C   UNL A   1      45.149  25.342  26.022  1.00  0.00     0.031 C 
ATOM     48  C   UNL A   1      39.097  26.959  28.916  1.00  0.00     0.029 A 
ATOM     49  C   UNL A   1      40.108  28.017  28.946  1.00  0.00     0.049 A 
ATOM     50  H   UNL A   1      41.989  27.971  28.048  1.00  0.00     0.167 HD
ATOM     51  C   UNL A   1      46.065  27.609  26.421  1.00  0.00     0.034 A 
ATOM     52  C   UNL A   1      39.984  29.216  29.556  1.00  0.00     0.034 A 
ATOM     53  C   UNL A   1      45.973  28.951  26.933  1.00  0.00     0.049 A 
ATOM     54  C   UNL A   1      41.153  30.181  29.525  1.00  0.00     0.074 A 
ATOM     55  C   UNL A   1      46.909  29.966  26.850  1.00  0.00     0.029 A 
ATOM     56  N   UNL A   1      44.895  29.459  27.646  1.00  0.00    -0.354 N 
ATOM     57  N   UNL A   1      42.325  30.041  28.948  1.00  0.00    -0.248 NA
ATOM     58  C   UNL A   1      40.985  31.460  30.229  1.00  0.00     0.031 C 
ATOM     59  C   UNL A   1      46.440  31.053  27.592  1.00  0.00     0.029 A 
ATOM     60  C   UNL A   1      45.168  30.753  28.058  1.00  0.00     0.049 A 
ATOM     61  H   UNL A   1      44.060  28.971  27.832  1.00  0.00     0.167 HD
ATOM     62  C   UNL A   1      43.017  31.227  29.197  1.00  0.00     0.074 A 
ATOM     63  C   UNL A   1      42.129  32.074  29.961  1.00  0.00     0.031 C 
ATOM     64  C   UNL A   1      44.273  31.585  28.825  1.00  0.00     0.034 A 
BRANCH  51  65
ATOM     65  C   UNL A   1      47.365  27.159  25.806  1.00  0.00     0.023 A 
ATOM     66  C   UNL A   1      48.335  26.454  26.537  1.00  0.00     0.031 A 
ATOM     67  C   UNL A   1      47.636  27.450  24.456  1.00  0.00     0.131 A 
ATOM     68  C   UNL A   1      49.551  26.107  25.929  1.00  0.00     0.055 A 
ATOM     69  C   UNL A   1      48.816  27.036  23.836  1.00  0.00     0.041 A 
ATOM     70  F   UNL A   1      46.759  28.147  23.717  1.00  0.00    -0.206 F 
ATOM     71  C   UNL A   1      49.787  26.369  24.577  1.00  0.00     0.022 A 
BRANCH  68  72
ATOM     72  S   UNL A   1      50.872  25.416  26.962  1.00  0.00     0.124 S 
ATOM     73  O   UNL A   1      51.365  26.608  27.649  1.00  0.00    -0.237 OA
ATOM     74  O   UNL A   1      50.155  24.453  27.789  1.00  0.00    -0.237 OA
ATOM     75  O   UNL A   1      51.799  24.838  25.991  1.00  0.00    -0.744 OA
ENDBRANCH  68  72
ENDBRANCH  51  65
BRANCH  52  76
ATOM     76  C   UNL A   1      38.749  29.563  30.328  1.00  0.00     0.023 A 
ATOM     77  C   UNL A   1      37.751  30.385  29.780  1.00  0.00     0.031 A 
ATOM     78  C   UNL A   1      38.598  29.155  31.666  1.00  0.00     0.131 A 
ATOM     79  C   UNL A   1      36.682  30.821  30.581  1.00  0.00     0.055 A 
ATOM     80  C   UNL A   1      37.499  29.538  32.439  1.00  0.00     0.041 A 
ATOM     81  F   UNL A   1      39.526  28.380  32.251  1.00  0.00    -0.206 F 
ATOM     82  C   UNL A   1      36.541  30.390  31.902  1.00  0.00     0.022 A 
BRANCH  79  83
ATOM     83  S   UNL A   1      35.543  32.064  29.909  1.00  0.00     0.124 S 
ATOM     84  O   UNL A   1      34.993  31.366  28.753  1.00  0.00    -0.237 OA
ATOM     85  O   UNL A   1      34.630  32.273  31.028  1.00  0.00    -0.237 OA
ATOM     86  O   UNL A   1      36.416  33.194  29.600  1.00  0.00    -0.744 OA
ENDBRANCH  79  83
ENDBRANCH  52  76
BRANCH  64  87
ATOM     87  C   UNL A   1      44.746  32.970  29.199  1.00  0.00     0.023 A 
ATOM     88  C   UNL A   1      45.480  33.213  30.374  1.00  0.00     0.031 A 
ATOM     89  C   UNL A   1      44.483  34.059  28.348  1.00  0.00     0.131 A 
ATOM     90  C   UNL A   1      45.892  34.518  30.683  1.00  0.00     0.055 A 
ATOM     91  C   UNL A   1      44.949  35.344  28.629  1.00  0.00     0.041 A 
ATOM     92  F   UNL A   1      43.785  33.887  27.214  1.00  0.00    -0.206 F 
ATOM     93  C   UNL A   1      45.651  35.581  29.807  1.00  0.00     0.022 A 
BRANCH  90  94
ATOM     94  S   UNL A   1      46.692  34.826  32.281  1.00  0.00     0.124 S 
ATOM     95  O   UNL A   1      46.844  36.277  32.270  1.00  0.00    -0.237 OA
ATOM     96  O   UNL A   1      45.718  34.293  33.227  1.00  0.00    -0.237 OA
ATOM     97  O   UNL A   1      47.942  34.072  32.191  1.00  0.00    -0.744 OA
ENDBRANCH  90  94
ENDBRANCH  64  87
ENDBRANCH  38  39
ENDBRANCH  31  33
ENDBRANCH  30  31
ENDBRANCH  29  30
ENDBRANCH  28  29
ENDBRANCH  27  28
ENDBRANCH  26  27
ENDBRANCH   1  26
TORSDOF 25
ENDMDL
