MODEL 1
REMARK VINA RESULT:     -10.1      0.000      0.000
REMARK SMILES C[C@H](C(=O)OCCOCCOCCOC(=O)c1ccc(-c2c3nc(c(-c4cc(S(=O)(=O)[O-])ccc4F)c4ccc([nH]4)c(-c4cc(S(=O)(=O)[O-])ccc4F)c4nc(c(-c5cc(S(=O)(=O)[O-])ccc5F)c5ccc2[nH]5)C=C4)C=C3)cc1)c1ccc(C[C@@H]2CCC[C@H]2O)cc1
REMARK SMILES IDX 9 1 8 2 7 3 6 4 5 5 3 6 4 7 2 8 1 9 80 10 81 11 92 12 82 13
REMARK SMILES IDX 91 14 83 15 84 16 85 17 86 18 89 19 87 20 88 21 90 22 10 24
REMARK SMILES IDX 11 25 12 26 13 27 14 28 15 29 16 30 17 31 18 32 79 33 19 34
REMARK SMILES IDX 78 35 20 36 21 37 22 38 72 39 23 40 77 41 71 42 73 43 24 44
REMARK SMILES IDX 76 45 70 46 69 47 25 49 57 50 37 51 56 52 38 53 41 54 55 55
REMARK SMILES IDX 74 56 39 57 40 58 54 60 75 61 42 62 26 63 27 64 35 65 28 66
REMARK SMILES IDX 34 67 36 68 33 69 29 70 30 71 31 72 32 73 58 74 59 75 67 76
REMARK SMILES IDX 60 77 66 78 68 79 65 80 61 81 62 82 63 83 64 84 43 85 44 86
REMARK SMILES IDX 52 87 45 88 51 89 53 90 50 91 46 92 47 93 48 94 49 95
REMARK H PARENT 90 23 73 48 41 59
REMARK Flexibility Score: inf
ROOT
ATOM      1  C   UNL A   1      32.508  29.110  27.188  1.00  0.00     0.188 C 
ENDROOT
BRANCH   1   2
ATOM      2  O   UNL A   1      32.679  27.863  26.510  1.00  0.00    -0.376 OA
BRANCH   2   3
ATOM      3  C   UNL A   1      33.654  27.783  25.477  1.00  0.00     0.202 C 
BRANCH   3   4
ATOM      4  C   UNL A   1      33.126  27.836  24.042  1.00  0.00     0.261 C 
BRANCH   4   5
ATOM      5  O   UNL A   1      33.934  27.087  23.111  1.00  0.00    -0.463 OA
BRANCH   5   6
ATOM      6  C   UNL A   1      33.302  26.069  22.483  1.00  0.00     0.313 C 
ATOM      7  O   UNL A   1      33.479  25.813  21.292  1.00  0.00    -0.252 OA
BRANCH   6   8
ATOM      8  C   UNL A   1      32.371  25.216  23.349  1.00  0.00     0.126 C 
ATOM      9  C   UNL A   1      30.989  25.259  22.672  1.00  0.00     0.025 C 
BRANCH   8  10
ATOM     10  C   UNL A   1      32.785  23.805  23.808  1.00  0.00    -0.034 A 
ATOM     11  C   UNL A   1      32.441  22.670  23.053  1.00  0.00     0.005 A 
ATOM     12  C   UNL A   1      33.653  23.589  24.894  1.00  0.00     0.005 A 
ATOM     13  C   UNL A   1      32.948  21.388  23.365  1.00  0.00     0.004 A 
ATOM     14  C   UNL A   1      34.164  22.313  25.198  1.00  0.00     0.004 A 
ATOM     15  C   UNL A   1      33.826  21.189  24.438  1.00  0.00    -0.048 A 
BRANCH  15  16
ATOM     16  C   UNL A   1      34.546  19.875  24.690  1.00  0.00     0.041 C 
BRANCH  16  17
ATOM     17  C   UNL A   1      33.818  18.527  24.898  1.00  0.00     0.022 C 
ATOM     18  C   UNL A   1      34.624  17.287  24.499  1.00  0.00     0.007 C 
ATOM     19  C   UNL A   1      32.503  18.374  24.141  1.00  0.00     0.117 C 
ATOM     20  C   UNL A   1      34.119  16.870  23.123  1.00  0.00     0.003 C 
ATOM     21  C   UNL A   1      32.916  17.756  22.826  1.00  0.00     0.032 C 
BRANCH  19  22
ATOM     22  O   UNL A   1      31.662  17.438  24.818  1.00  0.00    -0.393 OA
ATOM     23  H   UNL A   1      31.691  16.586  24.357  1.00  0.00     0.210 HD
ENDBRANCH  19  22
ENDBRANCH  16  17
ENDBRANCH  15  16
ENDBRANCH   8  10
ENDBRANCH   6   8
ENDBRANCH   5   6
ENDBRANCH   4   5
ENDBRANCH   3   4
ENDBRANCH   2   3
ENDBRANCH   1   2
BRANCH   1  24
ATOM     24  C   UNL A   1      33.767  29.887  27.614  1.00  0.00     0.188 C 
BRANCH  24  25
ATOM     25  O   UNL A   1      33.672  31.278  27.349  1.00  0.00    -0.376 OA
BRANCH  25  26
ATOM     26  C   UNL A   1      32.405  31.761  26.962  1.00  0.00     0.202 C 
BRANCH  26  27
ATOM     27  C   UNL A   1      32.137  33.219  27.326  1.00  0.00     0.261 C 
BRANCH  27  28
ATOM     28  O   UNL A   1      33.304  33.933  27.773  1.00  0.00    -0.460 OA
BRANCH  28  29
ATOM     29  C   UNL A   1      33.392  34.270  29.071  1.00  0.00     0.338 C 
ATOM     30  O   UNL A   1      32.640  35.009  29.704  1.00  0.00    -0.246 OA
BRANCH  29  31
ATOM     31  C   UNL A   1      34.591  33.629  29.632  1.00  0.00     0.060 A 
ATOM     32  C   UNL A   1      34.503  32.729  30.703  1.00  0.00     0.016 A 
ATOM     33  C   UNL A   1      35.832  33.967  29.096  1.00  0.00     0.016 A 
ATOM     34  C   UNL A   1      35.666  32.177  31.253  1.00  0.00     0.010 A 
ATOM     35  C   UNL A   1      36.989  33.412  29.641  1.00  0.00     0.010 A 
ATOM     36  C   UNL A   1      36.918  32.532  30.736  1.00  0.00    -0.014 A 
BRANCH  36  37
ATOM     37  C   UNL A   1      38.187  32.104  31.379  1.00  0.00     0.031 A 
ATOM     38  C   UNL A   1      38.996  31.023  30.719  1.00  0.00     0.074 A 
ATOM     39  C   UNL A   1      38.561  32.604  32.570  1.00  0.00     0.049 A 
ATOM     40  N   UNL A   1      39.975  30.302  31.198  1.00  0.00    -0.248 NA
ATOM     41  C   UNL A   1      38.632  30.703  29.330  1.00  0.00     0.031 C 
ATOM     42  C   UNL A   1      37.888  33.693  33.277  1.00  0.00     0.029 A 
ATOM     43  N   UNL A   1      39.579  32.234  33.414  1.00  0.00    -0.354 N 
ATOM     44  C   UNL A   1      40.326  29.418  30.182  1.00  0.00     0.074 A 
ATOM     45  C   UNL A   1      39.442  29.689  29.067  1.00  0.00     0.031 C 
ATOM     46  C   UNL A   1      38.492  33.882  34.463  1.00  0.00     0.029 A 
ATOM     47  C   UNL A   1      39.551  32.887  34.625  1.00  0.00     0.049 A 
ATOM     48  H   UNL A   1      40.263  31.567  33.175  1.00  0.00     0.167 HD
ATOM     49  C   UNL A   1      41.292  28.465  30.187  1.00  0.00     0.034 A 
ATOM     50  C   UNL A   1      40.257  32.667  35.753  1.00  0.00     0.034 A 
ATOM     51  C   UNL A   1      42.149  28.208  31.320  1.00  0.00     0.049 A 
ATOM     52  C   UNL A   1      41.270  31.547  35.770  1.00  0.00     0.074 A 
ATOM     53  C   UNL A   1      43.162  27.274  31.445  1.00  0.00     0.029 A 
ATOM     54  N   UNL A   1      42.086  28.886  32.533  1.00  0.00    -0.354 N 
ATOM     55  N   UNL A   1      41.579  30.696  34.817  1.00  0.00    -0.248 NA
ATOM     56  C   UNL A   1      42.026  31.356  37.014  1.00  0.00     0.031 C 
ATOM     57  C   UNL A   1      43.663  27.341  32.751  1.00  0.00     0.029 A 
ATOM     58  C   UNL A   1      43.020  28.371  33.418  1.00  0.00     0.049 A 
ATOM     59  H   UNL A   1      41.466  29.624  32.733  1.00  0.00     0.167 HD
ATOM     60  C   UNL A   1      42.586  29.889  35.340  1.00  0.00     0.074 A 
ATOM     61  C   UNL A   1      42.839  30.364  36.685  1.00  0.00     0.031 C 
ATOM     62  C   UNL A   1      43.247  28.853  34.762  1.00  0.00     0.034 A 
BRANCH  49  63
ATOM     63  C   UNL A   1      41.414  27.594  28.959  1.00  0.00     0.023 A 
ATOM     64  C   UNL A   1      42.420  27.800  27.998  1.00  0.00     0.031 A 
ATOM     65  C   UNL A   1      40.482  26.567  28.722  1.00  0.00     0.131 A 
ATOM     66  C   UNL A   1      42.425  27.045  26.815  1.00  0.00     0.055 A 
ATOM     67  C   UNL A   1      40.541  25.766  27.580  1.00  0.00     0.041 A 
ATOM     68  F   UNL A   1      39.484  26.336  29.590  1.00  0.00    -0.206 F 
ATOM     69  C   UNL A   1      41.507  26.013  26.610  1.00  0.00     0.022 A 
BRANCH  66  70
ATOM     70  S   UNL A   1      43.555  27.531  25.481  1.00  0.00     0.124 S 
ATOM     71  O   UNL A   1      42.622  27.799  24.389  1.00  0.00    -0.237 OA
ATOM     72  O   UNL A   1      44.227  28.695  26.046  1.00  0.00    -0.237 OA
ATOM     73  O   UNL A   1      44.397  26.352  25.296  1.00  0.00    -0.744 OA
ENDBRANCH  66  70
ENDBRANCH  49  63
BRANCH  50  74
ATOM     74  C   UNL A   1      39.997  33.478  36.978  1.00  0.00     0.023 A 
ATOM     75  C   UNL A   1      40.827  34.556  37.323  1.00  0.00     0.031 A 
ATOM     76  C   UNL A   1      38.932  33.165  37.842  1.00  0.00     0.131 A 
ATOM     77  C   UNL A   1      40.600  35.260  38.516  1.00  0.00     0.055 A 
ATOM     78  C   UNL A   1      38.678  33.902  39.000  1.00  0.00     0.041 A 
ATOM     79  F   UNL A   1      38.108  32.142  37.562  1.00  0.00    -0.206 F 
ATOM     80  C   UNL A   1      39.523  34.951  39.349  1.00  0.00     0.022 A 
BRANCH  77  81
ATOM     81  S   UNL A   1      41.781  36.549  39.001  1.00  0.00     0.124 S 
ATOM     82  O   UNL A   1      42.730  36.515  37.894  1.00  0.00    -0.237 OA
ATOM     83  O   UNL A   1      40.926  37.730  39.077  1.00  0.00    -0.237 OA
ATOM     84  O   UNL A   1      42.299  36.072  40.281  1.00  0.00    -0.744 OA
ENDBRANCH  77  81
ENDBRANCH  50  74
BRANCH  62  85
ATOM     85  C   UNL A   1      44.343  28.205  35.572  1.00  0.00     0.023 A 
ATOM     86  C   UNL A   1      45.675  28.649  35.506  1.00  0.00     0.031 A 
ATOM     87  C   UNL A   1      44.049  27.114  36.410  1.00  0.00     0.131 A 
ATOM     88  C   UNL A   1      46.674  27.968  36.220  1.00  0.00     0.055 A 
ATOM     89  C   UNL A   1      45.036  26.479  37.165  1.00  0.00     0.041 A 
ATOM     90  F   UNL A   1      42.793  26.648  36.509  1.00  0.00    -0.206 F 
ATOM     91  C   UNL A   1      46.359  26.896  37.061  1.00  0.00     0.022 A 
BRANCH  88  92
ATOM     92  S   UNL A   1      48.406  28.440  35.962  1.00  0.00     0.124 S 
ATOM     93  O   UNL A   1      49.007  28.098  37.247  1.00  0.00    -0.237 OA
ATOM     94  O   UNL A   1      48.794  27.602  34.834  1.00  0.00    -0.237 OA
ATOM     95  O   UNL A   1      48.332  29.871  35.674  1.00  0.00    -0.744 OA
ENDBRANCH  88  92
ENDBRANCH  62  85
ENDBRANCH  36  37
ENDBRANCH  29  31
ENDBRANCH  28  29
ENDBRANCH  27  28
ENDBRANCH  26  27
ENDBRANCH  25  26
ENDBRANCH  24  25
ENDBRANCH   1  24
TORSDOF 24
ENDMDL
MODEL 2
REMARK VINA RESULT:     -10.1      1.805      7.704
REMARK SMILES C[C@H](C(=O)OCCOCCOCCOC(=O)c1ccc(-c2c3nc(c(-c4cc(S(=O)(=O)[O-])ccc4F)c4ccc([nH]4)c(-c4cc(S(=O)(=O)[O-])ccc4F)c4nc(c(-c5cc(S(=O)(=O)[O-])ccc5F)c5ccc2[nH]5)C=C4)C=C3)cc1)c1ccc(C[C@@H]2CCC[C@H]2O)cc1
REMARK SMILES IDX 9 1 8 2 7 3 6 4 5 5 3 6 4 7 2 8 1 9 80 10 81 11 92 12 82 13
REMARK SMILES IDX 91 14 83 15 84 16 85 17 86 18 89 19 87 20 88 21 90 22 10 24
REMARK SMILES IDX 11 25 12 26 13 27 14 28 15 29 16 30 17 31 18 32 79 33 19 34
REMARK SMILES IDX 78 35 20 36 21 37 22 38 72 39 23 40 77 41 71 42 73 43 24 44
REMARK SMILES IDX 76 45 70 46 69 47 25 49 57 50 37 51 56 52 38 53 41 54 55 55
REMARK SMILES IDX 74 56 39 57 40 58 54 60 75 61 42 62 26 63 27 64 35 65 28 66
REMARK SMILES IDX 34 67 36 68 33 69 29 70 30 71 31 72 32 73 58 74 59 75 67 76
REMARK SMILES IDX 60 77 66 78 68 79 65 80 61 81 62 82 63 83 64 84 43 85 44 86
REMARK SMILES IDX 52 87 45 88 51 89 53 90 50 91 46 92 47 93 48 94 49 95
REMARK H PARENT 90 23 73 48 41 59
REMARK Flexibility Score: inf
ROOT
ATOM      1  C   UNL A   1      32.256  28.921  27.056  1.00  0.00     0.188 C 
ENDROOT
BRANCH   1   2
ATOM      2  O   UNL A   1      32.456  27.683  26.369  1.00  0.00    -0.376 OA
BRANCH   2   3
ATOM      3  C   UNL A   1      33.459  27.623  25.362  1.00  0.00     0.202 C 
BRANCH   3   4
ATOM      4  C   UNL A   1      32.981  27.798  23.919  1.00  0.00     0.261 C 
BRANCH   4   5
ATOM      5  O   UNL A   1      33.797  27.096  22.959  1.00  0.00    -0.463 OA
BRANCH   5   6
ATOM      6  C   UNL A   1      33.224  26.008  22.395  1.00  0.00     0.313 C 
ATOM      7  O   UNL A   1      33.431  25.680  21.227  1.00  0.00    -0.252 OA
BRANCH   6   8
ATOM      8  C   UNL A   1      32.323  25.172  23.308  1.00  0.00     0.126 C 
ATOM      9  C   UNL A   1      30.916  25.214  22.683  1.00  0.00     0.025 C 
BRANCH   8  10
ATOM     10  C   UNL A   1      32.746  23.766  23.771  1.00  0.00    -0.034 A 
ATOM     11  C   UNL A   1      32.418  22.627  23.014  1.00  0.00     0.005 A 
ATOM     12  C   UNL A   1      33.608  23.558  24.863  1.00  0.00     0.005 A 
ATOM     13  C   UNL A   1      32.935  21.350  23.330  1.00  0.00     0.004 A 
ATOM     14  C   UNL A   1      34.128  22.287  25.172  1.00  0.00     0.004 A 
ATOM     15  C   UNL A   1      33.806  21.159  24.410  1.00  0.00    -0.048 A 
BRANCH  15  16
ATOM     16  C   UNL A   1      34.537  19.852  24.668  1.00  0.00     0.041 C 
BRANCH  16  17
ATOM     17  C   UNL A   1      33.820  18.500  24.886  1.00  0.00     0.022 C 
ATOM     18  C   UNL A   1      34.628  17.265  24.476  1.00  0.00     0.007 C 
ATOM     19  C   UNL A   1      32.496  18.339  24.144  1.00  0.00     0.117 C 
ATOM     20  C   UNL A   1      34.109  16.845  23.107  1.00  0.00     0.003 C 
ATOM     21  C   UNL A   1      32.897  17.724  22.824  1.00  0.00     0.032 C 
BRANCH  19  22
ATOM     22  O   UNL A   1      31.669  17.399  24.831  1.00  0.00    -0.393 OA
ATOM     23  H   UNL A   1      31.955  17.331  25.755  1.00  0.00     0.210 HD
ENDBRANCH  19  22
ENDBRANCH  16  17
ENDBRANCH  15  16
ENDBRANCH   8  10
ENDBRANCH   6   8
ENDBRANCH   5   6
ENDBRANCH   4   5
ENDBRANCH   3   4
ENDBRANCH   2   3
ENDBRANCH   1   2
BRANCH   1  24
ATOM     24  C   UNL A   1      33.497  29.707  27.515  1.00  0.00     0.188 C 
BRANCH  24  25
ATOM     25  O   UNL A   1      33.388  31.102  27.270  1.00  0.00    -0.376 OA
BRANCH  25  26
ATOM     26  C   UNL A   1      32.115  31.577  26.895  1.00  0.00     0.202 C 
BRANCH  26  27
ATOM     27  C   UNL A   1      31.889  33.066  27.146  1.00  0.00     0.261 C 
BRANCH  27  28
ATOM     28  O   UNL A   1      33.103  33.826  27.289  1.00  0.00    -0.460 OA
BRANCH  28  29
ATOM     29  C   UNL A   1      33.308  34.498  28.434  1.00  0.00     0.338 C 
ATOM     30  O   UNL A   1      32.733  35.515  28.817  1.00  0.00    -0.246 OA
BRANCH  29  31
ATOM     31  C   UNL A   1      34.392  33.830  29.171  1.00  0.00     0.060 A 
ATOM     32  C   UNL A   1      35.739  34.083  28.875  1.00  0.00     0.016 A 
ATOM     33  C   UNL A   1      34.049  32.904  30.154  1.00  0.00     0.016 A 
ATOM     34  C   UNL A   1      36.748  33.391  29.554  1.00  0.00     0.010 A 
ATOM     35  C   UNL A   1      35.056  32.220  30.834  1.00  0.00     0.010 A 
ATOM     36  C   UNL A   1      36.410  32.440  30.525  1.00  0.00    -0.014 A 
BRANCH  36  37
ATOM     37  C   UNL A   1      37.429  31.565  31.161  1.00  0.00     0.031 A 
ATOM     38  C   UNL A   1      37.828  31.846  32.582  1.00  0.00     0.074 A 
ATOM     39  C   UNL A   1      38.047  30.600  30.457  1.00  0.00     0.049 A 
ATOM     40  N   UNL A   1      38.857  31.413  33.262  1.00  0.00    -0.248 NA
ATOM     41  C   UNL A   1      36.949  32.759  33.329  1.00  0.00     0.031 C 
ATOM     42  C   UNL A   1      37.706  30.200  29.093  1.00  0.00     0.029 A 
ATOM     43  N   UNL A   1      39.120  29.807  30.781  1.00  0.00    -0.354 N 
ATOM     44  C   UNL A   1      38.771  32.025  34.509  1.00  0.00     0.074 A 
ATOM     45  C   UNL A   1      37.595  32.870  34.481  1.00  0.00     0.031 C 
ATOM     46  C   UNL A   1      38.574  29.258  28.685  1.00  0.00     0.029 A 
ATOM     47  C   UNL A   1      39.568  29.036  29.733  1.00  0.00     0.049 A 
ATOM     48  H   UNL A   1      39.529  29.791  31.677  1.00  0.00     0.167 HD
ATOM     49  C   UNL A   1      39.604  31.897  35.572  1.00  0.00     0.034 A 
ATOM     50  C   UNL A   1      40.682  28.286  29.614  1.00  0.00     0.034 A 
ATOM     51  C   UNL A   1      40.778  31.058  35.565  1.00  0.00     0.049 A 
ATOM     52  C   UNL A   1      41.642  28.220  30.777  1.00  0.00     0.074 A 
ATOM     53  C   UNL A   1      41.696  30.844  36.579  1.00  0.00     0.029 A 
ATOM     54  N   UNL A   1      41.203  30.297  34.482  1.00  0.00    -0.354 N 
ATOM     55  N   UNL A   1      41.572  28.822  31.943  1.00  0.00    -0.248 NA
ATOM     56  C   UNL A   1      42.833  27.378  30.607  1.00  0.00     0.031 C 
ATOM     57  C   UNL A   1      42.708  30.011  36.087  1.00  0.00     0.029 A 
ATOM     58  C   UNL A   1      42.382  29.638  34.793  1.00  0.00     0.049 A 
ATOM     59  H   UNL A   1      40.734  30.235  33.618  1.00  0.00     0.167 HD
ATOM     60  C   UNL A   1      42.695  28.406  32.655  1.00  0.00     0.074 A 
ATOM     61  C   UNL A   1      43.417  27.494  31.791  1.00  0.00     0.031 C 
ATOM     62  C   UNL A   1      43.093  28.741  33.909  1.00  0.00     0.034 A 
BRANCH  49  63
ATOM     63  C   UNL A   1      39.306  32.738  36.792  1.00  0.00     0.023 A 
ATOM     64  C   UNL A   1      39.970  33.953  37.037  1.00  0.00     0.031 A 
ATOM     65  C   UNL A   1      38.374  32.295  37.748  1.00  0.00     0.131 A 
ATOM     66  C   UNL A   1      39.749  34.641  38.240  1.00  0.00     0.055 A 
ATOM     67  C   UNL A   1      38.100  33.026  38.905  1.00  0.00     0.041 A 
ATOM     68  F   UNL A   1      37.725  31.131  37.583  1.00  0.00    -0.206 F 
ATOM     69  C   UNL A   1      38.801  34.199  39.166  1.00  0.00     0.022 A 
BRANCH  66  70
ATOM     70  S   UNL A   1      40.828  36.042  38.648  1.00  0.00     0.124 S 
ATOM     71  O   UNL A   1      40.873  35.964  40.107  1.00  0.00    -0.237 OA
ATOM     72  O   UNL A   1      42.063  35.701  37.953  1.00  0.00    -0.237 OA
ATOM     73  O   UNL A   1      40.109  37.197  38.115  1.00  0.00    -0.744 OA
ENDBRANCH  66  70
ENDBRANCH  49  63
BRANCH  50  74
ATOM     74  C   UNL A   1      40.987  27.583  28.334  1.00  0.00     0.023 A 
ATOM     75  C   UNL A   1      40.790  26.200  28.201  1.00  0.00     0.031 A 
ATOM     76  C   UNL A   1      41.514  28.281  27.231  1.00  0.00     0.131 A 
ATOM     77  C   UNL A   1      41.147  25.553  27.008  1.00  0.00     0.055 A 
ATOM     78  C   UNL A   1      41.819  27.641  26.028  1.00  0.00     0.041 A 
ATOM     79  F   UNL A   1      41.726  29.605  27.304  1.00  0.00    -0.206 F 
ATOM     80  C   UNL A   1      41.646  26.265  25.916  1.00  0.00     0.022 A 
BRANCH  77  81
ATOM     81  S   UNL A   1      41.016  23.745  26.929  1.00  0.00     0.124 S 
ATOM     82  O   UNL A   1      41.459  23.356  28.262  1.00  0.00    -0.237 OA
ATOM     83  O   UNL A   1      39.597  23.557  26.643  1.00  0.00    -0.237 OA
ATOM     84  O   UNL A   1      41.922  23.385  25.840  1.00  0.00    -0.744 OA
ENDBRANCH  77  81
ENDBRANCH  50  74
BRANCH  62  85
ATOM     85  C   UNL A   1      44.340  28.070  34.432  1.00  0.00     0.023 A 
ATOM     86  C   UNL A   1      44.290  26.842  35.115  1.00  0.00     0.031 A 
ATOM     87  C   UNL A   1      45.594  28.681  34.258  1.00  0.00     0.131 A 
ATOM     88  C   UNL A   1      45.466  26.293  35.649  1.00  0.00     0.055 A 
ATOM     89  C   UNL A   1      46.769  28.099  34.738  1.00  0.00     0.041 A 
ATOM     90  F   UNL A   1      45.699  29.855  33.614  1.00  0.00    -0.206 F 
ATOM     91  C   UNL A   1      46.707  26.906  35.451  1.00  0.00     0.022 A 
BRANCH  88  92
ATOM     92  S   UNL A   1      45.342  24.813  36.690  1.00  0.00     0.124 S 
ATOM     93  O   UNL A   1      45.884  23.780  35.814  1.00  0.00    -0.237 OA
ATOM     94  O   UNL A   1      46.166  25.170  37.840  1.00  0.00    -0.237 OA
ATOM     95  O   UNL A   1      43.911  24.704  36.964  1.00  0.00    -0.744 OA
ENDBRANCH  88  92
ENDBRANCH  62  85
ENDBRANCH  36  37
ENDBRANCH  29  31
ENDBRANCH  28  29
ENDBRANCH  27  28
ENDBRANCH  26  27
ENDBRANCH  25  26
ENDBRANCH  24  25
ENDBRANCH   1  24
TORSDOF 24
ENDMDL
MODEL 3
REMARK VINA RESULT:     -10.0      1.998      7.738
REMARK SMILES C[C@H](C(=O)OCCOCCOCCOC(=O)c1ccc(-c2c3nc(c(-c4cc(S(=O)(=O)[O-])ccc4F)c4ccc([nH]4)c(-c4cc(S(=O)(=O)[O-])ccc4F)c4nc(c(-c5cc(S(=O)(=O)[O-])ccc5F)c5ccc2[nH]5)C=C4)C=C3)cc1)c1ccc(C[C@@H]2CCC[C@H]2O)cc1
REMARK SMILES IDX 9 1 8 2 7 3 6 4 5 5 3 6 4 7 2 8 1 9 80 10 81 11 92 12 82 13
REMARK SMILES IDX 91 14 83 15 84 16 85 17 86 18 89 19 87 20 88 21 90 22 10 24
REMARK SMILES IDX 11 25 12 26 13 27 14 28 15 29 16 30 17 31 18 32 79 33 19 34
REMARK SMILES IDX 78 35 20 36 21 37 22 38 72 39 23 40 77 41 71 42 73 43 24 44
REMARK SMILES IDX 76 45 70 46 69 47 25 49 57 50 37 51 56 52 38 53 41 54 55 55
REMARK SMILES IDX 74 56 39 57 40 58 54 60 75 61 42 62 26 63 27 64 35 65 28 66
REMARK SMILES IDX 34 67 36 68 33 69 29 70 30 71 31 72 32 73 58 74 59 75 67 76
REMARK SMILES IDX 60 77 66 78 68 79 65 80 61 81 62 82 63 83 64 84 43 85 44 86
REMARK SMILES IDX 52 87 45 88 51 89 53 90 50 91 46 92 47 93 48 94 49 95
REMARK H PARENT 90 23 73 48 41 59
REMARK Flexibility Score: inf
ROOT
ATOM      1  C   UNL A   1      31.838  29.017  27.130  1.00  0.00     0.188 C 
ENDROOT
BRANCH   1   2
ATOM      2  O   UNL A   1      31.777  27.761  26.451  1.00  0.00    -0.376 OA
BRANCH   2   3
ATOM      3  C   UNL A   1      32.867  27.392  25.614  1.00  0.00     0.202 C 
BRANCH   3   4
ATOM      4  C   UNL A   1      32.744  27.767  24.136  1.00  0.00     0.261 C 
BRANCH   4   5
ATOM      5  O   UNL A   1      33.695  27.083  23.294  1.00  0.00    -0.463 OA
BRANCH   5   6
ATOM      6  C   UNL A   1      33.221  25.991  22.652  1.00  0.00     0.313 C 
ATOM      7  O   UNL A   1      33.544  25.707  21.498  1.00  0.00    -0.252 OA
BRANCH   6   8
ATOM      8  C   UNL A   1      32.279  25.091  23.457  1.00  0.00     0.126 C 
ATOM      9  C   UNL A   1      30.931  25.100  22.712  1.00  0.00     0.025 C 
BRANCH   8  10
ATOM     10  C   UNL A   1      32.717  23.687  23.912  1.00  0.00    -0.034 A 
ATOM     11  C   UNL A   1      32.307  22.539  23.212  1.00  0.00     0.005 A 
ATOM     12  C   UNL A   1      33.667  23.486  24.931  1.00  0.00     0.005 A 
ATOM     13  C   UNL A   1      32.828  21.260  23.510  1.00  0.00     0.004 A 
ATOM     14  C   UNL A   1      34.191  22.213  25.221  1.00  0.00     0.004 A 
ATOM     15  C   UNL A   1      33.786  21.076  24.515  1.00  0.00    -0.048 A 
BRANCH  15  16
ATOM     16  C   UNL A   1      34.515  19.761  24.738  1.00  0.00     0.041 C 
BRANCH  16  17
ATOM     17  C   UNL A   1      33.795  18.408  24.940  1.00  0.00     0.022 C 
ATOM     18  C   UNL A   1      34.620  17.173  24.563  1.00  0.00     0.007 C 
ATOM     19  C   UNL A   1      32.496  18.239  24.159  1.00  0.00     0.117 C 
ATOM     20  C   UNL A   1      34.145  16.744  23.181  1.00  0.00     0.003 C 
ATOM     21  C   UNL A   1      32.939  17.617  22.856  1.00  0.00     0.032 C 
BRANCH  19  22
ATOM     22  O   UNL A   1      31.651  17.299  24.826  1.00  0.00    -0.393 OA
ATOM     23  H   UNL A   1      32.165  16.818  25.491  1.00  0.00     0.210 HD
ENDBRANCH  19  22
ENDBRANCH  16  17
ENDBRANCH  15  16
ENDBRANCH   8  10
ENDBRANCH   6   8
ENDBRANCH   5   6
ENDBRANCH   4   5
ENDBRANCH   3   4
ENDBRANCH   2   3
ENDBRANCH   1   2
BRANCH   1  24
ATOM     24  C   UNL A   1      33.220  29.653  27.364  1.00  0.00     0.188 C 
BRANCH  24  25
ATOM     25  O   UNL A   1      33.225  31.056  27.146  1.00  0.00    -0.376 OA
BRANCH  25  26
ATOM     26  C   UNL A   1      31.990  31.646  26.809  1.00  0.00     0.202 C 
BRANCH  26  27
ATOM     27  C   UNL A   1      31.878  33.131  27.142  1.00  0.00     0.261 C 
BRANCH  27  28
ATOM     28  O   UNL A   1      33.145  33.780  27.354  1.00  0.00    -0.460 OA
BRANCH  28  29
ATOM     29  C   UNL A   1      33.358  34.407  28.523  1.00  0.00     0.338 C 
ATOM     30  O   UNL A   1      32.753  35.380  28.970  1.00  0.00    -0.246 OA
BRANCH  29  31
ATOM     31  C   UNL A   1      34.491  33.753  29.196  1.00  0.00     0.060 A 
ATOM     32  C   UNL A   1      35.806  33.921  28.739  1.00  0.00     0.016 A 
ATOM     33  C   UNL A   1      34.224  32.926  30.285  1.00  0.00     0.016 A 
ATOM     34  C   UNL A   1      36.857  33.242  29.365  1.00  0.00     0.010 A 
ATOM     35  C   UNL A   1      35.273  32.254  30.911  1.00  0.00     0.010 A 
ATOM     36  C   UNL A   1      36.593  32.388  30.443  1.00  0.00    -0.014 A 
BRANCH  36  37
ATOM     37  C   UNL A   1      37.642  31.523  31.041  1.00  0.00     0.031 A 
ATOM     38  C   UNL A   1      38.158  31.863  32.411  1.00  0.00     0.074 A 
ATOM     39  C   UNL A   1      38.186  30.512  30.340  1.00  0.00     0.049 A 
ATOM     40  N   UNL A   1      39.229  31.441  33.029  1.00  0.00    -0.248 NA
ATOM     41  C   UNL A   1      37.358  32.831  33.178  1.00  0.00     0.031 C 
ATOM     42  C   UNL A   1      37.731  30.054  29.028  1.00  0.00     0.029 A 
ATOM     43  N   UNL A   1      39.267  29.712  30.619  1.00  0.00    -0.354 N 
ATOM     44  C   UNL A   1      39.253  32.115  34.247  1.00  0.00     0.074 A 
ATOM     45  C   UNL A   1      38.093  32.982  34.269  1.00  0.00     0.031 C 
ATOM     46  C   UNL A   1      38.547  29.075  28.601  1.00  0.00     0.029 A 
ATOM     47  C   UNL A   1      39.617  28.882  29.578  1.00  0.00     0.049 A 
ATOM     48  H   UNL A   1      39.745  29.731  31.480  1.00  0.00     0.167 HD
ATOM     49  C   UNL A   1      40.165  32.020  35.247  1.00  0.00     0.034 A 
ATOM     50  C   UNL A   1      40.705  28.103  29.410  1.00  0.00     0.034 A 
ATOM     51  C   UNL A   1      41.320  31.156  35.191  1.00  0.00     0.049 A 
ATOM     52  C   UNL A   1      41.752  28.073  30.497  1.00  0.00     0.074 A 
ATOM     53  C   UNL A   1      42.311  30.972  36.139  1.00  0.00     0.029 A 
ATOM     54  N   UNL A   1      41.644  30.334  34.116  1.00  0.00    -0.354 N 
ATOM     55  N   UNL A   1      41.785  28.731  31.634  1.00  0.00    -0.248 NA
ATOM     56  C   UNL A   1      42.910  27.197  30.277  1.00  0.00     0.031 C 
ATOM     57  C   UNL A   1      43.265  30.094  35.612  1.00  0.00     0.029 A 
ATOM     58  C   UNL A   1      42.832  29.666  34.367  1.00  0.00     0.049 A 
ATOM     59  H   UNL A   1      41.107  30.242  33.296  1.00  0.00     0.167 HD
ATOM     60  C   UNL A   1      42.952  28.326  32.275  1.00  0.00     0.074 A 
ATOM     61  C   UNL A   1      43.587  27.357  31.404  1.00  0.00     0.031 C 
ATOM     62  C   UNL A   1      43.454  28.712  33.477  1.00  0.00     0.034 A 
BRANCH  49  63
ATOM     63  C   UNL A   1      39.979  32.925  36.443  1.00  0.00     0.023 A 
ATOM     64  C   UNL A   1      39.253  32.518  37.577  1.00  0.00     0.031 A 
ATOM     65  C   UNL A   1      40.501  34.231  36.432  1.00  0.00     0.131 A 
ATOM     66  C   UNL A   1      39.005  33.430  38.614  1.00  0.00     0.055 A 
ATOM     67  C   UNL A   1      40.318  35.107  37.503  1.00  0.00     0.041 A 
ATOM     68  F   UNL A   1      41.183  34.686  35.369  1.00  0.00    -0.206 F 
ATOM     69  C   UNL A   1      39.553  34.715  38.597  1.00  0.00     0.022 A 
BRANCH  66  70
ATOM     70  S   UNL A   1      37.830  32.965  39.916  1.00  0.00     0.124 S 
ATOM     71  O   UNL A   1      37.977  34.075  40.855  1.00  0.00    -0.237 OA
ATOM     72  O   UNL A   1      36.565  32.905  39.193  1.00  0.00    -0.237 OA
ATOM     73  O   UNL A   1      38.337  31.681  40.395  1.00  0.00    -0.744 OA
ENDBRANCH  66  70
ENDBRANCH  49  63
BRANCH  50  74
ATOM     74  C   UNL A   1      40.894  27.333  28.147  1.00  0.00     0.023 A 
ATOM     75  C   UNL A   1      40.653  25.951  28.097  1.00  0.00     0.031 A 
ATOM     76  C   UNL A   1      41.355  27.963  26.976  1.00  0.00     0.131 A 
ATOM     77  C   UNL A   1      40.904  25.239  26.913  1.00  0.00     0.055 A 
ATOM     78  C   UNL A   1      41.552  27.259  25.786  1.00  0.00     0.041 A 
ATOM     79  F   UNL A   1      41.605  29.282  26.968  1.00  0.00    -0.206 F 
ATOM     80  C   UNL A   1      41.337  25.885  25.754  1.00  0.00     0.022 A 
BRANCH  77  81
ATOM     81  S   UNL A   1      40.721  23.434  26.932  1.00  0.00     0.124 S 
ATOM     82  O   UNL A   1      41.731  23.023  25.963  1.00  0.00    -0.237 OA
ATOM     83  O   UNL A   1      41.005  23.116  28.328  1.00  0.00    -0.237 OA
ATOM     84  O   UNL A   1      39.336  23.227  26.516  1.00  0.00    -0.744 OA
ENDBRANCH  77  81
ENDBRANCH  50  74
BRANCH  62  85
ATOM     85  C   UNL A   1      44.726  28.040  33.934  1.00  0.00     0.023 A 
ATOM     86  C   UNL A   1      45.994  28.564  33.625  1.00  0.00     0.031 A 
ATOM     87  C   UNL A   1      44.665  26.846  34.674  1.00  0.00     0.131 A 
ATOM     88  C   UNL A   1      47.149  27.864  34.007  1.00  0.00     0.055 A 
ATOM     89  C   UNL A   1      45.818  26.187  35.103  1.00  0.00     0.041 A 
ATOM     90  F   UNL A   1      43.480  26.301  34.995  1.00  0.00    -0.206 F 
ATOM     91  C   UNL A   1      47.069  26.688  34.757  1.00  0.00     0.022 A 
BRANCH  88  92
ATOM     92  S   UNL A   1      48.761  28.461  33.426  1.00  0.00     0.124 S 
ATOM     93  O   UNL A   1      48.796  29.814  33.970  1.00  0.00    -0.237 OA
ATOM     94  O   UNL A   1      49.684  27.507  34.032  1.00  0.00    -0.237 OA
ATOM     95  O   UNL A   1      48.654  28.380  31.971  1.00  0.00    -0.744 OA
ENDBRANCH  88  92
ENDBRANCH  62  85
ENDBRANCH  36  37
ENDBRANCH  29  31
ENDBRANCH  28  29
ENDBRANCH  27  28
ENDBRANCH  26  27
ENDBRANCH  25  26
ENDBRANCH  24  25
ENDBRANCH   1  24
TORSDOF 24
ENDMDL
