MODEL 1
REMARK VINA RESULT:      -8.8      0.000      0.000
REMARK SMILES O=C(N[C@@H](Cc1c[nH]c2ccccc12)C(=O)N[C@@H](CO)C(=O)OCCOCCOCCOC(=O)c1ccc(-c2c3nc(c(-c4cc(S(=O)(=O)[O-])ccc4F)c4ccc([nH]4)c(-c4cc(S(=O)(=O)[O-])ccc4F)c4nc(c(-c5cc(S(=O)(=O)[O-])ccc5F)c5ccc2[nH]5)C=C4)C=C3)cc1)c1ccc(F)cc1
REMARK SMILES IDX 27 1 26 2 25 3 24 4 23 5 21 6 22 7 18 8 17 9 15 10 16 11
REMARK SMILES IDX 4 13 3 14 1 15 2 16 98 18 99 19 104 20 100 21 103 22 101 23
REMARK SMILES IDX 102 24 5 25 6 26 7 27 14 28 8 29 9 30 13 31 10 33 12 34
REMARK SMILES IDX 11 35 19 36 20 37 28 39 29 40 30 41 31 42 32 43 33 44 34 45
REMARK SMILES IDX 35 46 36 47 97 48 37 49 96 50 38 51 39 52 40 53 90 54 41 55
REMARK SMILES IDX 95 56 89 57 91 58 42 59 94 60 88 61 87 62 43 64 75 65 55 66
REMARK SMILES IDX 74 67 56 68 59 69 73 70 92 71 57 72 58 73 72 75 93 76 60 77
REMARK SMILES IDX 44 78 45 79 53 80 46 81 52 82 54 83 51 84 47 85 48 86 49 87
REMARK SMILES IDX 50 88 76 89 77 90 85 91 78 92 84 93 86 94 83 95 79 96 80 97
REMARK SMILES IDX 81 98 82 99 61 100 62 101 70 102 63 103 69 104 71 105 68 106
REMARK SMILES IDX 64 107 65 108 66 109 67 110
REMARK H PARENT 17 12 3 17 8 32 20 38 91 63 59 74
REMARK Flexibility Score: inf
ROOT
ATOM      1  C   UNL A   1      47.614  31.479  29.656  1.00  0.00     0.188 C 
ENDROOT
BRANCH   1   2
ATOM      2  O   UNL A   1      46.520  30.578  29.519  1.00  0.00    -0.376 OA
BRANCH   2   3
ATOM      3  C   UNL A   1      45.357  31.106  28.913  1.00  0.00     0.202 C 
BRANCH   3   4
ATOM      4  C   UNL A   1      44.885  30.368  27.645  1.00  0.00     0.261 C 
BRANCH   4   5
ATOM      5  O   UNL A   1      44.387  29.021  27.851  1.00  0.00    -0.462 OA
BRANCH   5   6
ATOM      6  C   UNL A   1      43.049  28.796  27.653  1.00  0.00     0.331 C 
ATOM      7  O   UNL A   1      42.175  29.484  28.174  1.00  0.00    -0.250 OA
BRANCH   6   8
ATOM      8  C   UNL A   1      42.730  27.647  26.621  1.00  0.00     0.218 C 
BRANCH   8   9
ATOM      9  N   UNL A   1      42.397  26.313  27.183  1.00  0.00    -0.339 N 
ATOM     10  C   UNL A   1      42.892  25.046  27.072  1.00  0.00     0.243 C 
ATOM     11  O   UNL A   1      42.389  24.244  27.877  1.00  0.00    -0.273 OA
ATOM     12  H   UNL A   1      41.622  26.352  27.788  1.00  0.00     0.164 HD
BRANCH  10  13
ATOM     13  C   UNL A   1      43.992  24.497  26.093  1.00  0.00     0.176 C 
BRANCH  13  14
ATOM     14  N   UNL A   1      45.212  24.047  26.760  1.00  0.00    -0.340 N 
ATOM     15  O   UNL A   1      47.438  23.882  27.088  1.00  0.00    -0.269 OA
ATOM     16  C   UNL A   1      46.512  24.445  26.510  1.00  0.00     0.251 C 
ATOM     17  H   UNL A   1      45.094  23.380  27.474  1.00  0.00     0.164 HD
BRANCH  16  18
ATOM     18  C   UNL A   1      46.827  25.533  25.542  1.00  0.00     0.040 A 
ATOM     19  C   UNL A   1      47.926  25.441  24.673  1.00  0.00     0.017 A 
ATOM     20  C   UNL A   1      45.953  26.626  25.442  1.00  0.00     0.017 A 
ATOM     21  C   UNL A   1      48.165  26.457  23.740  1.00  0.00     0.040 A 
ATOM     22  C   UNL A   1      46.194  27.636  24.505  1.00  0.00     0.040 A 
ATOM     23  C   UNL A   1      47.297  27.542  23.663  1.00  0.00     0.123 A 
ATOM     24  F   UNL A   1      47.519  28.497  22.751  1.00  0.00    -0.207 F 
ENDBRANCH  16  18
ENDBRANCH  13  14
BRANCH  13  25
ATOM     25  C   UNL A   1      43.626  23.688  24.813  1.00  0.00     0.072 C 
BRANCH  25  26
ATOM     26  C   UNL A   1      44.112  22.283  24.671  1.00  0.00    -0.020 A 
ATOM     27  C   UNL A   1      45.334  21.966  24.155  1.00  0.00     0.087 A 
ATOM     28  C   UNL A   1      43.653  21.046  25.254  1.00  0.00     0.003 A 
ATOM     29  N   UNL A   1      45.481  20.624  24.063  1.00  0.00    -0.361 N 
ATOM     30  C   UNL A   1      44.562  20.044  24.885  1.00  0.00     0.046 A 
ATOM     31  C   UNL A   1      42.610  20.675  26.120  1.00  0.00     0.010 A 
ATOM     32  H   UNL A   1      46.136  20.150  23.500  1.00  0.00     0.166 HD
ATOM     33  C   UNL A   1      44.514  18.725  25.338  1.00  0.00     0.026 A 
ATOM     34  C   UNL A   1      42.551  19.352  26.595  1.00  0.00     0.001 A 
ATOM     35  C   UNL A   1      43.500  18.400  26.229  1.00  0.00     0.002 A 
ENDBRANCH  25  26
ENDBRANCH  13  25
ENDBRANCH  10  13
ENDBRANCH   8   9
BRANCH   8  36
ATOM     36  C   UNL A   1      41.584  28.174  25.747  1.00  0.00     0.193 C 
BRANCH  36  37
ATOM     37  O   UNL A   1      41.981  29.329  25.006  1.00  0.00    -0.394 OA
ATOM     38  H   UNL A   1      42.653  29.079  24.353  1.00  0.00     0.210 HD
ENDBRANCH  36  37
ENDBRANCH   8  36
ENDBRANCH   6   8
ENDBRANCH   5   6
ENDBRANCH   4   5
ENDBRANCH   3   4
ENDBRANCH   2   3
ENDBRANCH   1   2
BRANCH   1  39
ATOM     39  C   UNL A   1      48.165  31.892  28.286  1.00  0.00     0.188 C 
BRANCH  39  40
ATOM     40  O   UNL A   1      47.898  33.226  27.851  1.00  0.00    -0.376 OA
BRANCH  40  41
ATOM     41  C   UNL A   1      47.391  33.379  26.531  1.00  0.00     0.202 C 
BRANCH  41  42
ATOM     42  C   UNL A   1      46.948  34.792  26.154  1.00  0.00     0.261 C 
BRANCH  42  43
ATOM     43  O   UNL A   1      45.520  34.970  26.229  1.00  0.00    -0.460 OA
BRANCH  43  44
ATOM     44  C   UNL A   1      45.123  36.071  26.903  1.00  0.00     0.338 C 
ATOM     45  O   UNL A   1      45.479  37.228  26.688  1.00  0.00    -0.246 OA
BRANCH  44  46
ATOM     46  C   UNL A   1      44.218  35.714  28.008  1.00  0.00     0.060 A 
ATOM     47  C   UNL A   1      43.864  36.658  28.977  1.00  0.00     0.016 A 
ATOM     48  C   UNL A   1      43.844  34.377  28.162  1.00  0.00     0.016 A 
ATOM     49  C   UNL A   1      43.140  36.257  30.107  1.00  0.00     0.010 A 
ATOM     50  C   UNL A   1      43.116  33.981  29.290  1.00  0.00     0.010 A 
ATOM     51  C   UNL A   1      42.774  34.916  30.280  1.00  0.00    -0.014 A 
BRANCH  51  52
ATOM     52  C   UNL A   1      42.111  34.480  31.538  1.00  0.00     0.031 A 
ATOM     53  C   UNL A   1      40.617  34.360  31.590  1.00  0.00     0.074 A 
ATOM     54  C   UNL A   1      42.841  34.175  32.626  1.00  0.00     0.049 A 
ATOM     55  N   UNL A   1      39.842  34.129  32.617  1.00  0.00    -0.248 NA
ATOM     56  C   UNL A   1      39.904  34.541  30.317  1.00  0.00     0.031 C 
ATOM     57  C   UNL A   1      44.298  34.230  32.686  1.00  0.00     0.029 A 
ATOM     58  N   UNL A   1      42.468  33.761  33.882  1.00  0.00    -0.354 N 
ATOM     59  C   UNL A   1      38.541  34.197  32.132  1.00  0.00     0.074 A 
ATOM     60  C   UNL A   1      38.640  34.460  30.709  1.00  0.00     0.031 C 
ATOM     61  C   UNL A   1      44.693  33.835  33.906  1.00  0.00     0.029 A 
ATOM     62  C   UNL A   1      43.528  33.524  34.727  1.00  0.00     0.049 A 
ATOM     63  H   UNL A   1      41.529  33.643  34.152  1.00  0.00     0.167 HD
ATOM     64  C   UNL A   1      37.379  34.090  32.822  1.00  0.00     0.034 A 
ATOM     65  C   UNL A   1      43.558  33.124  36.016  1.00  0.00     0.034 A 
ATOM     66  C   UNL A   1      37.302  33.834  34.241  1.00  0.00     0.049 A 
ATOM     67  C   UNL A   1      42.248  33.002  36.759  1.00  0.00     0.074 A 
ATOM     68  C   UNL A   1      36.178  33.748  35.044  1.00  0.00     0.029 A 
ATOM     69  N   UNL A   1      38.395  33.627  35.073  1.00  0.00    -0.354 N 
ATOM     70  N   UNL A   1      41.024  33.156  36.306  1.00  0.00    -0.248 NA
ATOM     71  C   UNL A   1      42.325  32.710  38.197  1.00  0.00     0.031 C 
ATOM     72  C   UNL A   1      36.594  33.551  36.367  1.00  0.00     0.029 A 
ATOM     73  C   UNL A   1      37.974  33.444  36.382  1.00  0.00     0.049 A 
ATOM     74  H   UNL A   1      39.334  33.611  34.776  1.00  0.00     0.167 HD
ATOM     75  C   UNL A   1      40.192  33.022  37.414  1.00  0.00     0.074 A 
ATOM     76  C   UNL A   1      41.045  32.703  38.540  1.00  0.00     0.031 C 
ATOM     77  C   UNL A   1      38.847  33.183  37.503  1.00  0.00     0.034 A 
BRANCH  64  78
ATOM     78  C   UNL A   1      36.108  34.370  32.059  1.00  0.00     0.023 A 
ATOM     79  C   UNL A   1      35.357  35.540  32.255  1.00  0.00     0.031 A 
ATOM     80  C   UNL A   1      35.609  33.406  31.163  1.00  0.00     0.131 A 
ATOM     81  C   UNL A   1      34.113  35.684  31.620  1.00  0.00     0.055 A 
ATOM     82  C   UNL A   1      34.408  33.589  30.476  1.00  0.00     0.041 A 
ATOM     83  F   UNL A   1      36.272  32.257  30.958  1.00  0.00    -0.206 F 
ATOM     84  C   UNL A   1      33.645  34.727  30.716  1.00  0.00     0.022 A 
BRANCH  81  85
ATOM     85  S   UNL A   1      33.044  37.067  32.106  1.00  0.00     0.124 S 
ATOM     86  O   UNL A   1      31.826  36.369  32.507  1.00  0.00    -0.237 OA
ATOM     87  O   UNL A   1      33.809  37.693  33.178  1.00  0.00    -0.237 OA
ATOM     88  O   UNL A   1      32.927  37.855  30.880  1.00  0.00    -0.744 OA
ENDBRANCH  81  85
ENDBRANCH  64  78
BRANCH  65  89
ATOM     89  C   UNL A   1      44.852  32.871  36.724  1.00  0.00     0.023 A 
ATOM     90  C   UNL A   1      45.609  33.934  37.250  1.00  0.00     0.031 A 
ATOM     91  C   UNL A   1      45.385  31.574  36.842  1.00  0.00     0.131 A 
ATOM     92  C   UNL A   1      46.862  33.684  37.837  1.00  0.00     0.055 A 
ATOM     93  C   UNL A   1      46.594  31.324  37.492  1.00  0.00     0.041 A 
ATOM     94  F   UNL A   1      44.726  30.520  36.334  1.00  0.00    -0.206 F 
ATOM     95  C   UNL A   1      47.346  32.384  37.985  1.00  0.00     0.022 A 
BRANCH  92  96
ATOM     96  S   UNL A   1      47.904  35.093  38.313  1.00  0.00     0.124 S 
ATOM     97  O   UNL A   1      47.085  35.734  39.334  1.00  0.00    -0.237 OA
ATOM     98  O   UNL A   1      49.115  34.430  38.782  1.00  0.00    -0.237 OA
ATOM     99  O   UNL A   1      48.048  35.844  37.066  1.00  0.00    -0.744 OA
ENDBRANCH  92  96
ENDBRANCH  65  89
BRANCH  77 100
ATOM    100  C   UNL A   1      38.241  33.053  38.879  1.00  0.00     0.023 A 
ATOM    101  C   UNL A   1      38.425  34.055  39.852  1.00  0.00     0.031 A 
ATOM    102  C   UNL A   1      37.498  31.915  39.234  1.00  0.00     0.131 A 
ATOM    103  C   UNL A   1      37.920  33.875  41.147  1.00  0.00     0.055 A 
ATOM    104  C   UNL A   1      36.951  31.766  40.511  1.00  0.00     0.041 A 
ATOM    105  F   UNL A   1      37.295  30.928  38.348  1.00  0.00    -0.206 F 
ATOM    106  C   UNL A   1      37.171  32.743  41.479  1.00  0.00     0.022 A 
BRANCH 103 107
ATOM    107  S   UNL A   1      38.321  35.104  42.419  1.00  0.00     0.124 S 
ATOM    108  O   UNL A   1      38.650  36.277  41.615  1.00  0.00    -0.237 OA
ATOM    109  O   UNL A   1      37.080  35.183  43.183  1.00  0.00    -0.237 OA
ATOM    110  O   UNL A   1      39.449  34.506  43.131  1.00  0.00    -0.744 OA
ENDBRANCH 103 107
ENDBRANCH  77 100
ENDBRANCH  51  52
ENDBRANCH  44  46
ENDBRANCH  43  44
ENDBRANCH  42  43
ENDBRANCH  41  42
ENDBRANCH  40  41
ENDBRANCH  39  40
ENDBRANCH   1  39
TORSDOF 28
ENDMDL
MODEL 2
REMARK VINA RESULT:      -8.8      4.636     12.372
REMARK SMILES O=C(N[C@@H](Cc1c[nH]c2ccccc12)C(=O)N[C@@H](CO)C(=O)OCCOCCOCCOC(=O)c1ccc(-c2c3nc(c(-c4cc(S(=O)(=O)[O-])ccc4F)c4ccc([nH]4)c(-c4cc(S(=O)(=O)[O-])ccc4F)c4nc(c(-c5cc(S(=O)(=O)[O-])ccc5F)c5ccc2[nH]5)C=C4)C=C3)cc1)c1ccc(F)cc1
REMARK SMILES IDX 27 1 26 2 25 3 24 4 23 5 21 6 22 7 18 8 17 9 15 10 16 11
REMARK SMILES IDX 4 13 3 14 1 15 2 16 98 18 99 19 104 20 100 21 103 22 101 23
REMARK SMILES IDX 102 24 5 25 6 26 7 27 14 28 8 29 9 30 13 31 10 33 12 34
REMARK SMILES IDX 11 35 19 36 20 37 28 39 29 40 30 41 31 42 32 43 33 44 34 45
REMARK SMILES IDX 35 46 36 47 97 48 37 49 96 50 38 51 39 52 40 53 90 54 41 55
REMARK SMILES IDX 95 56 89 57 91 58 42 59 94 60 88 61 87 62 43 64 75 65 55 66
REMARK SMILES IDX 74 67 56 68 59 69 73 70 92 71 57 72 58 73 72 75 93 76 60 77
REMARK SMILES IDX 44 78 45 79 53 80 46 81 52 82 54 83 51 84 47 85 48 86 49 87
REMARK SMILES IDX 50 88 76 89 77 90 85 91 78 92 84 93 86 94 83 95 79 96 80 97
REMARK SMILES IDX 81 98 82 99 61 100 62 101 70 102 63 103 69 104 71 105 68 106
REMARK SMILES IDX 64 107 65 108 66 109 67 110
REMARK H PARENT 17 12 3 17 8 32 20 38 91 63 59 74
REMARK Flexibility Score: inf
ROOT
ATOM      1  C   UNL A   1      36.596  33.175  34.369  1.00  0.00     0.188 C 
ENDROOT
BRANCH   1   2
ATOM      2  O   UNL A   1      36.668  32.020  33.539  1.00  0.00    -0.376 OA
BRANCH   2   3
ATOM      3  C   UNL A   1      35.716  31.947  32.498  1.00  0.00     0.202 C 
BRANCH   3   4
ATOM      4  C   UNL A   1      36.298  31.974  31.071  1.00  0.00     0.261 C 
BRANCH   4   5
ATOM      5  O   UNL A   1      36.066  30.785  30.274  1.00  0.00    -0.462 OA
BRANCH   5   6
ATOM      6  C   UNL A   1      36.945  29.741  30.409  1.00  0.00     0.331 C 
ATOM      7  O   UNL A   1      36.951  28.999  31.388  1.00  0.00    -0.250 OA
BRANCH   6   8
ATOM      8  C   UNL A   1      37.874  29.510  29.156  1.00  0.00     0.218 C 
BRANCH   8   9
ATOM      9  N   UNL A   1      38.484  28.164  29.010  1.00  0.00    -0.339 N 
ATOM     10  C   UNL A   1      39.749  27.656  28.958  1.00  0.00     0.243 C 
ATOM     11  O   UNL A   1      39.788  26.415  28.998  1.00  0.00    -0.273 OA
ATOM     12  H   UNL A   1      37.801  27.458  28.930  1.00  0.00     0.164 HD
BRANCH  10  13
ATOM     13  C   UNL A   1      41.118  28.422  28.868  1.00  0.00     0.176 C 
BRANCH  13  14
ATOM     14  N   UNL A   1      41.360  29.060  27.576  1.00  0.00    -0.340 N 
ATOM     15  O   UNL A   1      42.265  29.270  25.520  1.00  0.00    -0.269 OA
ATOM     16  C   UNL A   1      42.058  28.553  26.496  1.00  0.00     0.251 C 
ATOM     17  H   UNL A   1      40.979  29.961  27.461  1.00  0.00     0.164 HD
BRANCH  16  18
ATOM     18  C   UNL A   1      42.584  27.160  26.486  1.00  0.00     0.040 A 
ATOM     19  C   UNL A   1      42.123  26.212  25.560  1.00  0.00     0.017 A 
ATOM     20  C   UNL A   1      43.626  26.823  27.364  1.00  0.00     0.017 A 
ATOM     21  C   UNL A   1      42.675  24.926  25.544  1.00  0.00     0.040 A 
ATOM     22  C   UNL A   1      44.177  25.537  27.341  1.00  0.00     0.040 A 
ATOM     23  C   UNL A   1      43.696  24.601  26.431  1.00  0.00     0.123 A 
ATOM     24  F   UNL A   1      44.236  23.376  26.392  1.00  0.00    -0.207 F 
ENDBRANCH  16  18
ENDBRANCH  13  14
BRANCH  13  25
ATOM     25  C   UNL A   1      41.714  29.191  30.084  1.00  0.00     0.072 C 
BRANCH  25  26
ATOM     26  C   UNL A   1      40.859  30.169  30.822  1.00  0.00    -0.020 A 
ATOM     27  C   UNL A   1      40.253  29.881  32.010  1.00  0.00     0.087 A 
ATOM     28  C   UNL A   1      40.711  31.598  30.698  1.00  0.00     0.003 A 
ATOM     29  N   UNL A   1      39.474  30.911  32.412  1.00  0.00    -0.361 N 
ATOM     30  C   UNL A   1      39.874  32.027  31.738  1.00  0.00     0.046 A 
ATOM     31  C   UNL A   1      41.258  32.592  29.867  1.00  0.00     0.010 A 
ATOM     32  H   UNL A   1      38.746  30.864  33.074  1.00  0.00     0.166 HD
ATOM     33  C   UNL A   1      39.572  33.361  32.014  1.00  0.00     0.026 A 
ATOM     34  C   UNL A   1      40.973  33.943  30.137  1.00  0.00     0.001 A 
ATOM     35  C   UNL A   1      40.163  34.322  31.205  1.00  0.00     0.002 A 
ENDBRANCH  25  26
ENDBRANCH  13  25
ENDBRANCH  10  13
ENDBRANCH   8   9
BRANCH   8  36
ATOM     36  C   UNL A   1      37.020  29.859  27.930  1.00  0.00     0.193 C 
BRANCH  36  37
ATOM     37  O   UNL A   1      35.731  29.247  28.000  1.00  0.00    -0.394 OA
ATOM     38  H   UNL A   1      35.728  28.438  27.465  1.00  0.00     0.210 HD
ENDBRANCH  36  37
ENDBRANCH   8  36
ENDBRANCH   6   8
ENDBRANCH   5   6
ENDBRANCH   4   5
ENDBRANCH   3   4
ENDBRANCH   2   3
ENDBRANCH   1   2
BRANCH   1  39
ATOM     39  C   UNL A   1      37.573  33.073  35.545  1.00  0.00     0.188 C 
BRANCH  39  40
ATOM     40  O   UNL A   1      37.011  33.021  36.857  1.00  0.00    -0.376 OA
BRANCH  40  41
ATOM     41  C   UNL A   1      37.814  32.432  37.873  1.00  0.00     0.202 C 
BRANCH  41  42
ATOM     42  C   UNL A   1      39.112  33.168  38.199  1.00  0.00     0.261 C 
BRANCH  42  43
ATOM     43  O   UNL A   1      40.266  32.306  38.170  1.00  0.00    -0.460 OA
BRANCH  43  44
ATOM     44  C   UNL A   1      41.449  32.950  38.060  1.00  0.00     0.338 C 
ATOM     45  O   UNL A   1      41.950  33.707  38.889  1.00  0.00    -0.246 OA
BRANCH  44  46
ATOM     46  C   UNL A   1      42.078  32.676  36.758  1.00  0.00     0.060 A 
ATOM     47  C   UNL A   1      41.298  32.462  35.616  1.00  0.00     0.016 A 
ATOM     48  C   UNL A   1      43.460  32.476  36.709  1.00  0.00     0.016 A 
ATOM     49  C   UNL A   1      41.906  32.039  34.428  1.00  0.00     0.010 A 
ATOM     50  C   UNL A   1      44.065  32.059  35.518  1.00  0.00     0.010 A 
ATOM     51  C   UNL A   1      43.290  31.821  34.372  1.00  0.00    -0.014 A 
BRANCH  51  52
ATOM     52  C   UNL A   1      43.907  31.259  33.142  1.00  0.00     0.031 A 
ATOM     53  C   UNL A   1      44.135  29.779  33.033  1.00  0.00     0.074 A 
ATOM     54  C   UNL A   1      44.248  32.062  32.118  1.00  0.00     0.049 A 
ATOM     55  N   UNL A   1      44.775  29.109  32.111  1.00  0.00    -0.248 NA
ATOM     56  C   UNL A   1      43.580  28.953  34.114  1.00  0.00     0.031 C 
ATOM     57  C   UNL A   1      44.051  33.507  32.101  1.00  0.00     0.029 A 
ATOM     58  N   UNL A   1      44.825  31.786  30.902  1.00  0.00    -0.354 N 
ATOM     59  C   UNL A   1      44.758  27.783  32.529  1.00  0.00     0.074 A 
ATOM     60  C   UNL A   1      44.013  27.747  33.772  1.00  0.00     0.031 C 
ATOM     61  C   UNL A   1      44.474  33.985  30.920  1.00  0.00     0.029 A 
ATOM     62  C   UNL A   1      44.996  32.894  30.104  1.00  0.00     0.049 A 
ATOM     63  H   UNL A   1      45.090  30.879  30.627  1.00  0.00     0.167 HD
ATOM     64  C   UNL A   1      45.345  26.709  31.945  1.00  0.00     0.034 A 
ATOM     65  C   UNL A   1      45.530  33.020  28.870  1.00  0.00     0.034 A 
ATOM     66  C   UNL A   1      46.089  26.767  30.709  1.00  0.00     0.049 A 
ATOM     67  C   UNL A   1      46.168  31.805  28.238  1.00  0.00     0.074 A 
ATOM     68  C   UNL A   1      46.758  25.748  30.054  1.00  0.00     0.029 A 
ATOM     69  N   UNL A   1      46.267  27.911  29.940  1.00  0.00    -0.354 N 
ATOM     70  N   UNL A   1      46.220  30.572  28.687  1.00  0.00    -0.248 NA
ATOM     71  C   UNL A   1      46.868  32.011  26.962  1.00  0.00     0.031 C 
ATOM     72  C   UNL A   1      47.390  26.286  28.926  1.00  0.00     0.029 A 
ATOM     73  C   UNL A   1      47.059  27.628  28.836  1.00  0.00     0.049 A 
ATOM     74  H   UNL A   1      45.886  28.794  30.148  1.00  0.00     0.167 HD
ATOM     75  C   UNL A   1      46.995  29.868  27.769  1.00  0.00     0.074 A 
ATOM     76  C   UNL A   1      47.327  30.795  26.707  1.00  0.00     0.031 C 
ATOM     77  C   UNL A   1      47.426  28.582  27.816  1.00  0.00     0.034 A 
BRANCH  64  78
ATOM     78  C   UNL A   1      45.299  25.411  32.711  1.00  0.00     0.023 A 
ATOM     79  C   UNL A   1      46.134  25.157  33.811  1.00  0.00     0.031 A 
ATOM     80  C   UNL A   1      44.441  24.381  32.281  1.00  0.00     0.131 A 
ATOM     81  C   UNL A   1      46.145  23.882  34.398  1.00  0.00     0.055 A 
ATOM     82  C   UNL A   1      44.402  23.140  32.917  1.00  0.00     0.041 A 
ATOM     83  F   UNL A   1      43.641  24.559  31.218  1.00  0.00    -0.206 F 
ATOM     84  C   UNL A   1      45.269  22.879  33.973  1.00  0.00     0.022 A 
BRANCH  81  85
ATOM     85  S   UNL A   1      47.424  23.502  35.627  1.00  0.00     0.124 S 
ATOM     86  O   UNL A   1      48.009  22.283  35.075  1.00  0.00    -0.237 OA
ATOM     87  O   UNL A   1      48.264  24.693  35.585  1.00  0.00    -0.237 OA
ATOM     88  O   UNL A   1      46.667  23.317  36.863  1.00  0.00    -0.744 OA
ENDBRANCH  81  85
ENDBRANCH  64  78
BRANCH  65  89
ATOM     89  C   UNL A   1      45.555  34.339  28.163  1.00  0.00     0.023 A 
ATOM     90  C   UNL A   1      46.662  35.200  28.279  1.00  0.00     0.031 A 
ATOM     91  C   UNL A   1      44.459  34.789  27.406  1.00  0.00     0.131 A 
ATOM     92  C   UNL A   1      46.632  36.470  27.676  1.00  0.00     0.055 A 
ATOM     93  C   UNL A   1      44.466  36.021  26.748  1.00  0.00     0.041 A 
ATOM     94  F   UNL A   1      43.359  34.028  27.281  1.00  0.00    -0.206 F 
ATOM     95  C   UNL A   1      45.553  36.874  26.890  1.00  0.00     0.022 A 
BRANCH  92  96
ATOM     96  S   UNL A   1      47.983  37.635  28.020  1.00  0.00     0.124 S 
ATOM     97  O   UNL A   1      47.310  38.920  27.872  1.00  0.00    -0.237 OA
ATOM     98  O   UNL A   1      48.367  37.262  29.376  1.00  0.00    -0.237 OA
ATOM     99  O   UNL A   1      48.969  37.324  26.985  1.00  0.00    -0.744 OA
ENDBRANCH  92  96
ENDBRANCH  65  89
BRANCH  77 100
ATOM    100  C   UNL A   1      48.335  28.133  26.697  1.00  0.00     0.023 A 
ATOM    101  C   UNL A   1      49.720  28.385  26.742  1.00  0.00     0.031 A 
ATOM    102  C   UNL A   1      47.818  27.475  25.569  1.00  0.00     0.131 A 
ATOM    103  C   UNL A   1      50.532  28.030  25.655  1.00  0.00     0.055 A 
ATOM    104  C   UNL A   1      48.641  27.076  24.513  1.00  0.00     0.041 A 
ATOM    105  F   UNL A   1      46.505  27.213  25.473  1.00  0.00    -0.206 F 
ATOM    106  C   UNL A   1      50.003  27.363  24.547  1.00  0.00     0.022 A 
BRANCH 103 107
ATOM    107  S   UNL A   1      52.278  28.522  25.672  1.00  0.00     0.124 S 
ATOM    108  O   UNL A   1      52.746  27.936  26.924  1.00  0.00    -0.237 OA
ATOM    109  O   UNL A   1      52.789  27.907  24.451  1.00  0.00    -0.237 OA
ATOM    110  O   UNL A   1      52.224  29.982  25.654  1.00  0.00    -0.744 OA
ENDBRANCH 103 107
ENDBRANCH  77 100
ENDBRANCH  51  52
ENDBRANCH  44  46
ENDBRANCH  43  44
ENDBRANCH  42  43
ENDBRANCH  41  42
ENDBRANCH  40  41
ENDBRANCH  39  40
ENDBRANCH   1  39
TORSDOF 28
ENDMDL
MODEL 3
REMARK VINA RESULT:      -8.7      5.690     11.124
REMARK SMILES O=C(N[C@@H](Cc1c[nH]c2ccccc12)C(=O)N[C@@H](CO)C(=O)OCCOCCOCCOC(=O)c1ccc(-c2c3nc(c(-c4cc(S(=O)(=O)[O-])ccc4F)c4ccc([nH]4)c(-c4cc(S(=O)(=O)[O-])ccc4F)c4nc(c(-c5cc(S(=O)(=O)[O-])ccc5F)c5ccc2[nH]5)C=C4)C=C3)cc1)c1ccc(F)cc1
REMARK SMILES IDX 27 1 26 2 25 3 24 4 23 5 21 6 22 7 18 8 17 9 15 10 16 11
REMARK SMILES IDX 4 13 3 14 1 15 2 16 98 18 99 19 104 20 100 21 103 22 101 23
REMARK SMILES IDX 102 24 5 25 6 26 7 27 14 28 8 29 9 30 13 31 10 33 12 34
REMARK SMILES IDX 11 35 19 36 20 37 28 39 29 40 30 41 31 42 32 43 33 44 34 45
REMARK SMILES IDX 35 46 36 47 97 48 37 49 96 50 38 51 39 52 40 53 90 54 41 55
REMARK SMILES IDX 95 56 89 57 91 58 42 59 94 60 88 61 87 62 43 64 75 65 55 66
REMARK SMILES IDX 74 67 56 68 59 69 73 70 92 71 57 72 58 73 72 75 93 76 60 77
REMARK SMILES IDX 44 78 45 79 53 80 46 81 52 82 54 83 51 84 47 85 48 86 49 87
REMARK SMILES IDX 50 88 76 89 77 90 85 91 78 92 84 93 86 94 83 95 79 96 80 97
REMARK SMILES IDX 81 98 82 99 61 100 62 101 70 102 63 103 69 104 71 105 68 106
REMARK SMILES IDX 64 107 65 108 66 109 67 110
REMARK H PARENT 17 12 3 17 8 32 20 38 91 63 59 74
REMARK Flexibility Score: inf
ROOT
ATOM      1  C   UNL A   1      38.753  29.459  32.179  1.00  0.00     0.188 C 
ENDROOT
BRANCH   1   2
ATOM      2  O   UNL A   1      39.549  28.739  31.245  1.00  0.00    -0.376 OA
BRANCH   2   3
ATOM      3  C   UNL A   1      39.092  28.747  29.907  1.00  0.00     0.202 C 
BRANCH   3   4
ATOM      4  C   UNL A   1      40.189  28.921  28.840  1.00  0.00     0.261 C 
BRANCH   4   5
ATOM      5  O   UNL A   1      40.012  28.149  27.624  1.00  0.00    -0.462 OA
BRANCH   5   6
ATOM      6  C   UNL A   1      40.768  27.016  27.469  1.00  0.00     0.331 C 
ATOM      7  O   UNL A   1      41.053  26.273  28.405  1.00  0.00    -0.250 OA
BRANCH   6   8
ATOM      8  C   UNL A   1      41.150  26.691  25.974  1.00  0.00     0.218 C 
BRANCH   8   9
ATOM      9  N   UNL A   1      42.475  27.166  25.501  1.00  0.00    -0.339 N 
ATOM     10  C   UNL A   1      43.772  27.017  25.895  1.00  0.00     0.243 C 
ATOM     11  O   UNL A   1      44.595  27.469  25.080  1.00  0.00    -0.273 OA
ATOM     12  H   UNL A   1      42.397  27.732  24.699  1.00  0.00     0.164 HD
BRANCH  10  13
ATOM     13  C   UNL A   1      44.338  26.358  27.204  1.00  0.00     0.176 C 
BRANCH  13  14
ATOM     14  N   UNL A   1      44.407  24.899  27.155  1.00  0.00    -0.340 N 
ATOM     15  O   UNL A   1      45.311  22.896  26.643  1.00  0.00    -0.269 OA
ATOM     16  C   UNL A   1      45.460  24.112  26.727  1.00  0.00     0.251 C 
ATOM     17  H   UNL A   1      43.605  24.418  27.463  1.00  0.00     0.164 HD
BRANCH  16  18
ATOM     18  C   UNL A   1      46.774  24.701  26.346  1.00  0.00     0.040 A 
ATOM     19  C   UNL A   1      47.835  24.773  27.262  1.00  0.00     0.017 A 
ATOM     20  C   UNL A   1      46.976  25.107  25.018  1.00  0.00     0.017 A 
ATOM     21  C   UNL A   1      49.073  25.285  26.858  1.00  0.00     0.040 A 
ATOM     22  C   UNL A   1      48.217  25.614  24.618  1.00  0.00     0.040 A 
ATOM     23  C   UNL A   1      49.254  25.698  25.541  1.00  0.00     0.123 A 
ATOM     24  F   UNL A   1      50.449  26.163  25.157  1.00  0.00    -0.207 F 
ENDBRANCH  16  18
ENDBRANCH  13  14
BRANCH  13  25
ATOM     25  C   UNL A   1      45.472  27.024  28.039  1.00  0.00     0.072 C 
BRANCH  25  26
ATOM     26  C   UNL A   1      45.997  28.360  27.626  1.00  0.00    -0.020 A 
ATOM     27  C   UNL A   1      47.169  28.521  26.945  1.00  0.00     0.087 A 
ATOM     28  C   UNL A   1      45.366  29.652  27.536  1.00  0.00     0.003 A 
ATOM     29  N   UNL A   1      47.446  29.835  26.775  1.00  0.00    -0.361 N 
ATOM     30  C   UNL A   1      46.290  30.534  26.958  1.00  0.00     0.046 A 
ATOM     31  C   UNL A   1      44.083  30.160  27.807  1.00  0.00     0.010 A 
ATOM     32  H   UNL A   1      48.327  30.218  26.559  1.00  0.00     0.166 HD
ATOM     33  C   UNL A   1      46.015  31.858  26.614  1.00  0.00     0.026 A 
ATOM     34  C   UNL A   1      43.784  31.490  27.458  1.00  0.00     0.001 A 
ATOM     35  C   UNL A   1      44.726  32.317  26.851  1.00  0.00     0.002 A 
ENDBRANCH  25  26
ENDBRANCH  13  25
ENDBRANCH  10  13
ENDBRANCH   8   9
BRANCH   8  36
ATOM     36  C   UNL A   1      41.032  25.167  25.832  1.00  0.00     0.193 C 
BRANCH  36  37
ATOM     37  O   UNL A   1      39.707  24.717  26.119  1.00  0.00    -0.394 OA
ATOM     38  H   UNL A   1      39.613  24.578  27.075  1.00  0.00     0.210 HD
ENDBRANCH  36  37
ENDBRANCH   8  36
ENDBRANCH   6   8
ENDBRANCH   5   6
ENDBRANCH   4   5
ENDBRANCH   3   4
ENDBRANCH   2   3
ENDBRANCH   1   2
BRANCH   1  39
ATOM     39  C   UNL A   1      37.259  29.201  31.949  1.00  0.00     0.188 C 
BRANCH  39  40
ATOM     40  O   UNL A   1      36.422  30.341  31.757  1.00  0.00    -0.376 OA
BRANCH  40  41
ATOM     41  C   UNL A   1      36.340  31.264  32.837  1.00  0.00     0.202 C 
BRANCH  41  42
ATOM     42  C   UNL A   1      36.300  32.739  32.443  1.00  0.00     0.261 C 
BRANCH  42  43
ATOM     43  O   UNL A   1      37.167  33.045  31.334  1.00  0.00    -0.460 OA
BRANCH  43  44
ATOM     44  C   UNL A   1      38.246  33.793  31.650  1.00  0.00     0.338 C 
ATOM     45  O   UNL A   1      38.255  34.995  31.907  1.00  0.00    -0.246 OA
BRANCH  44  46
ATOM     46  C   UNL A   1      39.478  32.987  31.600  1.00  0.00     0.060 A 
ATOM     47  C   UNL A   1      40.276  32.827  32.737  1.00  0.00     0.016 A 
ATOM     48  C   UNL A   1      39.920  32.516  30.362  1.00  0.00     0.016 A 
ATOM     49  C   UNL A   1      41.524  32.200  32.629  1.00  0.00     0.010 A 
ATOM     50  C   UNL A   1      41.165  31.885  30.258  1.00  0.00     0.010 A 
ATOM     51  C   UNL A   1      41.984  31.737  31.389  1.00  0.00    -0.014 A 
BRANCH  51  52
ATOM     52  C   UNL A   1      43.357  31.182  31.264  1.00  0.00     0.031 A 
ATOM     53  C   UNL A   1      44.491  32.082  30.870  1.00  0.00     0.074 A 
ATOM     54  C   UNL A   1      43.597  29.882  31.517  1.00  0.00     0.049 A 
ATOM     55  N   UNL A   1      45.727  31.773  30.577  1.00  0.00    -0.248 NA
ATOM     56  C   UNL A   1      44.184  33.516  30.779  1.00  0.00     0.031 C 
ATOM     57  C   UNL A   1      42.581  28.921  31.932  1.00  0.00     0.029 A 
ATOM     58  N   UNL A   1      44.757  29.147  31.468  1.00  0.00    -0.354 N 
ATOM     59  C   UNL A   1      46.337  32.965  30.205  1.00  0.00     0.074 A 
ATOM     60  C   UNL A   1      45.336  34.006  30.342  1.00  0.00     0.031 C 
ATOM     61  C   UNL A   1      43.169  27.730  32.126  1.00  0.00     0.029 A 
ATOM     62  C   UNL A   1      44.594  27.828  31.828  1.00  0.00     0.049 A 
ATOM     63  H   UNL A   1      45.623  29.529  31.202  1.00  0.00     0.167 HD
ATOM     64  C   UNL A   1      47.601  33.160  29.753  1.00  0.00     0.034 A 
ATOM     65  C   UNL A   1      45.483  26.814  31.889  1.00  0.00     0.034 A 
ATOM     66  C   UNL A   1      48.581  32.109  29.617  1.00  0.00     0.049 A 
ATOM     67  C   UNL A   1      46.887  27.060  31.390  1.00  0.00     0.074 A 
ATOM     68  C   UNL A   1      49.874  32.190  29.131  1.00  0.00     0.029 A 
ATOM     69  N   UNL A   1      48.375  30.779  29.963  1.00  0.00    -0.354 N 
ATOM     70  N   UNL A   1      47.426  28.178  30.958  1.00  0.00    -0.248 NA
ATOM     71  C   UNL A   1      47.785  25.898  31.333  1.00  0.00     0.031 C 
ATOM     72  C   UNL A   1      50.427  30.903  29.126  1.00  0.00     0.029 A 
ATOM     73  C   UNL A   1      49.505  30.027  29.674  1.00  0.00     0.049 A 
ATOM     74  H   UNL A   1      47.547  30.421  30.358  1.00  0.00     0.167 HD
ATOM     75  C   UNL A   1      48.710  27.841  30.538  1.00  0.00     0.074 A 
ATOM     76  C   UNL A   1      48.889  26.435  30.835  1.00  0.00     0.031 C 
ATOM     77  C   UNL A   1      49.645  28.613  29.927  1.00  0.00     0.034 A 
BRANCH  64  78
ATOM     78  C   UNL A   1      47.941  34.545  29.265  1.00  0.00     0.023 A 
ATOM     79  C   UNL A   1      47.660  34.971  27.957  1.00  0.00     0.031 A 
ATOM     80  C   UNL A   1      48.624  35.434  30.117  1.00  0.00     0.131 A 
ATOM     81  C   UNL A   1      48.124  36.222  27.517  1.00  0.00     0.055 A 
ATOM     82  C   UNL A   1      49.015  36.705  29.697  1.00  0.00     0.041 A 
ATOM     83  F   UNL A   1      48.943  35.068  31.369  1.00  0.00    -0.206 F 
ATOM     84  C   UNL A   1      48.779  37.099  28.384  1.00  0.00     0.022 A 
BRANCH  81  85
ATOM     85  S   UNL A   1      47.991  36.626  25.753  1.00  0.00     0.124 S 
ATOM     86  O   UNL A   1      46.627  36.198  25.456  1.00  0.00    -0.237 OA
ATOM     87  O   UNL A   1      48.230  38.064  25.741  1.00  0.00    -0.237 OA
ATOM     88  O   UNL A   1      49.039  35.814  25.136  1.00  0.00    -0.744 OA
ENDBRANCH  81  85
ENDBRANCH  64  78
BRANCH  65  89
ATOM     89  C   UNL A   1      45.082  25.456  32.374  1.00  0.00     0.023 A 
ATOM     90  C   UNL A   1      45.295  25.074  33.711  1.00  0.00     0.031 A 
ATOM     91  C   UNL A   1      44.530  24.497  31.505  1.00  0.00     0.131 A 
ATOM     92  C   UNL A   1      44.989  23.766  34.127  1.00  0.00     0.055 A 
ATOM     93  C   UNL A   1      44.159  23.224  31.942  1.00  0.00     0.041 A 
ATOM     94  F   UNL A   1      44.330  24.789  30.210  1.00  0.00    -0.206 F 
ATOM     95  C   UNL A   1      44.398  22.849  33.259  1.00  0.00     0.022 A 
BRANCH  92  96
ATOM     96  S   UNL A   1      45.470  23.242  35.799  1.00  0.00     0.124 S 
ATOM     97  O   UNL A   1      45.266  21.801  35.727  1.00  0.00    -0.237 OA
ATOM     98  O   UNL A   1      46.855  23.693  35.870  1.00  0.00    -0.237 OA
ATOM     99  O   UNL A   1      44.536  23.963  36.662  1.00  0.00    -0.744 OA
ENDBRANCH  92  96
ENDBRANCH  65  89
BRANCH  77 100
ATOM    100  C   UNL A   1      50.923  27.924  29.512  1.00  0.00     0.023 A 
ATOM    101  C   UNL A   1      51.832  27.440  30.473  1.00  0.00     0.031 A 
ATOM    102  C   UNL A   1      51.250  27.771  28.155  1.00  0.00     0.131 A 
ATOM    103  C   UNL A   1      53.048  26.876  30.063  1.00  0.00     0.055 A 
ATOM    104  C   UNL A   1      52.440  27.159  27.753  1.00  0.00     0.041 A 
ATOM    105  F   UNL A   1      50.421  28.217  27.198  1.00  0.00    -0.206 F 
ATOM    106  C   UNL A   1      53.352  26.719  28.709  1.00  0.00     0.022 A 
BRANCH 103 107
ATOM    107  S   UNL A   1      54.268  26.420  31.327  1.00  0.00     0.124 S 
ATOM    108  O   UNL A   1      54.325  27.628  32.144  1.00  0.00    -0.237 OA
ATOM    109  O   UNL A   1      53.652  25.255  31.953  1.00  0.00    -0.237 OA
ATOM    110  O   UNL A   1      55.476  26.140  30.552  1.00  0.00    -0.744 OA
ENDBRANCH 103 107
ENDBRANCH  77 100
ENDBRANCH  51  52
ENDBRANCH  44  46
ENDBRANCH  43  44
ENDBRANCH  42  43
ENDBRANCH  41  42
ENDBRANCH  40  41
ENDBRANCH  39  40
ENDBRANCH   1  39
TORSDOF 28
ENDMDL
