MODEL 1
REMARK VINA RESULT:     -10.8      0.000      0.000
REMARK SMILES Cc1ccc(NC(=O)c2cnn3c2NC2=C(C(=O)CCC2)[C@H]3c2ccc(C(=O)OCCOCCOCCOC(=O)c3ccc(-c4c5nc(c(-c6cc(S(=O)(=O)[O-])ccc6F)c6ccc([nH]6)c(-c6cc(S(=O)(=O)[O-])ccc6F)c6nc(c(-c7cc(S(=O)(=O)[O-])ccc7F)c7ccc4[nH]7)C=C6)C=C5)cc3)cc2)cc1
REMARK SMILES IDX 33 1 32 2 31 3 30 4 29 5 27 6 28 7 26 8 23 9 24 10 105 11
REMARK SMILES IDX 25 12 104 13 22 14 9 15 10 16 13 17 11 18 12 19 14 20 15 21
REMARK SMILES IDX 16 23 21 24 17 25 20 26 18 27 19 28 7 29 6 30 8 32 5 33 1 34
REMARK SMILES IDX 2 35 3 36 107 37 4 38 106 39 34 40 35 41 36 42 37 43 38 44
REMARK SMILES IDX 39 45 40 46 41 47 42 48 103 49 43 50 102 51 44 52 45 53
REMARK SMILES IDX 46 54 96 55 47 56 101 57 95 58 97 59 48 60 100 61 94 62
REMARK SMILES IDX 93 63 49 65 81 66 61 67 80 68 62 69 65 70 79 71 98 72 63 73
REMARK SMILES IDX 64 74 78 76 99 77 66 78 50 79 51 80 59 81 52 82 58 83 60 84
REMARK SMILES IDX 57 85 53 86 54 87 55 88 56 89 82 90 83 91 91 92 84 93 90 94
REMARK SMILES IDX 92 95 89 96 85 97 86 98 87 99 88 100 67 101 68 102 76 103
REMARK SMILES IDX 69 104 75 105 77 106 74 107 70 108 71 109 72 110 73 111
REMARK H PARENT 14 22 6 31 97 64 65 75
REMARK Flexibility Score: inf
ROOT
ATOM      1  C   UNL A   1      43.853  22.170  25.804  1.00  0.00     0.188 C 
ENDROOT
BRANCH   1   2
ATOM      2  O   UNL A   1      42.878  21.093  25.862  1.00  0.00    -0.376 OA
BRANCH   2   3
ATOM      3  C   UNL A   1      42.038  21.148  27.026  1.00  0.00     0.202 C 
BRANCH   3   4
ATOM      4  C   UNL A   1      40.463  21.111  26.831  1.00  0.00     0.261 C 
BRANCH   4   5
ATOM      5  O   UNL A   1      39.652  21.535  25.613  1.00  0.00    -0.460 OA
BRANCH   5   6
ATOM      6  C   UNL A   1      38.302  21.719  25.664  1.00  0.00     0.338 C 
ATOM      7  O   UNL A   1      37.628  20.897  26.263  1.00  0.00    -0.246 OA
BRANCH   6   8
ATOM      8  C   UNL A   1      37.554  22.902  24.882  1.00  0.00     0.060 A 
ATOM      9  C   UNL A   1      35.042  24.139  23.735  1.00  0.00    -0.019 A 
ATOM     10  C   UNL A   1      35.764  23.151  23.097  1.00  0.00     0.007 A 
ATOM     11  C   UNL A   1      35.575  24.461  25.007  1.00  0.00     0.007 A 
ATOM     12  C   UNL A   1      37.007  22.676  23.602  1.00  0.00     0.016 A 
ATOM     13  C   UNL A   1      36.780  23.838  25.577  1.00  0.00     0.016 A 
BRANCH   9  14
ATOM     14  C   UNL A   1      33.943  24.968  22.929  1.00  0.00     0.175 C 
ATOM     15  C   UNL A   1      31.549  23.781  25.150  1.00  0.00     0.102 A 
ATOM     16  C   UNL A   1      31.059  23.285  23.903  1.00  0.00     0.151 A 
ATOM     17  C   UNL A   1      32.319  24.859  24.777  1.00  0.00     0.142 A 
ATOM     18  N   UNL A   1      31.768  23.730  22.857  1.00  0.00    -0.178 NA
ATOM     19  N   UNL A   1      32.661  24.518  23.476  1.00  0.00    -0.237 N 
ATOM     20  N   UNL A   1      32.922  25.967  25.317  1.00  0.00    -0.343 N 
ATOM     21  C   UNL A   1      33.544  26.897  24.461  1.00  0.00     0.026 C 
ATOM     22  H   UNL A   1      32.921  26.110  26.291  1.00  0.00     0.168 HD
ATOM     23  C   UNL A   1      33.850  26.486  23.201  1.00  0.00     0.044 C 
ATOM     24  C   UNL A   1      33.547  28.371  24.784  1.00  0.00     0.055 C 
ATOM     25  C   UNL A   1      33.032  27.320  22.235  1.00  0.00     0.163 C 
ATOM     26  C   UNL A   1      32.491  29.104  23.961  1.00  0.00     0.014 C 
ATOM     27  O   UNL A   1      33.113  27.136  21.023  1.00  0.00    -0.294 OA
ATOM     28  C   UNL A   1      31.939  28.225  22.841  1.00  0.00     0.081 C 
BRANCH  15  29
ATOM     29  C   UNL A   1      31.324  23.252  26.470  1.00  0.00     0.261 C 
ATOM     30  N   UNL A   1      31.707  21.943  26.741  1.00  0.00    -0.322 N 
ATOM     31  H   UNL A   1      31.317  21.580  27.569  1.00  0.00     0.170 HD
ATOM     32  O   UNL A   1      30.766  23.911  27.347  1.00  0.00    -0.269 OA
BRANCH  30  33
ATOM     33  C   UNL A   1      32.549  21.030  26.056  1.00  0.00     0.041 A 
ATOM     34  C   UNL A   1      35.230  18.212  24.118  1.00  0.00     0.044 C 
ATOM     35  C   UNL A   1      34.328  19.211  24.779  1.00  0.00    -0.051 A 
ATOM     36  C   UNL A   1      32.952  19.045  24.686  1.00  0.00     0.005 A 
ATOM     37  C   UNL A   1      34.811  20.309  25.494  1.00  0.00     0.005 A 
ATOM     38  C   UNL A   1      32.089  19.965  25.290  1.00  0.00     0.026 A 
ATOM     39  C   UNL A   1      33.930  21.213  26.119  1.00  0.00     0.026 A 
ENDBRANCH  30  33
ENDBRANCH  15  29
ENDBRANCH   9  14
ENDBRANCH   6   8
ENDBRANCH   5   6
ENDBRANCH   4   5
ENDBRANCH   3   4
ENDBRANCH   2   3
ENDBRANCH   1   2
BRANCH   1  40
ATOM     40  C   UNL A   1      45.301  21.690  25.989  1.00  0.00     0.188 C 
BRANCH  40  41
ATOM     41  O   UNL A   1      46.186  22.799  25.929  1.00  0.00    -0.376 OA
BRANCH  41  42
ATOM     42  C   UNL A   1      45.955  23.785  24.947  1.00  0.00     0.202 C 
BRANCH  42  43
ATOM     43  C   UNL A   1      46.730  25.088  25.163  1.00  0.00     0.261 C 
BRANCH  43  44
ATOM     44  O   UNL A   1      47.278  25.103  26.495  1.00  0.00    -0.460 OA
BRANCH  44  45
ATOM     45  C   UNL A   1      46.738  26.052  27.334  1.00  0.00     0.338 C 
ATOM     46  O   UNL A   1      46.582  27.201  27.058  1.00  0.00    -0.246 OA
BRANCH  45  47
ATOM     47  C   UNL A   1      46.562  25.414  28.690  1.00  0.00     0.060 A 
ATOM     48  C   UNL A   1      45.528  24.532  28.971  1.00  0.00     0.016 A 
ATOM     49  C   UNL A   1      47.264  25.862  29.776  1.00  0.00     0.016 A 
ATOM     50  C   UNL A   1      45.044  24.386  30.318  1.00  0.00     0.010 A 
ATOM     51  C   UNL A   1      46.732  25.664  31.078  1.00  0.00     0.010 A 
ATOM     52  C   UNL A   1      45.504  25.125  31.420  1.00  0.00    -0.014 A 
BRANCH  52  53
ATOM     53  C   UNL A   1      44.601  25.521  32.671  1.00  0.00     0.031 A 
ATOM     54  C   UNL A   1      43.973  26.844  33.232  1.00  0.00     0.074 A 
ATOM     55  C   UNL A   1      44.030  24.499  33.351  1.00  0.00     0.049 A 
ATOM     56  N   UNL A   1      44.295  27.679  34.200  1.00  0.00    -0.248 NA
ATOM     57  C   UNL A   1      42.683  27.251  32.668  1.00  0.00     0.031 C 
ATOM     58  C   UNL A   1      42.981  24.558  34.367  1.00  0.00     0.029 A 
ATOM     59  N   UNL A   1      44.464  23.186  33.403  1.00  0.00    -0.354 N 
ATOM     60  C   UNL A   1      43.252  28.669  34.290  1.00  0.00     0.074 A 
ATOM     61  C   UNL A   1      42.461  28.495  33.097  1.00  0.00     0.031 C 
ATOM     62  C   UNL A   1      43.069  23.458  35.128  1.00  0.00     0.029 A 
ATOM     63  C   UNL A   1      44.245  22.727  34.701  1.00  0.00     0.049 A 
ATOM     64  H   UNL A   1      44.854  22.669  32.662  1.00  0.00     0.167 HD
ATOM     65  C   UNL A   1      42.544  29.077  35.406  1.00  0.00     0.034 A 
ATOM     66  C   UNL A   1      45.319  22.387  35.472  1.00  0.00     0.034 A 
ATOM     67  C   UNL A   1      42.545  28.028  36.386  1.00  0.00     0.049 A 
ATOM     68  C   UNL A   1      45.463  23.235  36.712  1.00  0.00     0.074 A 
ATOM     69  C   UNL A   1      41.587  27.095  36.745  1.00  0.00     0.029 A 
ATOM     70  N   UNL A   1      43.716  27.673  36.989  1.00  0.00    -0.354 N 
ATOM     71  N   UNL A   1      44.737  24.289  36.962  1.00  0.00    -0.248 NA
ATOM     72  C   UNL A   1      46.430  22.980  37.773  1.00  0.00     0.031 C 
ATOM     73  C   UNL A   1      42.212  26.148  37.586  1.00  0.00     0.029 A 
ATOM     74  C   UNL A   1      43.526  26.545  37.748  1.00  0.00     0.049 A 
ATOM     75  H   UNL A   1      44.571  28.153  36.895  1.00  0.00     0.167 HD
ATOM     76  C   UNL A   1      45.156  24.883  38.126  1.00  0.00     0.074 A 
ATOM     77  C   UNL A   1      46.183  23.994  38.622  1.00  0.00     0.031 C 
ATOM     78  C   UNL A   1      44.641  26.081  38.533  1.00  0.00     0.034 A 
BRANCH  65  79
ATOM     79  C   UNL A   1      41.402  30.133  35.420  1.00  0.00     0.023 A 
ATOM     80  C   UNL A   1      40.292  30.040  34.536  1.00  0.00     0.031 A 
ATOM     81  C   UNL A   1      41.351  31.223  36.313  1.00  0.00     0.131 A 
ATOM     82  C   UNL A   1      39.297  31.045  34.467  1.00  0.00     0.055 A 
ATOM     83  C   UNL A   1      40.372  32.235  36.233  1.00  0.00     0.041 A 
ATOM     84  F   UNL A   1      42.259  31.349  37.294  1.00  0.00    -0.206 F 
ATOM     85  C   UNL A   1      39.354  32.165  35.289  1.00  0.00     0.022 A 
BRANCH  82  86
ATOM     86  S   UNL A   1      37.901  30.867  33.306  1.00  0.00     0.124 S 
ATOM     87  O   UNL A   1      37.674  29.424  33.315  1.00  0.00    -0.237 OA
ATOM     88  O   UNL A   1      36.868  31.689  33.925  1.00  0.00    -0.237 OA
ATOM     89  O   UNL A   1      38.431  31.396  32.048  1.00  0.00    -0.744 OA
ENDBRANCH  82  86
ENDBRANCH  65  79
BRANCH  66  90
ATOM     90  C   UNL A   1      46.400  21.711  34.686  1.00  0.00     0.023 A 
ATOM     91  C   UNL A   1      47.563  22.488  34.469  1.00  0.00     0.031 A 
ATOM     92  C   UNL A   1      46.514  20.320  34.538  1.00  0.00     0.131 A 
ATOM     93  C   UNL A   1      48.813  21.879  34.306  1.00  0.00     0.055 A 
ATOM     94  C   UNL A   1      47.759  19.716  34.273  1.00  0.00     0.041 A 
ATOM     95  F   UNL A   1      45.479  19.515  34.815  1.00  0.00    -0.206 F 
ATOM     96  C   UNL A   1      48.921  20.492  34.199  1.00  0.00     0.022 A 
BRANCH  93  97
ATOM     97  S   UNL A   1      50.303  22.888  34.595  1.00  0.00     0.124 S 
ATOM     98  O   UNL A   1      51.215  21.917  35.190  1.00  0.00    -0.237 OA
ATOM     99  O   UNL A   1      50.651  23.353  33.253  1.00  0.00    -0.237 OA
ATOM    100  O   UNL A   1      49.821  23.939  35.485  1.00  0.00    -0.744 OA
ENDBRANCH  93  97
ENDBRANCH  66  90
BRANCH  78 101
ATOM    101  C   UNL A   1      45.138  27.001  39.628  1.00  0.00     0.023 A 
ATOM    102  C   UNL A   1      45.879  28.153  39.373  1.00  0.00     0.031 A 
ATOM    103  C   UNL A   1      44.750  26.809  40.987  1.00  0.00     0.131 A 
ATOM    104  C   UNL A   1      46.239  29.026  40.412  1.00  0.00     0.055 A 
ATOM    105  C   UNL A   1      45.023  27.729  42.001  1.00  0.00     0.041 A 
ATOM    106  F   UNL A   1      44.068  25.723  41.386  1.00  0.00    -0.206 F 
ATOM    107  C   UNL A   1      45.787  28.846  41.719  1.00  0.00     0.022 A 
BRANCH 104 108
ATOM    108  S   UNL A   1      47.391  30.361  40.019  1.00  0.00     0.124 S 
ATOM    109  O   UNL A   1      47.362  31.151  41.248  1.00  0.00    -0.237 OA
ATOM    110  O   UNL A   1      48.630  29.635  39.763  1.00  0.00    -0.237 OA
ATOM    111  O   UNL A   1      46.790  31.005  38.854  1.00  0.00    -0.744 OA
ENDBRANCH 104 108
ENDBRANCH  78 101
ENDBRANCH  52  53
ENDBRANCH  45  47
ENDBRANCH  44  45
ENDBRANCH  43  44
ENDBRANCH  42  43
ENDBRANCH  41  42
ENDBRANCH  40  41
ENDBRANCH   1  40
TORSDOF 23
ENDMDL
MODEL 2
REMARK VINA RESULT:     -10.7      3.516      8.350
REMARK SMILES Cc1ccc(NC(=O)c2cnn3c2NC2=C(C(=O)CCC2)[C@H]3c2ccc(C(=O)OCCOCCOCCOC(=O)c3ccc(-c4c5nc(c(-c6cc(S(=O)(=O)[O-])ccc6F)c6ccc([nH]6)c(-c6cc(S(=O)(=O)[O-])ccc6F)c6nc(c(-c7cc(S(=O)(=O)[O-])ccc7F)c7ccc4[nH]7)C=C6)C=C5)cc3)cc2)cc1
REMARK SMILES IDX 33 1 32 2 31 3 30 4 29 5 27 6 28 7 26 8 23 9 24 10 105 11
REMARK SMILES IDX 25 12 104 13 22 14 9 15 10 16 13 17 11 18 12 19 14 20 15 21
REMARK SMILES IDX 16 23 21 24 17 25 20 26 18 27 19 28 7 29 6 30 8 32 5 33 1 34
REMARK SMILES IDX 2 35 3 36 107 37 4 38 106 39 34 40 35 41 36 42 37 43 38 44
REMARK SMILES IDX 39 45 40 46 41 47 42 48 103 49 43 50 102 51 44 52 45 53
REMARK SMILES IDX 46 54 96 55 47 56 101 57 95 58 97 59 48 60 100 61 94 62
REMARK SMILES IDX 93 63 49 65 81 66 61 67 80 68 62 69 65 70 79 71 98 72 63 73
REMARK SMILES IDX 64 74 78 76 99 77 66 78 50 79 51 80 59 81 52 82 58 83 60 84
REMARK SMILES IDX 57 85 53 86 54 87 55 88 56 89 82 90 83 91 91 92 84 93 90 94
REMARK SMILES IDX 92 95 89 96 85 97 86 98 87 99 88 100 67 101 68 102 76 103
REMARK SMILES IDX 69 104 75 105 77 106 74 107 70 108 71 109 72 110 73 111
REMARK H PARENT 14 22 6 31 97 64 65 75
REMARK Flexibility Score: inf
ROOT
ATOM      1  C   UNL A   1      39.934  26.445  27.438  1.00  0.00     0.188 C 
ENDROOT
BRANCH   1   2
ATOM      2  O   UNL A   1      41.091  25.646  27.807  1.00  0.00    -0.376 OA
BRANCH   2   3
ATOM      3  C   UNL A   1      40.777  24.264  28.047  1.00  0.00     0.202 C 
BRANCH   3   4
ATOM      4  C   UNL A   1      40.192  23.398  26.853  1.00  0.00     0.261 C 
BRANCH   4   5
ATOM      5  O   UNL A   1      39.050  22.391  26.888  1.00  0.00    -0.460 OA
BRANCH   5   6
ATOM      6  C   UNL A   1      38.307  22.091  25.783  1.00  0.00     0.338 C 
ATOM      7  O   UNL A   1      38.323  20.943  25.370  1.00  0.00    -0.246 OA
BRANCH   6   8
ATOM      8  C   UNL A   1      37.508  23.199  24.945  1.00  0.00     0.060 A 
ATOM      9  C   UNL A   1      34.951  24.242  23.707  1.00  0.00    -0.019 A 
ATOM     10  C   UNL A   1      35.743  23.278  23.120  1.00  0.00     0.007 A 
ATOM     11  C   UNL A   1      35.438  24.640  24.977  1.00  0.00     0.007 A 
ATOM     12  C   UNL A   1      37.002  22.896  23.664  1.00  0.00     0.016 A 
ATOM     13  C   UNL A   1      36.666  24.111  25.591  1.00  0.00     0.016 A 
BRANCH   9  14
ATOM     14  C   UNL A   1      33.822  24.976  22.851  1.00  0.00     0.175 C 
ATOM     15  C   UNL A   1      31.454  23.701  25.052  1.00  0.00     0.102 A 
ATOM     16  C   UNL A   1      31.028  23.138  23.809  1.00  0.00     0.151 A 
ATOM     17  C   UNL A   1      32.162  24.815  24.664  1.00  0.00     0.142 A 
ATOM     18  N   UNL A   1      31.733  23.598  22.767  1.00  0.00    -0.178 NA
ATOM     19  N   UNL A   1      32.558  24.459  23.383  1.00  0.00    -0.237 N 
ATOM     20  N   UNL A   1      32.680  25.975  25.184  1.00  0.00    -0.343 N 
ATOM     21  C   UNL A   1      33.262  26.918  24.315  1.00  0.00     0.026 C 
ATOM     22  H   UNL A   1      32.645  26.145  26.153  1.00  0.00     0.168 HD
ATOM     23  C   UNL A   1      33.625  26.491  23.075  1.00  0.00     0.044 C 
ATOM     24  C   UNL A   1      33.163  28.397  24.593  1.00  0.00     0.055 C 
ATOM     25  C   UNL A   1      32.780  27.243  22.066  1.00  0.00     0.163 C 
ATOM     26  C   UNL A   1      32.083  29.037  23.724  1.00  0.00     0.014 C 
ATOM     27  O   UNL A   1      32.903  27.029  20.863  1.00  0.00    -0.294 OA
ATOM     28  C   UNL A   1      31.617  28.092  22.619  1.00  0.00     0.081 C 
BRANCH  15  29
ATOM     29  C   UNL A   1      31.230  23.197  26.381  1.00  0.00     0.261 C 
ATOM     30  N   UNL A   1      31.755  21.955  26.724  1.00  0.00    -0.322 N 
ATOM     31  H   UNL A   1      31.372  21.577  27.548  1.00  0.00     0.170 HD
ATOM     32  O   UNL A   1      30.554  23.813  27.204  1.00  0.00    -0.269 OA
BRANCH  30  33
ATOM     33  C   UNL A   1      32.734  21.128  26.117  1.00  0.00     0.041 A 
ATOM     34  C   UNL A   1      35.817  18.576  24.425  1.00  0.00     0.044 C 
ATOM     35  C   UNL A   1      34.775  19.484  25.004  1.00  0.00    -0.051 A 
ATOM     36  C   UNL A   1      33.435  19.230  24.744  1.00  0.00     0.005 A 
ATOM     37  C   UNL A   1      35.092  20.584  25.805  1.00  0.00     0.005 A 
ATOM     38  C   UNL A   1      32.444  20.065  25.269  1.00  0.00     0.026 A 
ATOM     39  C   UNL A   1      34.082  21.401  26.349  1.00  0.00     0.026 A 
ENDBRANCH  30  33
ENDBRANCH  15  29
ENDBRANCH   9  14
ENDBRANCH   6   8
ENDBRANCH   5   6
ENDBRANCH   4   5
ENDBRANCH   3   4
ENDBRANCH   2   3
ENDBRANCH   1   2
BRANCH   1  40
ATOM     40  C   UNL A   1      39.499  27.428  28.535  1.00  0.00     0.188 C 
BRANCH  40  41
ATOM     41  O   UNL A   1      38.168  27.859  28.293  1.00  0.00    -0.376 OA
BRANCH  41  42
ATOM     42  C   UNL A   1      37.946  29.227  28.029  1.00  0.00     0.202 C 
BRANCH  42  43
ATOM     43  C   UNL A   1      36.470  29.616  27.903  1.00  0.00     0.261 C 
BRANCH  43  44
ATOM     44  O   UNL A   1      35.965  30.003  29.194  1.00  0.00    -0.460 OA
BRANCH  44  45
ATOM     45  C   UNL A   1      35.979  31.358  29.441  1.00  0.00     0.338 C 
ATOM     46  O   UNL A   1      35.177  32.137  29.028  1.00  0.00    -0.246 OA
BRANCH  45  47
ATOM     47  C   UNL A   1      37.269  31.678  30.155  1.00  0.00     0.060 A 
ATOM     48  C   UNL A   1      38.206  32.563  29.642  1.00  0.00     0.016 A 
ATOM     49  C   UNL A   1      37.691  30.926  31.218  1.00  0.00     0.016 A 
ATOM     50  C   UNL A   1      39.595  32.437  29.997  1.00  0.00     0.010 A 
ATOM     51  C   UNL A   1      39.077  30.864  31.520  1.00  0.00     0.010 A 
ATOM     52  C   UNL A   1      40.126  31.422  30.809  1.00  0.00    -0.014 A 
BRANCH  52  53
ATOM     53  C   UNL A   1      41.599  30.833  30.657  1.00  0.00     0.031 A 
ATOM     54  C   UNL A   1      42.258  29.639  29.883  1.00  0.00     0.074 A 
ATOM     55  C   UNL A   1      42.609  31.610  31.112  1.00  0.00     0.049 A 
ATOM     56  N   UNL A   1      42.659  28.430  30.223  1.00  0.00    -0.248 NA
ATOM     57  C   UNL A   1      42.634  29.886  28.489  1.00  0.00     0.031 C 
ATOM     58  C   UNL A   1      44.046  31.450  30.894  1.00  0.00     0.029 A 
ATOM     59  N   UNL A   1      42.531  32.604  32.072  1.00  0.00    -0.354 N 
ATOM     60  C   UNL A   1      43.284  27.835  29.069  1.00  0.00     0.074 A 
ATOM     61  C   UNL A   1      42.940  28.697  27.966  1.00  0.00     0.031 C 
ATOM     62  C   UNL A   1      44.694  32.072  31.889  1.00  0.00     0.029 A 
ATOM     63  C   UNL A   1      43.698  32.540  32.832  1.00  0.00     0.049 A 
ATOM     64  H   UNL A   1      41.790  33.239  32.197  1.00  0.00     0.167 HD
ATOM     65  C   UNL A   1      44.527  27.234  28.976  1.00  0.00     0.034 A 
ATOM     66  C   UNL A   1      43.609  32.214  34.154  1.00  0.00     0.034 A 
ATOM     67  C   UNL A   1      45.388  27.749  30.002  1.00  0.00     0.049 A 
ATOM     68  C   UNL A   1      44.328  30.935  34.509  1.00  0.00     0.074 A 
ATOM     69  C   UNL A   1      46.404  28.690  29.973  1.00  0.00     0.029 A 
ATOM     70  N   UNL A   1      45.113  27.475  31.310  1.00  0.00    -0.354 N 
ATOM     71  N   UNL A   1      44.856  30.128  33.630  1.00  0.00    -0.248 NA
ATOM     72  C   UNL A   1      44.514  30.449  35.871  1.00  0.00     0.031 C 
ATOM     73  C   UNL A   1      46.740  28.991  31.312  1.00  0.00     0.029 A 
ATOM     74  C   UNL A   1      45.947  28.202  32.123  1.00  0.00     0.049 A 
ATOM     75  H   UNL A   1      44.421  26.850  31.624  1.00  0.00     0.167 HD
ATOM     76  C   UNL A   1      45.369  29.021  34.257  1.00  0.00     0.074 A 
ATOM     77  C   UNL A   1      45.177  29.296  35.665  1.00  0.00     0.031 C 
ATOM     78  C   UNL A   1      45.857  27.966  33.541  1.00  0.00     0.034 A 
BRANCH  65  79
ATOM     79  C   UNL A   1      45.152  26.642  27.680  1.00  0.00     0.023 A 
ATOM     80  C   UNL A   1      45.958  27.431  26.814  1.00  0.00     0.031 A 
ATOM     81  C   UNL A   1      45.009  25.296  27.283  1.00  0.00     0.131 A 
ATOM     82  C   UNL A   1      46.450  26.936  25.582  1.00  0.00     0.055 A 
ATOM     83  C   UNL A   1      45.481  24.806  26.048  1.00  0.00     0.041 A 
ATOM     84  F   UNL A   1      44.395  24.408  28.082  1.00  0.00    -0.206 F 
ATOM     85  C   UNL A   1      46.181  25.633  25.178  1.00  0.00     0.022 A 
BRANCH  82  86
ATOM     86  S   UNL A   1      47.474  28.003  24.515  1.00  0.00     0.124 S 
ATOM     87  O   UNL A   1      48.674  28.190  25.325  1.00  0.00    -0.237 OA
ATOM     88  O   UNL A   1      47.625  27.195  23.310  1.00  0.00    -0.237 OA
ATOM     89  O   UNL A   1      46.656  29.205  24.346  1.00  0.00    -0.744 OA
ENDBRANCH  82  86
ENDBRANCH  65  79
BRANCH  66  90
ATOM     90  C   UNL A   1      42.402  32.807  34.813  1.00  0.00     0.023 A 
ATOM     91  C   UNL A   1      41.192  32.104  34.598  1.00  0.00     0.031 A 
ATOM     92  C   UNL A   1      42.452  33.689  35.903  1.00  0.00     0.131 A 
ATOM     93  C   UNL A   1      40.161  32.143  35.544  1.00  0.00     0.055 A 
ATOM     94  C   UNL A   1      41.371  33.802  36.800  1.00  0.00     0.041 A 
ATOM     95  F   UNL A   1      43.592  34.320  36.221  1.00  0.00    -0.206 F 
ATOM     96  C   UNL A   1      40.238  32.996  36.646  1.00  0.00     0.022 A 
BRANCH  93  97
ATOM     97  S   UNL A   1      38.908  30.819  35.504  1.00  0.00     0.124 S 
ATOM     98  O   UNL A   1      37.862  31.419  34.684  1.00  0.00    -0.237 OA
ATOM     99  O   UNL A   1      39.632  29.701  34.901  1.00  0.00    -0.237 OA
ATOM    100  O   UNL A   1      38.583  30.630  36.914  1.00  0.00    -0.744 OA
ENDBRANCH  93  97
ENDBRANCH  66  90
BRANCH  78 101
ATOM    101  C   UNL A   1      46.227  26.581  34.030  1.00  0.00     0.023 A 
ATOM    102  C   UNL A   1      45.283  25.651  34.460  1.00  0.00     0.031 A 
ATOM    103  C   UNL A   1      47.567  26.101  33.943  1.00  0.00     0.131 A 
ATOM    104  C   UNL A   1      45.663  24.347  34.816  1.00  0.00     0.055 A 
ATOM    105  C   UNL A   1      47.926  24.777  34.202  1.00  0.00     0.041 A 
ATOM    106  F   UNL A   1      48.587  26.896  33.583  1.00  0.00    -0.206 F 
ATOM    107  C   UNL A   1      46.969  23.888  34.656  1.00  0.00     0.022 A 
BRANCH 104 108
ATOM    108  S   UNL A   1      44.410  23.292  35.578  1.00  0.00     0.124 S 
ATOM    109  O   UNL A   1      44.220  22.267  34.554  1.00  0.00    -0.237 OA
ATOM    110  O   UNL A   1      45.078  22.851  36.798  1.00  0.00    -0.237 OA
ATOM    111  O   UNL A   1      43.275  24.189  35.776  1.00  0.00    -0.744 OA
ENDBRANCH 104 108
ENDBRANCH  78 101
ENDBRANCH  52  53
ENDBRANCH  45  47
ENDBRANCH  44  45
ENDBRANCH  43  44
ENDBRANCH  42  43
ENDBRANCH  41  42
ENDBRANCH  40  41
ENDBRANCH   1  40
TORSDOF 23
ENDMDL
MODEL 3
REMARK VINA RESULT:     -10.1      3.307      8.092
REMARK SMILES Cc1ccc(NC(=O)c2cnn3c2NC2=C(C(=O)CCC2)[C@H]3c2ccc(C(=O)OCCOCCOCCOC(=O)c3ccc(-c4c5nc(c(-c6cc(S(=O)(=O)[O-])ccc6F)c6ccc([nH]6)c(-c6cc(S(=O)(=O)[O-])ccc6F)c6nc(c(-c7cc(S(=O)(=O)[O-])ccc7F)c7ccc4[nH]7)C=C6)C=C5)cc3)cc2)cc1
REMARK SMILES IDX 33 1 32 2 31 3 30 4 29 5 27 6 28 7 26 8 23 9 24 10 105 11
REMARK SMILES IDX 25 12 104 13 22 14 9 15 10 16 13 17 11 18 12 19 14 20 15 21
REMARK SMILES IDX 16 23 21 24 17 25 20 26 18 27 19 28 7 29 6 30 8 32 5 33 1 34
REMARK SMILES IDX 2 35 3 36 107 37 4 38 106 39 34 40 35 41 36 42 37 43 38 44
REMARK SMILES IDX 39 45 40 46 41 47 42 48 103 49 43 50 102 51 44 52 45 53
REMARK SMILES IDX 46 54 96 55 47 56 101 57 95 58 97 59 48 60 100 61 94 62
REMARK SMILES IDX 93 63 49 65 81 66 61 67 80 68 62 69 65 70 79 71 98 72 63 73
REMARK SMILES IDX 64 74 78 76 99 77 66 78 50 79 51 80 59 81 52 82 58 83 60 84
REMARK SMILES IDX 57 85 53 86 54 87 55 88 56 89 82 90 83 91 91 92 84 93 90 94
REMARK SMILES IDX 92 95 89 96 85 97 86 98 87 99 88 100 67 101 68 102 76 103
REMARK SMILES IDX 69 104 75 105 77 106 74 107 70 108 71 109 72 110 73 111
REMARK H PARENT 14 22 6 31 97 64 65 75
REMARK Flexibility Score: inf
ROOT
ATOM      1  C   UNL A   1      40.561  26.331  27.096  1.00  0.00     0.188 C 
ENDROOT
BRANCH   1   2
ATOM      2  O   UNL A   1      41.436  25.352  27.720  1.00  0.00    -0.376 OA
BRANCH   2   3
ATOM      3  C   UNL A   1      40.806  24.079  27.937  1.00  0.00     0.202 C 
BRANCH   3   4
ATOM      4  C   UNL A   1      40.071  23.377  26.719  1.00  0.00     0.261 C 
BRANCH   4   5
ATOM      5  O   UNL A   1      39.177  22.144  26.738  1.00  0.00    -0.460 OA
BRANCH   5   6
ATOM      6  C   UNL A   1      38.289  21.871  25.740  1.00  0.00     0.338 C 
ATOM      7  O   UNL A   1      38.144  20.709  25.396  1.00  0.00    -0.246 OA
BRANCH   6   8
ATOM      8  C   UNL A   1      37.513  23.015  24.927  1.00  0.00     0.060 A 
ATOM      9  C   UNL A   1      34.978  24.143  23.720  1.00  0.00    -0.019 A 
ATOM     10  C   UNL A   1      35.746  23.174  23.109  1.00  0.00     0.007 A 
ATOM     11  C   UNL A   1      35.477  24.503  24.996  1.00  0.00     0.007 A 
ATOM     12  C   UNL A   1      36.997  22.751  23.642  1.00  0.00     0.016 A 
ATOM     13  C   UNL A   1      36.694  23.932  25.596  1.00  0.00     0.016 A 
BRANCH   9  14
ATOM     14  C   UNL A   1      33.865  24.921  22.883  1.00  0.00     0.175 C 
ATOM     15  C   UNL A   1      31.479  23.695  25.092  1.00  0.00     0.102 A 
ATOM     16  C   UNL A   1      31.024  23.160  23.847  1.00  0.00     0.151 A 
ATOM     17  C   UNL A   1      32.218  24.791  24.710  1.00  0.00     0.142 A 
ATOM     18  N   UNL A   1      31.733  23.610  22.803  1.00  0.00    -0.178 NA
ATOM     19  N   UNL A   1      32.590  24.438  23.421  1.00  0.00    -0.237 N 
ATOM     20  N   UNL A   1      32.776  25.929  25.238  1.00  0.00    -0.343 N 
ATOM     21  C   UNL A   1      33.379  26.863  24.373  1.00  0.00     0.026 C 
ATOM     22  H   UNL A   1      32.755  26.089  26.209  1.00  0.00     0.168 HD
ATOM     23  C   UNL A   1      33.717  26.440  23.126  1.00  0.00     0.044 C 
ATOM     24  C   UNL A   1      33.328  28.341  24.669  1.00  0.00     0.055 C 
ATOM     25  C   UNL A   1      32.886  27.228  22.133  1.00  0.00     0.163 C 
ATOM     26  C   UNL A   1      32.261  29.024  23.818  1.00  0.00     0.014 C 
ATOM     27  O   UNL A   1      32.991  27.025  20.926  1.00  0.00    -0.294 OA
ATOM     28  C   UNL A   1      31.755  28.107  22.706  1.00  0.00     0.081 C 
BRANCH  15  29
ATOM     29  C   UNL A   1      31.252  23.183  26.418  1.00  0.00     0.261 C 
ATOM     30  N   UNL A   1      31.688  21.899  26.723  1.00  0.00    -0.322 N 
ATOM     31  H   UNL A   1      31.299  21.535  27.551  1.00  0.00     0.170 HD
ATOM     32  O   UNL A   1      30.647  23.833  27.270  1.00  0.00    -0.269 OA
BRANCH  30  33
ATOM     33  C   UNL A   1      32.584  21.011  26.074  1.00  0.00     0.041 A 
ATOM     34  C   UNL A   1      35.435  18.292  24.241  1.00  0.00     0.044 C 
ATOM     35  C   UNL A   1      34.472  19.258  24.863  1.00  0.00    -0.051 A 
ATOM     36  C   UNL A   1      33.113  18.975  24.826  1.00  0.00     0.005 A 
ATOM     37  C   UNL A   1      34.882  20.438  25.488  1.00  0.00     0.005 A 
ATOM     38  C   UNL A   1      32.193  19.863  25.395  1.00  0.00     0.026 A 
ATOM     39  C   UNL A   1      33.947  21.308  26.080  1.00  0.00     0.026 A 
ENDBRANCH  30  33
ENDBRANCH  15  29
ENDBRANCH   9  14
ENDBRANCH   6   8
ENDBRANCH   5   6
ENDBRANCH   4   5
ENDBRANCH   3   4
ENDBRANCH   2   3
ENDBRANCH   1   2
BRANCH   1  40
ATOM     40  C   UNL A   1      40.319  27.574  27.966  1.00  0.00     0.188 C 
BRANCH  40  41
ATOM     41  O   UNL A   1      38.958  27.967  27.873  1.00  0.00    -0.376 OA
BRANCH  41  42
ATOM     42  C   UNL A   1      38.604  29.257  28.320  1.00  0.00     0.202 C 
BRANCH  42  43
ATOM     43  C   UNL A   1      37.346  29.302  29.192  1.00  0.00     0.261 C 
BRANCH  43  44
ATOM     44  O   UNL A   1      37.708  29.672  30.536  1.00  0.00    -0.460 OA
BRANCH  44  45
ATOM     45  C   UNL A   1      37.915  31.019  30.732  1.00  0.00     0.338 C 
ATOM     46  O   UNL A   1      37.147  31.880  30.434  1.00  0.00    -0.246 OA
BRANCH  45  47
ATOM     47  C   UNL A   1      39.335  31.196  31.208  1.00  0.00     0.060 A 
ATOM     48  C   UNL A   1      40.294  31.866  30.462  1.00  0.00     0.016 A 
ATOM     49  C   UNL A   1      39.812  30.494  32.282  1.00  0.00     0.016 A 
ATOM     50  C   UNL A   1      41.690  31.554  30.626  1.00  0.00     0.010 A 
ATOM     51  C   UNL A   1      41.205  30.241  32.387  1.00  0.00     0.010 A 
ATOM     52  C   UNL A   1      42.194  30.552  31.470  1.00  0.00    -0.014 A 
BRANCH  52  53
ATOM     53  C   UNL A   1      43.524  29.723  31.179  1.00  0.00     0.031 A 
ATOM     54  C   UNL A   1      43.887  28.425  30.378  1.00  0.00     0.074 A 
ATOM     55  C   UNL A   1      44.693  30.327  31.499  1.00  0.00     0.049 A 
ATOM     56  N   UNL A   1      44.119  27.171  30.710  1.00  0.00    -0.248 NA
ATOM     57  C   UNL A   1      44.142  28.587  28.944  1.00  0.00     0.031 C 
ATOM     58  C   UNL A   1      46.050  29.926  31.132  1.00  0.00     0.029 A 
ATOM     59  N   UNL A   1      44.887  31.332  32.429  1.00  0.00    -0.354 N 
ATOM     60  C   UNL A   1      44.506  26.465  29.515  1.00  0.00     0.074 A 
ATOM     61  C   UNL A   1      44.188  27.357  28.429  1.00  0.00     0.031 C 
ATOM     62  C   UNL A   1      46.899  30.443  32.032  1.00  0.00     0.029 A 
ATOM     63  C   UNL A   1      46.104  31.084  33.061  1.00  0.00     0.049 A 
ATOM     64  H   UNL A   1      44.278  32.084  32.613  1.00  0.00     0.167 HD
ATOM     65  C   UNL A   1      45.614  25.663  29.308  1.00  0.00     0.034 A 
ATOM     66  C   UNL A   1      46.110  30.795  34.395  1.00  0.00     0.034 A 
ATOM     67  C   UNL A   1      46.657  26.040  30.219  1.00  0.00     0.049 A 
ATOM     68  C   UNL A   1      46.644  29.418  34.711  1.00  0.00     0.074 A 
ATOM     69  C   UNL A   1      47.804  26.798  30.052  1.00  0.00     0.029 A 
ATOM     70  N   UNL A   1      46.488  25.834  31.558  1.00  0.00    -0.354 N 
ATOM     71  N   UNL A   1      46.930  28.524  33.806  1.00  0.00    -0.248 NA
ATOM     72  C   UNL A   1      46.897  28.927  36.060  1.00  0.00     0.031 C 
ATOM     73  C   UNL A   1      48.332  27.056  31.337  1.00  0.00     0.029 A 
ATOM     74  C   UNL A   1      47.514  26.422  32.253  1.00  0.00     0.049 A 
ATOM     75  H   UNL A   1      45.741  25.338  31.964  1.00  0.00     0.167 HD
ATOM     76  C   UNL A   1      47.321  27.355  34.410  1.00  0.00     0.074 A 
ATOM     77  C   UNL A   1      47.334  27.677  35.820  1.00  0.00     0.031 C 
ATOM     78  C   UNL A   1      47.546  26.223  33.679  1.00  0.00     0.034 A 
BRANCH  65  79
ATOM     79  C   UNL A   1      45.985  24.957  27.972  1.00  0.00     0.023 A 
ATOM     80  C   UNL A   1      46.796  25.595  26.994  1.00  0.00     0.031 A 
ATOM     81  C   UNL A   1      45.592  23.643  27.644  1.00  0.00     0.131 A 
ATOM     82  C   UNL A   1      47.058  25.007  25.733  1.00  0.00     0.055 A 
ATOM     83  C   UNL A   1      45.836  23.064  26.381  1.00  0.00     0.041 A 
ATOM     84  F   UNL A   1      44.947  22.876  28.537  1.00  0.00    -0.206 F 
ATOM     85  C   UNL A   1      46.548  23.755  25.408  1.00  0.00     0.022 A 
BRANCH  82  86
ATOM     86  S   UNL A   1      48.102  25.882  24.519  1.00  0.00     0.124 S 
ATOM     87  O   UNL A   1      49.413  25.853  25.161  1.00  0.00    -0.237 OA
ATOM     88  O   UNL A   1      47.949  25.063  23.322  1.00  0.00    -0.237 OA
ATOM     89  O   UNL A   1      47.490  27.209  24.434  1.00  0.00    -0.744 OA
ENDBRANCH  82  86
ENDBRANCH  65  79
BRANCH  66  90
ATOM     90  C   UNL A   1      45.098  31.590  35.160  1.00  0.00     0.023 A 
ATOM     91  C   UNL A   1      45.431  32.951  35.365  1.00  0.00     0.031 A 
ATOM     92  C   UNL A   1      43.750  31.227  35.298  1.00  0.00     0.131 A 
ATOM     93  C   UNL A   1      44.432  33.921  35.506  1.00  0.00     0.055 A 
ATOM     94  C   UNL A   1      42.756  32.195  35.542  1.00  0.00     0.041 A 
ATOM     95  F   UNL A   1      43.348  29.976  35.032  1.00  0.00    -0.206 F 
ATOM     96  C   UNL A   1      43.090  33.553  35.603  1.00  0.00     0.022 A 
BRANCH  93  97
ATOM     97  S   UNL A   1      44.877  35.663  35.201  1.00  0.00     0.124 S 
ATOM     98  O   UNL A   1      44.576  36.282  36.486  1.00  0.00    -0.237 OA
ATOM     99  O   UNL A   1      46.294  35.582  34.846  1.00  0.00    -0.237 OA
ATOM    100  O   UNL A   1      44.005  36.036  34.092  1.00  0.00    -0.744 OA
ENDBRANCH  93  97
ENDBRANCH  66  90
BRANCH  78 101
ATOM    101  C   UNL A   1      47.734  24.803  34.169  1.00  0.00     0.023 A 
ATOM    102  C   UNL A   1      46.679  24.005  34.606  1.00  0.00     0.031 A 
ATOM    103  C   UNL A   1      49.000  24.152  34.077  1.00  0.00     0.131 A 
ATOM    104  C   UNL A   1      46.887  22.662  34.963  1.00  0.00     0.055 A 
ATOM    105  C   UNL A   1      49.184  22.792  34.337  1.00  0.00     0.041 A 
ATOM    106  F   UNL A   1      50.112  24.807  33.711  1.00  0.00    -0.206 F 
ATOM    107  C   UNL A   1      48.122  22.037  34.798  1.00  0.00     0.022 A 
BRANCH 104 108
ATOM    108  S   UNL A   1      45.512  21.781  35.733  1.00  0.00     0.124 S 
ATOM    109  O   UNL A   1      45.210  20.763  34.730  1.00  0.00    -0.237 OA
ATOM    110  O   UNL A   1      46.112  21.292  36.970  1.00  0.00    -0.237 OA
ATOM    111  O   UNL A   1      44.489  22.811  35.899  1.00  0.00    -0.744 OA
ENDBRANCH 104 108
ENDBRANCH  78 101
ENDBRANCH  52  53
ENDBRANCH  45  47
ENDBRANCH  44  45
ENDBRANCH  43  44
ENDBRANCH  42  43
ENDBRANCH  41  42
ENDBRANCH  40  41
ENDBRANCH   1  40
TORSDOF 23
ENDMDL
