MODEL 1
REMARK VINA RESULT:     -10.5      0.000      0.000
REMARK SMILES C[C@@H](C(=O)OCCOCCOCCOC(=O)c1ccc(-c2c3nc(c(-c4cc(S(=O)(=O)[O-])ccc4F)c4ccc([nH]4)c(-c4cc(S(=O)(=O)[O-])ccc4F)c4nc(c(-c5cc(S(=O)(=O)[O-])ccc5F)c5ccc2[nH]5)C=C4)C=C3)cc1)c1ccc(O[C@H]2CCCC2=O)cc1F
REMARK SMILES IDX 9 1 8 2 7 3 6 4 5 5 3 6 4 7 2 8 1 9 80 10 81 11 92 12 82 13
REMARK SMILES IDX 91 14 93 15 83 16 84 17 85 18 86 19 89 20 87 21 88 22 90 23
REMARK SMILES IDX 10 24 11 25 12 26 13 27 14 28 15 29 16 30 17 31 18 32 79 33
REMARK SMILES IDX 19 34 78 35 20 36 21 37 22 38 72 39 23 40 77 41 71 42 73 43
REMARK SMILES IDX 24 44 76 45 70 46 69 47 25 49 57 50 37 51 56 52 38 53 41 54
REMARK SMILES IDX 55 55 74 56 39 57 40 58 54 60 75 61 42 62 26 63 27 64 35 65
REMARK SMILES IDX 28 66 34 67 36 68 33 69 29 70 30 71 31 72 32 73 58 74 59 75
REMARK SMILES IDX 67 76 60 77 66 78 68 79 65 80 61 81 62 82 63 83 64 84 43 85
REMARK SMILES IDX 44 86 52 87 45 88 51 89 53 90 50 91 46 92 47 93 48 94 49 95
REMARK H PARENT 73 48 41 59
REMARK Flexibility Score: inf
ROOT
ATOM      1  C   UNL A   1      29.655  30.064  23.442  1.00  0.00     0.188 C 
ENDROOT
BRANCH   1   2
ATOM      2  O   UNL A   1      30.603  29.284  22.726  1.00  0.00    -0.376 OA
BRANCH   2   3
ATOM      3  C   UNL A   1      30.598  27.873  22.896  1.00  0.00     0.202 C 
BRANCH   3   4
ATOM      4  C   UNL A   1      29.398  27.173  23.561  1.00  0.00     0.261 C 
BRANCH   4   5
ATOM      5  O   UNL A   1      29.690  26.321  24.691  1.00  0.00    -0.463 OA
BRANCH   5   6
ATOM      6  C   UNL A   1      30.407  25.196  24.420  1.00  0.00     0.313 C 
ATOM      7  O   UNL A   1      30.141  24.435  23.493  1.00  0.00    -0.252 OA
BRANCH   6   8
ATOM      8  C   UNL A   1      31.603  24.947  25.362  1.00  0.00     0.129 C 
ATOM      9  C   UNL A   1      32.644  26.057  25.541  1.00  0.00     0.025 C 
BRANCH   8  10
ATOM     10  C   UNL A   1      32.211  23.584  25.067  1.00  0.00     0.002 A 
ATOM     11  C   UNL A   1      32.154  22.513  25.966  1.00  0.00     0.011 A 
ATOM     12  C   UNL A   1      32.993  23.419  23.918  1.00  0.00     0.130 A 
ATOM     13  C   UNL A   1      32.906  21.358  25.736  1.00  0.00     0.047 A 
ATOM     14  C   UNL A   1      33.732  22.260  23.680  1.00  0.00     0.086 A 
ATOM     15  F   UNL A   1      33.064  24.415  23.022  1.00  0.00    -0.207 F 
ATOM     16  C   UNL A   1      33.705  21.223  24.600  1.00  0.00     0.123 A 
BRANCH  16  17
ATOM     17  O   UNL A   1      34.422  20.070  24.578  1.00  0.00    -0.483 OA
BRANCH  17  18
ATOM     18  C   UNL A   1      33.814  18.798  24.577  1.00  0.00     0.239 C 
ATOM     19  C   UNL A   1      32.695  18.677  23.533  1.00  0.00     0.054 C 
ATOM     20  C   UNL A   1      34.613  17.513  24.401  1.00  0.00     0.173 C 
ATOM     21  C   UNL A   1      33.072  17.510  22.627  1.00  0.00     0.012 C 
ATOM     22  C   UNL A   1      33.912  16.561  23.471  1.00  0.00     0.080 C 
ATOM     23  O   UNL A   1      35.708  17.292  24.903  1.00  0.00    -0.296 OA
ENDBRANCH  17  18
ENDBRANCH  16  17
ENDBRANCH   8  10
ENDBRANCH   6   8
ENDBRANCH   5   6
ENDBRANCH   4   5
ENDBRANCH   3   4
ENDBRANCH   2   3
ENDBRANCH   1   2
BRANCH   1  24
ATOM     24  C   UNL A   1      30.160  30.987  24.567  1.00  0.00     0.188 C 
BRANCH  24  25
ATOM     25  O   UNL A   1      31.362  30.557  25.166  1.00  0.00    -0.376 OA
BRANCH  25  26
ATOM     26  C   UNL A   1      31.607  30.953  26.501  1.00  0.00     0.202 C 
BRANCH  26  27
ATOM     27  C   UNL A   1      31.490  32.438  26.894  1.00  0.00     0.261 C 
BRANCH  27  28
ATOM     28  O   UNL A   1      32.675  33.246  26.803  1.00  0.00    -0.460 OA
BRANCH  28  29
ATOM     29  C   UNL A   1      33.111  33.848  27.933  1.00  0.00     0.338 C 
ATOM     30  O   UNL A   1      32.507  34.693  28.582  1.00  0.00    -0.246 OA
BRANCH  29  31
ATOM     31  C   UNL A   1      34.342  33.155  28.380  1.00  0.00     0.060 A 
ATOM     32  C   UNL A   1      34.275  31.793  28.704  1.00  0.00     0.016 A 
ATOM     33  C   UNL A   1      35.560  33.834  28.475  1.00  0.00     0.016 A 
ATOM     34  C   UNL A   1      35.421  31.114  29.129  1.00  0.00     0.010 A 
ATOM     35  C   UNL A   1      36.705  33.154  28.917  1.00  0.00     0.010 A 
ATOM     36  C   UNL A   1      36.642  31.790  29.254  1.00  0.00    -0.014 A 
BRANCH  36  37
ATOM     37  C   UNL A   1      37.798  31.117  29.909  1.00  0.00     0.031 A 
ATOM     38  C   UNL A   1      38.114  31.472  31.337  1.00  0.00     0.074 A 
ATOM     39  C   UNL A   1      38.535  30.185  29.276  1.00  0.00     0.049 A 
ATOM     40  N   UNL A   1      39.100  31.075  32.097  1.00  0.00    -0.248 NA
ATOM     41  C   UNL A   1      37.180  32.400  31.991  1.00  0.00     0.031 C 
ATOM     42  C   UNL A   1      38.293  29.693  27.923  1.00  0.00     0.029 A 
ATOM     43  N   UNL A   1      39.641  29.481  29.695  1.00  0.00    -0.354 N 
ATOM     44  C   UNL A   1      38.913  31.708  33.320  1.00  0.00     0.074 A 
ATOM     45  C   UNL A   1      37.730  32.534  33.187  1.00  0.00     0.031 C 
ATOM     46  C   UNL A   1      39.223  28.769  27.621  1.00  0.00     0.029 A 
ATOM     47  C   UNL A   1      40.163  28.642  28.735  1.00  0.00     0.049 A 
ATOM     48  H   UNL A   1      40.024  29.569  30.598  1.00  0.00     0.167 HD
ATOM     49  C   UNL A   1      39.655  31.613  34.450  1.00  0.00     0.034 A 
ATOM     50  C   UNL A   1      41.285  27.890  28.742  1.00  0.00     0.034 A 
ATOM     51  C   UNL A   1      40.853  30.816  34.563  1.00  0.00     0.049 A 
ATOM     52  C   UNL A   1      42.171  27.898  29.970  1.00  0.00     0.074 A 
ATOM     53  C   UNL A   1      41.696  30.677  35.652  1.00  0.00     0.029 A 
ATOM     54  N   UNL A   1      41.390  30.037  33.545  1.00  0.00    -0.354 N 
ATOM     55  N   UNL A   1      41.996  28.517  31.116  1.00  0.00    -0.248 NA
ATOM     56  C   UNL A   1      43.409  27.107  29.905  1.00  0.00     0.031 C 
ATOM     57  C   UNL A   1      42.781  29.881  35.269  1.00  0.00     0.029 A 
ATOM     58  C   UNL A   1      42.569  29.444  33.971  1.00  0.00     0.049 A 
ATOM     59  H   UNL A   1      40.992  29.923  32.652  1.00  0.00     0.167 HD
ATOM     60  C   UNL A   1      43.084  28.163  31.912  1.00  0.00     0.074 A 
ATOM     61  C   UNL A   1      43.898  27.263  31.126  1.00  0.00     0.031 C 
ATOM     62  C   UNL A   1      43.380  28.546  33.182  1.00  0.00     0.034 A 
BRANCH  49  63
ATOM     63  C   UNL A   1      39.226  32.456  35.626  1.00  0.00     0.023 A 
ATOM     64  C   UNL A   1      39.619  33.800  35.754  1.00  0.00     0.031 A 
ATOM     65  C   UNL A   1      38.457  31.892  36.659  1.00  0.00     0.131 A 
ATOM     66  C   UNL A   1      39.309  34.509  36.924  1.00  0.00     0.055 A 
ATOM     67  C   UNL A   1      38.078  32.630  37.782  1.00  0.00     0.041 A 
ATOM     68  F   UNL A   1      38.077  30.606  36.605  1.00  0.00    -0.206 F 
ATOM     69  C   UNL A   1      38.519  33.942  37.927  1.00  0.00     0.022 A 
BRANCH  66  70
ATOM     70  S   UNL A   1      40.095  36.123  37.189  1.00  0.00     0.124 S 
ATOM     71  O   UNL A   1      41.430  35.731  37.633  1.00  0.00    -0.237 OA
ATOM     72  O   UNL A   1      40.014  36.734  35.868  1.00  0.00    -0.237 OA
ATOM     73  O   UNL A   1      39.262  36.744  38.217  1.00  0.00    -0.744 OA
ENDBRANCH  66  70
ENDBRANCH  49  63
BRANCH  50  74
ATOM     74  C   UNL A   1      41.691  27.111  27.532  1.00  0.00     0.023 A 
ATOM     75  C   UNL A   1      41.496  25.722  27.461  1.00  0.00     0.031 A 
ATOM     76  C   UNL A   1      42.369  27.732  26.467  1.00  0.00     0.131 A 
ATOM     77  C   UNL A   1      42.018  24.994  26.379  1.00  0.00     0.055 A 
ATOM     78  C   UNL A   1      42.829  27.012  25.362  1.00  0.00     0.041 A 
ATOM     79  F   UNL A   1      42.605  29.053  26.490  1.00  0.00    -0.206 F 
ATOM     80  C   UNL A   1      42.667  25.632  25.320  1.00  0.00     0.022 A 
BRANCH  77  81
ATOM     81  S   UNL A   1      41.931  23.181  26.436  1.00  0.00     0.124 S 
ATOM     82  O   UNL A   1      40.494  22.954  26.339  1.00  0.00    -0.237 OA
ATOM     83  O   UNL A   1      42.716  22.801  25.266  1.00  0.00    -0.237 OA
ATOM     84  O   UNL A   1      42.530  22.850  27.728  1.00  0.00    -0.744 OA
ENDBRANCH  77  81
ENDBRANCH  50  74
BRANCH  62  85
ATOM     85  C   UNL A   1      44.610  27.944  33.826  1.00  0.00     0.023 A 
ATOM     86  C   UNL A   1      44.562  26.746  34.560  1.00  0.00     0.031 A 
ATOM     87  C   UNL A   1      45.857  28.583  33.693  1.00  0.00     0.131 A 
ATOM     88  C   UNL A   1      45.724  26.254  35.177  1.00  0.00     0.055 A 
ATOM     89  C   UNL A   1      47.022  28.055  34.251  1.00  0.00     0.041 A 
ATOM     90  F   UNL A   1      45.966  29.733  33.008  1.00  0.00    -0.206 F 
ATOM     91  C   UNL A   1      46.957  26.889  35.009  1.00  0.00     0.022 A 
BRANCH  88  92
ATOM     92  S   UNL A   1      45.590  24.821  36.281  1.00  0.00     0.124 S 
ATOM     93  O   UNL A   1      46.421  23.834  35.599  1.00  0.00    -0.237 OA
ATOM     94  O   UNL A   1      46.120  25.342  37.536  1.00  0.00    -0.237 OA
ATOM     95  O   UNL A   1      44.158  24.526  36.288  1.00  0.00    -0.744 OA
ENDBRANCH  88  92
ENDBRANCH  62  85
ENDBRANCH  36  37
ENDBRANCH  29  31
ENDBRANCH  28  29
ENDBRANCH  27  28
ENDBRANCH  26  27
ENDBRANCH  25  26
ENDBRANCH  24  25
ENDBRANCH   1  24
TORSDOF 23
ENDMDL
MODEL 2
REMARK VINA RESULT:     -10.3      2.922      3.916
REMARK SMILES C[C@@H](C(=O)OCCOCCOCCOC(=O)c1ccc(-c2c3nc(c(-c4cc(S(=O)(=O)[O-])ccc4F)c4ccc([nH]4)c(-c4cc(S(=O)(=O)[O-])ccc4F)c4nc(c(-c5cc(S(=O)(=O)[O-])ccc5F)c5ccc2[nH]5)C=C4)C=C3)cc1)c1ccc(O[C@H]2CCCC2=O)cc1F
REMARK SMILES IDX 9 1 8 2 7 3 6 4 5 5 3 6 4 7 2 8 1 9 80 10 81 11 92 12 82 13
REMARK SMILES IDX 91 14 93 15 83 16 84 17 85 18 86 19 89 20 87 21 88 22 90 23
REMARK SMILES IDX 10 24 11 25 12 26 13 27 14 28 15 29 16 30 17 31 18 32 79 33
REMARK SMILES IDX 19 34 78 35 20 36 21 37 22 38 72 39 23 40 77 41 71 42 73 43
REMARK SMILES IDX 24 44 76 45 70 46 69 47 25 49 57 50 37 51 56 52 38 53 41 54
REMARK SMILES IDX 55 55 74 56 39 57 40 58 54 60 75 61 42 62 26 63 27 64 35 65
REMARK SMILES IDX 28 66 34 67 36 68 33 69 29 70 30 71 31 72 32 73 58 74 59 75
REMARK SMILES IDX 67 76 60 77 66 78 68 79 65 80 61 81 62 82 63 83 64 84 43 85
REMARK SMILES IDX 44 86 52 87 45 88 51 89 53 90 50 91 46 92 47 93 48 94 49 95
REMARK H PARENT 73 48 41 59
REMARK Flexibility Score: inf
ROOT
ATOM      1  C   UNL A   1      30.109  29.834  23.748  1.00  0.00     0.188 C 
ENDROOT
BRANCH   1   2
ATOM      2  O   UNL A   1      30.590  29.133  22.609  1.00  0.00    -0.376 OA
BRANCH   2   3
ATOM      3  C   UNL A   1      30.291  27.749  22.479  1.00  0.00     0.202 C 
BRANCH   3   4
ATOM      4  C   UNL A   1      29.647  26.979  23.648  1.00  0.00     0.261 C 
BRANCH   4   5
ATOM      5  O   UNL A   1      30.546  26.278  24.534  1.00  0.00    -0.463 OA
BRANCH   5   6
ATOM      6  C   UNL A   1      31.411  25.408  23.942  1.00  0.00     0.313 C 
ATOM      7  O   UNL A   1      31.048  24.509  23.189  1.00  0.00    -0.252 OA
BRANCH   6   8
ATOM      8  C   UNL A   1      32.898  25.643  24.277  1.00  0.00     0.129 C 
ATOM      9  C   UNL A   1      33.724  26.555  23.364  1.00  0.00     0.025 C 
BRANCH   8  10
ATOM     10  C   UNL A   1      33.570  24.312  24.579  1.00  0.00     0.002 A 
ATOM     11  C   UNL A   1      34.302  23.595  23.625  1.00  0.00     0.011 A 
ATOM     12  C   UNL A   1      33.333  23.690  25.810  1.00  0.00     0.130 A 
ATOM     13  C   UNL A   1      34.716  22.287  23.891  1.00  0.00     0.047 A 
ATOM     14  C   UNL A   1      33.760  22.390  26.082  1.00  0.00     0.086 A 
ATOM     15  F   UNL A   1      32.649  24.347  26.758  1.00  0.00    -0.207 F 
ATOM     16  C   UNL A   1      34.445  21.672  25.114  1.00  0.00     0.123 A 
BRANCH  16  17
ATOM     17  O   UNL A   1      34.855  20.378  25.170  1.00  0.00    -0.483 OA
BRANCH  17  18
ATOM     18  C   UNL A   1      34.190  19.341  24.485  1.00  0.00     0.239 C 
ATOM     19  C   UNL A   1      35.019  18.050  24.413  1.00  0.00     0.054 C 
ATOM     20  C   UNL A   1      32.802  18.857  24.887  1.00  0.00     0.173 C 
ATOM     21  C   UNL A   1      34.174  16.956  25.056  1.00  0.00     0.012 C 
ATOM     22  C   UNL A   1      32.718  17.356  24.849  1.00  0.00     0.080 C 
ATOM     23  O   UNL A   1      31.882  19.582  25.246  1.00  0.00    -0.296 OA
ENDBRANCH  17  18
ENDBRANCH  16  17
ENDBRANCH   8  10
ENDBRANCH   6   8
ENDBRANCH   5   6
ENDBRANCH   4   5
ENDBRANCH   3   4
ENDBRANCH   2   3
ENDBRANCH   1   2
BRANCH   1  24
ATOM     24  C   UNL A   1      31.101  30.176  24.876  1.00  0.00     0.188 C 
BRANCH  24  25
ATOM     25  O   UNL A   1      32.136  29.231  25.035  1.00  0.00    -0.376 OA
BRANCH  25  26
ATOM     26  C   UNL A   1      32.425  28.791  26.347  1.00  0.00     0.202 C 
BRANCH  26  27
ATOM     27  C   UNL A   1      32.877  29.806  27.414  1.00  0.00     0.261 C 
BRANCH  27  28
ATOM     28  O   UNL A   1      34.009  30.637  27.106  1.00  0.00    -0.460 OA
BRANCH  28  29
ATOM     29  C   UNL A   1      34.627  31.261  28.135  1.00  0.00     0.338 C 
ATOM     30  O   UNL A   1      34.146  32.138  28.842  1.00  0.00    -0.246 OA
BRANCH  29  31
ATOM     31  C   UNL A   1      35.899  30.553  28.408  1.00  0.00     0.060 A 
ATOM     32  C   UNL A   1      36.013  29.786  29.575  1.00  0.00     0.016 A 
ATOM     33  C   UNL A   1      36.977  30.634  27.520  1.00  0.00     0.016 A 
ATOM     34  C   UNL A   1      37.202  29.108  29.858  1.00  0.00     0.010 A 
ATOM     35  C   UNL A   1      38.173  29.965  27.815  1.00  0.00     0.010 A 
ATOM     36  C   UNL A   1      38.298  29.202  28.990  1.00  0.00    -0.014 A 
BRANCH  36  37
ATOM     37  C   UNL A   1      39.621  28.658  29.404  1.00  0.00     0.031 A 
ATOM     38  C   UNL A   1      40.379  29.376  30.488  1.00  0.00     0.074 A 
ATOM     39  C   UNL A   1      40.132  27.534  28.867  1.00  0.00     0.049 A 
ATOM     40  N   UNL A   1      41.570  29.138  30.972  1.00  0.00    -0.248 NA
ATOM     41  C   UNL A   1      39.689  30.516  31.109  1.00  0.00     0.031 C 
ATOM     42  C   UNL A   1      39.472  26.701  27.866  1.00  0.00     0.029 A 
ATOM     43  N   UNL A   1      41.331  26.898  29.093  1.00  0.00    -0.354 N 
ATOM     44  C   UNL A   1      41.778  30.102  31.952  1.00  0.00     0.074 A 
ATOM     45  C   UNL A   1      40.598  30.941  31.972  1.00  0.00     0.031 C 
ATOM     46  C   UNL A   1      40.274  25.665  27.563  1.00  0.00     0.029 A 
ATOM     47  C   UNL A   1      41.529  25.788  28.303  1.00  0.00     0.049 A 
ATOM     48  H   UNL A   1      41.987  27.208  29.759  1.00  0.00     0.167 HD
ATOM     49  C   UNL A   1      42.853  30.274  32.761  1.00  0.00     0.034 A 
ATOM     50  C   UNL A   1      42.610  24.989  28.167  1.00  0.00     0.034 A 
ATOM     51  C   UNL A   1      44.040  29.456  32.708  1.00  0.00     0.049 A 
ATOM     52  C   UNL A   1      43.849  25.277  28.988  1.00  0.00     0.074 A 
ATOM     53  C   UNL A   1      45.197  29.567  33.460  1.00  0.00     0.029 A 
ATOM     54  N   UNL A   1      44.233  28.386  31.843  1.00  0.00    -0.354 N 
ATOM     55  N   UNL A   1      44.045  26.204  29.898  1.00  0.00    -0.248 NA
ATOM     56  C   UNL A   1      45.016  24.411  28.761  1.00  0.00     0.031 C 
ATOM     57  C   UNL A   1      46.115  28.620  32.997  1.00  0.00     0.029 A 
ATOM     58  C   UNL A   1      45.500  27.852  32.021  1.00  0.00     0.049 A 
ATOM     59  H   UNL A   1      43.567  28.055  31.199  1.00  0.00     0.167 HD
ATOM     60  C   UNL A   1      45.342  26.010  30.370  1.00  0.00     0.074 A 
ATOM     61  C   UNL A   1      45.875  24.868  29.659  1.00  0.00     0.031 C 
ATOM     62  C   UNL A   1      46.029  26.711  31.308  1.00  0.00     0.034 A 
BRANCH  49  63
ATOM     63  C   UNL A   1      42.812  31.442  33.715  1.00  0.00     0.023 A 
ATOM     64  C   UNL A   1      42.280  31.319  35.011  1.00  0.00     0.031 A 
ATOM     65  C   UNL A   1      43.264  32.709  33.305  1.00  0.00     0.131 A 
ATOM     66  C   UNL A   1      42.140  32.457  35.818  1.00  0.00     0.055 A 
ATOM     67  C   UNL A   1      43.201  33.821  34.147  1.00  0.00     0.041 A 
ATOM     68  F   UNL A   1      43.755  32.893  32.069  1.00  0.00    -0.206 F 
ATOM     69  C   UNL A   1      42.622  33.702  35.406  1.00  0.00     0.022 A 
BRANCH  66  70
ATOM     70  S   UNL A   1      41.170  32.318  37.345  1.00  0.00     0.124 S 
ATOM     71  O   UNL A   1      39.989  31.596  36.879  1.00  0.00    -0.237 OA
ATOM     72  O   UNL A   1      42.067  31.577  38.223  1.00  0.00    -0.237 OA
ATOM     73  O   UNL A   1      40.930  33.709  37.726  1.00  0.00    -0.744 OA
ENDBRANCH  66  70
ENDBRANCH  49  63
BRANCH  50  74
ATOM     74  C   UNL A   1      42.616  23.873  27.171  1.00  0.00     0.023 A 
ATOM     75  C   UNL A   1      41.939  22.669  27.423  1.00  0.00     0.031 A 
ATOM     76  C   UNL A   1      43.379  23.961  25.992  1.00  0.00     0.131 A 
ATOM     77  C   UNL A   1      42.081  21.585  26.539  1.00  0.00     0.055 A 
ATOM     78  C   UNL A   1      43.464  22.904  25.084  1.00  0.00     0.041 A 
ATOM     79  F   UNL A   1      44.065  25.080  25.709  1.00  0.00    -0.206 F 
ATOM     80  C   UNL A   1      42.824  21.701  25.363  1.00  0.00     0.022 A 
BRANCH  77  81
ATOM     81  S   UNL A   1      41.368  19.985  27.014  1.00  0.00     0.124 S 
ATOM     82  O   UNL A   1      42.524  19.103  26.898  1.00  0.00    -0.237 OA
ATOM     83  O   UNL A   1      40.903  20.249  28.373  1.00  0.00    -0.237 OA
ATOM     84  O   UNL A   1      40.316  19.770  26.022  1.00  0.00    -0.744 OA
ENDBRANCH  77  81
ENDBRANCH  50  74
BRANCH  62  85
ATOM     85  C   UNL A   1      47.416  26.227  31.669  1.00  0.00     0.023 A 
ATOM     86  C   UNL A   1      48.551  26.575  30.917  1.00  0.00     0.031 A 
ATOM     87  C   UNL A   1      47.602  25.403  32.796  1.00  0.00     0.131 A 
ATOM     88  C   UNL A   1      49.811  26.061  31.269  1.00  0.00     0.055 A 
ATOM     89  C   UNL A   1      48.865  24.950  33.180  1.00  0.00     0.041 A 
ATOM     90  F   UNL A   1      46.555  25.032  33.552  1.00  0.00    -0.206 F 
ATOM     91  C   UNL A   1      49.977  25.269  32.407  1.00  0.00     0.022 A 
BRANCH  88  92
ATOM     92  S   UNL A   1      51.219  26.364  30.166  1.00  0.00     0.124 S 
ATOM     93  O   UNL A   1      51.200  27.818  30.042  1.00  0.00    -0.237 OA
ATOM     94  O   UNL A   1      52.335  25.803  30.922  1.00  0.00    -0.237 OA
ATOM     95  O   UNL A   1      50.866  25.634  28.950  1.00  0.00    -0.744 OA
ENDBRANCH  88  92
ENDBRANCH  62  85
ENDBRANCH  36  37
ENDBRANCH  29  31
ENDBRANCH  28  29
ENDBRANCH  27  28
ENDBRANCH  26  27
ENDBRANCH  25  26
ENDBRANCH  24  25
ENDBRANCH   1  24
TORSDOF 23
ENDMDL
MODEL 3
REMARK VINA RESULT:      -9.9      2.487      3.711
REMARK SMILES C[C@@H](C(=O)OCCOCCOCCOC(=O)c1ccc(-c2c3nc(c(-c4cc(S(=O)(=O)[O-])ccc4F)c4ccc([nH]4)c(-c4cc(S(=O)(=O)[O-])ccc4F)c4nc(c(-c5cc(S(=O)(=O)[O-])ccc5F)c5ccc2[nH]5)C=C4)C=C3)cc1)c1ccc(O[C@H]2CCCC2=O)cc1F
REMARK SMILES IDX 9 1 8 2 7 3 6 4 5 5 3 6 4 7 2 8 1 9 80 10 81 11 92 12 82 13
REMARK SMILES IDX 91 14 93 15 83 16 84 17 85 18 86 19 89 20 87 21 88 22 90 23
REMARK SMILES IDX 10 24 11 25 12 26 13 27 14 28 15 29 16 30 17 31 18 32 79 33
REMARK SMILES IDX 19 34 78 35 20 36 21 37 22 38 72 39 23 40 77 41 71 42 73 43
REMARK SMILES IDX 24 44 76 45 70 46 69 47 25 49 57 50 37 51 56 52 38 53 41 54
REMARK SMILES IDX 55 55 74 56 39 57 40 58 54 60 75 61 42 62 26 63 27 64 35 65
REMARK SMILES IDX 28 66 34 67 36 68 33 69 29 70 30 71 31 72 32 73 58 74 59 75
REMARK SMILES IDX 67 76 60 77 66 78 68 79 65 80 61 81 62 82 63 83 64 84 43 85
REMARK SMILES IDX 44 86 52 87 45 88 51 89 53 90 50 91 46 92 47 93 48 94 49 95
REMARK H PARENT 73 48 41 59
REMARK Flexibility Score: inf
ROOT
ATOM      1  C   UNL A   1      35.202  31.431  27.815  1.00  0.00     0.188 C 
ENDROOT
BRANCH   1   2
ATOM      2  O   UNL A   1      35.110  30.026  28.008  1.00  0.00    -0.376 OA
BRANCH   2   3
ATOM      3  C   UNL A   1      34.524  29.230  26.986  1.00  0.00     0.202 C 
BRANCH   3   4
ATOM      4  C   UNL A   1      33.243  29.702  26.271  1.00  0.00     0.261 C 
BRANCH   4   5
ATOM      5  O   UNL A   1      33.034  29.210  24.929  1.00  0.00    -0.463 OA
BRANCH   5   6
ATOM      6  C   UNL A   1      31.738  29.136  24.515  1.00  0.00     0.313 C 
ATOM      7  O   UNL A   1      30.887  29.966  24.820  1.00  0.00    -0.252 OA
BRANCH   6   8
ATOM      8  C   UNL A   1      31.414  27.928  23.613  1.00  0.00     0.129 C 
ATOM      9  C   UNL A   1      30.074  27.900  22.871  1.00  0.00     0.025 C 
BRANCH   8  10
ATOM     10  C   UNL A   1      31.726  26.637  24.355  1.00  0.00     0.002 A 
ATOM     11  C   UNL A   1      30.955  26.168  25.425  1.00  0.00     0.011 A 
ATOM     12  C   UNL A   1      32.913  25.954  24.068  1.00  0.00     0.130 A 
ATOM     13  C   UNL A   1      31.405  25.097  26.202  1.00  0.00     0.047 A 
ATOM     14  C   UNL A   1      33.354  24.874  24.833  1.00  0.00     0.086 A 
ATOM     15  F   UNL A   1      33.674  26.360  23.041  1.00  0.00    -0.207 F 
ATOM     16  C   UNL A   1      32.606  24.446  25.919  1.00  0.00     0.123 A 
BRANCH  16  17
ATOM     17  O   UNL A   1      32.922  23.480  26.820  1.00  0.00    -0.483 OA
BRANCH  17  18
ATOM     18  C   UNL A   1      33.005  22.116  26.472  1.00  0.00     0.239 C 
ATOM     19  C   UNL A   1      31.927  21.695  25.463  1.00  0.00     0.054 C 
ATOM     20  C   UNL A   1      34.280  21.491  25.921  1.00  0.00     0.173 C 
ATOM     21  C   UNL A   1      32.665  21.127  24.255  1.00  0.00     0.012 C 
ATOM     22  C   UNL A   1      33.980  20.564  24.776  1.00  0.00     0.080 C 
ATOM     23  O   UNL A   1      35.413  21.743  26.315  1.00  0.00    -0.296 OA
ENDBRANCH  17  18
ENDBRANCH  16  17
ENDBRANCH   8  10
ENDBRANCH   6   8
ENDBRANCH   5   6
ENDBRANCH   4   5
ENDBRANCH   3   4
ENDBRANCH   2   3
ENDBRANCH   1   2
BRANCH   1  24
ATOM     24  C   UNL A   1      34.142  32.336  28.470  1.00  0.00     0.188 C 
BRANCH  24  25
ATOM     25  O   UNL A   1      34.589  33.649  28.727  1.00  0.00    -0.376 OA
BRANCH  25  26
ATOM     26  C   UNL A   1      33.749  34.716  28.331  1.00  0.00     0.202 C 
BRANCH  26  27
ATOM     27  C   UNL A   1      32.841  35.403  29.368  1.00  0.00     0.261 C 
BRANCH  27  28
ATOM     28  O   UNL A   1      33.467  35.955  30.539  1.00  0.00    -0.460 OA
BRANCH  28  29
ATOM     29  C   UNL A   1      33.346  35.266  31.697  1.00  0.00     0.338 C 
ATOM     30  O   UNL A   1      32.345  35.199  32.399  1.00  0.00    -0.246 OA
BRANCH  29  31
ATOM     31  C   UNL A   1      34.555  34.425  31.861  1.00  0.00     0.060 A 
ATOM     32  C   UNL A   1      34.406  33.099  32.291  1.00  0.00     0.016 A 
ATOM     33  C   UNL A   1      35.830  34.930  31.590  1.00  0.00     0.016 A 
ATOM     34  C   UNL A   1      35.529  32.283  32.455  1.00  0.00     0.010 A 
ATOM     35  C   UNL A   1      36.956  34.112  31.770  1.00  0.00     0.010 A 
ATOM     36  C   UNL A   1      36.814  32.785  32.211  1.00  0.00    -0.014 A 
BRANCH  36  37
ATOM     37  C   UNL A   1      38.009  31.981  32.594  1.00  0.00     0.031 A 
ATOM     38  C   UNL A   1      38.671  32.273  33.913  1.00  0.00     0.074 A 
ATOM     39  C   UNL A   1      38.482  30.990  31.816  1.00  0.00     0.049 A 
ATOM     40  N   UNL A   1      39.754  31.760  34.435  1.00  0.00    -0.248 NA
ATOM     41  C   UNL A   1      38.011  33.282  34.755  1.00  0.00     0.031 C 
ATOM     42  C   UNL A   1      37.894  30.552  30.554  1.00  0.00     0.029 A 
ATOM     43  N   UNL A   1      39.572  30.166  31.980  1.00  0.00    -0.354 N 
ATOM     44  C   UNL A   1      39.912  32.386  35.667  1.00  0.00     0.074 A 
ATOM     45  C   UNL A   1      38.825  33.334  35.798  1.00  0.00     0.031 C 
ATOM     46  C   UNL A   1      38.629  29.542  30.055  1.00  0.00     0.029 A 
ATOM     47  C   UNL A   1      39.774  29.296  30.931  1.00  0.00     0.049 A 
ATOM     48  H   UNL A   1      40.155  30.196  32.774  1.00  0.00     0.167 HD
ATOM     49  C   UNL A   1      40.874  32.192  36.602  1.00  0.00     0.034 A 
ATOM     50  C   UNL A   1      40.783  28.430  30.691  1.00  0.00     0.034 A 
ATOM     51  C   UNL A   1      41.974  31.271  36.447  1.00  0.00     0.049 A 
ATOM     52  C   UNL A   1      41.916  28.321  31.690  1.00  0.00     0.074 A 
ATOM     53  C   UNL A   1      43.019  31.023  37.321  1.00  0.00     0.029 A 
ATOM     54  N   UNL A   1      42.185  30.461  35.339  1.00  0.00    -0.354 N 
ATOM     55  N   UNL A   1      42.068  28.933  32.843  1.00  0.00    -0.248 NA
ATOM     56  C   UNL A   1      43.017  27.406  31.353  1.00  0.00     0.031 C 
ATOM     57  C   UNL A   1      43.900  30.126  36.709  1.00  0.00     0.029 A 
ATOM     58  C   UNL A   1      43.359  29.739  35.493  1.00  0.00     0.049 A 
ATOM     59  H   UNL A   1      41.588  30.406  34.558  1.00  0.00     0.167 HD
ATOM     60  C   UNL A   1      43.262  28.451  33.377  1.00  0.00     0.074 A 
ATOM     61  C   UNL A   1      43.780  27.486  32.432  1.00  0.00     0.031 C 
ATOM     62  C   UNL A   1      43.873  28.776  34.546  1.00  0.00     0.034 A 
BRANCH  49  63
ATOM     63  C   UNL A   1      40.810  33.052  37.840  1.00  0.00     0.023 A 
ATOM     64  C   UNL A   1      40.157  32.618  39.008  1.00  0.00     0.031 A 
ATOM     65  C   UNL A   1      41.364  34.344  37.836  1.00  0.00     0.131 A 
ATOM     66  C   UNL A   1      40.005  33.497  40.090  1.00  0.00     0.055 A 
ATOM     67  C   UNL A   1      41.285  35.182  38.949  1.00  0.00     0.041 A 
ATOM     68  F   UNL A   1      41.974  34.822  36.740  1.00  0.00    -0.206 F 
ATOM     69  C   UNL A   1      40.588  34.766  40.079  1.00  0.00     0.022 A 
BRANCH  66  70
ATOM     70  S   UNL A   1      38.895  33.018  41.443  1.00  0.00     0.124 S 
ATOM     71  O   UNL A   1      38.688  31.599  41.165  1.00  0.00    -0.237 OA
ATOM     72  O   UNL A   1      39.686  33.329  42.626  1.00  0.00    -0.237 OA
ATOM     73  O   UNL A   1      37.720  33.863  41.236  1.00  0.00    -0.744 OA
ENDBRANCH  66  70
ENDBRANCH  49  63
BRANCH  50  74
ATOM     74  C   UNL A   1      40.824  27.636  29.424  1.00  0.00     0.023 A 
ATOM     75  C   UNL A   1      41.740  27.940  28.404  1.00  0.00     0.031 A 
ATOM     76  C   UNL A   1      39.883  26.620  29.177  1.00  0.00     0.131 A 
ATOM     77  C   UNL A   1      41.661  27.276  27.168  1.00  0.00     0.055 A 
ATOM     78  C   UNL A   1      39.850  25.918  27.971  1.00  0.00     0.041 A 
ATOM     79  F   UNL A   1      38.968  26.301  30.107  1.00  0.00    -0.206 F 
ATOM     80  C   UNL A   1      40.734  26.255  26.951  1.00  0.00     0.022 A 
BRANCH  77  81
ATOM     81  S   UNL A   1      42.719  27.851  25.810  1.00  0.00     0.124 S 
ATOM     82  O   UNL A   1      42.398  29.273  25.770  1.00  0.00    -0.237 OA
ATOM     83  O   UNL A   1      44.053  27.515  26.299  1.00  0.00    -0.237 OA
ATOM     84  O   UNL A   1      42.258  27.073  24.662  1.00  0.00    -0.744 OA
ENDBRANCH  77  81
ENDBRANCH  50  74
BRANCH  62  85
ATOM     85  C   UNL A   1      45.144  28.036  34.901  1.00  0.00     0.023 A 
ATOM     86  C   UNL A   1      45.129  26.763  35.496  1.00  0.00     0.031 A 
ATOM     87  C   UNL A   1      46.397  28.619  34.630  1.00  0.00     0.131 A 
ATOM     88  C   UNL A   1      46.338  26.138  35.848  1.00  0.00     0.055 A 
ATOM     89  C   UNL A   1      47.595  27.966  34.920  1.00  0.00     0.041 A 
ATOM     90  F   UNL A   1      46.476  29.836  34.067  1.00  0.00    -0.206 F 
ATOM     91  C   UNL A   1      47.569  26.722  35.544  1.00  0.00     0.022 A 
BRANCH  88  92
ATOM     92  S   UNL A   1      46.281  24.591  36.794  1.00  0.00     0.124 S 
ATOM     93  O   UNL A   1      47.355  23.819  36.178  1.00  0.00    -0.237 OA
ATOM     94  O   UNL A   1      46.526  25.049  38.158  1.00  0.00    -0.237 OA
ATOM     95  O   UNL A   1      44.932  24.085  36.544  1.00  0.00    -0.744 OA
ENDBRANCH  88  92
ENDBRANCH  62  85
ENDBRANCH  36  37
ENDBRANCH  29  31
ENDBRANCH  28  29
ENDBRANCH  27  28
ENDBRANCH  26  27
ENDBRANCH  25  26
ENDBRANCH  24  25
ENDBRANCH   1  24
TORSDOF 23
ENDMDL
