MODEL 1
REMARK VINA RESULT:      -7.0      0.000      0.000
REMARK SMILES COc1nc(C(F)(F)F)ccc1C(=O)OCCOCCOCCOC(=O)c1ccc(-c2c3nc(c(-c4cc(S(=O)(=O)[O-])ccc4F)c4ccc([nH]4)c(-c4cc(S(=O)(=O)[O-])ccc4F)c4nc(c(-c5cc(S(=O)(=O)[O-])ccc5F)c5ccc2[nH]5)C=C4)C=C3)cc1
REMARK SMILES IDX 20 1 19 2 18 3 17 4 16 5 15 6 13 7 14 8 12 9 3 10 4 11 5 12
REMARK SMILES IDX 11 13 10 14 2 15 1 16 6 17 7 18 8 19 9 20 21 21 22 22 23 23
REMARK SMILES IDX 24 24 25 25 26 26 27 27 28 28 89 29 29 30 88 31 30 32 31 33
REMARK SMILES IDX 32 34 82 35 33 36 87 37 81 38 83 39 34 40 86 41 80 42 79 43
REMARK SMILES IDX 35 45 67 46 47 47 66 48 48 49 51 50 65 51 84 52 49 53 50 54
REMARK SMILES IDX 64 56 85 57 52 58 36 59 37 60 45 61 38 62 44 63 46 64 43 65
REMARK SMILES IDX 39 66 40 67 41 68 42 69 68 70 69 71 77 72 70 73 76 74 78 75
REMARK SMILES IDX 75 76 71 77 72 78 73 79 74 80 53 81 54 82 62 83 55 84 61 85
REMARK SMILES IDX 63 86 60 87 56 88 57 89 58 90 59 91
REMARK H PARENT 83 44 51 55
REMARK Flexibility Score: inf
ROOT
ATOM      1  C   UNL A   1      44.975  43.118  31.496  1.00  0.00     0.188 C 
ENDROOT
BRANCH   1   2
ATOM      2  C   UNL A   1      45.715  42.395  30.354  1.00  0.00     0.188 C 
BRANCH   2   3
ATOM      3  O   UNL A   1      44.870  41.968  29.294  1.00  0.00    -0.376 OA
BRANCH   3   4
ATOM      4  C   UNL A   1      45.137  42.543  28.020  1.00  0.00     0.202 C 
BRANCH   4   5
ATOM      5  C   UNL A   1      46.402  41.969  27.381  1.00  0.00     0.261 C 
BRANCH   5   6
ATOM      6  O   UNL A   1      46.254  40.600  26.969  1.00  0.00    -0.459 OA
BRANCH   6   7
ATOM      7  C   UNL A   1      45.320  40.350  26.018  1.00  0.00     0.343 C 
ATOM      8  O   UNL A   1      45.247  40.907  24.937  1.00  0.00    -0.246 OA
BRANCH   7   9
ATOM      9  C   UNL A   1      44.489  39.223  26.490  1.00  0.00     0.122 A 
ATOM     10  C   UNL A   1      43.105  39.308  26.505  1.00  0.00     0.228 A 
ATOM     11  N   UNL A   1      42.293  38.297  26.903  1.00  0.00    -0.208 NA
ATOM     12  C   UNL A   1      42.867  37.126  27.309  1.00  0.00     0.148 A 
ATOM     13  C   UNL A   1      45.066  38.007  26.871  1.00  0.00     0.023 A 
ATOM     14  C   UNL A   1      44.253  36.951  27.281  1.00  0.00     0.034 A 
BRANCH  10  15
ATOM     15  O   UNL A   1      42.474  40.467  26.147  1.00  0.00    -0.480 OA
ATOM     16  C   UNL A   1      41.159  40.528  26.694  1.00  0.00     0.280 C 
ENDBRANCH  10  15
BRANCH  12  17
ATOM     17  C   UNL A   1      41.978  35.990  27.809  1.00  0.00     0.433 C 
ATOM     18  F   UNL A   1      40.919  35.732  26.993  1.00  0.00    -0.165 F 
ATOM     19  F   UNL A   1      42.647  34.814  27.965  1.00  0.00    -0.165 F 
ATOM     20  F   UNL A   1      41.427  36.255  29.035  1.00  0.00    -0.165 F 
ENDBRANCH  12  17
ENDBRANCH   7   9
ENDBRANCH   6   7
ENDBRANCH   5   6
ENDBRANCH   4   5
ENDBRANCH   3   4
ENDBRANCH   2   3
ENDBRANCH   1   2
BRANCH   1  21
ATOM     21  O   UNL A   1      43.568  42.974  31.659  1.00  0.00    -0.376 OA
BRANCH  21  22
ATOM     22  C   UNL A   1      42.952  43.419  32.856  1.00  0.00     0.202 C 
BRANCH  22  23
ATOM     23  C   UNL A   1      42.608  42.371  33.919  1.00  0.00     0.261 C 
BRANCH  23  24
ATOM     24  O   UNL A   1      42.776  41.011  33.491  1.00  0.00    -0.460 OA
BRANCH  24  25
ATOM     25  C   UNL A   1      43.963  40.449  33.830  1.00  0.00     0.338 C 
ATOM     26  O   UNL A   1      44.736  40.838  34.689  1.00  0.00    -0.246 OA
BRANCH  25  27
ATOM     27  C   UNL A   1      44.140  39.166  33.115  1.00  0.00     0.060 A 
ATOM     28  C   UNL A   1      43.719  39.098  31.780  1.00  0.00     0.016 A 
ATOM     29  C   UNL A   1      44.644  38.030  33.753  1.00  0.00     0.016 A 
ATOM     30  C   UNL A   1      43.765  37.885  31.090  1.00  0.00     0.010 A 
ATOM     31  C   UNL A   1      44.670  36.810  33.066  1.00  0.00     0.010 A 
ATOM     32  C   UNL A   1      44.202  36.725  31.743  1.00  0.00    -0.014 A 
BRANCH  32  33
ATOM     33  C   UNL A   1      43.994  35.401  31.103  1.00  0.00     0.031 A 
ATOM     34  C   UNL A   1      45.062  34.865  30.190  1.00  0.00     0.074 A 
ATOM     35  C   UNL A   1      42.888  34.676  31.342  1.00  0.00     0.049 A 
ATOM     36  N   UNL A   1      45.094  33.747  29.512  1.00  0.00    -0.248 NA
ATOM     37  C   UNL A   1      46.250  35.713  30.018  1.00  0.00     0.031 C 
ATOM     38  C   UNL A   1      41.802  35.066  32.236  1.00  0.00     0.029 A 
ATOM     39  N   UNL A   1      42.497  33.456  30.847  1.00  0.00    -0.354 N 
ATOM     40  C   UNL A   1      46.310  33.750  28.838  1.00  0.00     0.074 A 
ATOM     41  C   UNL A   1      46.960  35.007  29.154  1.00  0.00     0.031 C 
ATOM     42  C   UNL A   1      40.864  34.102  32.228  1.00  0.00     0.029 A 
ATOM     43  C   UNL A   1      41.266  33.047  31.298  1.00  0.00     0.049 A 
ATOM     44  H   UNL A   1      43.049  32.926  30.227  1.00  0.00     0.167 HD
ATOM     45  C   UNL A   1      46.843  32.792  28.038  1.00  0.00     0.034 A 
ATOM     46  C   UNL A   1      40.539  31.956  30.978  1.00  0.00     0.034 A 
ATOM     47  C   UNL A   1      46.168  31.564  27.694  1.00  0.00     0.049 A 
ATOM     48  C   UNL A   1      41.093  30.961  29.987  1.00  0.00     0.074 A 
ATOM     49  C   UNL A   1      46.616  30.525  26.895  1.00  0.00     0.029 A 
ATOM     50  N   UNL A   1      44.888  31.216  28.109  1.00  0.00    -0.354 N 
ATOM     51  N   UNL A   1      42.250  30.966  29.365  1.00  0.00    -0.248 NA
ATOM     52  C   UNL A   1      40.239  29.811  29.657  1.00  0.00     0.031 C 
ATOM     53  C   UNL A   1      45.581  29.592  26.765  1.00  0.00     0.029 A 
ATOM     54  C   UNL A   1      44.514  30.003  27.549  1.00  0.00     0.049 A 
ATOM     55  H   UNL A   1      44.327  31.754  28.714  1.00  0.00     0.167 HD
ATOM     56  C   UNL A   1      42.274  29.805  28.595  1.00  0.00     0.074 A 
ATOM     57  C   UNL A   1      41.020  29.122  28.835  1.00  0.00     0.031 C 
ATOM     58  C   UNL A   1      43.251  29.339  27.774  1.00  0.00     0.034 A 
BRANCH  45  59
ATOM     59  C   UNL A   1      48.197  33.085  27.435  1.00  0.00     0.023 A 
ATOM     60  C   UNL A   1      49.387  32.678  28.065  1.00  0.00     0.031 A 
ATOM     61  C   UNL A   1      48.304  33.848  26.259  1.00  0.00     0.131 A 
ATOM     62  C   UNL A   1      50.625  33.118  27.574  1.00  0.00     0.055 A 
ATOM     63  C   UNL A   1      49.543  34.207  25.724  1.00  0.00     0.041 A 
ATOM     64  F   UNL A   1      47.205  34.286  25.625  1.00  0.00    -0.206 F 
ATOM     65  C   UNL A   1      50.713  33.860  26.394  1.00  0.00     0.022 A 
BRANCH  62  66
ATOM     66  S   UNL A   1      52.100  32.869  28.603  1.00  0.00     0.124 S 
ATOM     67  O   UNL A   1      52.936  33.998  28.199  1.00  0.00    -0.237 OA
ATOM     68  O   UNL A   1      51.555  32.927  29.953  1.00  0.00    -0.237 OA
ATOM     69  O   UNL A   1      52.593  31.559  28.182  1.00  0.00    -0.744 OA
ENDBRANCH  62  66
ENDBRANCH  45  59
BRANCH  46  70
ATOM     70  C   UNL A   1      39.185  31.756  31.570  1.00  0.00     0.023 A 
ATOM     71  C   UNL A   1      38.069  32.448  31.076  1.00  0.00     0.031 A 
ATOM     72  C   UNL A   1      39.001  30.903  32.673  1.00  0.00     0.131 A 
ATOM     73  C   UNL A   1      36.823  32.303  31.706  1.00  0.00     0.055 A 
ATOM     74  C   UNL A   1      37.751  30.725  33.266  1.00  0.00     0.041 A 
ATOM     75  F   UNL A   1      40.038  30.222  33.185  1.00  0.00    -0.206 F 
ATOM     76  C   UNL A   1      36.654  31.435  32.789  1.00  0.00     0.022 A 
BRANCH  73  77
ATOM     77  S   UNL A   1      35.432  33.314  31.129  1.00  0.00     0.124 S 
ATOM     78  O   UNL A   1      35.966  33.874  29.893  1.00  0.00    -0.237 OA
ATOM     79  O   UNL A   1      34.374  32.320  30.978  1.00  0.00    -0.237 OA
ATOM     80  O   UNL A   1      35.233  34.270  32.215  1.00  0.00    -0.744 OA
ENDBRANCH  73  77
ENDBRANCH  46  70
BRANCH  58  81
ATOM     81  C   UNL A   1      43.015  28.002  27.107  1.00  0.00     0.023 A 
ATOM     82  C   UNL A   1      43.454  26.796  27.681  1.00  0.00     0.031 A 
ATOM     83  C   UNL A   1      42.344  27.940  25.872  1.00  0.00     0.131 A 
ATOM     84  C   UNL A   1      43.261  25.584  26.997  1.00  0.00     0.055 A 
ATOM     85  C   UNL A   1      42.104  26.727  25.225  1.00  0.00     0.041 A 
ATOM     86  F   UNL A   1      41.906  29.059  25.276  1.00  0.00    -0.206 F 
ATOM     87  C   UNL A   1      42.574  25.541  25.780  1.00  0.00     0.022 A 
BRANCH  84  88
ATOM     88  S   UNL A   1      43.993  24.069  27.676  1.00  0.00     0.124 S 
ATOM     89  O   UNL A   1      42.878  23.503  28.429  1.00  0.00    -0.237 OA
ATOM     90  O   UNL A   1      44.382  23.343  26.471  1.00  0.00    -0.237 OA
ATOM     91  O   UNL A   1      45.105  24.558  28.489  1.00  0.00    -0.744 OA
ENDBRANCH  84  88
ENDBRANCH  58  81
ENDBRANCH  32  33
ENDBRANCH  25  27
ENDBRANCH  24  25
ENDBRANCH  23  24
ENDBRANCH  22  23
ENDBRANCH  21  22
ENDBRANCH   1  21
TORSDOF 22
ENDMDL
MODEL 2
REMARK VINA RESULT:      -7.0      5.157     14.942
REMARK SMILES COc1nc(C(F)(F)F)ccc1C(=O)OCCOCCOCCOC(=O)c1ccc(-c2c3nc(c(-c4cc(S(=O)(=O)[O-])ccc4F)c4ccc([nH]4)c(-c4cc(S(=O)(=O)[O-])ccc4F)c4nc(c(-c5cc(S(=O)(=O)[O-])ccc5F)c5ccc2[nH]5)C=C4)C=C3)cc1
REMARK SMILES IDX 20 1 19 2 18 3 17 4 16 5 15 6 13 7 14 8 12 9 3 10 4 11 5 12
REMARK SMILES IDX 11 13 10 14 2 15 1 16 6 17 7 18 8 19 9 20 21 21 22 22 23 23
REMARK SMILES IDX 24 24 25 25 26 26 27 27 28 28 89 29 29 30 88 31 30 32 31 33
REMARK SMILES IDX 32 34 82 35 33 36 87 37 81 38 83 39 34 40 86 41 80 42 79 43
REMARK SMILES IDX 35 45 67 46 47 47 66 48 48 49 51 50 65 51 84 52 49 53 50 54
REMARK SMILES IDX 64 56 85 57 52 58 36 59 37 60 45 61 38 62 44 63 46 64 43 65
REMARK SMILES IDX 39 66 40 67 41 68 42 69 68 70 69 71 77 72 70 73 76 74 78 75
REMARK SMILES IDX 75 76 71 77 72 78 73 79 74 80 53 81 54 82 62 83 55 84 61 85
REMARK SMILES IDX 63 86 60 87 56 88 57 89 58 90 59 91
REMARK H PARENT 83 44 51 55
REMARK Flexibility Score: inf
ROOT
ATOM      1  C   UNL A   1      42.056  21.110  26.197  1.00  0.00     0.188 C 
ENDROOT
BRANCH   1   2
ATOM      2  C   UNL A   1      40.546  21.162  26.498  1.00  0.00     0.188 C 
BRANCH   2   3
ATOM      3  O   UNL A   1      39.874  22.268  25.909  1.00  0.00    -0.376 OA
BRANCH   3   4
ATOM      4  C   UNL A   1      38.720  22.731  26.599  1.00  0.00     0.202 C 
BRANCH   4   5
ATOM      5  C   UNL A   1      37.812  23.576  25.705  1.00  0.00     0.261 C 
BRANCH   5   6
ATOM      6  O   UNL A   1      36.442  23.582  26.138  1.00  0.00    -0.459 OA
BRANCH   6   7
ATOM      7  C   UNL A   1      35.499  23.565  25.164  1.00  0.00     0.343 C 
ATOM      8  O   UNL A   1      35.268  24.476  24.388  1.00  0.00    -0.246 OA
BRANCH   7   9
ATOM      9  C   UNL A   1      34.887  22.219  25.155  1.00  0.00     0.122 A 
ATOM     10  C   UNL A   1      33.538  22.041  25.419  1.00  0.00     0.228 A 
ATOM     11  N   UNL A   1      32.920  20.834  25.399  1.00  0.00    -0.208 NA
ATOM     12  C   UNL A   1      33.665  19.730  25.098  1.00  0.00     0.148 A 
ATOM     13  C   UNL A   1      35.634  21.087  24.810  1.00  0.00     0.023 A 
ATOM     14  C   UNL A   1      35.021  19.835  24.779  1.00  0.00     0.034 A 
BRANCH  10  15
ATOM     15  O   UNL A   1      32.749  23.104  25.763  1.00  0.00    -0.480 OA
ATOM     16  C   UNL A   1      31.694  23.289  24.822  1.00  0.00     0.280 C 
ENDBRANCH  10  15
BRANCH  12  17
ATOM     17  C   UNL A   1      33.005  18.353  25.118  1.00  0.00     0.433 C 
ATOM     18  F   UNL A   1      31.983  18.229  24.225  1.00  0.00    -0.165 F 
ATOM     19  F   UNL A   1      33.875  17.337  24.858  1.00  0.00    -0.165 F 
ATOM     20  F   UNL A   1      32.453  18.053  26.334  1.00  0.00    -0.165 F 
ENDBRANCH  12  17
ENDBRANCH   7   9
ENDBRANCH   6   7
ENDBRANCH   5   6
ENDBRANCH   4   5
ENDBRANCH   3   4
ENDBRANCH   2   3
ENDBRANCH   1   2
BRANCH   1  21
ATOM     21  O   UNL A   1      42.585  21.709  25.019  1.00  0.00    -0.376 OA
BRANCH  21  22
ATOM     22  C   UNL A   1      43.680  22.605  25.119  1.00  0.00     0.202 C 
BRANCH  22  23
ATOM     23  C   UNL A   1      43.384  24.107  25.086  1.00  0.00     0.261 C 
BRANCH  23  24
ATOM     24  O   UNL A   1      42.520  24.567  26.136  1.00  0.00    -0.460 OA
BRANCH  24  25
ATOM     25  C   UNL A   1      41.735  25.624  25.807  1.00  0.00     0.338 C 
ATOM     26  O   UNL A   1      40.673  25.585  25.209  1.00  0.00    -0.246 OA
BRANCH  25  27
ATOM     27  C   UNL A   1      42.263  26.859  26.424  1.00  0.00     0.060 A 
ATOM     28  C   UNL A   1      42.909  26.748  27.662  1.00  0.00     0.016 A 
ATOM     29  C   UNL A   1      42.073  28.114  25.840  1.00  0.00     0.016 A 
ATOM     30  C   UNL A   1      43.334  27.893  28.339  1.00  0.00     0.010 A 
ATOM     31  C   UNL A   1      42.481  29.263  26.529  1.00  0.00     0.010 A 
ATOM     32  C   UNL A   1      43.085  29.159  27.795  1.00  0.00    -0.014 A 
BRANCH  32  33
ATOM     33  C   UNL A   1      43.287  30.370  28.631  1.00  0.00     0.031 A 
ATOM     34  C   UNL A   1      42.181  30.801  29.555  1.00  0.00     0.074 A 
ATOM     35  C   UNL A   1      44.437  31.065  28.590  1.00  0.00     0.049 A 
ATOM     36  N   UNL A   1      42.124  31.827  30.364  1.00  0.00    -0.248 NA
ATOM     37  C   UNL A   1      40.976  29.959  29.557  1.00  0.00     0.031 C 
ATOM     38  C   UNL A   1      45.596  30.727  27.769  1.00  0.00     0.029 A 
ATOM     39  N   UNL A   1      44.815  32.204  29.257  1.00  0.00    -0.354 N 
ATOM     40  C   UNL A   1      40.880  31.751  30.982  1.00  0.00     0.074 A 
ATOM     41  C   UNL A   1      40.200  30.605  30.412  1.00  0.00     0.031 C 
ATOM     42  C   UNL A   1      46.560  31.641  27.980  1.00  0.00     0.029 A 
ATOM     43  C   UNL A   1      46.071  32.648  28.921  1.00  0.00     0.049 A 
ATOM     44  H   UNL A   1      44.239  32.658  29.913  1.00  0.00     0.167 HD
ATOM     45  C   UNL A   1      40.355  32.555  31.941  1.00  0.00     0.034 A 
ATOM     46  C   UNL A   1      46.738  33.754  29.312  1.00  0.00     0.034 A 
ATOM     47  C   UNL A   1      41.022  33.720  32.469  1.00  0.00     0.049 A 
ATOM     48  C   UNL A   1      46.086  34.706  30.287  1.00  0.00     0.074 A 
ATOM     49  C   UNL A   1      40.584  34.601  33.442  1.00  0.00     0.029 A 
ATOM     50  N   UNL A   1      42.263  34.184  32.050  1.00  0.00    -0.354 N 
ATOM     51  N   UNL A   1      44.915  34.619  30.875  1.00  0.00    -0.248 NA
ATOM     52  C   UNL A   1      46.851  35.908  30.648  1.00  0.00     0.031 C 
ATOM     53  C   UNL A   1      41.520  35.636  33.555  1.00  0.00     0.029 A 
ATOM     54  C   UNL A   1      42.585  35.360  32.712  1.00  0.00     0.049 A 
ATOM     55  H   UNL A   1      42.833  33.741  31.380  1.00  0.00     0.167 HD
ATOM     56  C   UNL A   1      44.818  35.738  31.699  1.00  0.00     0.074 A 
ATOM     57  C   UNL A   1      46.051  36.480  31.537  1.00  0.00     0.031 C 
ATOM     58  C   UNL A   1      43.807  36.109  32.527  1.00  0.00     0.034 A 
BRANCH  45  59
ATOM     59  C   UNL A   1      38.961  32.221  32.420  1.00  0.00     0.023 A 
ATOM     60  C   UNL A   1      37.819  32.699  31.751  1.00  0.00     0.031 A 
ATOM     61  C   UNL A   1      38.770  31.484  33.601  1.00  0.00     0.131 A 
ATOM     62  C   UNL A   1      36.549  32.521  32.320  1.00  0.00     0.055 A 
ATOM     63  C   UNL A   1      37.496  31.232  34.114  1.00  0.00     0.041 A 
ATOM     64  F   UNL A   1      39.821  31.021  34.296  1.00  0.00    -0.206 F 
ATOM     65  C   UNL A   1      36.377  31.769  33.485  1.00  0.00     0.022 A 
BRANCH  62  66
ATOM     66  S   UNL A   1      35.153  33.445  31.621  1.00  0.00     0.124 S 
ATOM     67  O   UNL A   1      35.384  34.784  32.160  1.00  0.00    -0.237 OA
ATOM     68  O   UNL A   1      35.357  33.288  30.186  1.00  0.00    -0.237 OA
ATOM     69  O   UNL A   1      33.982  32.759  32.165  1.00  0.00    -0.744 OA
ENDBRANCH  62  66
ENDBRANCH  45  59
BRANCH  46  70
ATOM     70  C   UNL A   1      48.089  34.051  28.758  1.00  0.00     0.023 A 
ATOM     71  C   UNL A   1      48.247  34.525  27.447  1.00  0.00     0.031 A 
ATOM     72  C   UNL A   1      49.247  33.815  29.522  1.00  0.00     0.131 A 
ATOM     73  C   UNL A   1      49.536  34.717  26.925  1.00  0.00     0.055 A 
ATOM     74  C   UNL A   1      50.525  34.053  29.014  1.00  0.00     0.041 A 
ATOM     75  F   UNL A   1      49.150  33.357  30.779  1.00  0.00    -0.206 F 
ATOM     76  C   UNL A   1      50.675  34.497  27.704  1.00  0.00     0.022 A 
BRANCH  73  77
ATOM     77  S   UNL A   1      49.708  35.201  25.185  1.00  0.00     0.124 S 
ATOM     78  O   UNL A   1      48.422  34.786  24.635  1.00  0.00    -0.237 OA
ATOM     79  O   UNL A   1      49.927  36.639  25.288  1.00  0.00    -0.237 OA
ATOM     80  O   UNL A   1      50.862  34.429  24.730  1.00  0.00    -0.744 OA
ENDBRANCH  73  77
ENDBRANCH  46  70
BRANCH  58  81
ATOM     81  C   UNL A   1      44.013  37.359  33.353  1.00  0.00     0.023 A 
ATOM     82  C   UNL A   1      43.480  38.602  32.970  1.00  0.00     0.031 A 
ATOM     83  C   UNL A   1      44.765  37.301  34.541  1.00  0.00     0.131 A 
ATOM     84  C   UNL A   1      43.745  39.746  33.741  1.00  0.00     0.055 A 
ATOM     85  C   UNL A   1      44.977  38.430  35.334  1.00  0.00     0.041 A 
ATOM     86  F   UNL A   1      45.302  36.143  34.955  1.00  0.00    -0.206 F 
ATOM     87  C   UNL A   1      44.477  39.664  34.930  1.00  0.00     0.022 A 
BRANCH  84  88
ATOM     88  S   UNL A   1      43.193  41.363  33.129  1.00  0.00     0.124 S 
ATOM     89  O   UNL A   1      42.042  41.635  33.984  1.00  0.00    -0.237 OA
ATOM     90  O   UNL A   1      44.367  42.200  33.356  1.00  0.00    -0.237 OA
ATOM     91  O   UNL A   1      42.877  41.109  31.725  1.00  0.00    -0.744 OA
ENDBRANCH  84  88
ENDBRANCH  58  81
ENDBRANCH  32  33
ENDBRANCH  25  27
ENDBRANCH  24  25
ENDBRANCH  23  24
ENDBRANCH  22  23
ENDBRANCH  21  22
ENDBRANCH   1  21
TORSDOF 22
ENDMDL
MODEL 3
REMARK VINA RESULT:      -7.0      5.249     10.334
REMARK SMILES COc1nc(C(F)(F)F)ccc1C(=O)OCCOCCOCCOC(=O)c1ccc(-c2c3nc(c(-c4cc(S(=O)(=O)[O-])ccc4F)c4ccc([nH]4)c(-c4cc(S(=O)(=O)[O-])ccc4F)c4nc(c(-c5cc(S(=O)(=O)[O-])ccc5F)c5ccc2[nH]5)C=C4)C=C3)cc1
REMARK SMILES IDX 20 1 19 2 18 3 17 4 16 5 15 6 13 7 14 8 12 9 3 10 4 11 5 12
REMARK SMILES IDX 11 13 10 14 2 15 1 16 6 17 7 18 8 19 9 20 21 21 22 22 23 23
REMARK SMILES IDX 24 24 25 25 26 26 27 27 28 28 89 29 29 30 88 31 30 32 31 33
REMARK SMILES IDX 32 34 82 35 33 36 87 37 81 38 83 39 34 40 86 41 80 42 79 43
REMARK SMILES IDX 35 45 67 46 47 47 66 48 48 49 51 50 65 51 84 52 49 53 50 54
REMARK SMILES IDX 64 56 85 57 52 58 36 59 37 60 45 61 38 62 44 63 46 64 43 65
REMARK SMILES IDX 39 66 40 67 41 68 42 69 68 70 69 71 77 72 70 73 76 74 78 75
REMARK SMILES IDX 75 76 71 77 72 78 73 79 74 80 53 81 54 82 62 83 55 84 61 85
REMARK SMILES IDX 63 86 60 87 56 88 57 89 58 90 59 91
REMARK H PARENT 83 44 51 55
REMARK Flexibility Score: inf
ROOT
ATOM      1  C   UNL A   1      46.641  31.298  26.841  1.00  0.00     0.188 C 
ENDROOT
BRANCH   1   2
ATOM      2  C   UNL A   1      46.703  31.019  28.355  1.00  0.00     0.188 C 
BRANCH   2   3
ATOM      3  O   UNL A   1      45.682  30.150  28.827  1.00  0.00    -0.376 OA
BRANCH   3   4
ATOM      4  C   UNL A   1      46.060  29.261  29.871  1.00  0.00     0.202 C 
BRANCH   4   5
ATOM      5  C   UNL A   1      45.197  29.438  31.121  1.00  0.00     0.261 C 
BRANCH   5   6
ATOM      6  O   UNL A   1      43.836  29.788  30.822  1.00  0.00    -0.459 OA
BRANCH   6   7
ATOM      7  C   UNL A   1      42.903  28.825  31.023  1.00  0.00     0.343 C 
ATOM      8  O   UNL A   1      43.072  27.801  31.662  1.00  0.00    -0.246 OA
BRANCH   7   9
ATOM      9  C   UNL A   1      41.637  29.292  30.420  1.00  0.00     0.122 A 
ATOM     10  C   UNL A   1      41.385  29.133  29.066  1.00  0.00     0.228 A 
ATOM     11  N   UNL A   1      40.231  29.519  28.465  1.00  0.00    -0.208 NA
ATOM     12  C   UNL A   1      39.261  30.093  29.235  1.00  0.00     0.148 A 
ATOM     13  C   UNL A   1      40.622  29.846  31.207  1.00  0.00     0.023 A 
ATOM     14  C   UNL A   1      39.426  30.248  30.614  1.00  0.00     0.034 A 
BRANCH  10  15
ATOM     15  O   UNL A   1      42.333  28.599  28.238  1.00  0.00    -0.480 OA
ATOM     16  C   UNL A   1      42.416  27.184  28.395  1.00  0.00     0.280 C 
ENDBRANCH  10  15
BRANCH  12  17
ATOM     17  C   UNL A   1      37.974  30.583  28.575  1.00  0.00     0.433 C 
ATOM     18  F   UNL A   1      37.904  31.938  28.462  1.00  0.00    -0.165 F 
ATOM     19  F   UNL A   1      37.787  30.077  27.323  1.00  0.00    -0.165 F 
ATOM     20  F   UNL A   1      36.854  30.226  29.278  1.00  0.00    -0.165 F 
ENDBRANCH  12  17
ENDBRANCH   7   9
ENDBRANCH   6   7
ENDBRANCH   5   6
ENDBRANCH   4   5
ENDBRANCH   3   4
ENDBRANCH   2   3
ENDBRANCH   1   2
BRANCH   1  21
ATOM     21  O   UNL A   1      47.485  32.277  26.245  1.00  0.00    -0.376 OA
BRANCH  21  22
ATOM     22  C   UNL A   1      47.286  33.649  26.541  1.00  0.00     0.202 C 
BRANCH  22  23
ATOM     23  C   UNL A   1      46.582  34.516  25.492  1.00  0.00     0.261 C 
BRANCH  23  24
ATOM     24  O   UNL A   1      45.430  35.221  25.979  1.00  0.00    -0.460 OA
BRANCH  24  25
ATOM     25  C   UNL A   1      44.302  34.473  26.077  1.00  0.00     0.338 C 
ATOM     26  O   UNL A   1      43.746  33.870  25.175  1.00  0.00    -0.246 OA
BRANCH  25  27
ATOM     27  C   UNL A   1      43.903  34.342  27.495  1.00  0.00     0.060 A 
ATOM     28  C   UNL A   1      43.588  33.063  27.971  1.00  0.00     0.016 A 
ATOM     29  C   UNL A   1      43.771  35.455  28.329  1.00  0.00     0.016 A 
ATOM     30  C   UNL A   1      43.105  32.895  29.270  1.00  0.00     0.010 A 
ATOM     31  C   UNL A   1      43.267  35.288  29.625  1.00  0.00     0.010 A 
ATOM     32  C   UNL A   1      42.903  34.012  30.090  1.00  0.00    -0.014 A 
BRANCH  32  33
ATOM     33  C   UNL A   1      42.140  33.865  31.356  1.00  0.00     0.031 A 
ATOM     34  C   UNL A   1      42.887  33.507  32.611  1.00  0.00     0.074 A 
ATOM     35  C   UNL A   1      40.812  34.064  31.399  1.00  0.00     0.049 A 
ATOM     36  N   UNL A   1      42.435  33.310  33.823  1.00  0.00    -0.248 NA
ATOM     37  C   UNL A   1      44.341  33.344  32.472  1.00  0.00     0.031 C 
ATOM     38  C   UNL A   1      39.981  34.452  30.262  1.00  0.00     0.029 A 
ATOM     39  N   UNL A   1      39.928  33.962  32.444  1.00  0.00    -0.354 N 
ATOM     40  C   UNL A   1      43.550  33.009  34.597  1.00  0.00     0.074 A 
ATOM     41  C   UNL A   1      44.690  33.002  33.702  1.00  0.00     0.031 C 
ATOM     42  C   UNL A   1      38.704  34.557  30.673  1.00  0.00     0.029 A 
ATOM     43  C   UNL A   1      38.623  34.205  32.090  1.00  0.00     0.049 A 
ATOM     44  H   UNL A   1      40.205  33.735  33.362  1.00  0.00     0.167 HD
ATOM     45  C   UNL A   1      43.622  32.771  35.931  1.00  0.00     0.034 A 
ATOM     46  C   UNL A   1      37.492  34.130  32.822  1.00  0.00     0.034 A 
ATOM     47  C   UNL A   1      42.474  32.737  36.805  1.00  0.00     0.049 A 
ATOM     48  C   UNL A   1      37.577  33.739  34.278  1.00  0.00     0.074 A 
ATOM     49  C   UNL A   1      42.433  32.508  38.170  1.00  0.00     0.029 A 
ATOM     50  N   UNL A   1      41.158  32.913  36.397  1.00  0.00    -0.354 N 
ATOM     51  N   UNL A   1      38.637  33.469  35.004  1.00  0.00    -0.248 NA
ATOM     52  C   UNL A   1      36.306  33.643  35.012  1.00  0.00     0.031 C 
ATOM     53  C   UNL A   1      41.092  32.467  38.570  1.00  0.00     0.029 A 
ATOM     54  C   UNL A   1      40.296  32.755  37.472  1.00  0.00     0.049 A 
ATOM     55  H   UNL A   1      40.877  33.121  35.476  1.00  0.00     0.167 HD
ATOM     56  C   UNL A   1      38.163  33.203  36.287  1.00  0.00     0.074 A 
ATOM     57  C   UNL A   1      36.724  33.350  36.236  1.00  0.00     0.031 C 
ATOM     58  C   UNL A   1      38.858  32.880  37.409  1.00  0.00     0.034 A 
BRANCH  45  59
ATOM     59  C   UNL A   1      44.990  32.464  36.494  1.00  0.00     0.023 A 
ATOM     60  C   UNL A   1      45.452  31.141  36.624  1.00  0.00     0.031 A 
ATOM     61  C   UNL A   1      45.809  33.497  36.981  1.00  0.00     0.131 A 
ATOM     62  C   UNL A   1      46.647  30.882  37.312  1.00  0.00     0.055 A 
ATOM     63  C   UNL A   1      47.041  33.238  37.584  1.00  0.00     0.041 A 
ATOM     64  F   UNL A   1      45.412  34.777  36.907  1.00  0.00    -0.206 F 
ATOM     65  C   UNL A   1      47.458  31.923  37.772  1.00  0.00     0.022 A 
BRANCH  62  66
ATOM     66  S   UNL A   1      47.029  29.166  37.763  1.00  0.00     0.124 S 
ATOM     67  O   UNL A   1      45.701  28.556  37.754  1.00  0.00    -0.237 OA
ATOM     68  O   UNL A   1      47.932  28.753  36.696  1.00  0.00    -0.237 OA
ATOM     69  O   UNL A   1      47.639  29.288  39.087  1.00  0.00    -0.744 OA
ENDBRANCH  62  66
ENDBRANCH  45  59
BRANCH  46  70
ATOM     70  C   UNL A   1      36.169  34.393  32.188  1.00  0.00     0.023 A 
ATOM     71  C   UNL A   1      35.464  35.578  32.445  1.00  0.00     0.031 A 
ATOM     72  C   UNL A   1      35.569  33.434  31.350  1.00  0.00     0.131 A 
ATOM     73  C   UNL A   1      34.184  35.762  31.900  1.00  0.00     0.055 A 
ATOM     74  C   UNL A   1      34.317  33.642  30.772  1.00  0.00     0.041 A 
ATOM     75  F   UNL A   1      36.201  32.282  31.076  1.00  0.00    -0.206 F 
ATOM     76  C   UNL A   1      33.612  34.808  31.054  1.00  0.00     0.022 A 
BRANCH  73  77
ATOM     77  S   UNL A   1      33.244  37.243  32.362  1.00  0.00     0.124 S 
ATOM     78  O   UNL A   1      33.021  37.869  31.063  1.00  0.00    -0.237 OA
ATOM     79  O   UNL A   1      32.068  36.669  33.007  1.00  0.00    -0.237 OA
ATOM     80  O   UNL A   1      34.153  37.959  33.253  1.00  0.00    -0.744 OA
ENDBRANCH  73  77
ENDBRANCH  46  70
BRANCH  58  81
ATOM     81  C   UNL A   1      38.066  32.705  38.686  1.00  0.00     0.023 A 
ATOM     82  C   UNL A   1      38.089  33.664  39.714  1.00  0.00     0.031 A 
ATOM     83  C   UNL A   1      37.282  31.553  38.876  1.00  0.00     0.131 A 
ATOM     84  C   UNL A   1      37.381  33.432  40.905  1.00  0.00     0.055 A 
ATOM     85  C   UNL A   1      36.535  31.354  40.038  1.00  0.00     0.041 A 
ATOM     86  F   UNL A   1      37.224  30.602  37.931  1.00  0.00    -0.206 F 
ATOM     87  C   UNL A   1      36.591  32.290  41.066  1.00  0.00     0.022 A 
BRANCH  84  88
ATOM     88  S   UNL A   1      37.572  34.601  42.280  1.00  0.00     0.124 S 
ATOM     89  O   UNL A   1      36.231  34.611  42.857  1.00  0.00    -0.237 OA
ATOM     90  O   UNL A   1      38.609  33.967  43.087  1.00  0.00    -0.237 OA
ATOM     91  O   UNL A   1      37.973  35.843  41.622  1.00  0.00    -0.744 OA
ENDBRANCH  84  88
ENDBRANCH  58  81
ENDBRANCH  32  33
ENDBRANCH  25  27
ENDBRANCH  24  25
ENDBRANCH  23  24
ENDBRANCH  22  23
ENDBRANCH  21  22
ENDBRANCH   1  21
TORSDOF 22
ENDMDL
