MODEL 1
REMARK VINA RESULT:      -8.8      0.000      0.000
REMARK SMILES COc1ccccc1C[N@@H+](C)[C@@H](C)c1ccc(C(=O)OCCOCCOCCOC(=O)c2ccc(-c3c4nc(c(-c5cc(S(=O)(=O)[O-])ccc5F)c5ccc([nH]5)c(-c5cc(S(=O)(=O)[O-])ccc5F)c5nc(c(-c6cc(S(=O)(=O)[O-])ccc6F)c6ccc3[nH]6)C=C5)C=C4)cc2)o1
REMARK SMILES IDX 24 1 23 2 22 3 21 4 20 5 18 6 19 7 17 8 14 9 15 10 95 11
REMARK SMILES IDX 16 12 12 13 13 14 10 15 11 16 9 18 8 19 3 20 4 21 5 22 7 23
REMARK SMILES IDX 6 24 2 25 1 26 25 27 26 28 27 29 28 30 29 31 30 32 31 33
REMARK SMILES IDX 32 34 33 35 94 36 34 37 93 38 35 39 36 40 37 41 87 42 38 43
REMARK SMILES IDX 92 44 86 45 88 46 39 47 91 48 85 49 84 50 40 52 72 53 52 54
REMARK SMILES IDX 71 55 53 56 56 57 70 58 89 59 54 60 55 61 69 63 90 64 57 65
REMARK SMILES IDX 41 66 42 67 50 68 43 69 49 70 51 71 48 72 44 73 45 74 46 75
REMARK SMILES IDX 47 76 73 77 74 78 82 79 75 80 81 81 83 82 80 83 76 84 77 85
REMARK SMILES IDX 78 86 79 87 58 88 59 89 67 90 60 91 66 92 68 93 65 94 61 95
REMARK SMILES IDX 62 96 63 97 64 98
REMARK H PARENT 10 17 88 51 56 62
REMARK Flexibility Score: inf
ROOT
ATOM      1  C   UNL A   1      42.185  19.385  27.357  1.00  0.00     0.188 C 
ENDROOT
BRANCH   1   2
ATOM      2  O   UNL A   1      40.910  19.974  27.578  1.00  0.00    -0.376 OA
BRANCH   2   3
ATOM      3  C   UNL A   1      40.776  21.391  27.521  1.00  0.00     0.202 C 
BRANCH   3   4
ATOM      4  C   UNL A   1      40.190  22.010  26.249  1.00  0.00     0.261 C 
BRANCH   4   5
ATOM      5  O   UNL A   1      38.765  22.160  26.345  1.00  0.00    -0.457 OA
BRANCH   5   6
ATOM      6  C   UNL A   1      38.290  23.421  26.117  1.00  0.00     0.374 C 
ATOM      7  O   UNL A   1      38.946  24.440  26.302  1.00  0.00    -0.242 OA
BRANCH   6   8
ATOM      8  C   UNL A   1      36.974  23.347  25.527  1.00  0.00     0.212 A 
ATOM      9  C   UNL A   1      34.774  23.208  25.630  1.00  0.00     0.162 A 
ATOM     10  C   UNL A   1      35.094  23.313  24.291  1.00  0.00     0.053 A 
ATOM     11  O   UNL A   1      35.908  23.286  26.379  1.00  0.00    -0.448 OA
ATOM     12  C   UNL A   1      36.507  23.376  24.224  1.00  0.00     0.059 A 
BRANCH   9  13
ATOM     13  C   UNL A   1      33.481  22.962  26.356  1.00  0.00     0.248 C 
ATOM     14  C   UNL A   1      33.695  22.452  27.790  1.00  0.00     0.084 C 
BRANCH  13  15
ATOM     15  N   UNL A   1      32.545  22.169  25.507  1.00  0.00    -0.325 N 
ATOM     16  C   UNL A   1      31.167  22.630  25.705  1.00  0.00     0.333 C 
ATOM     17  H   UNL A   1      32.859  22.328  24.549  1.00  0.00     0.348 HD
BRANCH  15  18
ATOM     18  C   UNL A   1      32.596  20.706  25.729  1.00  0.00     0.303 C 
BRANCH  18  19
ATOM     19  C   UNL A   1      32.486  19.835  24.494  1.00  0.00     0.048 A 
ATOM     20  C   UNL A   1      32.671  18.444  24.534  1.00  0.00     0.127 A 
ATOM     21  C   UNL A   1      32.645  17.681  23.361  1.00  0.00     0.047 A 
ATOM     22  C   UNL A   1      32.414  18.292  22.129  1.00  0.00     0.004 A 
ATOM     23  C   UNL A   1      32.226  20.430  23.245  1.00  0.00     0.013 A 
ATOM     24  C   UNL A   1      32.200  19.667  22.072  1.00  0.00     0.001 A 
BRANCH  20  25
ATOM     25  O   UNL A   1      33.072  17.799  25.672  1.00  0.00    -0.496 OA
ATOM     26  C   UNL A   1      32.750  16.413  25.664  1.00  0.00     0.278 C 
ENDBRANCH  20  25
ENDBRANCH  18  19
ENDBRANCH  15  18
ENDBRANCH  13  15
ENDBRANCH   9  13
ENDBRANCH   6   8
ENDBRANCH   5   6
ENDBRANCH   4   5
ENDBRANCH   3   4
ENDBRANCH   2   3
ENDBRANCH   1   2
BRANCH   1  27
ATOM     27  C   UNL A   1      42.600  19.026  25.920  1.00  0.00     0.188 C 
BRANCH  27  28
ATOM     28  O   UNL A   1      43.070  20.060  25.093  1.00  0.00    -0.376 OA
BRANCH  28  29
ATOM     29  C   UNL A   1      44.381  20.572  25.225  1.00  0.00     0.202 C 
BRANCH  29  30
ATOM     30  C   UNL A   1      44.775  21.969  25.739  1.00  0.00     0.261 C 
BRANCH  30  31
ATOM     31  O   UNL A   1      43.769  22.795  26.316  1.00  0.00    -0.460 OA
BRANCH  31  32
ATOM     32  C   UNL A   1      43.667  24.044  25.796  1.00  0.00     0.338 C 
ATOM     33  O   UNL A   1      43.642  24.348  24.617  1.00  0.00    -0.246 OA
BRANCH  32  34
ATOM     34  C   UNL A   1      43.398  24.978  26.908  1.00  0.00     0.060 A 
ATOM     35  C   UNL A   1      44.264  26.059  27.110  1.00  0.00     0.016 A 
ATOM     36  C   UNL A   1      42.305  24.771  27.751  1.00  0.00     0.016 A 
ATOM     37  C   UNL A   1      44.056  26.926  28.184  1.00  0.00     0.010 A 
ATOM     38  C   UNL A   1      42.112  25.625  28.839  1.00  0.00     0.010 A 
ATOM     39  C   UNL A   1      43.005  26.686  29.079  1.00  0.00    -0.014 A 
BRANCH  39  40
ATOM     40  C   UNL A   1      42.955  27.389  30.383  1.00  0.00     0.031 A 
ATOM     41  C   UNL A   1      42.178  28.674  30.457  1.00  0.00     0.074 A 
ATOM     42  C   UNL A   1      43.602  26.919  31.462  1.00  0.00     0.049 A 
ATOM     43  N   UNL A   1      42.095  29.544  31.430  1.00  0.00    -0.248 NA
ATOM     44  C   UNL A   1      41.396  29.028  29.262  1.00  0.00     0.031 C 
ATOM     45  C   UNL A   1      44.340  25.660  31.527  1.00  0.00     0.029 A 
ATOM     46  N   UNL A   1      43.757  27.466  32.712  1.00  0.00    -0.354 N 
ATOM     47  C   UNL A   1      41.260  30.553  30.962  1.00  0.00     0.074 A 
ATOM     48  C   UNL A   1      40.886  30.198  29.609  1.00  0.00     0.031 C 
ATOM     49  C   UNL A   1      44.894  25.544  32.747  1.00  0.00     0.029 A 
ATOM     50  C   UNL A   1      44.586  26.737  33.533  1.00  0.00     0.049 A 
ATOM     51  H   UNL A   1      43.317  28.300  32.994  1.00  0.00     0.167 HD
ATOM     52  C   UNL A   1      40.842  31.671  31.602  1.00  0.00     0.034 A 
ATOM     53  C   UNL A   1      45.067  27.025  34.760  1.00  0.00     0.034 A 
ATOM     54  C   UNL A   1      41.244  32.024  32.940  1.00  0.00     0.049 A 
ATOM     55  C   UNL A   1      44.668  28.325  35.419  1.00  0.00     0.074 A 
ATOM     56  C   UNL A   1      40.889  33.135  33.686  1.00  0.00     0.029 A 
ATOM     57  N   UNL A   1      42.108  31.276  33.731  1.00  0.00    -0.354 N 
ATOM     58  N   UNL A   1      43.885  29.278  34.967  1.00  0.00    -0.248 NA
ATOM     59  C   UNL A   1      45.221  28.588  36.756  1.00  0.00     0.031 C 
ATOM     60  C   UNL A   1      41.586  33.091  34.898  1.00  0.00     0.029 A 
ATOM     61  C   UNL A   1      42.319  31.915  34.943  1.00  0.00     0.049 A 
ATOM     62  H   UNL A   1      42.512  30.417  33.469  1.00  0.00     0.167 HD
ATOM     63  C   UNL A   1      43.824  30.234  35.980  1.00  0.00     0.074 A 
ATOM     64  C   UNL A   1      44.646  29.741  37.066  1.00  0.00     0.031 C 
ATOM     65  C   UNL A   1      43.145  31.409  36.015  1.00  0.00     0.034 A 
BRANCH  52  66
ATOM     66  C   UNL A   1      39.957  32.615  30.827  1.00  0.00     0.023 A 
ATOM     67  C   UNL A   1      38.572  32.401  30.711  1.00  0.00     0.031 A 
ATOM     68  C   UNL A   1      40.514  33.714  30.151  1.00  0.00     0.131 A 
ATOM     69  C   UNL A   1      37.804  33.229  29.879  1.00  0.00     0.055 A 
ATOM     70  C   UNL A   1      39.731  34.580  29.386  1.00  0.00     0.041 A 
ATOM     71  F   UNL A   1      41.833  33.952  30.203  1.00  0.00    -0.206 F 
ATOM     72  C   UNL A   1      38.369  34.331  29.234  1.00  0.00     0.022 A 
BRANCH  69  73
ATOM     73  S   UNL A   1      36.086  32.758  29.534  1.00  0.00     0.124 S 
ATOM     74  O   UNL A   1      36.091  32.665  28.077  1.00  0.00    -0.237 OA
ATOM     75  O   UNL A   1      35.954  31.497  30.254  1.00  0.00    -0.237 OA
ATOM     76  O   UNL A   1      35.310  33.871  30.078  1.00  0.00    -0.744 OA
ENDBRANCH  69  73
ENDBRANCH  52  66
BRANCH  53  77
ATOM     77  C   UNL A   1      46.024  26.101  35.435  1.00  0.00     0.023 A 
ATOM     78  C   UNL A   1      47.403  26.172  35.183  1.00  0.00     0.031 A 
ATOM     79  C   UNL A   1      45.562  25.088  36.294  1.00  0.00     0.131 A 
ATOM     80  C   UNL A   1      48.266  25.217  35.743  1.00  0.00     0.055 A 
ATOM     81  C   UNL A   1      46.431  24.173  36.891  1.00  0.00     0.041 A 
ATOM     82  F   UNL A   1      44.252  24.972  36.564  1.00  0.00    -0.206 F 
ATOM     83  C   UNL A   1      47.791  24.226  36.605  1.00  0.00     0.022 A 
BRANCH  80  84
ATOM     84  S   UNL A   1      50.015  25.237  35.260  1.00  0.00     0.124 S 
ATOM     85  O   UNL A   1      49.930  24.965  33.829  1.00  0.00    -0.237 OA
ATOM     86  O   UNL A   1      50.418  26.589  35.632  1.00  0.00    -0.237 OA
ATOM     87  O   UNL A   1      50.604  24.169  36.065  1.00  0.00    -0.744 OA
ENDBRANCH  80  84
ENDBRANCH  53  77
BRANCH  65  88
ATOM     88  C   UNL A   1      43.211  32.209  37.294  1.00  0.00     0.023 A 
ATOM     89  C   UNL A   1      42.324  31.982  38.360  1.00  0.00     0.031 A 
ATOM     90  C   UNL A   1      44.186  33.212  37.443  1.00  0.00     0.131 A 
ATOM     91  C   UNL A   1      42.399  32.782  39.512  1.00  0.00     0.055 A 
ATOM     92  C   UNL A   1      44.290  33.966  38.611  1.00  0.00     0.041 A 
ATOM     93  F   UNL A   1      45.058  33.469  36.455  1.00  0.00    -0.206 F 
ATOM     94  C   UNL A   1      43.386  33.762  39.650  1.00  0.00     0.022 A 
BRANCH  91  95
ATOM     95  S   UNL A   1      41.140  32.579  40.801  1.00  0.00     0.124 S 
ATOM     96  O   UNL A   1      41.284  33.815  41.564  1.00  0.00    -0.237 OA
ATOM     97  O   UNL A   1      39.912  32.450  40.023  1.00  0.00    -0.237 OA
ATOM     98  O   UNL A   1      41.558  31.366  41.502  1.00  0.00    -0.744 OA
ENDBRANCH  91  95
ENDBRANCH  65  88
ENDBRANCH  39  40
ENDBRANCH  32  34
ENDBRANCH  31  32
ENDBRANCH  30  31
ENDBRANCH  29  30
ENDBRANCH  28  29
ENDBRANCH  27  28
ENDBRANCH   1  27
TORSDOF 25
ENDMDL
MODEL 2
REMARK VINA RESULT:      -8.6      5.474      9.721
REMARK SMILES COc1ccccc1C[N@@H+](C)[C@@H](C)c1ccc(C(=O)OCCOCCOCCOC(=O)c2ccc(-c3c4nc(c(-c5cc(S(=O)(=O)[O-])ccc5F)c5ccc([nH]5)c(-c5cc(S(=O)(=O)[O-])ccc5F)c5nc(c(-c6cc(S(=O)(=O)[O-])ccc6F)c6ccc3[nH]6)C=C5)C=C4)cc2)o1
REMARK SMILES IDX 24 1 23 2 22 3 21 4 20 5 18 6 19 7 17 8 14 9 15 10 95 11
REMARK SMILES IDX 16 12 12 13 13 14 10 15 11 16 9 18 8 19 3 20 4 21 5 22 7 23
REMARK SMILES IDX 6 24 2 25 1 26 25 27 26 28 27 29 28 30 29 31 30 32 31 33
REMARK SMILES IDX 32 34 33 35 94 36 34 37 93 38 35 39 36 40 37 41 87 42 38 43
REMARK SMILES IDX 92 44 86 45 88 46 39 47 91 48 85 49 84 50 40 52 72 53 52 54
REMARK SMILES IDX 71 55 53 56 56 57 70 58 89 59 54 60 55 61 69 63 90 64 57 65
REMARK SMILES IDX 41 66 42 67 50 68 43 69 49 70 51 71 48 72 44 73 45 74 46 75
REMARK SMILES IDX 47 76 73 77 74 78 82 79 75 80 81 81 83 82 80 83 76 84 77 85
REMARK SMILES IDX 78 86 79 87 58 88 59 89 67 90 60 91 66 92 68 93 65 94 61 95
REMARK SMILES IDX 62 96 63 97 64 98
REMARK H PARENT 10 17 88 51 56 62
REMARK Flexibility Score: inf
ROOT
ATOM      1  C   UNL A   1      34.375  23.430  24.970  1.00  0.00     0.188 C 
ENDROOT
BRANCH   1   2
ATOM      2  O   UNL A   1      34.648  24.793  24.666  1.00  0.00    -0.376 OA
BRANCH   2   3
ATOM      3  C   UNL A   1      33.973  25.818  25.387  1.00  0.00     0.202 C 
BRANCH   3   4
ATOM      4  C   UNL A   1      33.876  27.206  24.749  1.00  0.00     0.261 C 
BRANCH   4   5
ATOM      5  O   UNL A   1      32.720  27.921  25.216  1.00  0.00    -0.457 OA
BRANCH   5   6
ATOM      6  C   UNL A   1      32.980  29.002  26.010  1.00  0.00     0.374 C 
ATOM      7  O   UNL A   1      33.964  29.094  26.736  1.00  0.00    -0.242 OA
BRANCH   6   8
ATOM      8  C   UNL A   1      31.997  30.032  25.768  1.00  0.00     0.212 A 
ATOM      9  C   UNL A   1      30.315  30.927  24.655  1.00  0.00     0.162 A 
ATOM     10  C   UNL A   1      30.569  31.770  25.718  1.00  0.00     0.053 A 
ATOM     11  O   UNL A   1      31.142  29.847  24.719  1.00  0.00    -0.448 OA
ATOM     12  C   UNL A   1      31.665  31.209  26.417  1.00  0.00     0.059 A 
BRANCH   9  13
ATOM     13  C   UNL A   1      29.393  31.023  23.471  1.00  0.00     0.248 C 
ATOM     14  C   UNL A   1      27.993  31.532  23.852  1.00  0.00     0.084 C 
BRANCH  13  15
ATOM     15  N   UNL A   1      29.442  29.770  22.665  1.00  0.00    -0.325 N 
ATOM     16  C   UNL A   1      28.540  29.873  21.513  1.00  0.00     0.333 C 
ATOM     17  H   UNL A   1      30.415  29.682  22.371  1.00  0.00     0.348 HD
BRANCH  15  18
ATOM     18  C   UNL A   1      29.117  28.536  23.417  1.00  0.00     0.303 C 
BRANCH  18  19
ATOM     19  C   UNL A   1      29.951  27.313  23.094  1.00  0.00     0.048 A 
ATOM     20  C   UNL A   1      29.830  26.108  23.804  1.00  0.00     0.127 A 
ATOM     21  C   UNL A   1      30.674  25.026  23.534  1.00  0.00     0.047 A 
ATOM     22  C   UNL A   1      31.644  25.122  22.537  1.00  0.00     0.004 A 
ATOM     23  C   UNL A   1      30.917  27.381  22.071  1.00  0.00     0.013 A 
ATOM     24  C   UNL A   1      31.762  26.299  21.802  1.00  0.00     0.001 A 
BRANCH  20  25
ATOM     25  O   UNL A   1      29.028  25.996  24.906  1.00  0.00    -0.496 OA
ATOM     26  C   UNL A   1      29.745  25.617  26.075  1.00  0.00     0.278 C 
ENDBRANCH  20  25
ENDBRANCH  18  19
ENDBRANCH  15  18
ENDBRANCH  13  15
ENDBRANCH   9  13
ENDBRANCH   6   8
ENDBRANCH   5   6
ENDBRANCH   4   5
ENDBRANCH   3   4
ENDBRANCH   2   3
ENDBRANCH   1   2
BRANCH   1  27
ATOM     27  C   UNL A   1      34.762  22.884  26.355  1.00  0.00     0.188 C 
BRANCH  27  28
ATOM     28  O   UNL A   1      35.829  21.973  26.428  1.00  0.00    -0.376 OA
BRANCH  28  29
ATOM     29  C   UNL A   1      36.210  21.193  25.313  1.00  0.00     0.202 C 
BRANCH  29  30
ATOM     30  C   UNL A   1      37.641  20.768  24.933  1.00  0.00     0.261 C 
BRANCH  30  31
ATOM     31  O   UNL A   1      38.736  21.352  25.631  1.00  0.00    -0.460 OA
BRANCH  31  32
ATOM     32  C   UNL A   1      39.789  20.528  25.863  1.00  0.00     0.338 C 
ATOM     33  O   UNL A   1      39.816  19.318  25.733  1.00  0.00    -0.246 OA
BRANCH  32  34
ATOM     34  C   UNL A   1      40.975  21.370  26.122  1.00  0.00     0.060 A 
ATOM     35  C   UNL A   1      42.243  20.776  26.113  1.00  0.00     0.016 A 
ATOM     36  C   UNL A   1      40.826  22.732  26.386  1.00  0.00     0.016 A 
ATOM     37  C   UNL A   1      43.373  21.543  26.402  1.00  0.00     0.010 A 
ATOM     38  C   UNL A   1      41.955  23.493  26.699  1.00  0.00     0.010 A 
ATOM     39  C   UNL A   1      43.228  22.895  26.740  1.00  0.00    -0.014 A 
BRANCH  39  40
ATOM     40  C   UNL A   1      44.354  23.639  27.353  1.00  0.00     0.031 A 
ATOM     41  C   UNL A   1      44.359  23.797  28.848  1.00  0.00     0.074 A 
ATOM     42  C   UNL A   1      45.328  24.186  26.606  1.00  0.00     0.049 A 
ATOM     43  N   UNL A   1      45.144  24.514  29.609  1.00  0.00    -0.248 NA
ATOM     44  C   UNL A   1      43.326  23.047  29.582  1.00  0.00     0.031 C 
ATOM     45  C   UNL A   1      45.459  24.055  25.157  1.00  0.00     0.029 A 
ATOM     46  N   UNL A   1      46.384  24.983  26.970  1.00  0.00    -0.354 N 
ATOM     47  C   UNL A   1      44.696  24.310  30.910  1.00  0.00     0.074 A 
ATOM     48  C   UNL A   1      43.553  23.424  30.829  1.00  0.00     0.031 C 
ATOM     49  C   UNL A   1      46.522  24.772  24.751  1.00  0.00     0.029 A 
ATOM     50  C   UNL A   1      47.118  25.445  25.903  1.00  0.00     0.049 A 
ATOM     51  H   UNL A   1      46.596  25.203  27.906  1.00  0.00     0.167 HD
ATOM     52  C   UNL A   1      45.192  24.813  32.066  1.00  0.00     0.034 A 
ATOM     53  C   UNL A   1      48.129  26.339  25.864  1.00  0.00     0.034 A 
ATOM     54  C   UNL A   1      46.314  25.716  32.128  1.00  0.00     0.049 A 
ATOM     55  C   UNL A   1      48.604  26.967  27.154  1.00  0.00     0.074 A 
ATOM     56  C   UNL A   1      46.898  26.295  33.241  1.00  0.00     0.029 A 
ATOM     57  N   UNL A   1      47.015  26.185  31.023  1.00  0.00    -0.354 N 
ATOM     58  N   UNL A   1      48.171  26.775  28.379  1.00  0.00    -0.248 NA
ATOM     59  C   UNL A   1      49.708  27.933  27.054  1.00  0.00     0.031 C 
ATOM     60  C   UNL A   1      47.907  27.160  32.807  1.00  0.00     0.029 A 
ATOM     61  C   UNL A   1      48.006  27.067  31.427  1.00  0.00     0.049 A 
ATOM     62  H   UNL A   1      46.834  25.929  30.090  1.00  0.00     0.167 HD
ATOM     63  C   UNL A   1      48.973  27.569  29.196  1.00  0.00     0.074 A 
ATOM     64  C   UNL A   1      49.917  28.238  28.326  1.00  0.00     0.031 C 
ATOM     65  C   UNL A   1      48.938  27.727  30.545  1.00  0.00     0.034 A 
BRANCH  52  66
ATOM     66  C   UNL A   1      44.473  24.443  33.339  1.00  0.00     0.023 A 
ATOM     67  C   UNL A   1      43.501  25.284  33.909  1.00  0.00     0.031 A 
ATOM     68  C   UNL A   1      44.802  23.258  34.020  1.00  0.00     0.131 A 
ATOM     69  C   UNL A   1      42.947  24.966  35.158  1.00  0.00     0.055 A 
ATOM     70  C   UNL A   1      44.190  22.908  35.225  1.00  0.00     0.041 A 
ATOM     71  F   UNL A   1      45.741  22.431  33.536  1.00  0.00    -0.206 F 
ATOM     72  C   UNL A   1      43.267  23.772  35.808  1.00  0.00     0.022 A 
BRANCH  69  73
ATOM     73  S   UNL A   1      41.913  26.203  35.989  1.00  0.00     0.124 S 
ATOM     74  O   UNL A   1      40.577  25.639  35.814  1.00  0.00    -0.237 OA
ATOM     75  O   UNL A   1      42.438  26.192  37.349  1.00  0.00    -0.237 OA
ATOM     76  O   UNL A   1      42.168  27.427  35.232  1.00  0.00    -0.744 OA
ENDBRANCH  69  73
ENDBRANCH  52  66
BRANCH  53  77
ATOM     77  C   UNL A   1      48.731  26.746  24.561  1.00  0.00     0.023 A 
ATOM     78  C   UNL A   1      50.090  26.522  24.288  1.00  0.00     0.031 A 
ATOM     79  C   UNL A   1      47.968  27.426  23.597  1.00  0.00     0.131 A 
ATOM     80  C   UNL A   1      50.655  27.017  23.102  1.00  0.00     0.055 A 
ATOM     81  C   UNL A   1      48.522  27.871  22.395  1.00  0.00     0.041 A 
ATOM     82  F   UNL A   1      46.665  27.671  23.811  1.00  0.00    -0.206 F 
ATOM     83  C   UNL A   1      49.878  27.679  22.149  1.00  0.00     0.022 A 
BRANCH  80  84
ATOM     84  S   UNL A   1      52.446  26.859  22.862  1.00  0.00     0.124 S 
ATOM     85  O   UNL A   1      52.513  26.091  21.622  1.00  0.00    -0.237 OA
ATOM     86  O   UNL A   1      52.866  28.253  22.774  1.00  0.00    -0.237 OA
ATOM     87  O   UNL A   1      52.891  26.150  24.060  1.00  0.00    -0.744 OA
ENDBRANCH  80  84
ENDBRANCH  53  77
BRANCH  65  88
ATOM     88  C   UNL A   1      49.996  28.609  31.165  1.00  0.00     0.023 A 
ATOM     89  C   UNL A   1      51.276  28.124  31.483  1.00  0.00     0.031 A 
ATOM     90  C   UNL A   1      49.711  29.959  31.435  1.00  0.00     0.131 A 
ATOM     91  C   UNL A   1      52.210  28.973  32.099  1.00  0.00     0.055 A 
ATOM     92  C   UNL A   1      50.661  30.812  31.997  1.00  0.00     0.041 A 
ATOM     93  F   UNL A   1      48.504  30.474  31.150  1.00  0.00    -0.206 F 
ATOM     94  C   UNL A   1      51.916  30.318  32.343  1.00  0.00     0.022 A 
BRANCH  91  95
ATOM     95  S   UNL A   1      53.793  28.280  32.648  1.00  0.00     0.124 S 
ATOM     96  O   UNL A   1      53.514  26.847  32.648  1.00  0.00    -0.237 OA
ATOM     97  O   UNL A   1      54.715  28.750  31.619  1.00  0.00    -0.237 OA
ATOM     98  O   UNL A   1      53.988  28.872  33.970  1.00  0.00    -0.744 OA
ENDBRANCH  91  95
ENDBRANCH  65  88
ENDBRANCH  39  40
ENDBRANCH  32  34
ENDBRANCH  31  32
ENDBRANCH  30  31
ENDBRANCH  29  30
ENDBRANCH  28  29
ENDBRANCH  27  28
ENDBRANCH   1  27
TORSDOF 25
ENDMDL
MODEL 3
REMARK VINA RESULT:      -8.5      5.205      7.006
REMARK SMILES COc1ccccc1C[N@@H+](C)[C@@H](C)c1ccc(C(=O)OCCOCCOCCOC(=O)c2ccc(-c3c4nc(c(-c5cc(S(=O)(=O)[O-])ccc5F)c5ccc([nH]5)c(-c5cc(S(=O)(=O)[O-])ccc5F)c5nc(c(-c6cc(S(=O)(=O)[O-])ccc6F)c6ccc3[nH]6)C=C5)C=C4)cc2)o1
REMARK SMILES IDX 24 1 23 2 22 3 21 4 20 5 18 6 19 7 17 8 14 9 15 10 95 11
REMARK SMILES IDX 16 12 12 13 13 14 10 15 11 16 9 18 8 19 3 20 4 21 5 22 7 23
REMARK SMILES IDX 6 24 2 25 1 26 25 27 26 28 27 29 28 30 29 31 30 32 31 33
REMARK SMILES IDX 32 34 33 35 94 36 34 37 93 38 35 39 36 40 37 41 87 42 38 43
REMARK SMILES IDX 92 44 86 45 88 46 39 47 91 48 85 49 84 50 40 52 72 53 52 54
REMARK SMILES IDX 71 55 53 56 56 57 70 58 89 59 54 60 55 61 69 63 90 64 57 65
REMARK SMILES IDX 41 66 42 67 50 68 43 69 49 70 51 71 48 72 44 73 45 74 46 75
REMARK SMILES IDX 47 76 73 77 74 78 82 79 75 80 81 81 83 82 80 83 76 84 77 85
REMARK SMILES IDX 78 86 79 87 58 88 59 89 67 90 60 91 66 92 68 93 65 94 61 95
REMARK SMILES IDX 62 96 63 97 64 98
REMARK H PARENT 10 17 88 51 56 62
REMARK Flexibility Score: inf
ROOT
ATOM      1  C   UNL A   1      34.127  25.140  25.557  1.00  0.00     0.188 C 
ENDROOT
BRANCH   1   2
ATOM      2  O   UNL A   1      33.930  26.422  26.141  1.00  0.00    -0.376 OA
BRANCH   2   3
ATOM      3  C   UNL A   1      32.634  26.785  26.608  1.00  0.00     0.202 C 
BRANCH   3   4
ATOM      4  C   UNL A   1      32.523  27.944  27.601  1.00  0.00     0.261 C 
BRANCH   4   5
ATOM      5  O   UNL A   1      31.957  29.112  26.985  1.00  0.00    -0.457 OA
BRANCH   5   6
ATOM      6  C   UNL A   1      32.806  29.825  26.187  1.00  0.00     0.374 C 
ATOM      7  O   UNL A   1      33.627  30.630  26.612  1.00  0.00    -0.242 OA
BRANCH   6   8
ATOM      8  C   UNL A   1      32.662  29.395  24.816  1.00  0.00     0.212 A 
ATOM      9  C   UNL A   1      31.480  28.759  23.065  1.00  0.00     0.162 A 
ATOM     10  C   UNL A   1      32.794  28.816  22.645  1.00  0.00     0.053 A 
ATOM     11  O   UNL A   1      31.394  29.165  24.361  1.00  0.00    -0.448 OA
ATOM     12  C   UNL A   1      33.555  29.199  23.776  1.00  0.00     0.059 A 
BRANCH   9  13
ATOM     13  C   UNL A   1      30.215  28.286  22.403  1.00  0.00     0.248 C 
ATOM     14  C   UNL A   1      29.105  29.351  22.419  1.00  0.00     0.084 C 
BRANCH  13  15
ATOM     15  N   UNL A   1      29.836  26.933  22.902  1.00  0.00    -0.325 N 
ATOM     16  C   UNL A   1      28.507  26.975  23.522  1.00  0.00     0.333 C 
ATOM     17  H   UNL A   1      29.845  26.335  22.076  1.00  0.00     0.348 HD
BRANCH  15  18
ATOM     18  C   UNL A   1      30.792  26.337  23.863  1.00  0.00     0.303 C 
BRANCH  18  19
ATOM     19  C   UNL A   1      31.372  24.989  23.485  1.00  0.00     0.048 A 
ATOM     20  C   UNL A   1      32.264  24.825  22.413  1.00  0.00     0.127 A 
ATOM     21  C   UNL A   1      32.714  23.555  22.040  1.00  0.00     0.047 A 
ATOM     22  C   UNL A   1      32.297  22.426  22.743  1.00  0.00     0.004 A 
ATOM     23  C   UNL A   1      30.985  23.840  24.202  1.00  0.00     0.013 A 
ATOM     24  C   UNL A   1      31.435  22.569  23.828  1.00  0.00     0.001 A 
BRANCH  20  25
ATOM     25  O   UNL A   1      32.579  25.856  21.571  1.00  0.00    -0.496 OA
ATOM     26  C   UNL A   1      32.571  25.472  20.201  1.00  0.00     0.278 C 
ENDBRANCH  20  25
ENDBRANCH  18  19
ENDBRANCH  15  18
ENDBRANCH  13  15
ENDBRANCH   9  13
ENDBRANCH   6   8
ENDBRANCH   5   6
ENDBRANCH   4   5
ENDBRANCH   3   4
ENDBRANCH   2   3
ENDBRANCH   1   2
BRANCH   1  27
ATOM     27  C   UNL A   1      33.925  23.887  26.426  1.00  0.00     0.188 C 
BRANCH  27  28
ATOM     28  O   UNL A   1      35.058  23.125  26.757  1.00  0.00    -0.376 OA
BRANCH  28  29
ATOM     29  C   UNL A   1      35.755  22.378  25.780  1.00  0.00     0.202 C 
BRANCH  29  30
ATOM     30  C   UNL A   1      37.277  22.368  25.541  1.00  0.00     0.261 C 
BRANCH  30  31
ATOM     31  O   UNL A   1      38.079  23.340  26.204  1.00  0.00    -0.460 OA
BRANCH  31  32
ATOM     32  C   UNL A   1      39.330  22.936  26.539  1.00  0.00     0.338 C 
ATOM     33  O   UNL A   1      39.809  21.827  26.385  1.00  0.00    -0.246 OA
BRANCH  32  34
ATOM     34  C   UNL A   1      40.095  24.128  26.957  1.00  0.00     0.060 A 
ATOM     35  C   UNL A   1      40.794  24.094  28.170  1.00  0.00     0.016 A 
ATOM     36  C   UNL A   1      40.103  25.274  26.160  1.00  0.00     0.016 A 
ATOM     37  C   UNL A   1      41.484  25.226  28.608  1.00  0.00     0.010 A 
ATOM     38  C   UNL A   1      40.774  26.413  26.611  1.00  0.00     0.010 A 
ATOM     39  C   UNL A   1      41.439  26.404  27.851  1.00  0.00    -0.014 A 
BRANCH  39  40
ATOM     40  C   UNL A   1      41.886  27.690  28.438  1.00  0.00     0.031 A 
ATOM     41  C   UNL A   1      40.829  28.642  28.926  1.00  0.00     0.074 A 
ATOM     42  C   UNL A   1      43.186  28.018  28.510  1.00  0.00     0.049 A 
ATOM     43  N   UNL A   1      40.947  29.875  29.346  1.00  0.00    -0.248 NA
ATOM     44  C   UNL A   1      39.449  28.131  28.929  1.00  0.00     0.031 C 
ATOM     45  C   UNL A   1      44.301  27.158  28.119  1.00  0.00     0.029 A 
ATOM     46  N   UNL A   1      43.786  29.183  28.920  1.00  0.00    -0.354 N 
ATOM     47  C   UNL A   1      39.656  30.291  29.655  1.00  0.00     0.074 A 
ATOM     48  C   UNL A   1      38.771  29.188  29.346  1.00  0.00     0.031 C 
ATOM     49  C   UNL A   1      45.451  27.836  28.284  1.00  0.00     0.029 A 
ATOM     50  C   UNL A   1      45.151  29.189  28.749  1.00  0.00     0.049 A 
ATOM     51  H   UNL A   1      43.287  29.941  29.301  1.00  0.00     0.167 HD
ATOM     52  C   UNL A   1      39.247  31.484  30.152  1.00  0.00     0.034 A 
ATOM     53  C   UNL A   1      46.044  30.187  28.914  1.00  0.00     0.034 A 
ATOM     54  C   UNL A   1      40.138  32.582  30.429  1.00  0.00     0.049 A 
ATOM     55  C   UNL A   1      45.556  31.541  29.374  1.00  0.00     0.074 A 
ATOM     56  C   UNL A   1      39.834  33.837  30.926  1.00  0.00     0.029 A 
ATOM     57  N   UNL A   1      41.511  32.561  30.216  1.00  0.00    -0.354 N 
ATOM     58  N   UNL A   1      44.333  31.930  29.657  1.00  0.00    -0.248 NA
ATOM     59  C   UNL A   1      46.571  32.592  29.538  1.00  0.00     0.031 C 
ATOM     60  C   UNL A   1      41.010  34.594  30.954  1.00  0.00     0.029 A 
ATOM     61  C   UNL A   1      42.063  33.790  30.546  1.00  0.00     0.049 A 
ATOM     62  H   UNL A   1      42.018  31.788  29.880  1.00  0.00     0.167 HD
ATOM     63  C   UNL A   1      44.440  33.258  30.065  1.00  0.00     0.074 A 
ATOM     64  C   UNL A   1      45.845  33.602  29.995  1.00  0.00     0.031 C 
ATOM     65  C   UNL A   1      43.467  34.116  30.468  1.00  0.00     0.034 A 
BRANCH  52  66
ATOM     66  C   UNL A   1      37.764  31.668  30.358  1.00  0.00     0.023 A 
ATOM     67  C   UNL A   1      36.965  32.339  29.415  1.00  0.00     0.031 A 
ATOM     68  C   UNL A   1      37.151  31.211  31.538  1.00  0.00     0.131 A 
ATOM     69  C   UNL A   1      35.617  32.600  29.702  1.00  0.00     0.055 A 
ATOM     70  C   UNL A   1      35.791  31.406  31.782  1.00  0.00     0.041 A 
ATOM     71  F   UNL A   1      37.869  30.587  32.484  1.00  0.00    -0.206 F 
ATOM     72  C   UNL A   1      35.018  32.118  30.868  1.00  0.00     0.022 A 
BRANCH  69  73
ATOM     73  S   UNL A   1      34.694  33.705  28.597  1.00  0.00     0.124 S 
ATOM     74  O   UNL A   1      34.698  34.953  29.356  1.00  0.00    -0.237 OA
ATOM     75  O   UNL A   1      35.506  33.691  27.386  1.00  0.00    -0.237 OA
ATOM     76  O   UNL A   1      33.388  33.060  28.481  1.00  0.00    -0.744 OA
ENDBRANCH  69  73
ENDBRANCH  52  66
BRANCH  53  77
ATOM     77  C   UNL A   1      47.485  29.975  28.593  1.00  0.00     0.023 A 
ATOM     78  C   UNL A   1      48.380  29.482  29.556  1.00  0.00     0.031 A 
ATOM     79  C   UNL A   1      48.001  30.329  27.334  1.00  0.00     0.131 A 
ATOM     80  C   UNL A   1      49.750  29.401  29.261  1.00  0.00     0.055 A 
ATOM     81  C   UNL A   1      49.357  30.197  27.027  1.00  0.00     0.041 A 
ATOM     82  F   UNL A   1      47.190  30.811  26.378  1.00  0.00    -0.206 F 
ATOM     83  C   UNL A   1      50.242  29.744  28.000  1.00  0.00     0.022 A 
BRANCH  80  84
ATOM     84  S   UNL A   1      50.896  28.921  30.583  1.00  0.00     0.124 S 
ATOM     85  O   UNL A   1      51.718  27.919  29.913  1.00  0.00    -0.237 OA
ATOM     86  O   UNL A   1      51.553  30.187  30.890  1.00  0.00    -0.237 OA
ATOM     87  O   UNL A   1      50.015  28.408  31.629  1.00  0.00    -0.744 OA
ENDBRANCH  80  84
ENDBRANCH  53  77
BRANCH  65  88
ATOM     88  C   UNL A   1      43.902  35.487  30.928  1.00  0.00     0.023 A 
ATOM     89  C   UNL A   1      43.917  36.593  30.061  1.00  0.00     0.031 A 
ATOM     90  C   UNL A   1      44.303  35.684  32.262  1.00  0.00     0.131 A 
ATOM     91  C   UNL A   1      44.370  37.838  30.526  1.00  0.00     0.055 A 
ATOM     92  C   UNL A   1      44.701  36.935  32.732  1.00  0.00     0.041 A 
ATOM     93  F   UNL A   1      44.307  34.661  33.132  1.00  0.00    -0.206 F 
ATOM     94  C   UNL A   1      44.748  38.019  31.860  1.00  0.00     0.022 A 
BRANCH  91  95
ATOM     95  S   UNL A   1      44.535  39.205  29.346  1.00  0.00     0.124 S 
ATOM     96  O   UNL A   1      45.936  39.097  28.949  1.00  0.00    -0.237 OA
ATOM     97  O   UNL A   1      43.554  38.856  28.324  1.00  0.00    -0.237 OA
ATOM     98  O   UNL A   1      44.207  40.387  30.141  1.00  0.00    -0.744 OA
ENDBRANCH  91  95
ENDBRANCH  65  88
ENDBRANCH  39  40
ENDBRANCH  32  34
ENDBRANCH  31  32
ENDBRANCH  30  31
ENDBRANCH  29  30
ENDBRANCH  28  29
ENDBRANCH  27  28
ENDBRANCH   1  27
TORSDOF 25
ENDMDL
