MODEL 1
REMARK VINA RESULT:      -9.8      0.000      0.000
REMARK SMILES CSc1ncc(Cl)c(C(=O)Nc2ccsc2C(=O)OCCOCCOCCOC(=O)c2ccc(-c3c4nc(c(-c5cc(S(=O)(=O)[O-])ccc5F)c5ccc([nH]5)c(-c5cc(S(=O)(=O)[O-])ccc5F)c5nc(c(-c6cc(S(=O)(=O)[O-])ccc6F)c6ccc3[nH]6)C=C5)C=C4)cc2)n1
REMARK SMILES IDX 23 1 22 2 21 3 20 4 19 5 17 6 18 7 16 8 12 9 13 10 14 11
REMARK SMILES IDX 15 12 11 13 9 14 10 15 8 17 3 18 4 19 94 20 5 21 6 22 7 23
REMARK SMILES IDX 2 24 1 25 24 26 25 27 26 28 27 29 28 30 29 31 30 32 31 33
REMARK SMILES IDX 32 34 93 35 33 36 92 37 34 38 35 39 36 40 86 41 37 42 91 43
REMARK SMILES IDX 85 44 87 45 38 46 90 47 84 48 83 49 39 51 71 52 51 53 70 54
REMARK SMILES IDX 52 55 55 56 69 57 88 58 53 59 54 60 68 62 89 63 56 64 40 65
REMARK SMILES IDX 41 66 49 67 42 68 48 69 50 70 47 71 43 72 44 73 45 74 46 75
REMARK SMILES IDX 72 76 73 77 81 78 74 79 80 80 82 81 79 82 75 83 76 84 77 85
REMARK SMILES IDX 78 86 57 87 58 88 66 89 59 90 65 91 67 92 64 93 60 94 61 95
REMARK SMILES IDX 62 96 63 97
REMARK H PARENT 11 16 87 50 55 61
REMARK Flexibility Score: inf
ROOT
ATOM      1  C   UNL A   1      32.267  29.300  24.311  1.00  0.00     0.188 C 
ENDROOT
BRANCH   1   2
ATOM      2  O   UNL A   1      33.595  28.807  24.440  1.00  0.00    -0.376 OA
BRANCH   2   3
ATOM      3  C   UNL A   1      34.392  28.580  23.293  1.00  0.00     0.202 C 
BRANCH   3   4
ATOM      4  C   UNL A   1      33.664  28.119  22.029  1.00  0.00     0.261 C 
BRANCH   4   5
ATOM      5  O   UNL A   1      33.740  26.702  21.785  1.00  0.00    -0.459 OA
BRANCH   5   6
ATOM      6  C   UNL A   1      32.547  26.030  21.863  1.00  0.00     0.350 C 
ATOM      7  O   UNL A   1      31.883  25.721  20.879  1.00  0.00    -0.245 OA
BRANCH   6   8
ATOM      8  C   UNL A   1      32.184  25.741  23.248  1.00  0.00     0.136 A 
ATOM      9  C   UNL A   1      32.902  25.271  24.349  1.00  0.00     0.067 A 
ATOM     10  C   UNL A   1      32.082  25.248  25.525  1.00  0.00     0.039 A 
ATOM     11  C   UNL A   1      30.763  25.535  25.264  1.00  0.00     0.068 A 
ATOM     12  S   UNL A   1      30.518  25.962  23.642  1.00  0.00    -0.135 S 
BRANCH   9  13
ATOM     13  N   UNL A   1      34.245  24.920  24.271  1.00  0.00    -0.319 N 
ATOM     14  C   UNL A   1      34.937  23.769  24.588  1.00  0.00     0.276 C 
ATOM     15  O   UNL A   1      36.170  23.816  24.534  1.00  0.00    -0.267 OA
ATOM     16  H   UNL A   1      34.817  25.638  23.918  1.00  0.00     0.170 HD
BRANCH  14  17
ATOM     17  C   UNL A   1      34.316  22.458  24.943  1.00  0.00     0.151 A 
ATOM     18  C   UNL A   1      33.107  20.694  24.090  1.00  0.00     0.188 A 
ATOM     19  N   UNL A   1      32.878  20.175  25.302  1.00  0.00    -0.230 NA
ATOM     20  N   UNL A   1      33.842  21.787  23.855  1.00  0.00    -0.216 NA
ATOM     21  C   UNL A   1      33.362  20.868  26.352  1.00  0.00     0.137 A 
ATOM     22  C   UNL A   1      34.051  22.056  26.240  1.00  0.00     0.090 A 
ATOM     23  Cl  UNL A   1      34.408  22.926  27.668  1.00  0.00    -0.080 Cl
BRANCH  18  24
ATOM     24  S   UNL A   1      32.168  20.031  22.744  1.00  0.00    -0.090 SA
ATOM     25  C   UNL A   1      32.535  18.288  23.075  1.00  0.00     0.094 C 
ENDBRANCH  18  24
ENDBRANCH  14  17
ENDBRANCH   9  13
ENDBRANCH   6   8
ENDBRANCH   5   6
ENDBRANCH   4   5
ENDBRANCH   3   4
ENDBRANCH   2   3
ENDBRANCH   1   2
BRANCH   1  26
ATOM     26  C   UNL A   1      31.428  29.664  25.547  1.00  0.00     0.188 C 
BRANCH  26  27
ATOM     27  O   UNL A   1      31.441  31.037  25.901  1.00  0.00    -0.376 OA
BRANCH  27  28
ATOM     28  C   UNL A   1      32.226  31.366  27.040  1.00  0.00     0.202 C 
BRANCH  28  29
ATOM     29  C   UNL A   1      32.735  32.809  26.978  1.00  0.00     0.261 C 
BRANCH  29  30
ATOM     30  O   UNL A   1      32.235  33.657  28.026  1.00  0.00    -0.460 OA
BRANCH  30  31
ATOM     31  C   UNL A   1      33.106  34.560  28.533  1.00  0.00     0.338 C 
ATOM     32  O   UNL A   1      32.906  35.747  28.717  1.00  0.00    -0.246 OA
BRANCH  31  33
ATOM     33  C   UNL A   1      34.300  33.830  29.002  1.00  0.00     0.060 A 
ATOM     34  C   UNL A   1      34.124  32.733  29.851  1.00  0.00     0.016 A 
ATOM     35  C   UNL A   1      35.580  34.235  28.622  1.00  0.00     0.016 A 
ATOM     36  C   UNL A   1      35.234  32.045  30.342  1.00  0.00     0.010 A 
ATOM     37  C   UNL A   1      36.692  33.559  29.128  1.00  0.00     0.010 A 
ATOM     38  C   UNL A   1      36.525  32.475  30.009  1.00  0.00    -0.014 A 
BRANCH  38  39
ATOM     39  C   UNL A   1      37.702  31.899  30.703  1.00  0.00     0.031 A 
ATOM     40  C   UNL A   1      38.511  30.846  29.996  1.00  0.00     0.074 A 
ATOM     41  C   UNL A   1      38.040  32.297  31.942  1.00  0.00     0.049 A 
ATOM     42  N   UNL A   1      39.540  30.163  30.422  1.00  0.00    -0.248 NA
ATOM     43  C   UNL A   1      38.094  30.518  28.623  1.00  0.00     0.031 C 
ATOM     44  C   UNL A   1      37.347  33.325  32.718  1.00  0.00     0.029 A 
ATOM     45  N   UNL A   1      39.045  31.869  32.774  1.00  0.00    -0.354 N 
ATOM     46  C   UNL A   1      39.893  29.319  29.376  1.00  0.00     0.074 A 
ATOM     47  C   UNL A   1      38.949  29.558  28.305  1.00  0.00     0.031 C 
ATOM     48  C   UNL A   1      37.934  33.428  33.924  1.00  0.00     0.029 A 
ATOM     49  C   UNL A   1      39.022  32.456  34.017  1.00  0.00     0.049 A 
ATOM     50  H   UNL A   1      39.719  31.204  32.505  1.00  0.00     0.167 HD
ATOM     51  C   UNL A   1      40.912  28.427  29.314  1.00  0.00     0.034 A 
ATOM     52  C   UNL A   1      39.771  32.213  35.111  1.00  0.00     0.034 A 
ATOM     53  C   UNL A   1      41.838  28.188  30.392  1.00  0.00     0.049 A 
ATOM     54  C   UNL A   1      40.861  31.168  35.039  1.00  0.00     0.074 A 
ATOM     55  C   UNL A   1      42.927  27.335  30.417  1.00  0.00     0.029 A 
ATOM     56  N   UNL A   1      41.774  28.788  31.642  1.00  0.00    -0.354 N 
ATOM     57  N   UNL A   1      41.211  30.404  34.029  1.00  0.00    -0.248 NA
ATOM     58  C   UNL A   1      41.663  30.959  36.253  1.00  0.00     0.031 C 
ATOM     59  C   UNL A   1      43.479  27.367  31.704  1.00  0.00     0.029 A 
ATOM     60  C   UNL A   1      42.781  28.295  32.459  1.00  0.00     0.049 A 
ATOM     61  H   UNL A   1      41.110  29.463  31.911  1.00  0.00     0.167 HD
ATOM     62  C   UNL A   1      42.291  29.648  34.480  1.00  0.00     0.074 A 
ATOM     63  C   UNL A   1      42.543  30.057  35.846  1.00  0.00     0.031 C 
ATOM     64  C   UNL A   1      43.015  28.706  33.823  1.00  0.00     0.034 A 
BRANCH  51  65
ATOM     65  C   UNL A   1      41.038  27.609  28.054  1.00  0.00     0.023 A 
ATOM     66  C   UNL A   1      40.627  26.266  27.998  1.00  0.00     0.031 A 
ATOM     67  C   UNL A   1      41.603  28.178  26.899  1.00  0.00     0.131 A 
ATOM     68  C   UNL A   1      40.842  25.520  26.830  1.00  0.00     0.055 A 
ATOM     69  C   UNL A   1      41.749  27.449  25.717  1.00  0.00     0.041 A 
ATOM     70  F   UNL A   1      42.034  29.449  26.904  1.00  0.00    -0.206 F 
ATOM     71  C   UNL A   1      41.378  26.108  25.682  1.00  0.00     0.022 A 
BRANCH  68  72
ATOM     72  S   UNL A   1      40.524  23.734  26.872  1.00  0.00     0.124 S 
ATOM     73  O   UNL A   1      40.653  23.444  28.298  1.00  0.00    -0.237 OA
ATOM     74  O   UNL A   1      39.178  23.640  26.321  1.00  0.00    -0.237 OA
ATOM     75  O   UNL A   1      41.583  23.178  26.031  1.00  0.00    -0.744 OA
ENDBRANCH  68  72
ENDBRANCH  51  65
BRANCH  52  76
ATOM     76  C   UNL A   1      39.495  32.924  36.393  1.00  0.00     0.023 A 
ATOM     77  C   UNL A   1      38.611  32.393  37.346  1.00  0.00     0.031 A 
ATOM     78  C   UNL A   1      40.059  34.187  36.647  1.00  0.00     0.131 A 
ATOM     79  C   UNL A   1      38.276  33.146  38.483  1.00  0.00     0.055 A 
ATOM     80  C   UNL A   1      39.764  34.908  37.805  1.00  0.00     0.041 A 
ATOM     81  F   UNL A   1      40.908  34.740  35.766  1.00  0.00    -0.206 F 
ATOM     82  C   UNL A   1      38.855  34.393  38.725  1.00  0.00     0.022 A 
BRANCH  79  83
ATOM     83  S   UNL A   1      36.993  32.510  39.598  1.00  0.00     0.124 S 
ATOM     84  O   UNL A   1      35.795  32.642  38.777  1.00  0.00    -0.237 OA
ATOM     85  O   UNL A   1      37.454  31.149  39.845  1.00  0.00    -0.237 OA
ATOM     86  O   UNL A   1      37.064  33.410  40.747  1.00  0.00    -0.744 OA
ENDBRANCH  79  83
ENDBRANCH  52  76
BRANCH  64  87
ATOM     87  C   UNL A   1      44.179  28.091  34.562  1.00  0.00     0.023 A 
ATOM     88  C   UNL A   1      44.045  26.902  35.300  1.00  0.00     0.031 A 
ATOM     89  C   UNL A   1      45.441  28.712  34.530  1.00  0.00     0.131 A 
ATOM     90  C   UNL A   1      45.142  26.397  36.015  1.00  0.00     0.055 A 
ATOM     91  C   UNL A   1      46.542  28.175  35.199  1.00  0.00     0.041 A 
ATOM     92  F   UNL A   1      45.625  29.849  33.842  1.00  0.00    -0.206 F 
ATOM     93  C   UNL A   1      46.393  27.017  35.957  1.00  0.00     0.022 A 
BRANCH  90  94
ATOM     94  S   UNL A   1      44.894  24.958  37.093  1.00  0.00     0.124 S 
ATOM     95  O   UNL A   1      44.115  25.528  38.187  1.00  0.00    -0.237 OA
ATOM     96  O   UNL A   1      44.183  24.032  36.218  1.00  0.00    -0.237 OA
ATOM     97  O   UNL A   1      46.255  24.554  37.444  1.00  0.00    -0.744 OA
ENDBRANCH  90  94
ENDBRANCH  64  87
ENDBRANCH  38  39
ENDBRANCH  31  33
ENDBRANCH  30  31
ENDBRANCH  29  30
ENDBRANCH  28  29
ENDBRANCH  27  28
ENDBRANCH  26  27
ENDBRANCH   1  26
TORSDOF 23
ENDMDL
MODEL 2
REMARK VINA RESULT:      -9.5      1.456      7.419
REMARK SMILES CSc1ncc(Cl)c(C(=O)Nc2ccsc2C(=O)OCCOCCOCCOC(=O)c2ccc(-c3c4nc(c(-c5cc(S(=O)(=O)[O-])ccc5F)c5ccc([nH]5)c(-c5cc(S(=O)(=O)[O-])ccc5F)c5nc(c(-c6cc(S(=O)(=O)[O-])ccc6F)c6ccc3[nH]6)C=C5)C=C4)cc2)n1
REMARK SMILES IDX 23 1 22 2 21 3 20 4 19 5 17 6 18 7 16 8 12 9 13 10 14 11
REMARK SMILES IDX 15 12 11 13 9 14 10 15 8 17 3 18 4 19 94 20 5 21 6 22 7 23
REMARK SMILES IDX 2 24 1 25 24 26 25 27 26 28 27 29 28 30 29 31 30 32 31 33
REMARK SMILES IDX 32 34 93 35 33 36 92 37 34 38 35 39 36 40 86 41 37 42 91 43
REMARK SMILES IDX 85 44 87 45 38 46 90 47 84 48 83 49 39 51 71 52 51 53 70 54
REMARK SMILES IDX 52 55 55 56 69 57 88 58 53 59 54 60 68 62 89 63 56 64 40 65
REMARK SMILES IDX 41 66 49 67 42 68 48 69 50 70 47 71 43 72 44 73 45 74 46 75
REMARK SMILES IDX 72 76 73 77 81 78 74 79 80 80 82 81 79 82 75 83 76 84 77 85
REMARK SMILES IDX 78 86 57 87 58 88 66 89 59 90 65 91 67 92 64 93 60 94 61 95
REMARK SMILES IDX 62 96 63 97
REMARK H PARENT 11 16 87 50 55 61
REMARK Flexibility Score: inf
ROOT
ATOM      1  C   UNL A   1      32.109  29.327  25.200  1.00  0.00     0.188 C 
ENDROOT
BRANCH   1   2
ATOM      2  O   UNL A   1      33.438  28.894  24.936  1.00  0.00    -0.376 OA
BRANCH   2   3
ATOM      3  C   UNL A   1      33.952  28.915  23.617  1.00  0.00     0.202 C 
BRANCH   3   4
ATOM      4  C   UNL A   1      33.047  28.358  22.516  1.00  0.00     0.261 C 
BRANCH   4   5
ATOM      5  O   UNL A   1      33.418  27.046  22.051  1.00  0.00    -0.459 OA
BRANCH   5   6
ATOM      6  C   UNL A   1      32.443  26.088  22.166  1.00  0.00     0.350 C 
ATOM      7  O   UNL A   1      31.949  25.514  21.201  1.00  0.00    -0.245 OA
BRANCH   6   8
ATOM      8  C   UNL A   1      32.083  25.852  23.561  1.00  0.00     0.136 A 
ATOM      9  C   UNL A   1      32.813  25.467  24.688  1.00  0.00     0.067 A 
ATOM     10  C   UNL A   1      31.988  25.467  25.859  1.00  0.00     0.039 A 
ATOM     11  C   UNL A   1      30.659  25.685  25.579  1.00  0.00     0.068 A 
ATOM     12  S   UNL A   1      30.407  26.022  23.936  1.00  0.00    -0.135 S 
BRANCH   9  13
ATOM     13  N   UNL A   1      34.170  25.170  24.633  1.00  0.00    -0.319 N 
ATOM     14  C   UNL A   1      34.890  24.014  24.857  1.00  0.00     0.276 C 
ATOM     15  O   UNL A   1      36.122  24.106  24.864  1.00  0.00    -0.267 OA
ATOM     16  H   UNL A   1      34.730  25.939  24.382  1.00  0.00     0.170 HD
BRANCH  14  17
ATOM     17  C   UNL A   1      34.303  22.653  25.045  1.00  0.00     0.151 A 
ATOM     18  C   UNL A   1      33.127  20.986  23.981  1.00  0.00     0.188 A 
ATOM     19  N   UNL A   1      32.923  20.309  25.118  1.00  0.00    -0.230 NA
ATOM     20  N   UNL A   1      33.834  22.117  23.884  1.00  0.00    -0.216 NA
ATOM     21  C   UNL A   1      33.401  20.873  26.245  1.00  0.00     0.137 A 
ATOM     22  C   UNL A   1      34.062  22.082  26.282  1.00  0.00     0.090 A 
ATOM     23  Cl  UNL A   1      34.412  22.770  27.807  1.00  0.00    -0.080 Cl
BRANCH  18  24
ATOM     24  S   UNL A   1      32.191  20.478  22.568  1.00  0.00    -0.090 SA
ATOM     25  C   UNL A   1      32.149  18.712  22.970  1.00  0.00     0.094 C 
ENDBRANCH  18  24
ENDBRANCH  14  17
ENDBRANCH   9  13
ENDBRANCH   6   8
ENDBRANCH   5   6
ENDBRANCH   4   5
ENDBRANCH   3   4
ENDBRANCH   2   3
ENDBRANCH   1   2
BRANCH   1  26
ATOM     26  C   UNL A   1      31.722  29.926  26.562  1.00  0.00     0.188 C 
BRANCH  26  27
ATOM     27  O   UNL A   1      31.544  31.333  26.574  1.00  0.00    -0.376 OA
BRANCH  27  28
ATOM     28  C   UNL A   1      32.621  32.080  27.125  1.00  0.00     0.202 C 
BRANCH  28  29
ATOM     29  C   UNL A   1      32.280  33.569  27.231  1.00  0.00     0.261 C 
BRANCH  29  30
ATOM     30  O   UNL A   1      32.532  34.142  28.525  1.00  0.00    -0.460 OA
BRANCH  30  31
ATOM     31  C   UNL A   1      33.678  34.850  28.655  1.00  0.00     0.338 C 
ATOM     32  O   UNL A   1      33.800  36.061  28.603  1.00  0.00    -0.246 OA
BRANCH  31  33
ATOM     33  C   UNL A   1      34.750  33.917  29.053  1.00  0.00     0.060 A 
ATOM     34  C   UNL A   1      34.431  32.853  29.903  1.00  0.00     0.016 A 
ATOM     35  C   UNL A   1      36.059  34.101  28.606  1.00  0.00     0.016 A 
ATOM     36  C   UNL A   1      35.429  31.976  30.328  1.00  0.00     0.010 A 
ATOM     37  C   UNL A   1      37.062  33.234  29.046  1.00  0.00     0.010 A 
ATOM     38  C   UNL A   1      36.756  32.181  29.928  1.00  0.00    -0.014 A 
BRANCH  38  39
ATOM     39  C   UNL A   1      37.851  31.399  30.553  1.00  0.00     0.031 A 
ATOM     40  C   UNL A   1      38.230  31.705  31.976  1.00  0.00     0.074 A 
ATOM     41  C   UNL A   1      38.501  30.444  29.866  1.00  0.00     0.049 A 
ATOM     42  N   UNL A   1      39.185  31.196  32.709  1.00  0.00    -0.248 NA
ATOM     43  C   UNL A   1      37.423  32.730  32.659  1.00  0.00     0.031 C 
ATOM     44  C   UNL A   1      38.208  30.044  28.491  1.00  0.00     0.029 A 
ATOM     45  N   UNL A   1      39.558  29.647  30.230  1.00  0.00    -0.354 N 
ATOM     46  C   UNL A   1      39.101  31.840  33.938  1.00  0.00     0.074 A 
ATOM     47  C   UNL A   1      38.018  32.796  33.840  1.00  0.00     0.031 C 
ATOM     48  C   UNL A   1      39.084  29.093  28.118  1.00  0.00     0.029 A 
ATOM     49  C   UNL A   1      40.017  28.840  29.216  1.00  0.00     0.049 A 
ATOM     50  H   UNL A   1      39.952  29.654  31.132  1.00  0.00     0.167 HD
ATOM     51  C   UNL A   1      39.857  31.650  35.047  1.00  0.00     0.034 A 
ATOM     52  C   UNL A   1      41.084  28.016  29.170  1.00  0.00     0.034 A 
ATOM     53  C   UNL A   1      40.942  30.704  35.128  1.00  0.00     0.049 A 
ATOM     54  C   UNL A   1      41.952  27.868  30.399  1.00  0.00     0.074 A 
ATOM     55  C   UNL A   1      41.745  30.408  36.215  1.00  0.00     0.029 A 
ATOM     56  N   UNL A   1      41.389  29.915  34.077  1.00  0.00    -0.354 N 
ATOM     57  N   UNL A   1      41.837  28.454  31.570  1.00  0.00    -0.248 NA
ATOM     58  C   UNL A   1      43.088  26.941  30.301  1.00  0.00     0.031 C 
ATOM     59  C   UNL A   1      42.721  29.492  35.802  1.00  0.00     0.029 A 
ATOM     60  C   UNL A   1      42.481  29.161  34.478  1.00  0.00     0.049 A 
ATOM     61  H   UNL A   1      40.990  29.896  33.177  1.00  0.00     0.167 HD
ATOM     62  C   UNL A   1      42.869  27.941  32.353  1.00  0.00     0.074 A 
ATOM     63  C   UNL A   1      43.586  26.991  31.528  1.00  0.00     0.031 C 
ATOM     64  C   UNL A   1      43.191  28.223  33.641  1.00  0.00     0.034 A 
BRANCH  51  65
ATOM     65  C   UNL A   1      39.566  32.524  36.240  1.00  0.00     0.023 A 
ATOM     66  C   UNL A   1      40.234  33.744  36.446  1.00  0.00     0.031 A 
ATOM     67  C   UNL A   1      38.622  32.116  37.198  1.00  0.00     0.131 A 
ATOM     68  C   UNL A   1      39.992  34.483  37.613  1.00  0.00     0.055 A 
ATOM     69  C   UNL A   1      38.335  32.891  38.323  1.00  0.00     0.041 A 
ATOM     70  F   UNL A   1      37.973  30.949  37.064  1.00  0.00    -0.206 F 
ATOM     71  C   UNL A   1      39.030  34.077  38.542  1.00  0.00     0.022 A 
BRANCH  68  72
ATOM     72  S   UNL A   1      41.041  35.920  37.963  1.00  0.00     0.124 S 
ATOM     73  O   UNL A   1      40.053  36.992  38.058  1.00  0.00    -0.237 OA
ATOM     74  O   UNL A   1      41.693  35.540  39.210  1.00  0.00    -0.237 OA
ATOM     75  O   UNL A   1      41.920  35.994  36.797  1.00  0.00    -0.744 OA
ENDBRANCH  68  72
ENDBRANCH  51  65
BRANCH  52  76
ATOM     76  C   UNL A   1      41.438  27.303  27.909  1.00  0.00     0.023 A 
ATOM     77  C   UNL A   1      41.236  25.921  27.771  1.00  0.00     0.031 A 
ATOM     78  C   UNL A   1      42.056  27.989  26.848  1.00  0.00     0.131 A 
ATOM     79  C   UNL A   1      41.696  25.259  26.621  1.00  0.00     0.055 A 
ATOM     80  C   UNL A   1      42.463  27.335  25.684  1.00  0.00     0.041 A 
ATOM     81  F   UNL A   1      42.274  29.311  26.930  1.00  0.00    -0.206 F 
ATOM     82  C   UNL A   1      42.297  25.958  25.572  1.00  0.00     0.022 A 
BRANCH  79  83
ATOM     83  S   UNL A   1      41.584  23.449  26.558  1.00  0.00     0.124 S 
ATOM     84  O   UNL A   1      42.381  23.143  25.376  1.00  0.00    -0.237 OA
ATOM     85  O   UNL A   1      42.165  23.065  27.840  1.00  0.00    -0.237 OA
ATOM     86  O   UNL A   1      40.150  23.201  26.426  1.00  0.00    -0.744 OA
ENDBRANCH  79  83
ENDBRANCH  52  76
BRANCH  64  87
ATOM     87  C   UNL A   1      44.342  27.457  34.248  1.00  0.00     0.023 A 
ATOM     88  C   UNL A   1      44.162  26.199  34.850  1.00  0.00     0.031 A 
ATOM     89  C   UNL A   1      45.639  28.001  34.227  1.00  0.00     0.131 A 
ATOM     90  C   UNL A   1      45.252  25.548  35.449  1.00  0.00     0.055 A 
ATOM     91  C   UNL A   1      46.730  27.324  34.776  1.00  0.00     0.041 A 
ATOM     92  F   UNL A   1      45.868  29.199  33.667  1.00  0.00    -0.206 F 
ATOM     93  C   UNL A   1      46.537  26.096  35.402  1.00  0.00     0.022 A 
BRANCH  90  94
ATOM     94  S   UNL A   1      44.955  24.010  36.364  1.00  0.00     0.124 S 
ATOM     95  O   UNL A   1      44.686  24.504  37.710  1.00  0.00    -0.237 OA
ATOM     96  O   UNL A   1      43.816  23.439  35.654  1.00  0.00    -0.237 OA
ATOM     97  O   UNL A   1      46.209  23.274  36.213  1.00  0.00    -0.744 OA
ENDBRANCH  90  94
ENDBRANCH  64  87
ENDBRANCH  38  39
ENDBRANCH  31  33
ENDBRANCH  30  31
ENDBRANCH  29  30
ENDBRANCH  28  29
ENDBRANCH  27  28
ENDBRANCH  26  27
ENDBRANCH   1  26
TORSDOF 23
ENDMDL
MODEL 3
REMARK VINA RESULT:      -9.5      1.885      2.252
REMARK SMILES CSc1ncc(Cl)c(C(=O)Nc2ccsc2C(=O)OCCOCCOCCOC(=O)c2ccc(-c3c4nc(c(-c5cc(S(=O)(=O)[O-])ccc5F)c5ccc([nH]5)c(-c5cc(S(=O)(=O)[O-])ccc5F)c5nc(c(-c6cc(S(=O)(=O)[O-])ccc6F)c6ccc3[nH]6)C=C5)C=C4)cc2)n1
REMARK SMILES IDX 23 1 22 2 21 3 20 4 19 5 17 6 18 7 16 8 12 9 13 10 14 11
REMARK SMILES IDX 15 12 11 13 9 14 10 15 8 17 3 18 4 19 94 20 5 21 6 22 7 23
REMARK SMILES IDX 2 24 1 25 24 26 25 27 26 28 27 29 28 30 29 31 30 32 31 33
REMARK SMILES IDX 32 34 93 35 33 36 92 37 34 38 35 39 36 40 86 41 37 42 91 43
REMARK SMILES IDX 85 44 87 45 38 46 90 47 84 48 83 49 39 51 71 52 51 53 70 54
REMARK SMILES IDX 52 55 55 56 69 57 88 58 53 59 54 60 68 62 89 63 56 64 40 65
REMARK SMILES IDX 41 66 49 67 42 68 48 69 50 70 47 71 43 72 44 73 45 74 46 75
REMARK SMILES IDX 72 76 73 77 81 78 74 79 80 80 82 81 79 82 75 83 76 84 77 85
REMARK SMILES IDX 78 86 57 87 58 88 66 89 59 90 65 91 67 92 64 93 60 94 61 95
REMARK SMILES IDX 62 96 63 97
REMARK H PARENT 11 16 87 50 55 61
REMARK Flexibility Score: inf
ROOT
ATOM      1  C   UNL A   1      32.378  28.824  25.343  1.00  0.00     0.188 C 
ENDROOT
BRANCH   1   2
ATOM      2  O   UNL A   1      33.162  28.797  24.156  1.00  0.00    -0.376 OA
BRANCH   2   3
ATOM      3  C   UNL A   1      32.549  28.928  22.886  1.00  0.00     0.202 C 
BRANCH   3   4
ATOM      4  C   UNL A   1      31.041  28.678  22.821  1.00  0.00     0.261 C 
BRANCH   4   5
ATOM      5  O   UNL A   1      30.674  27.410  22.245  1.00  0.00    -0.459 OA
BRANCH   5   6
ATOM      6  C   UNL A   1      30.716  26.343  23.105  1.00  0.00     0.350 C 
ATOM      7  O   UNL A   1      30.067  26.292  24.145  1.00  0.00    -0.245 OA
BRANCH   6   8
ATOM      8  C   UNL A   1      31.618  25.300  22.625  1.00  0.00     0.136 A 
ATOM      9  C   UNL A   1      31.982  24.045  23.118  1.00  0.00     0.067 A 
ATOM     10  C   UNL A   1      32.850  23.366  22.202  1.00  0.00     0.039 A 
ATOM     11  C   UNL A   1      33.243  24.157  21.149  1.00  0.00     0.068 A 
ATOM     12  S   UNL A   1      32.477  25.669  21.173  1.00  0.00    -0.135 S 
BRANCH   9  13
ATOM     13  N   UNL A   1      31.507  23.552  24.327  1.00  0.00    -0.319 N 
ATOM     14  C   UNL A   1      31.944  22.552  25.173  1.00  0.00     0.276 C 
ATOM     15  O   UNL A   1      31.213  22.252  26.123  1.00  0.00    -0.267 OA
ATOM     16  H   UNL A   1      30.695  24.008  24.645  1.00  0.00     0.170 HD
BRANCH  14  17
ATOM     17  C   UNL A   1      33.250  21.836  25.062  1.00  0.00     0.151 A 
ATOM     18  C   UNL A   1      34.203  19.785  24.633  1.00  0.00     0.188 A 
ATOM     19  N   UNL A   1      35.419  20.192  25.020  1.00  0.00    -0.230 NA
ATOM     20  N   UNL A   1      33.116  20.564  24.593  1.00  0.00    -0.216 NA
ATOM     21  C   UNL A   1      35.509  21.456  25.478  1.00  0.00     0.137 A 
ATOM     22  C   UNL A   1      34.441  22.321  25.573  1.00  0.00     0.090 A 
ATOM     23  Cl  UNL A   1      34.672  23.812  26.377  1.00  0.00    -0.080 Cl
BRANCH  18  24
ATOM     24  S   UNL A   1      33.977  18.045  24.401  1.00  0.00    -0.090 SA
ATOM     25  C   UNL A   1      32.534  17.877  25.485  1.00  0.00     0.094 C 
ENDBRANCH  18  24
ENDBRANCH  14  17
ENDBRANCH   9  13
ENDBRANCH   6   8
ENDBRANCH   5   6
ENDBRANCH   4   5
ENDBRANCH   3   4
ENDBRANCH   2   3
ENDBRANCH   1   2
BRANCH   1  26
ATOM     26  C   UNL A   1      33.002  29.176  26.702  1.00  0.00     0.188 C 
BRANCH  26  27
ATOM     27  O   UNL A   1      32.299  30.152  27.454  1.00  0.00    -0.376 OA
BRANCH  27  28
ATOM     28  C   UNL A   1      32.429  31.490  26.990  1.00  0.00     0.202 C 
BRANCH  28  29
ATOM     29  C   UNL A   1      33.654  32.181  27.594  1.00  0.00     0.261 C 
BRANCH  29  30
ATOM     30  O   UNL A   1      33.608  33.618  27.541  1.00  0.00    -0.460 OA
BRANCH  30  31
ATOM     31  C   UNL A   1      33.512  34.258  28.730  1.00  0.00     0.338 C 
ATOM     32  O   UNL A   1      32.592  34.960  29.111  1.00  0.00    -0.246 OA
BRANCH  31  33
ATOM     33  C   UNL A   1      34.637  33.819  29.578  1.00  0.00     0.060 A 
ATOM     34  C   UNL A   1      35.910  34.338  29.323  1.00  0.00     0.016 A 
ATOM     35  C   UNL A   1      34.439  32.894  30.604  1.00  0.00     0.016 A 
ATOM     36  C   UNL A   1      37.001  33.915  30.084  1.00  0.00     0.010 A 
ATOM     37  C   UNL A   1      35.534  32.456  31.353  1.00  0.00     0.010 A 
ATOM     38  C   UNL A   1      36.824  32.947  31.081  1.00  0.00    -0.014 A 
BRANCH  38  39
ATOM     39  C   UNL A   1      38.003  32.327  31.733  1.00  0.00     0.031 A 
ATOM     40  C   UNL A   1      38.696  31.190  31.033  1.00  0.00     0.074 A 
ATOM     41  C   UNL A   1      38.443  32.759  32.928  1.00  0.00     0.049 A 
ATOM     42  N   UNL A   1      39.704  30.460  31.431  1.00  0.00    -0.248 NA
ATOM     43  C   UNL A   1      38.173  30.827  29.706  1.00  0.00     0.031 C 
ATOM     44  C   UNL A   1      37.867  33.866  33.690  1.00  0.00     0.029 A 
ATOM     45  N   UNL A   1      39.469  32.303  33.718  1.00  0.00    -0.354 N 
ATOM     46  C   UNL A   1      39.935  29.546  30.409  1.00  0.00     0.074 A 
ATOM     47  C   UNL A   1      38.943  29.798  29.387  1.00  0.00     0.031 C 
ATOM     48  C   UNL A   1      38.534  33.986  34.853  1.00  0.00     0.029 A 
ATOM     49  C   UNL A   1      39.561  32.948  34.929  1.00  0.00     0.049 A 
ATOM     50  H   UNL A   1      40.080  31.582  33.444  1.00  0.00     0.167 HD
ATOM     51  C   UNL A   1      40.888  28.586  30.332  1.00  0.00     0.034 A 
ATOM     52  C   UNL A   1      40.361  32.707  35.988  1.00  0.00     0.034 A 
ATOM     53  C   UNL A   1      41.864  28.335  31.364  1.00  0.00     0.049 A 
ATOM     54  C   UNL A   1      41.375  31.588  35.904  1.00  0.00     0.074 A 
ATOM     55  C   UNL A   1      42.895  27.413  31.368  1.00  0.00     0.029 A 
ATOM     56  N   UNL A   1      41.917  28.996  32.584  1.00  0.00    -0.354 N 
ATOM     57  N   UNL A   1      41.610  30.756  34.914  1.00  0.00    -0.248 NA
ATOM     58  C   UNL A   1      42.236  31.383  37.077  1.00  0.00     0.031 C 
ATOM     59  C   UNL A   1      43.527  27.467  32.616  1.00  0.00     0.029 A 
ATOM     60  C   UNL A   1      42.939  28.475  33.363  1.00  0.00     0.049 A 
ATOM     61  H   UNL A   1      41.316  29.726  32.857  1.00  0.00     0.167 HD
ATOM     62  C   UNL A   1      42.666  29.951  35.338  1.00  0.00     0.074 A 
ATOM     63  C   UNL A   1      43.029  30.405  36.664  1.00  0.00     0.031 C 
ATOM     64  C   UNL A   1      43.285  28.933  34.688  1.00  0.00     0.034 A 
BRANCH  51  65
ATOM     65  C   UNL A   1      40.882  27.703  29.110  1.00  0.00     0.023 A 
ATOM     66  C   UNL A   1      41.774  27.909  28.043  1.00  0.00     0.031 A 
ATOM     67  C   UNL A   1      39.952  26.656  29.002  1.00  0.00     0.131 A 
ATOM     68  C   UNL A   1      41.676  27.117  26.890  1.00  0.00     0.055 A 
ATOM     69  C   UNL A   1      39.906  25.825  27.881  1.00  0.00     0.041 A 
ATOM     70  F   UNL A   1      39.061  26.430  29.981  1.00  0.00    -0.206 F 
ATOM     71  C   UNL A   1      40.764  26.062  26.811  1.00  0.00     0.022 A 
BRANCH  68  72
ATOM     72  S   UNL A   1      42.675  27.564  25.443  1.00  0.00     0.124 S 
ATOM     73  O   UNL A   1      43.948  27.923  26.062  1.00  0.00    -0.237 OA
ATOM     74  O   UNL A   1      42.669  26.333  24.663  1.00  0.00    -0.237 OA
ATOM     75  O   UNL A   1      41.941  28.682  24.852  1.00  0.00    -0.744 OA
ENDBRANCH  68  72
ENDBRANCH  51  65
BRANCH  52  76
ATOM     76  C   UNL A   1      40.212  33.493  37.246  1.00  0.00     0.023 A 
ATOM     77  C   UNL A   1      39.328  33.090  38.259  1.00  0.00     0.031 A 
ATOM     78  C   UNL A   1      40.904  34.707  37.417  1.00  0.00     0.131 A 
ATOM     79  C   UNL A   1      39.117  33.918  39.373  1.00  0.00     0.055 A 
ATOM     80  C   UNL A   1      40.731  35.500  38.552  1.00  0.00     0.041 A 
ATOM     81  F   UNL A   1      41.759  35.139  36.477  1.00  0.00    -0.206 F 
ATOM     82  C   UNL A   1      39.822  35.114  39.533  1.00  0.00     0.022 A 
BRANCH  79  83
ATOM     83  S   UNL A   1      37.833  33.455  40.569  1.00  0.00     0.124 S 
ATOM     84  O   UNL A   1      36.786  32.939  39.695  1.00  0.00    -0.237 OA
ATOM     85  O   UNL A   1      38.527  32.470  41.391  1.00  0.00    -0.237 OA
ATOM     86  O   UNL A   1      37.522  34.716  41.239  1.00  0.00    -0.744 OA
ENDBRANCH  79  83
ENDBRANCH  52  76
BRANCH  64  87
ATOM     87  C   UNL A   1      44.451  28.276  35.386  1.00  0.00     0.023 A 
ATOM     88  C   UNL A   1      44.266  27.335  36.414  1.00  0.00     0.031 A 
ATOM     89  C   UNL A   1      45.768  28.605  35.018  1.00  0.00     0.131 A 
ATOM     90  C   UNL A   1      45.381  26.790  37.071  1.00  0.00     0.055 A 
ATOM     91  C   UNL A   1      46.873  28.019  35.639  1.00  0.00     0.041 A 
ATOM     92  F   UNL A   1      46.002  29.498  34.045  1.00  0.00    -0.206 F 
ATOM     93  C   UNL A   1      46.682  27.116  36.680  1.00  0.00     0.022 A 
BRANCH  90  94
ATOM     94  S   UNL A   1      45.108  25.710  38.504  1.00  0.00     0.124 S 
ATOM     95  O   UNL A   1      46.304  25.957  39.302  1.00  0.00    -0.237 OA
ATOM     96  O   UNL A   1      43.858  26.226  39.051  1.00  0.00    -0.237 OA
ATOM     97  O   UNL A   1      45.021  24.375  37.914  1.00  0.00    -0.744 OA
ENDBRANCH  90  94
ENDBRANCH  64  87
ENDBRANCH  38  39
ENDBRANCH  31  33
ENDBRANCH  30  31
ENDBRANCH  29  30
ENDBRANCH  28  29
ENDBRANCH  27  28
ENDBRANCH  26  27
ENDBRANCH   1  26
TORSDOF 23
ENDMDL
