MODEL 1
REMARK VINA RESULT:      -7.6      0.000      0.000
REMARK SMILES CCCC[C@@H](C(=O)OCCOCCOCCOC(=O)c1ccc(-c2c3nc(c(-c4cc(S(=O)(=O)[O-])ccc4F)c4ccc([nH]4)c(-c4cc(S(=O)(=O)[O-])ccc4F)c4nc(c(-c5cc(S(=O)(=O)[O-])ccc5F)c5ccc2[nH]5)C=C4)C=C3)cc1)[C@@H](O)C1CC1
REMARK SMILES IDX 12 1 11 2 10 3 9 4 8 5 6 6 7 7 5 8 4 9 3 10 2 11 1 12 83 13
REMARK SMILES IDX 84 14 85 16 86 17 87 18 13 19 14 20 15 21 16 22 17 23 18 24
REMARK SMILES IDX 19 25 20 26 21 27 82 28 22 29 81 30 23 31 24 32 25 33 75 34
REMARK SMILES IDX 26 35 80 36 74 37 76 38 27 39 79 40 73 41 72 42 28 44 60 45
REMARK SMILES IDX 40 46 59 47 41 48 44 49 58 50 77 51 42 52 43 53 57 55 78 56
REMARK SMILES IDX 45 57 29 58 30 59 38 60 31 61 37 62 39 63 36 64 32 65 33 66
REMARK SMILES IDX 34 67 35 68 61 69 62 70 70 71 63 72 69 73 71 74 68 75 64 76
REMARK SMILES IDX 65 77 66 78 67 79 46 80 47 81 55 82 48 83 54 84 56 85 53 86
REMARK SMILES IDX 49 87 50 88 51 89 52 90
REMARK H PARENT 84 15 76 43 44 54
REMARK Flexibility Score: inf
ROOT
ATOM      1  C   UNL A   1      34.039  28.641  27.053  1.00  0.00     0.188 C 
ENDROOT
BRANCH   1   2
ATOM      2  O   UNL A   1      33.242  28.448  25.891  1.00  0.00    -0.376 OA
BRANCH   2   3
ATOM      3  C   UNL A   1      31.908  27.999  26.108  1.00  0.00     0.202 C 
BRANCH   3   4
ATOM      4  C   UNL A   1      31.536  26.710  25.378  1.00  0.00     0.261 C 
BRANCH   4   5
ATOM      5  O   UNL A   1      31.774  25.565  26.220  1.00  0.00    -0.463 OA
BRANCH   5   6
ATOM      6  C   UNL A   1      32.872  24.801  26.037  1.00  0.00     0.311 C 
ATOM      7  O   UNL A   1      33.980  25.254  25.780  1.00  0.00    -0.252 OA
BRANCH   6   8
ATOM      8  C   UNL A   1      32.563  23.317  26.208  1.00  0.00     0.128 C 
BRANCH   8   9
ATOM      9  C   UNL A   1      33.813  22.394  26.359  1.00  0.00     0.018 C 
BRANCH   9  10
ATOM     10  C   UNL A   1      33.680  20.879  26.212  1.00  0.00     0.001 C 
BRANCH  10  11
ATOM     11  C   UNL A   1      34.475  20.267  25.069  1.00  0.00    -0.003 C 
ATOM     12  C   UNL A   1      35.915  20.757  25.031  1.00  0.00     0.004 C 
ENDBRANCH  10  11
ENDBRANCH   9  10
ENDBRANCH   8   9
BRANCH   8  13
ATOM     13  C   UNL A   1      31.722  22.792  25.019  1.00  0.00     0.131 C 
BRANCH  13  14
ATOM     14  O   UNL A   1      30.373  23.255  25.187  1.00  0.00    -0.392 OA
ATOM     15  H   UNL A   1      29.880  22.624  25.733  1.00  0.00     0.210 HD
ENDBRANCH  13  14
BRANCH  13  16
ATOM     16  C   UNL A   1      32.140  23.233  23.645  1.00  0.00     0.019 C 
ATOM     17  C   UNL A   1      33.495  23.027  23.013  1.00  0.00     0.006 C 
ATOM     18  C   UNL A   1      32.349  22.155  22.601  1.00  0.00     0.006 C 
ENDBRANCH  13  16
ENDBRANCH   8  13
ENDBRANCH   6   8
ENDBRANCH   5   6
ENDBRANCH   4   5
ENDBRANCH   3   4
ENDBRANCH   2   3
ENDBRANCH   1   2
BRANCH   1  19
ATOM     19  C   UNL A   1      33.958  30.061  27.652  1.00  0.00     0.188 C 
BRANCH  19  20
ATOM     20  O   UNL A   1      33.566  31.155  26.835  1.00  0.00    -0.376 OA
BRANCH  20  21
ATOM     21  C   UNL A   1      32.243  31.653  26.962  1.00  0.00     0.202 C 
BRANCH  21  22
ATOM     22  C   UNL A   1      32.059  33.158  27.189  1.00  0.00     0.261 C 
BRANCH  22  23
ATOM     23  O   UNL A   1      32.789  33.678  28.316  1.00  0.00    -0.460 OA
BRANCH  23  24
ATOM     24  C   UNL A   1      34.037  34.125  28.026  1.00  0.00     0.338 C 
ATOM     25  O   UNL A   1      34.352  34.853  27.095  1.00  0.00    -0.246 OA
BRANCH  24  26
ATOM     26  C   UNL A   1      34.980  33.787  29.114  1.00  0.00     0.060 A 
ATOM     27  C   UNL A   1      36.271  34.331  29.047  1.00  0.00     0.016 A 
ATOM     28  C   UNL A   1      34.649  32.877  30.121  1.00  0.00     0.016 A 
ATOM     29  C   UNL A   1      37.256  33.919  29.943  1.00  0.00     0.010 A 
ATOM     30  C   UNL A   1      35.648  32.442  31.003  1.00  0.00     0.010 A 
ATOM     31  C   UNL A   1      36.966  32.921  30.882  1.00  0.00    -0.014 A 
BRANCH  31  32
ATOM     32  C   UNL A   1      38.098  32.193  31.514  1.00  0.00     0.031 A 
ATOM     33  C   UNL A   1      38.787  31.126  30.700  1.00  0.00     0.074 A 
ATOM     34  C   UNL A   1      38.551  32.507  32.740  1.00  0.00     0.049 A 
ATOM     35  N   UNL A   1      39.787  30.347  31.021  1.00  0.00    -0.248 NA
ATOM     36  C   UNL A   1      38.271  30.915  29.339  1.00  0.00     0.031 C 
ATOM     37  C   UNL A   1      38.013  33.559  33.601  1.00  0.00     0.029 A 
ATOM     38  N   UNL A   1      39.577  31.965  33.474  1.00  0.00    -0.354 N 
ATOM     39  C   UNL A   1      40.022  29.555  29.901  1.00  0.00     0.074 A 
ATOM     40  C   UNL A   1      39.031  29.920  28.912  1.00  0.00     0.031 C 
ATOM     41  C   UNL A   1      38.708  33.576  34.752  1.00  0.00     0.029 A 
ATOM     42  C   UNL A   1      39.719  32.519  34.723  1.00  0.00     0.049 A 
ATOM     43  H   UNL A   1      40.158  31.245  33.135  1.00  0.00     0.167 HD
ATOM     44  C   UNL A   1      40.981  28.616  29.707  1.00  0.00     0.034 A 
ATOM     45  C   UNL A   1      40.555  32.194  35.732  1.00  0.00     0.034 A 
ATOM     46  C   UNL A   1      41.950  28.242  30.706  1.00  0.00     0.049 A 
ATOM     47  C   UNL A   1      41.552  31.076  35.529  1.00  0.00     0.074 A 
ATOM     48  C   UNL A   1      42.957  27.296  30.620  1.00  0.00     0.029 A 
ATOM     49  N   UNL A   1      42.027  28.787  31.980  1.00  0.00    -0.354 N 
ATOM     50  N   UNL A   1      41.763  30.332  34.466  1.00  0.00    -0.248 NA
ATOM     51  C   UNL A   1      42.433  30.763  36.663  1.00  0.00     0.031 C 
ATOM     52  C   UNL A   1      43.597  27.223  31.863  1.00  0.00     0.029 A 
ATOM     53  C   UNL A   1      43.043  28.178  32.700  1.00  0.00     0.049 A 
ATOM     54  H   UNL A   1      41.444  29.503  32.323  1.00  0.00     0.167 HD
ATOM     55  C   UNL A   1      42.821  29.487  34.797  1.00  0.00     0.074 A 
ATOM     56  C   UNL A   1      43.217  29.828  36.148  1.00  0.00     0.031 C 
ATOM     57  C   UNL A   1      43.417  28.519  34.053  1.00  0.00     0.034 A 
BRANCH  44  58
ATOM     58  C   UNL A   1      40.975  27.894  28.380  1.00  0.00     0.023 A 
ATOM     59  C   UNL A   1      40.249  26.705  28.188  1.00  0.00     0.031 A 
ATOM     60  C   UNL A   1      41.750  28.372  27.309  1.00  0.00     0.131 A 
ATOM     61  C   UNL A   1      40.374  25.996  26.984  1.00  0.00     0.055 A 
ATOM     62  C   UNL A   1      41.806  27.705  26.085  1.00  0.00     0.041 A 
ATOM     63  F   UNL A   1      42.485  29.489  27.443  1.00  0.00    -0.206 F 
ATOM     64  C   UNL A   1      41.127  26.501  25.921  1.00  0.00     0.022 A 
BRANCH  61  65
ATOM     65  S   UNL A   1      39.659  24.332  26.878  1.00  0.00     0.124 S 
ATOM     66  O   UNL A   1      38.748  24.476  25.744  1.00  0.00    -0.237 OA
ATOM     67  O   UNL A   1      40.833  23.498  26.653  1.00  0.00    -0.237 OA
ATOM     68  O   UNL A   1      39.006  24.156  28.173  1.00  0.00    -0.744 OA
ENDBRANCH  61  65
ENDBRANCH  44  58
BRANCH  45  69
ATOM     69  C   UNL A   1      40.470  32.894  37.048  1.00  0.00     0.023 A 
ATOM     70  C   UNL A   1      39.547  32.495  38.028  1.00  0.00     0.031 A 
ATOM     71  C   UNL A   1      41.260  34.029  37.309  1.00  0.00     0.131 A 
ATOM     72  C   UNL A   1      39.396  33.257  39.197  1.00  0.00     0.055 A 
ATOM     73  C   UNL A   1      41.144  34.750  38.498  1.00  0.00     0.041 A 
ATOM     74  F   UNL A   1      42.156  34.455  36.404  1.00  0.00    -0.206 F 
ATOM     75  C   UNL A   1      40.198  34.374  39.445  1.00  0.00     0.022 A 
BRANCH  72  76
ATOM     76  S   UNL A   1      38.070  32.819  40.356  1.00  0.00     0.124 S 
ATOM     77  O   UNL A   1      37.816  34.096  41.012  1.00  0.00    -0.237 OA
ATOM     78  O   UNL A   1      37.027  32.343  39.453  1.00  0.00    -0.237 OA
ATOM     79  O   UNL A   1      38.678  31.792  41.197  1.00  0.00    -0.744 OA
ENDBRANCH  72  76
ENDBRANCH  45  69
BRANCH  57  80
ATOM     80  C   UNL A   1      44.587  27.794  34.678  1.00  0.00     0.023 A 
ATOM     81  C   UNL A   1      44.417  26.617  35.429  1.00  0.00     0.031 A 
ATOM     82  C   UNL A   1      45.891  28.307  34.545  1.00  0.00     0.131 A 
ATOM     83  C   UNL A   1      45.517  26.032  36.075  1.00  0.00     0.055 A 
ATOM     84  C   UNL A   1      46.991  27.683  35.135  1.00  0.00     0.041 A 
ATOM     85  F   UNL A   1      46.116  29.427  33.841  1.00  0.00    -0.206 F 
ATOM     86  C   UNL A   1      46.806  26.549  35.919  1.00  0.00     0.022 A 
BRANCH  83  87
ATOM     87  S   UNL A   1      45.224  24.654  37.216  1.00  0.00     0.124 S 
ATOM     88  O   UNL A   1      44.727  23.616  36.319  1.00  0.00    -0.237 OA
ATOM     89  O   UNL A   1      46.551  24.427  37.779  1.00  0.00    -0.237 OA
ATOM     90  O   UNL A   1      44.236  25.187  38.153  1.00  0.00    -0.744 OA
ENDBRANCH  83  87
ENDBRANCH  57  80
ENDBRANCH  31  32
ENDBRANCH  24  26
ENDBRANCH  23  24
ENDBRANCH  22  23
ENDBRANCH  21  22
ENDBRANCH  20  21
ENDBRANCH  19  20
ENDBRANCH   1  19
TORSDOF 26
ENDMDL
MODEL 2
REMARK VINA RESULT:      -7.6      5.447     10.150
REMARK SMILES CCCC[C@@H](C(=O)OCCOCCOCCOC(=O)c1ccc(-c2c3nc(c(-c4cc(S(=O)(=O)[O-])ccc4F)c4ccc([nH]4)c(-c4cc(S(=O)(=O)[O-])ccc4F)c4nc(c(-c5cc(S(=O)(=O)[O-])ccc5F)c5ccc2[nH]5)C=C4)C=C3)cc1)[C@@H](O)C1CC1
REMARK SMILES IDX 12 1 11 2 10 3 9 4 8 5 6 6 7 7 5 8 4 9 3 10 2 11 1 12 83 13
REMARK SMILES IDX 84 14 85 16 86 17 87 18 13 19 14 20 15 21 16 22 17 23 18 24
REMARK SMILES IDX 19 25 20 26 21 27 82 28 22 29 81 30 23 31 24 32 25 33 75 34
REMARK SMILES IDX 26 35 80 36 74 37 76 38 27 39 79 40 73 41 72 42 28 44 60 45
REMARK SMILES IDX 40 46 59 47 41 48 44 49 58 50 77 51 42 52 43 53 57 55 78 56
REMARK SMILES IDX 45 57 29 58 30 59 38 60 31 61 37 62 39 63 36 64 32 65 33 66
REMARK SMILES IDX 34 67 35 68 61 69 62 70 70 71 63 72 69 73 71 74 68 75 64 76
REMARK SMILES IDX 65 77 66 78 67 79 46 80 47 81 55 82 48 83 54 84 56 85 53 86
REMARK SMILES IDX 49 87 50 88 51 89 52 90
REMARK H PARENT 84 15 76 43 44 54
REMARK Flexibility Score: inf
ROOT
ATOM      1  C   UNL A   1      38.641  22.123  26.178  1.00  0.00     0.188 C 
ENDROOT
BRANCH   1   2
ATOM      2  O   UNL A   1      37.782  21.993  25.052  1.00  0.00    -0.376 OA
BRANCH   2   3
ATOM      3  C   UNL A   1      37.073  23.165  24.661  1.00  0.00     0.202 C 
BRANCH   3   4
ATOM      4  C   UNL A   1      36.250  23.022  23.381  1.00  0.00     0.261 C 
BRANCH   4   5
ATOM      5  O   UNL A   1      34.954  23.631  23.542  1.00  0.00    -0.463 OA
BRANCH   5   6
ATOM      6  C   UNL A   1      33.924  23.259  22.754  1.00  0.00     0.311 C 
ATOM      7  O   UNL A   1      33.870  23.486  21.553  1.00  0.00    -0.252 OA
BRANCH   6   8
ATOM      8  C   UNL A   1      32.854  22.507  23.541  1.00  0.00     0.128 C 
BRANCH   8   9
ATOM      9  C   UNL A   1      32.205  21.302  22.789  1.00  0.00     0.018 C 
BRANCH   9  10
ATOM     10  C   UNL A   1      32.215  19.906  23.409  1.00  0.00     0.001 C 
BRANCH  10  11
ATOM     11  C   UNL A   1      33.435  19.583  24.259  1.00  0.00    -0.003 C 
ATOM     12  C   UNL A   1      33.636  18.087  24.446  1.00  0.00     0.004 C 
ENDBRANCH  10  11
ENDBRANCH   9  10
ENDBRANCH   8   9
BRANCH   8  13
ATOM     13  C   UNL A   1      31.719  23.466  23.976  1.00  0.00     0.131 C 
BRANCH  13  14
ATOM     14  O   UNL A   1      30.698  23.437  22.967  1.00  0.00    -0.392 OA
ATOM     15  H   UNL A   1      30.142  24.227  23.047  1.00  0.00     0.210 HD
ENDBRANCH  13  14
BRANCH  13  16
ATOM     16  C   UNL A   1      31.026  23.155  25.272  1.00  0.00     0.019 C 
ATOM     17  C   UNL A   1      31.691  22.853  26.593  1.00  0.00     0.006 C 
ATOM     18  C   UNL A   1      31.084  24.204  26.363  1.00  0.00     0.006 C 
ENDBRANCH  13  16
ENDBRANCH   8  13
ENDBRANCH   6   8
ENDBRANCH   5   6
ENDBRANCH   4   5
ENDBRANCH   3   4
ENDBRANCH   2   3
ENDBRANCH   1   2
BRANCH   1  19
ATOM     19  C   UNL A   1      39.927  21.273  26.099  1.00  0.00     0.188 C 
BRANCH  19  20
ATOM     20  O   UNL A   1      40.416  20.616  27.260  1.00  0.00    -0.376 OA
BRANCH  20  21
ATOM     21  C   UNL A   1      41.813  20.635  27.509  1.00  0.00     0.202 C 
BRANCH  21  22
ATOM     22  C   UNL A   1      42.757  20.766  26.308  1.00  0.00     0.261 C 
BRANCH  22  23
ATOM     23  O   UNL A   1      43.591  21.939  26.338  1.00  0.00    -0.460 OA
BRANCH  23  24
ATOM     24  C   UNL A   1      43.243  22.906  25.452  1.00  0.00     0.338 C 
ATOM     25  O   UNL A   1      43.061  22.762  24.251  1.00  0.00    -0.246 OA
BRANCH  24  26
ATOM     26  C   UNL A   1      42.902  24.161  26.154  1.00  0.00     0.060 A 
ATOM     27  C   UNL A   1      42.656  25.298  25.371  1.00  0.00     0.016 A 
ATOM     28  C   UNL A   1      42.922  24.257  27.548  1.00  0.00     0.016 A 
ATOM     29  C   UNL A   1      42.497  26.546  25.970  1.00  0.00     0.010 A 
ATOM     30  C   UNL A   1      42.791  25.516  28.148  1.00  0.00     0.010 A 
ATOM     31  C   UNL A   1      42.632  26.671  27.358  1.00  0.00    -0.014 A 
BRANCH  31  32
ATOM     32  C   UNL A   1      42.897  28.019  27.926  1.00  0.00     0.031 A 
ATOM     33  C   UNL A   1      41.727  28.783  28.495  1.00  0.00     0.074 A 
ATOM     34  C   UNL A   1      44.139  28.529  28.002  1.00  0.00     0.049 A 
ATOM     35  N   UNL A   1      41.690  29.972  29.037  1.00  0.00    -0.248 NA
ATOM     36  C   UNL A   1      40.422  28.105  28.441  1.00  0.00     0.031 C 
ATOM     37  C   UNL A   1      45.358  27.865  27.546  1.00  0.00     0.029 A 
ATOM     38  N   UNL A   1      44.576  29.732  28.497  1.00  0.00    -0.354 N 
ATOM     39  C   UNL A   1      40.361  30.184  29.392  1.00  0.00     0.074 A 
ATOM     40  C   UNL A   1      39.620  29.018  28.963  1.00  0.00     0.031 C 
ATOM     41  C   UNL A   1      46.406  28.677  27.773  1.00  0.00     0.029 A 
ATOM     42  C   UNL A   1      45.930  29.929  28.361  1.00  0.00     0.049 A 
ATOM     43  H   UNL A   1      43.975  30.394  28.912  1.00  0.00     0.167 HD
ATOM     44  C   UNL A   1      39.807  31.247  30.026  1.00  0.00     0.034 A 
ATOM     45  C   UNL A   1      46.689  31.005  28.658  1.00  0.00     0.034 A 
ATOM     46  C   UNL A   1      40.549  32.415  30.431  1.00  0.00     0.049 A 
ATOM     47  C   UNL A   1      46.034  32.219  29.276  1.00  0.00     0.074 A 
ATOM     48  C   UNL A   1      40.087  33.553  31.069  1.00  0.00     0.029 A 
ATOM     49  N   UNL A   1      41.909  32.601  30.225  1.00  0.00    -0.354 N 
ATOM     50  N   UNL A   1      44.775  32.409  29.603  1.00  0.00    -0.248 NA
ATOM     51  C   UNL A   1      46.909  33.362  29.574  1.00  0.00     0.031 C 
ATOM     52  C   UNL A   1      41.153  34.453  31.187  1.00  0.00     0.029 A 
ATOM     53  C   UNL A   1      42.297  33.846  30.696  1.00  0.00     0.049 A 
ATOM     54  H   UNL A   1      42.511  31.944  29.807  1.00  0.00     0.167 HD
ATOM     55  C   UNL A   1      44.718  33.680  30.173  1.00  0.00     0.074 A 
ATOM     56  C   UNL A   1      46.069  34.200  30.164  1.00  0.00     0.031 C 
ATOM     57  C   UNL A   1      43.648  34.357  30.666  1.00  0.00     0.034 A 
BRANCH  44  58
ATOM     58  C   UNL A   1      38.315  31.205  30.259  1.00  0.00     0.023 A 
ATOM     59  C   UNL A   1      37.413  31.845  29.391  1.00  0.00     0.031 A 
ATOM     60  C   UNL A   1      37.793  30.562  31.395  1.00  0.00     0.131 A 
ATOM     61  C   UNL A   1      36.048  31.894  29.713  1.00  0.00     0.055 A 
ATOM     62  C   UNL A   1      36.424  30.544  31.666  1.00  0.00     0.041 A 
ATOM     63  F   UNL A   1      38.609  29.957  32.273  1.00  0.00    -0.206 F 
ATOM     64  C   UNL A   1      35.544  31.226  30.831  1.00  0.00     0.022 A 
BRANCH  61  65
ATOM     65  S   UNL A   1      34.963  32.967  28.731  1.00  0.00     0.124 S 
ATOM     66  O   UNL A   1      34.734  34.075  29.655  1.00  0.00    -0.237 OA
ATOM     67  O   UNL A   1      35.785  33.266  27.565  1.00  0.00    -0.237 OA
ATOM     68  O   UNL A   1      33.794  32.129  28.474  1.00  0.00    -0.744 OA
ENDBRANCH  61  65
ENDBRANCH  44  58
BRANCH  45  69
ATOM     69  C   UNL A   1      48.147  31.019  28.342  1.00  0.00     0.023 A 
ATOM     70  C   UNL A   1      49.088  30.442  29.210  1.00  0.00     0.031 A 
ATOM     71  C   UNL A   1      48.628  31.687  27.201  1.00  0.00     0.131 A 
ATOM     72  C   UNL A   1      50.460  30.591  28.954  1.00  0.00     0.055 A 
ATOM     73  C   UNL A   1      49.991  31.786  26.922  1.00  0.00     0.041 A 
ATOM     74  F   UNL A   1      47.772  32.260  26.339  1.00  0.00    -0.206 F 
ATOM     75  C   UNL A   1      50.918  31.248  27.809  1.00  0.00     0.022 A 
BRANCH  72  76
ATOM     76  S   UNL A   1      51.646  29.992  30.191  1.00  0.00     0.124 S 
ATOM     77  O   UNL A   1      51.797  31.162  31.047  1.00  0.00    -0.237 OA
ATOM     78  O   UNL A   1      50.930  28.860  30.770  1.00  0.00    -0.237 OA
ATOM     79  O   UNL A   1      52.819  29.642  29.395  1.00  0.00    -0.744 OA
ENDBRANCH  72  76
ENDBRANCH  45  69
BRANCH  57  80
ATOM     80  C   UNL A   1      43.914  35.717  31.271  1.00  0.00     0.023 A 
ATOM     81  C   UNL A   1      43.819  36.898  30.515  1.00  0.00     0.031 A 
ATOM     82  C   UNL A   1      44.299  35.828  32.621  1.00  0.00     0.131 A 
ATOM     83  C   UNL A   1      44.171  38.129  31.089  1.00  0.00     0.055 A 
ATOM     84  C   UNL A   1      44.584  37.063  33.205  1.00  0.00     0.041 A 
ATOM     85  F   UNL A   1      44.407  34.736  33.392  1.00  0.00    -0.206 F 
ATOM     86  C   UNL A   1      44.538  38.221  32.435  1.00  0.00     0.022 A 
BRANCH  83  87
ATOM     87  S   UNL A   1      44.257  39.594  30.024  1.00  0.00     0.124 S 
ATOM     88  O   UNL A   1      43.048  40.319  30.405  1.00  0.00    -0.237 OA
ATOM     89  O   UNL A   1      45.519  40.203  30.431  1.00  0.00    -0.237 OA
ATOM     90  O   UNL A   1      44.244  39.037  28.672  1.00  0.00    -0.744 OA
ENDBRANCH  83  87
ENDBRANCH  57  80
ENDBRANCH  31  32
ENDBRANCH  24  26
ENDBRANCH  23  24
ENDBRANCH  22  23
ENDBRANCH  21  22
ENDBRANCH  20  21
ENDBRANCH  19  20
ENDBRANCH   1  19
TORSDOF 26
ENDMDL
MODEL 3
REMARK VINA RESULT:      -7.5      5.273     10.651
REMARK SMILES CCCC[C@@H](C(=O)OCCOCCOCCOC(=O)c1ccc(-c2c3nc(c(-c4cc(S(=O)(=O)[O-])ccc4F)c4ccc([nH]4)c(-c4cc(S(=O)(=O)[O-])ccc4F)c4nc(c(-c5cc(S(=O)(=O)[O-])ccc5F)c5ccc2[nH]5)C=C4)C=C3)cc1)[C@@H](O)C1CC1
REMARK SMILES IDX 12 1 11 2 10 3 9 4 8 5 6 6 7 7 5 8 4 9 3 10 2 11 1 12 83 13
REMARK SMILES IDX 84 14 85 16 86 17 87 18 13 19 14 20 15 21 16 22 17 23 18 24
REMARK SMILES IDX 19 25 20 26 21 27 82 28 22 29 81 30 23 31 24 32 25 33 75 34
REMARK SMILES IDX 26 35 80 36 74 37 76 38 27 39 79 40 73 41 72 42 28 44 60 45
REMARK SMILES IDX 40 46 59 47 41 48 44 49 58 50 77 51 42 52 43 53 57 55 78 56
REMARK SMILES IDX 45 57 29 58 30 59 38 60 31 61 37 62 39 63 36 64 32 65 33 66
REMARK SMILES IDX 34 67 35 68 61 69 62 70 70 71 63 72 69 73 71 74 68 75 64 76
REMARK SMILES IDX 65 77 66 78 67 79 46 80 47 81 55 82 48 83 54 84 56 85 53 86
REMARK SMILES IDX 49 87 50 88 51 89 52 90
REMARK H PARENT 84 15 76 43 44 54
REMARK Flexibility Score: inf
ROOT
ATOM      1  C   UNL A   1      33.739  23.896  25.883  1.00  0.00     0.188 C 
ENDROOT
BRANCH   1   2
ATOM      2  O   UNL A   1      34.441  25.047  25.429  1.00  0.00    -0.376 OA
BRANCH   2   3
ATOM      3  C   UNL A   1      33.668  26.232  25.260  1.00  0.00     0.202 C 
BRANCH   3   4
ATOM      4  C   UNL A   1      32.315  26.026  24.582  1.00  0.00     0.261 C 
BRANCH   4   5
ATOM      5  O   UNL A   1      31.296  26.806  25.238  1.00  0.00    -0.463 OA
BRANCH   5   6
ATOM      6  C   UNL A   1      31.633  27.888  25.970  1.00  0.00     0.311 C 
ATOM      7  O   UNL A   1      31.719  27.884  27.191  1.00  0.00    -0.252 OA
BRANCH   6   8
ATOM      8  C   UNL A   1      31.910  29.103  25.088  1.00  0.00     0.128 C 
BRANCH   8   9
ATOM      9  C   UNL A   1      32.726  30.244  25.772  1.00  0.00     0.018 C 
BRANCH   9  10
ATOM     10  C   UNL A   1      32.958  30.233  27.282  1.00  0.00     0.001 C 
BRANCH  10  11
ATOM     11  C   UNL A   1      34.395  30.477  27.719  1.00  0.00    -0.003 C 
ATOM     12  C   UNL A   1      35.311  29.308  27.392  1.00  0.00     0.004 C 
ENDBRANCH  10  11
ENDBRANCH   9  10
ENDBRANCH   8   9
BRANCH   8  13
ATOM     13  C   UNL A   1      30.586  29.711  24.563  1.00  0.00     0.131 C 
BRANCH  13  14
ATOM     14  O   UNL A   1      30.638  31.132  24.760  1.00  0.00    -0.392 OA
ATOM     15  H   UNL A   1      30.072  31.570  24.106  1.00  0.00     0.210 HD
ENDBRANCH  13  14
BRANCH  13  16
ATOM     16  C   UNL A   1      30.277  29.509  23.107  1.00  0.00     0.019 C 
ATOM     17  C   UNL A   1      30.193  28.186  22.385  1.00  0.00     0.006 C 
ATOM     18  C   UNL A   1      28.932  28.904  22.758  1.00  0.00     0.006 C 
ENDBRANCH  13  16
ENDBRANCH   8  13
ENDBRANCH   6   8
ENDBRANCH   5   6
ENDBRANCH   4   5
ENDBRANCH   3   4
ENDBRANCH   2   3
ENDBRANCH   1   2
BRANCH   1  19
ATOM     19  C   UNL A   1      33.801  22.691  24.922  1.00  0.00     0.188 C 
BRANCH  19  20
ATOM     20  O   UNL A   1      34.786  21.685  25.106  1.00  0.00    -0.376 OA
BRANCH  20  21
ATOM     21  C   UNL A   1      36.085  21.908  24.580  1.00  0.00     0.202 C 
BRANCH  21  22
ATOM     22  C   UNL A   1      37.270  21.884  25.553  1.00  0.00     0.261 C 
BRANCH  22  23
ATOM     23  O   UNL A   1      38.384  21.088  25.106  1.00  0.00    -0.460 OA
BRANCH  23  24
ATOM     24  C   UNL A   1      39.328  20.851  26.051  1.00  0.00     0.338 C 
ATOM     25  O   UNL A   1      39.932  19.802  26.231  1.00  0.00    -0.246 OA
BRANCH  24  26
ATOM     26  C   UNL A   1      39.706  22.104  26.740  1.00  0.00     0.060 A 
ATOM     27  C   UNL A   1      39.152  23.300  26.261  1.00  0.00     0.016 A 
ATOM     28  C   UNL A   1      40.659  22.126  27.761  1.00  0.00     0.016 A 
ATOM     29  C   UNL A   1      39.595  24.527  26.751  1.00  0.00     0.010 A 
ATOM     30  C   UNL A   1      41.124  23.361  28.233  1.00  0.00     0.010 A 
ATOM     31  C   UNL A   1      40.632  24.564  27.692  1.00  0.00    -0.014 A 
BRANCH  31  32
ATOM     32  C   UNL A   1      41.379  25.837  27.872  1.00  0.00     0.031 A 
ATOM     33  C   UNL A   1      40.690  26.955  28.613  1.00  0.00     0.074 A 
ATOM     34  C   UNL A   1      42.650  25.983  27.457  1.00  0.00     0.049 A 
ATOM     35  N   UNL A   1      41.118  28.158  28.895  1.00  0.00    -0.248 NA
ATOM     36  C   UNL A   1      39.332  26.670  29.101  1.00  0.00     0.031 C 
ATOM     37  C   UNL A   1      43.446  24.958  26.785  1.00  0.00     0.029 A 
ATOM     38  N   UNL A   1      43.495  27.061  27.545  1.00  0.00    -0.354 N 
ATOM     39  C   UNL A   1      40.083  28.772  29.595  1.00  0.00     0.074 A 
ATOM     40  C   UNL A   1      38.994  27.822  29.655  1.00  0.00     0.031 C 
ATOM     41  C   UNL A   1      44.663  25.463  26.511  1.00  0.00     0.029 A 
ATOM     42  C   UNL A   1      44.722  26.854  26.960  1.00  0.00     0.049 A 
ATOM     43  H   UNL A   1      43.245  27.906  27.986  1.00  0.00     0.167 HD
ATOM     44  C   UNL A   1      40.045  30.010  30.147  1.00  0.00     0.034 A 
ATOM     45  C   UNL A   1      45.760  27.699  26.789  1.00  0.00     0.034 A 
ATOM     46  C   UNL A   1      41.126  30.960  30.064  1.00  0.00     0.049 A 
ATOM     47  C   UNL A   1      45.658  29.108  27.327  1.00  0.00     0.074 A 
ATOM     48  C   UNL A   1      41.190  32.244  30.576  1.00  0.00     0.029 A 
ATOM     49  N   UNL A   1      42.332  30.733  29.414  1.00  0.00    -0.354 N 
ATOM     50  N   UNL A   1      44.673  29.678  27.985  1.00  0.00    -0.248 NA
ATOM     51  C   UNL A   1      46.818  29.984  27.107  1.00  0.00     0.031 C 
ATOM     52  C   UNL A   1      42.404  32.816  30.178  1.00  0.00     0.029 A 
ATOM     53  C   UNL A   1      43.134  31.862  29.486  1.00  0.00     0.049 A 
ATOM     54  H   UNL A   1      42.583  29.892  28.967  1.00  0.00     0.167 HD
ATOM     55  C   UNL A   1      45.111  30.967  28.282  1.00  0.00     0.074 A 
ATOM     56  C   UNL A   1      46.453  31.082  27.752  1.00  0.00     0.031 C 
ATOM     57  C   UNL A   1      44.466  31.968  28.939  1.00  0.00     0.034 A 
BRANCH  44  58
ATOM     58  C   UNL A   1      38.762  30.415  30.834  1.00  0.00     0.023 A 
ATOM     59  C   UNL A   1      37.836  31.279  30.223  1.00  0.00     0.031 A 
ATOM     60  C   UNL A   1      38.488  29.973  32.141  1.00  0.00     0.131 A 
ATOM     61  C   UNL A   1      36.722  31.734  30.945  1.00  0.00     0.055 A 
ATOM     62  C   UNL A   1      37.336  30.365  32.824  1.00  0.00     0.041 A 
ATOM     63  F   UNL A   1      39.349  29.168  32.784  1.00  0.00    -0.206 F 
ATOM     64  C   UNL A   1      36.452  31.263  32.232  1.00  0.00     0.022 A 
BRANCH  61  65
ATOM     65  S   UNL A   1      35.712  33.063  30.236  1.00  0.00     0.124 S 
ATOM     66  O   UNL A   1      34.360  32.562  30.472  1.00  0.00    -0.237 OA
ATOM     67  O   UNL A   1      36.112  34.220  31.027  1.00  0.00    -0.237 OA
ATOM     68  O   UNL A   1      36.121  33.094  28.833  1.00  0.00    -0.744 OA
ENDBRANCH  61  65
ENDBRANCH  44  58
BRANCH  45  69
ATOM     69  C   UNL A   1      46.977  27.268  26.040  1.00  0.00     0.023 A 
ATOM     70  C   UNL A   1      48.076  26.696  26.700  1.00  0.00     0.031 A 
ATOM     71  C   UNL A   1      47.088  27.502  24.656  1.00  0.00     0.131 A 
ATOM     72  C   UNL A   1      49.257  26.429  25.990  1.00  0.00     0.055 A 
ATOM     73  C   UNL A   1      48.245  27.183  23.945  1.00  0.00     0.041 A 
ATOM     74  F   UNL A   1      46.068  28.049  23.976  1.00  0.00    -0.206 F 
ATOM     75  C   UNL A   1      49.345  26.656  24.614  1.00  0.00     0.022 A 
BRANCH  72  76
ATOM     76  S   UNL A   1      50.716  25.863  26.909  1.00  0.00     0.124 S 
ATOM     77  O   UNL A   1      50.737  26.792  28.032  1.00  0.00    -0.237 OA
ATOM     78  O   UNL A   1      50.356  24.484  27.224  1.00  0.00    -0.237 OA
ATOM     79  O   UNL A   1      51.804  26.016  25.948  1.00  0.00    -0.744 OA
ENDBRANCH  72  76
ENDBRANCH  45  69
BRANCH  57  80
ATOM     80  C   UNL A   1      45.230  33.254  29.151  1.00  0.00     0.023 A 
ATOM     81  C   UNL A   1      45.280  34.259  28.168  1.00  0.00     0.031 A 
ATOM     82  C   UNL A   1      45.943  33.466  30.346  1.00  0.00     0.131 A 
ATOM     83  C   UNL A   1      46.082  35.394  28.366  1.00  0.00     0.055 A 
ATOM     84  C   UNL A   1      46.685  34.627  30.564  1.00  0.00     0.041 A 
ATOM     85  F   UNL A   1      45.932  32.543  31.320  1.00  0.00    -0.206 F 
ATOM     86  C   UNL A   1      46.772  35.591  29.565  1.00  0.00     0.022 A 
BRANCH  83  87
ATOM     87  S   UNL A   1      46.304  36.553  26.990  1.00  0.00     0.124 S 
ATOM     88  O   UNL A   1      47.615  37.124  27.282  1.00  0.00    -0.237 OA
ATOM     89  O   UNL A   1      46.236  35.674  25.827  1.00  0.00    -0.237 OA
ATOM     90  O   UNL A   1      45.181  37.478  27.134  1.00  0.00    -0.744 OA
ENDBRANCH  83  87
ENDBRANCH  57  80
ENDBRANCH  31  32
ENDBRANCH  24  26
ENDBRANCH  23  24
ENDBRANCH  22  23
ENDBRANCH  21  22
ENDBRANCH  20  21
ENDBRANCH  19  20
ENDBRANCH   1  19
TORSDOF 26
ENDMDL
