MODEL 1
REMARK VINA RESULT:     -10.0      0.000      0.000
REMARK SMILES NS(=O)(=O)c1ccc(-c2coc(=O)n2-c2ccc(C(=O)OCCOCCOCCOC(=O)c3ccc(-c4c5nc(c(-c6cc(S(=O)(=O)[O-])ccc6F)c6ccc([nH]6)c(-c6cc(S(=O)(=O)[O-])ccc6F)c6nc(c(-c7cc(S(=O)(=O)[O-])ccc7F)c7ccc4[nH]7)C=C6)C=C5)cc3)cc2)cc1
REMARK SMILES IDX 25 1 24 2 23 3 22 4 21 5 19 6 20 7 18 8 15 9 16 10 97 11
REMARK SMILES IDX 17 12 96 13 14 14 9 15 10 16 11 17 12 18 13 19 8 20 5 21
REMARK SMILES IDX 6 22 99 23 7 24 98 25 2 26 3 27 4 28 1 29 26 32 27 33 28 34
REMARK SMILES IDX 29 35 30 36 31 37 32 38 33 39 34 40 95 41 35 42 94 43 36 44
REMARK SMILES IDX 37 45 38 46 88 47 39 48 93 49 87 50 89 51 40 52 92 53 86 54
REMARK SMILES IDX 85 55 41 57 73 58 53 59 72 60 54 61 57 62 71 63 90 64 55 65
REMARK SMILES IDX 56 66 70 68 91 69 58 70 42 71 43 72 51 73 44 74 50 75 52 76
REMARK SMILES IDX 49 77 45 78 46 79 47 80 48 81 74 82 75 83 83 84 76 85 82 86
REMARK SMILES IDX 84 87 81 88 77 89 78 90 79 91 80 92 59 93 60 94 68 95 61 96
REMARK SMILES IDX 67 97 69 98 66 99 62 100 63 101 64 102 65 103
REMARK H PARENT 1 30 1 31 89 56 57 67
REMARK Flexibility Score: inf
ROOT
ATOM      1  C   UNL A   1      35.037  23.376  23.542  1.00  0.00     0.188 C 
ENDROOT
BRANCH   1   2
ATOM      2  O   UNL A   1      34.184  24.233  22.793  1.00  0.00    -0.376 OA
BRANCH   2   3
ATOM      3  C   UNL A   1      32.830  23.876  22.555  1.00  0.00     0.202 C 
BRANCH   3   4
ATOM      4  C   UNL A   1      31.673  24.859  22.826  1.00  0.00     0.261 C 
BRANCH   4   5
ATOM      5  O   UNL A   1      31.977  25.967  23.684  1.00  0.00    -0.460 OA
BRANCH   5   6
ATOM      6  C   UNL A   1      31.971  25.713  25.011  1.00  0.00     0.338 C 
ATOM      7  O   UNL A   1      31.699  24.659  25.560  1.00  0.00    -0.246 OA
BRANCH   6   8
ATOM      8  C   UNL A   1      32.508  26.882  25.745  1.00  0.00     0.060 A 
ATOM      9  C   UNL A   1      33.319  29.203  27.076  1.00  0.00     0.053 A 
ATOM     10  C   UNL A   1      32.200  28.504  27.529  1.00  0.00     0.028 A 
ATOM     11  C   UNL A   1      34.103  28.656  26.044  1.00  0.00     0.028 A 
ATOM     12  C   UNL A   1      31.777  27.364  26.840  1.00  0.00     0.018 A 
ATOM     13  C   UNL A   1      33.708  27.492  25.384  1.00  0.00     0.018 A 
BRANCH   9  14
ATOM     14  N   UNL A   1      33.541  30.532  27.504  1.00  0.00    -0.242 N 
ATOM     15  C   UNL A   1      34.646  31.003  28.165  1.00  0.00     0.095 A 
ATOM     16  C   UNL A   1      34.468  32.310  28.304  1.00  0.00     0.228 A 
ATOM     17  O   UNL A   1      33.277  32.784  27.756  1.00  0.00    -0.415 OA
ATOM     18  C   UNL A   1      32.728  31.622  27.210  1.00  0.00     0.424 A 
ATOM     19  O   UNL A   1      31.674  31.628  26.582  1.00  0.00    -0.223 OA
BRANCH  15  20
ATOM     20  C   UNL A   1      35.848  30.219  28.438  1.00  0.00     0.002 A 
ATOM     21  C   UNL A   1      38.260  28.981  29.112  1.00  0.00     0.082 A 
ATOM     22  C   UNL A   1      37.253  29.079  30.070  1.00  0.00     0.022 A 
ATOM     23  C   UNL A   1      38.065  29.468  27.815  1.00  0.00     0.022 A 
ATOM     24  C   UNL A   1      36.046  29.687  29.726  1.00  0.00     0.012 A 
ATOM     25  C   UNL A   1      36.854  30.081  27.476  1.00  0.00     0.012 A 
BRANCH  21  26
ATOM     26  S   UNL A   1      39.820  28.279  29.548  1.00  0.00     0.238 S 
ATOM     27  O   UNL A   1      40.065  27.097  28.750  1.00  0.00    -0.207 OA
ATOM     28  O   UNL A   1      39.955  28.292  30.984  1.00  0.00    -0.207 OA
BRANCH  26  29
ATOM     29  N   UNL A   1      40.898  29.430  28.967  1.00  0.00    -0.225 NA
ATOM     30  H   UNL A   1      41.633  28.969  28.432  1.00  0.00     0.137 HD
ATOM     31  H   UNL A   1      41.312  29.934  29.751  1.00  0.00     0.137 HD
ENDBRANCH  26  29
ENDBRANCH  21  26
ENDBRANCH  15  20
ENDBRANCH   9  14
ENDBRANCH   6   8
ENDBRANCH   5   6
ENDBRANCH   4   5
ENDBRANCH   3   4
ENDBRANCH   2   3
ENDBRANCH   1   2
BRANCH   1  32
ATOM     32  C   UNL A   1      34.485  22.115  24.247  1.00  0.00     0.188 C 
BRANCH  32  33
ATOM     33  O   UNL A   1      35.474  21.247  24.762  1.00  0.00    -0.376 OA
BRANCH  33  34
ATOM     34  C   UNL A   1      36.496  21.738  25.615  1.00  0.00     0.202 C 
BRANCH  34  35
ATOM     35  C   UNL A   1      37.982  21.510  25.345  1.00  0.00     0.261 C 
BRANCH  35  36
ATOM     36  O   UNL A   1      38.872  22.007  26.320  1.00  0.00    -0.460 OA
BRANCH  36  37
ATOM     37  C   UNL A   1      40.094  21.434  26.296  1.00  0.00     0.338 C 
ATOM     38  O   UNL A   1      40.350  20.256  26.468  1.00  0.00    -0.246 OA
BRANCH  37  39
ATOM     39  C   UNL A   1      41.089  22.492  26.113  1.00  0.00     0.060 A 
ATOM     40  C   UNL A   1      42.396  22.083  25.850  1.00  0.00     0.016 A 
ATOM     41  C   UNL A   1      40.774  23.784  26.558  1.00  0.00     0.016 A 
ATOM     42  C   UNL A   1      43.417  22.890  26.291  1.00  0.00     0.010 A 
ATOM     43  C   UNL A   1      41.792  24.572  27.027  1.00  0.00     0.010 A 
ATOM     44  C   UNL A   1      43.087  24.064  26.974  1.00  0.00    -0.014 A 
BRANCH  44  45
ATOM     45  C   UNL A   1      44.147  24.789  27.625  1.00  0.00     0.031 A 
ATOM     46  C   UNL A   1      44.201  24.552  29.075  1.00  0.00     0.074 A 
ATOM     47  C   UNL A   1      45.037  25.526  26.935  1.00  0.00     0.049 A 
ATOM     48  N   UNL A   1      43.916  25.393  30.008  1.00  0.00    -0.248 NA
ATOM     49  C   UNL A   1      44.402  23.172  29.543  1.00  0.00     0.031 C 
ATOM     50  C   UNL A   1      45.201  25.621  25.483  1.00  0.00     0.029 A 
ATOM     51  N   UNL A   1      46.072  26.264  27.412  1.00  0.00    -0.354 N 
ATOM     52  C   UNL A   1      44.136  24.711  31.194  1.00  0.00     0.074 A 
ATOM     53  C   UNL A   1      44.200  23.317  30.852  1.00  0.00     0.031 C 
ATOM     54  C   UNL A   1      46.405  26.175  25.212  1.00  0.00     0.029 A 
ATOM     55  C   UNL A   1      47.041  26.566  26.461  1.00  0.00     0.049 A 
ATOM     56  H   UNL A   1      46.131  26.561  28.348  1.00  0.00     0.167 HD
ATOM     57  C   UNL A   1      44.511  25.374  32.319  1.00  0.00     0.034 A 
ATOM     58  C   UNL A   1      48.303  27.008  26.707  1.00  0.00     0.034 A 
ATOM     59  C   UNL A   1      44.257  26.792  32.199  1.00  0.00     0.049 A 
ATOM     60  C   UNL A   1      48.287  27.626  28.062  1.00  0.00     0.074 A 
ATOM     61  C   UNL A   1      43.123  27.547  31.963  1.00  0.00     0.029 A 
ATOM     62  N   UNL A   1      45.321  27.622  31.921  1.00  0.00    -0.354 N 
ATOM     63  N   UNL A   1      47.618  28.712  28.342  1.00  0.00    -0.248 NA
ATOM     64  C   UNL A   1      48.587  26.783  29.213  1.00  0.00     0.031 C 
ATOM     65  C   UNL A   1      43.551  28.598  31.101  1.00  0.00     0.029 A 
ATOM     66  C   UNL A   1      44.930  28.479  30.918  1.00  0.00     0.049 A 
ATOM     67  H   UNL A   1      46.203  27.604  32.359  1.00  0.00     0.167 HD
ATOM     68  C   UNL A   1      47.028  28.465  29.574  1.00  0.00     0.074 A 
ATOM     69  C   UNL A   1      47.752  27.315  30.113  1.00  0.00     0.031 C 
ATOM     70  C   UNL A   1      45.823  29.020  29.907  1.00  0.00     0.034 A 
BRANCH  57  71
ATOM     71  C   UNL A   1      45.423  24.796  33.370  1.00  0.00     0.023 A 
ATOM     72  C   UNL A   1      46.787  25.120  33.284  1.00  0.00     0.031 A 
ATOM     73  C   UNL A   1      45.088  23.750  34.262  1.00  0.00     0.131 A 
ATOM     74  C   UNL A   1      47.745  24.375  33.989  1.00  0.00     0.055 A 
ATOM     75  C   UNL A   1      46.038  23.066  35.021  1.00  0.00     0.041 A 
ATOM     76  F   UNL A   1      43.848  23.261  34.378  1.00  0.00    -0.206 F 
ATOM     77  C   UNL A   1      47.381  23.356  34.864  1.00  0.00     0.022 A 
BRANCH  74  78
ATOM     78  S   UNL A   1      49.491  24.645  33.599  1.00  0.00     0.124 S 
ATOM     79  O   UNL A   1      49.409  25.228  32.265  1.00  0.00    -0.237 OA
ATOM     80  O   UNL A   1      49.902  25.545  34.672  1.00  0.00    -0.237 OA
ATOM     81  O   UNL A   1      50.061  23.302  33.659  1.00  0.00    -0.744 OA
ENDBRANCH  74  78
ENDBRANCH  57  71
BRANCH  58  82
ATOM     82  C   UNL A   1      49.544  26.628  25.972  1.00  0.00     0.023 A 
ATOM     83  C   UNL A   1      50.111  27.431  24.960  1.00  0.00     0.031 A 
ATOM     84  C   UNL A   1      50.331  25.543  26.427  1.00  0.00     0.131 A 
ATOM     85  C   UNL A   1      51.398  27.131  24.447  1.00  0.00     0.055 A 
ATOM     86  C   UNL A   1      51.592  25.244  25.909  1.00  0.00     0.041 A 
ATOM     87  F   UNL A   1      49.941  24.779  27.461  1.00  0.00    -0.206 F 
ATOM     88  C   UNL A   1      52.136  26.045  24.921  1.00  0.00     0.022 A 
BRANCH  85  89
ATOM     89  S   UNL A   1      52.187  28.224  23.221  1.00  0.00     0.124 S 
ATOM     90  O   UNL A   1      51.060  29.012  22.735  1.00  0.00    -0.237 OA
ATOM     91  O   UNL A   1      53.178  28.934  24.022  1.00  0.00    -0.237 OA
ATOM     92  O   UNL A   1      52.750  27.290  22.244  1.00  0.00    -0.744 OA
ENDBRANCH  85  89
ENDBRANCH  58  82
BRANCH  70  93
ATOM     93  C   UNL A   1      45.273  30.128  29.025  1.00  0.00     0.023 A 
ATOM     94  C   UNL A   1      45.641  31.491  29.120  1.00  0.00     0.031 A 
ATOM     95  C   UNL A   1      44.426  29.760  27.964  1.00  0.00     0.131 A 
ATOM     96  C   UNL A   1      45.146  32.427  28.190  1.00  0.00     0.055 A 
ATOM     97  C   UNL A   1      43.959  30.684  27.029  1.00  0.00     0.041 A 
ATOM     98  F   UNL A   1      44.061  28.478  27.798  1.00  0.00    -0.206 F 
ATOM     99  C   UNL A   1      44.311  32.024  27.144  1.00  0.00     0.022 A 
BRANCH  96 100
ATOM    100  S   UNL A   1      45.561  34.195  28.340  1.00  0.00     0.124 S 
ATOM    101  O   UNL A   1      44.367  34.870  27.845  1.00  0.00    -0.237 OA
ATOM    102  O   UNL A   1      45.831  34.336  29.768  1.00  0.00    -0.237 OA
ATOM    103  O   UNL A   1      46.740  34.341  27.483  1.00  0.00    -0.744 OA
ENDBRANCH  96 100
ENDBRANCH  70  93
ENDBRANCH  44  45
ENDBRANCH  37  39
ENDBRANCH  36  37
ENDBRANCH  35  36
ENDBRANCH  34  35
ENDBRANCH  33  34
ENDBRANCH  32  33
ENDBRANCH   1  32
TORSDOF 24
ENDMDL
MODEL 2
REMARK VINA RESULT:     -10.0      3.297      7.835
REMARK SMILES NS(=O)(=O)c1ccc(-c2coc(=O)n2-c2ccc(C(=O)OCCOCCOCCOC(=O)c3ccc(-c4c5nc(c(-c6cc(S(=O)(=O)[O-])ccc6F)c6ccc([nH]6)c(-c6cc(S(=O)(=O)[O-])ccc6F)c6nc(c(-c7cc(S(=O)(=O)[O-])ccc7F)c7ccc4[nH]7)C=C6)C=C5)cc3)cc2)cc1
REMARK SMILES IDX 25 1 24 2 23 3 22 4 21 5 19 6 20 7 18 8 15 9 16 10 97 11
REMARK SMILES IDX 17 12 96 13 14 14 9 15 10 16 11 17 12 18 13 19 8 20 5 21
REMARK SMILES IDX 6 22 99 23 7 24 98 25 2 26 3 27 4 28 1 29 26 32 27 33 28 34
REMARK SMILES IDX 29 35 30 36 31 37 32 38 33 39 34 40 95 41 35 42 94 43 36 44
REMARK SMILES IDX 37 45 38 46 88 47 39 48 93 49 87 50 89 51 40 52 92 53 86 54
REMARK SMILES IDX 85 55 41 57 73 58 53 59 72 60 54 61 57 62 71 63 90 64 55 65
REMARK SMILES IDX 56 66 70 68 91 69 58 70 42 71 43 72 51 73 44 74 50 75 52 76
REMARK SMILES IDX 49 77 45 78 46 79 47 80 48 81 74 82 75 83 83 84 76 85 82 86
REMARK SMILES IDX 84 87 81 88 77 89 78 90 79 91 80 92 59 93 60 94 68 95 61 96
REMARK SMILES IDX 67 97 69 98 66 99 62 100 63 101 64 102 65 103
REMARK H PARENT 1 30 1 31 89 56 57 67
REMARK Flexibility Score: inf
ROOT
ATOM      1  C   UNL A   1      33.849  34.393  31.026  1.00  0.00     0.188 C 
ENDROOT
BRANCH   1   2
ATOM      2  O   UNL A   1      33.631  33.553  29.899  1.00  0.00    -0.376 OA
BRANCH   2   3
ATOM      3  C   UNL A   1      34.541  33.557  28.808  1.00  0.00     0.202 C 
BRANCH   3   4
ATOM      4  C   UNL A   1      34.696  32.337  27.877  1.00  0.00     0.261 C 
BRANCH   4   5
ATOM      5  O   UNL A   1      33.872  31.204  28.182  1.00  0.00    -0.460 OA
BRANCH   5   6
ATOM      6  C   UNL A   1      32.820  30.994  27.360  1.00  0.00     0.338 C 
ATOM      7  O   UNL A   1      32.082  31.834  26.876  1.00  0.00    -0.246 OA
BRANCH   6   8
ATOM      8  C   UNL A   1      32.764  29.564  26.979  1.00  0.00     0.060 A 
ATOM      9  C   UNL A   1      32.666  26.935  26.030  1.00  0.00     0.053 A 
ATOM     10  C   UNL A   1      33.795  27.716  25.783  1.00  0.00     0.028 A 
ATOM     11  C   UNL A   1      31.653  27.433  26.869  1.00  0.00     0.028 A 
ATOM     12  C   UNL A   1      33.826  29.040  26.227  1.00  0.00     0.018 A 
ATOM     13  C   UNL A   1      31.703  28.742  27.354  1.00  0.00     0.018 A 
BRANCH   9  14
ATOM     14  N   UNL A   1      32.449  25.753  25.285  1.00  0.00    -0.242 N 
ATOM     15  C   UNL A   1      31.558  25.590  24.256  1.00  0.00     0.095 A 
ATOM     16  C   UNL A   1      31.737  24.357  23.800  1.00  0.00     0.228 A 
ATOM     17  O   UNL A   1      32.733  23.643  24.465  1.00  0.00    -0.415 OA
ATOM     18  C   UNL A   1      33.200  24.587  25.383  1.00  0.00     0.424 A 
ATOM     19  O   UNL A   1      34.135  24.354  26.143  1.00  0.00    -0.223 OA
BRANCH  15  20
ATOM     20  C   UNL A   1      30.753  26.662  23.674  1.00  0.00     0.002 A 
ATOM     21  C   UNL A   1      29.317  28.895  22.805  1.00  0.00     0.082 A 
ATOM     22  C   UNL A   1      30.683  28.816  22.537  1.00  0.00     0.022 A 
ATOM     23  C   UNL A   1      28.657  27.859  23.477  1.00  0.00     0.022 A 
ATOM     24  C   UNL A   1      31.393  27.694  22.962  1.00  0.00     0.012 A 
ATOM     25  C   UNL A   1      29.376  26.738  23.904  1.00  0.00     0.012 A 
BRANCH  21  26
ATOM     26  S   UNL A   1      28.414  30.339  22.339  1.00  0.00     0.238 S 
ATOM     27  O   UNL A   1      27.462  30.674  23.375  1.00  0.00    -0.207 OA
ATOM     28  O   UNL A   1      28.048  30.234  20.948  1.00  0.00    -0.207 OA
BRANCH  26  29
ATOM     29  N   UNL A   1      29.592  31.533  22.424  1.00  0.00    -0.225 NA
ATOM     30  H   UNL A   1      29.986  31.557  23.364  1.00  0.00     0.137 HD
ATOM     31  H   UNL A   1      29.175  32.438  22.206  1.00  0.00     0.137 HD
ENDBRANCH  26  29
ENDBRANCH  21  26
ENDBRANCH  15  20
ENDBRANCH   9  14
ENDBRANCH   6   8
ENDBRANCH   5   6
ENDBRANCH   4   5
ENDBRANCH   3   4
ENDBRANCH   2   3
ENDBRANCH   1   2
BRANCH   1  32
ATOM     32  C   UNL A   1      34.897  34.030  32.104  1.00  0.00     0.188 C 
BRANCH  32  33
ATOM     33  O   UNL A   1      36.140  34.685  31.962  1.00  0.00    -0.376 OA
BRANCH  33  34
ATOM     34  C   UNL A   1      37.293  33.971  31.546  1.00  0.00     0.202 C 
BRANCH  34  35
ATOM     35  C   UNL A   1      38.039  32.997  32.455  1.00  0.00     0.261 C 
BRANCH  35  36
ATOM     36  O   UNL A   1      37.511  31.690  32.528  1.00  0.00    -0.460 OA
BRANCH  36  37
ATOM     37  C   UNL A   1      36.984  31.241  31.370  1.00  0.00     0.338 C 
ATOM     38  O   UNL A   1      35.806  31.239  31.058  1.00  0.00    -0.246 OA
BRANCH  37  39
ATOM     39  C   UNL A   1      38.065  30.669  30.569  1.00  0.00     0.060 A 
ATOM     40  C   UNL A   1      37.986  29.303  30.294  1.00  0.00     0.016 A 
ATOM     41  C   UNL A   1      39.257  31.399  30.442  1.00  0.00     0.016 A 
ATOM     42  C   UNL A   1      39.165  28.613  30.149  1.00  0.00     0.010 A 
ATOM     43  C   UNL A   1      40.432  30.704  30.330  1.00  0.00     0.010 A 
ATOM     44  C   UNL A   1      40.366  29.315  30.286  1.00  0.00    -0.014 A 
BRANCH  44  45
ATOM     45  C   UNL A   1      41.589  28.556  30.354  1.00  0.00     0.031 A 
ATOM     46  C   UNL A   1      42.068  28.359  31.730  1.00  0.00     0.074 A 
ATOM     47  C   UNL A   1      42.159  28.019  29.260  1.00  0.00     0.049 A 
ATOM     48  N   UNL A   1      43.112  28.886  32.269  1.00  0.00    -0.248 NA
ATOM     49  C   UNL A   1      41.185  27.659  32.675  1.00  0.00     0.031 C 
ATOM     50  C   UNL A   1      41.624  27.962  27.898  1.00  0.00     0.029 A 
ATOM     51  N   UNL A   1      43.305  27.296  29.173  1.00  0.00    -0.354 N 
ATOM     52  C   UNL A   1      43.147  28.387  33.561  1.00  0.00     0.074 A 
ATOM     53  C   UNL A   1      41.842  27.844  33.820  1.00  0.00     0.031 C 
ATOM     54  C   UNL A   1      42.326  27.048  27.189  1.00  0.00     0.029 A 
ATOM     55  C   UNL A   1      43.414  26.541  28.011  1.00  0.00     0.049 A 
ATOM     56  H   UNL A   1      43.998  27.307  29.871  1.00  0.00     0.167 HD
ATOM     57  C   UNL A   1      44.328  28.225  34.213  1.00  0.00     0.034 A 
ATOM     58  C   UNL A   1      44.275  25.511  27.797  1.00  0.00     0.034 A 
ATOM     59  C   UNL A   1      45.386  28.974  33.572  1.00  0.00     0.049 A 
ATOM     60  C   UNL A   1      45.406  25.688  28.749  1.00  0.00     0.074 A 
ATOM     61  C   UNL A   1      45.571  30.312  33.276  1.00  0.00     0.029 A 
ATOM     62  N   UNL A   1      46.273  28.290  32.770  1.00  0.00    -0.354 N 
ATOM     63  N   UNL A   1      46.243  26.688  28.683  1.00  0.00    -0.248 NA
ATOM     64  C   UNL A   1      45.315  25.058  30.061  1.00  0.00     0.031 C 
ATOM     65  C   UNL A   1      46.186  30.325  31.991  1.00  0.00     0.029 A 
ATOM     66  C   UNL A   1      46.417  29.003  31.603  1.00  0.00     0.049 A 
ATOM     67  H   UNL A   1      46.723  27.442  32.993  1.00  0.00     0.167 HD
ATOM     68  C   UNL A   1      46.421  27.098  29.997  1.00  0.00     0.074 A 
ATOM     69  C   UNL A   1      45.920  25.989  30.807  1.00  0.00     0.031 C 
ATOM     70  C   UNL A   1      46.676  28.407  30.304  1.00  0.00     0.034 A 
BRANCH  57  71
ATOM     71  C   UNL A   1      44.597  27.124  35.205  1.00  0.00     0.023 A 
ATOM     72  C   UNL A   1      44.991  25.877  34.688  1.00  0.00     0.031 A 
ATOM     73  C   UNL A   1      44.230  27.141  36.571  1.00  0.00     0.131 A 
ATOM     74  C   UNL A   1      44.931  24.722  35.483  1.00  0.00     0.055 A 
ATOM     75  C   UNL A   1      44.248  26.002  37.377  1.00  0.00     0.041 A 
ATOM     76  F   UNL A   1      43.737  28.226  37.178  1.00  0.00    -0.206 F 
ATOM     77  C   UNL A   1      44.571  24.776  36.827  1.00  0.00     0.022 A 
BRANCH  74  78
ATOM     78  S   UNL A   1      45.157  23.119  34.675  1.00  0.00     0.124 S 
ATOM     79  O   UNL A   1      45.156  23.496  33.267  1.00  0.00    -0.237 OA
ATOM     80  O   UNL A   1      46.436  22.683  35.226  1.00  0.00    -0.237 OA
ATOM     81  O   UNL A   1      43.994  22.353  35.116  1.00  0.00    -0.744 OA
ENDBRANCH  74  78
ENDBRANCH  57  71
BRANCH  58  82
ATOM     82  C   UNL A   1      43.993  24.248  27.054  1.00  0.00     0.023 A 
ATOM     83  C   UNL A   1      43.030  23.309  27.478  1.00  0.00     0.031 A 
ATOM     84  C   UNL A   1      44.530  24.055  25.759  1.00  0.00     0.131 A 
ATOM     85  C   UNL A   1      42.652  22.240  26.628  1.00  0.00     0.055 A 
ATOM     86  C   UNL A   1      44.164  22.993  24.931  1.00  0.00     0.041 A 
ATOM     87  F   UNL A   1      45.369  24.947  25.207  1.00  0.00    -0.206 F 
ATOM     88  C   UNL A   1      43.214  22.084  25.359  1.00  0.00     0.022 A 
BRANCH  85  89
ATOM     89  S   UNL A   1      41.330  21.085  27.119  1.00  0.00     0.124 S 
ATOM     90  O   UNL A   1      40.786  21.724  28.311  1.00  0.00    -0.237 OA
ATOM     91  O   UNL A   1      40.471  21.070  25.941  1.00  0.00    -0.237 OA
ATOM     92  O   UNL A   1      42.046  19.832  27.366  1.00  0.00    -0.744 OA
ENDBRANCH  85  89
ENDBRANCH  58  82
BRANCH  70  93
ATOM     93  C   UNL A   1      47.038  29.353  29.171  1.00  0.00     0.023 A 
ATOM     94  C   UNL A   1      46.139  30.260  28.561  1.00  0.00     0.031 A 
ATOM     95  C   UNL A   1      48.387  29.418  28.779  1.00  0.00     0.131 A 
ATOM     96  C   UNL A   1      46.598  31.164  27.583  1.00  0.00     0.055 A 
ATOM     97  C   UNL A   1      48.843  30.333  27.830  1.00  0.00     0.041 A 
ATOM     98  F   UNL A   1      49.299  28.606  29.340  1.00  0.00    -0.206 F 
ATOM     99  C   UNL A   1      47.949  31.205  27.222  1.00  0.00     0.022 A 
BRANCH  96 100
ATOM    100  S   UNL A   1      45.440  32.292  26.743  1.00  0.00     0.124 S 
ATOM    101  O   UNL A   1      46.080  33.596  26.867  1.00  0.00    -0.237 OA
ATOM    102  O   UNL A   1      45.379  31.735  25.394  1.00  0.00    -0.237 OA
ATOM    103  O   UNL A   1      44.203  32.146  27.514  1.00  0.00    -0.744 OA
ENDBRANCH  96 100
ENDBRANCH  70  93
ENDBRANCH  44  45
ENDBRANCH  37  39
ENDBRANCH  36  37
ENDBRANCH  35  36
ENDBRANCH  34  35
ENDBRANCH  33  34
ENDBRANCH  32  33
ENDBRANCH   1  32
TORSDOF 24
ENDMDL
MODEL 3
REMARK VINA RESULT:      -9.6      3.315      8.033
REMARK SMILES NS(=O)(=O)c1ccc(-c2coc(=O)n2-c2ccc(C(=O)OCCOCCOCCOC(=O)c3ccc(-c4c5nc(c(-c6cc(S(=O)(=O)[O-])ccc6F)c6ccc([nH]6)c(-c6cc(S(=O)(=O)[O-])ccc6F)c6nc(c(-c7cc(S(=O)(=O)[O-])ccc7F)c7ccc4[nH]7)C=C6)C=C5)cc3)cc2)cc1
REMARK SMILES IDX 25 1 24 2 23 3 22 4 21 5 19 6 20 7 18 8 15 9 16 10 97 11
REMARK SMILES IDX 17 12 96 13 14 14 9 15 10 16 11 17 12 18 13 19 8 20 5 21
REMARK SMILES IDX 6 22 99 23 7 24 98 25 2 26 3 27 4 28 1 29 26 32 27 33 28 34
REMARK SMILES IDX 29 35 30 36 31 37 32 38 33 39 34 40 95 41 35 42 94 43 36 44
REMARK SMILES IDX 37 45 38 46 88 47 39 48 93 49 87 50 89 51 40 52 92 53 86 54
REMARK SMILES IDX 85 55 41 57 73 58 53 59 72 60 54 61 57 62 71 63 90 64 55 65
REMARK SMILES IDX 56 66 70 68 91 69 58 70 42 71 43 72 51 73 44 74 50 75 52 76
REMARK SMILES IDX 49 77 45 78 46 79 47 80 48 81 74 82 75 83 83 84 76 85 82 86
REMARK SMILES IDX 84 87 81 88 77 89 78 90 79 91 80 92 59 93 60 94 68 95 61 96
REMARK SMILES IDX 67 97 69 98 66 99 62 100 63 101 64 102 65 103
REMARK H PARENT 1 30 1 31 89 56 57 67
REMARK Flexibility Score: inf
ROOT
ATOM      1  C   UNL A   1      34.292  34.026  31.341  1.00  0.00     0.188 C 
ENDROOT
BRANCH   1   2
ATOM      2  O   UNL A   1      34.344  32.907  30.464  1.00  0.00    -0.376 OA
BRANCH   2   3
ATOM      3  C   UNL A   1      35.125  32.955  29.279  1.00  0.00     0.202 C 
BRANCH   3   4
ATOM      4  C   UNL A   1      35.864  31.712  28.743  1.00  0.00     0.261 C 
BRANCH   4   5
ATOM      5  O   UNL A   1      35.381  31.178  27.504  1.00  0.00    -0.460 OA
BRANCH   5   6
ATOM      6  C   UNL A   1      35.034  29.872  27.512  1.00  0.00     0.338 C 
ATOM      7  O   UNL A   1      35.445  29.004  28.263  1.00  0.00    -0.246 OA
BRANCH   6   8
ATOM      8  C   UNL A   1      33.930  29.642  26.553  1.00  0.00     0.060 A 
ATOM      9  C   UNL A   1      31.769  29.035  24.885  1.00  0.00     0.053 A 
ATOM     10  C   UNL A   1      31.532  29.509  26.176  1.00  0.00     0.028 A 
ATOM     11  C   UNL A   1      33.086  29.000  24.394  1.00  0.00     0.028 A 
ATOM     12  C   UNL A   1      32.614  29.778  27.018  1.00  0.00     0.018 A 
ATOM     13  C   UNL A   1      34.168  29.313  25.219  1.00  0.00     0.018 A 
BRANCH   9  14
ATOM     14  N   UNL A   1      30.728  28.407  24.163  1.00  0.00    -0.242 N 
ATOM     15  C   UNL A   1      30.515  27.058  24.047  1.00  0.00     0.095 A 
ATOM     16  C   UNL A   1      29.395  26.916  23.350  1.00  0.00     0.228 A 
ATOM     17  O   UNL A   1      28.803  28.120  22.973  1.00  0.00    -0.415 OA
ATOM     18  C   UNL A   1      29.661  29.057  23.553  1.00  0.00     0.424 A 
ATOM     19  O   UNL A   1      29.453  30.265  23.487  1.00  0.00    -0.223 OA
BRANCH  15  20
ATOM     20  C   UNL A   1      31.273  26.031  24.759  1.00  0.00     0.002 A 
ATOM     21  C   UNL A   1      32.476  23.872  26.061  1.00  0.00     0.082 A 
ATOM     22  C   UNL A   1      32.511  23.934  24.669  1.00  0.00     0.022 A 
ATOM     23  C   UNL A   1      31.872  24.890  26.809  1.00  0.00     0.022 A 
ATOM     24  C   UNL A   1      31.920  25.020  24.024  1.00  0.00     0.012 A 
ATOM     25  C   UNL A   1      31.277  25.974  26.156  1.00  0.00     0.012 A 
BRANCH  21  26
ATOM     26  S   UNL A   1      33.154  22.471  26.894  1.00  0.00     0.238 S 
ATOM     27  O   UNL A   1      32.653  22.419  28.251  1.00  0.00    -0.207 OA
ATOM     28  O   UNL A   1      34.558  22.372  26.578  1.00  0.00    -0.207 OA
BRANCH  26  29
ATOM     29  N   UNL A   1      32.405  21.194  26.102  1.00  0.00    -0.225 NA
ATOM     30  H   UNL A   1      33.086  20.456  25.923  1.00  0.00     0.137 HD
ATOM     31  H   UNL A   1      32.019  21.523  25.216  1.00  0.00     0.137 HD
ENDBRANCH  26  29
ENDBRANCH  21  26
ENDBRANCH  15  20
ENDBRANCH   9  14
ENDBRANCH   6   8
ENDBRANCH   5   6
ENDBRANCH   4   5
ENDBRANCH   3   4
ENDBRANCH   2   3
ENDBRANCH   1   2
BRANCH   1  32
ATOM     32  C   UNL A   1      34.391  33.846  32.874  1.00  0.00     0.188 C 
BRANCH  32  33
ATOM     33  O   UNL A   1      35.520  33.117  33.310  1.00  0.00    -0.376 OA
BRANCH  33  34
ATOM     34  C   UNL A   1      36.749  33.775  33.577  1.00  0.00     0.202 C 
BRANCH  34  35
ATOM     35  C   UNL A   1      37.729  34.181  32.478  1.00  0.00     0.261 C 
BRANCH  35  36
ATOM     36  O   UNL A   1      37.686  33.413  31.295  1.00  0.00    -0.460 OA
BRANCH  36  37
ATOM     37  C   UNL A   1      38.896  33.170  30.749  1.00  0.00     0.338 C 
ATOM     38  O   UNL A   1      39.400  33.750  29.804  1.00  0.00    -0.246 OA
BRANCH  37  39
ATOM     39  C   UNL A   1      39.481  32.017  31.435  1.00  0.00     0.060 A 
ATOM     40  C   UNL A   1      40.827  32.114  31.788  1.00  0.00     0.016 A 
ATOM     41  C   UNL A   1      38.801  30.791  31.371  1.00  0.00     0.016 A 
ATOM     42  C   UNL A   1      41.563  30.955  31.817  1.00  0.00     0.010 A 
ATOM     43  C   UNL A   1      39.543  29.640  31.368  1.00  0.00     0.010 A 
ATOM     44  C   UNL A   1      40.925  29.755  31.492  1.00  0.00    -0.014 A 
BRANCH  44  45
ATOM     45  C   UNL A   1      41.741  28.582  31.308  1.00  0.00     0.031 A 
ATOM     46  C   UNL A   1      42.348  28.102  32.558  1.00  0.00     0.074 A 
ATOM     47  C   UNL A   1      41.841  27.960  30.119  1.00  0.00     0.049 A 
ATOM     48  N   UNL A   1      43.596  28.140  32.878  1.00  0.00    -0.248 NA
ATOM     49  C   UNL A   1      41.452  27.717  33.659  1.00  0.00     0.031 C 
ATOM     50  C   UNL A   1      41.087  28.227  28.893  1.00  0.00     0.029 A 
ATOM     51  N   UNL A   1      42.574  26.863  29.799  1.00  0.00    -0.354 N 
ATOM     52  C   UNL A   1      43.669  27.558  34.133  1.00  0.00     0.074 A 
ATOM     53  C   UNL A   1      42.327  27.539  34.648  1.00  0.00     0.031 C 
ATOM     54  C   UNL A   1      41.229  27.177  28.052  1.00  0.00     0.029 A 
ATOM     55  C   UNL A   1      42.162  26.224  28.635  1.00  0.00     0.049 A 
ATOM     56  H   UNL A   1      43.331  26.548  30.342  1.00  0.00     0.167 HD
ATOM     57  C   UNL A   1      44.789  26.902  34.532  1.00  0.00     0.034 A 
ATOM     58  C   UNL A   1      42.493  24.964  28.246  1.00  0.00     0.034 A 
ATOM     59  C   UNL A   1      45.919  27.238  33.694  1.00  0.00     0.049 A 
ATOM     60  C   UNL A   1      43.757  24.613  28.951  1.00  0.00     0.074 A 
ATOM     61  C   UNL A   1      46.556  28.422  33.373  1.00  0.00     0.029 A 
ATOM     62  N   UNL A   1      46.301  26.335  32.726  1.00  0.00    -0.354 N 
ATOM     63  N   UNL A   1      44.892  25.217  28.721  1.00  0.00    -0.248 NA
ATOM     64  C   UNL A   1      43.669  23.958  30.250  1.00  0.00     0.031 C 
ATOM     65  C   UNL A   1      46.879  28.305  31.990  1.00  0.00     0.029 A 
ATOM     66  C   UNL A   1      46.496  27.034  31.557  1.00  0.00     0.049 A 
ATOM     67  H   UNL A   1      46.413  25.364  32.849  1.00  0.00     0.167 HD
ATOM     68  C   UNL A   1      45.455  25.415  29.974  1.00  0.00     0.074 A 
ATOM     69  C   UNL A   1      44.717  24.520  30.863  1.00  0.00     0.031 C 
ATOM     70  C   UNL A   1      46.256  26.495  30.229  1.00  0.00     0.034 A 
BRANCH  57  71
ATOM     71  C   UNL A   1      44.781  25.702  35.443  1.00  0.00     0.023 A 
ATOM     72  C   UNL A   1      45.608  25.753  36.578  1.00  0.00     0.031 A 
ATOM     73  C   UNL A   1      44.238  24.435  35.127  1.00  0.00     0.131 A 
ATOM     74  C   UNL A   1      45.927  24.582  37.284  1.00  0.00     0.055 A 
ATOM     75  C   UNL A   1      44.496  23.289  35.880  1.00  0.00     0.041 A 
ATOM     76  F   UNL A   1      43.518  24.206  34.023  1.00  0.00    -0.206 F 
ATOM     77  C   UNL A   1      45.369  23.351  36.949  1.00  0.00     0.022 A 
BRANCH  74  78
ATOM     78  S   UNL A   1      47.228  24.670  38.537  1.00  0.00     0.124 S 
ATOM     79  O   UNL A   1      48.280  23.865  37.928  1.00  0.00    -0.237 OA
ATOM     80  O   UNL A   1      47.476  26.107  38.611  1.00  0.00    -0.237 OA
ATOM     81  O   UNL A   1      46.599  24.085  39.718  1.00  0.00    -0.744 OA
ENDBRANCH  74  78
ENDBRANCH  57  71
BRANCH  58  82
ATOM     82  C   UNL A   1      41.606  23.974  27.569  1.00  0.00     0.023 A 
ATOM     83  C   UNL A   1      42.057  22.705  27.147  1.00  0.00     0.031 A 
ATOM     84  C   UNL A   1      40.208  24.188  27.530  1.00  0.00     0.131 A 
ATOM     85  C   UNL A   1      41.130  21.727  26.707  1.00  0.00     0.055 A 
ATOM     86  C   UNL A   1      39.300  23.226  27.084  1.00  0.00     0.041 A 
ATOM     87  F   UNL A   1      39.657  25.314  28.011  1.00  0.00    -0.206 F 
ATOM     88  C   UNL A   1      39.757  21.986  26.678  1.00  0.00     0.022 A 
BRANCH  85  89
ATOM     89  S   UNL A   1      41.688  20.050  26.266  1.00  0.00     0.124 S 
ATOM     90  O   UNL A   1      40.468  19.442  25.749  1.00  0.00    -0.237 OA
ATOM     91  O   UNL A   1      42.744  20.314  25.295  1.00  0.00    -0.237 OA
ATOM     92  O   UNL A   1      42.156  19.500  27.539  1.00  0.00    -0.744 OA
ENDBRANCH  85  89
ENDBRANCH  58  82
BRANCH  70  93
ATOM     93  C   UNL A   1      46.746  27.321  29.051  1.00  0.00     0.023 A 
ATOM     94  C   UNL A   1      47.871  27.002  28.255  1.00  0.00     0.031 A 
ATOM     95  C   UNL A   1      45.961  28.417  28.651  1.00  0.00     0.131 A 
ATOM     96  C   UNL A   1      48.185  27.781  27.125  1.00  0.00     0.055 A 
ATOM     97  C   UNL A   1      46.259  29.171  27.516  1.00  0.00     0.041 A 
ATOM     98  F   UNL A   1      44.862  28.757  29.345  1.00  0.00    -0.206 F 
ATOM     99  C   UNL A   1      47.378  28.861  26.752  1.00  0.00     0.022 A 
BRANCH  96 100
ATOM    100  S   UNL A   1      49.667  27.420  26.129  1.00  0.00     0.124 S 
ATOM    101  O   UNL A   1      49.222  26.371  25.220  1.00  0.00    -0.237 OA
ATOM    102  O   UNL A   1      49.960  28.714  25.518  1.00  0.00    -0.237 OA
ATOM    103  O   UNL A   1      50.648  26.984  27.125  1.00  0.00    -0.744 OA
ENDBRANCH  96 100
ENDBRANCH  70  93
ENDBRANCH  44  45
ENDBRANCH  37  39
ENDBRANCH  36  37
ENDBRANCH  35  36
ENDBRANCH  34  35
ENDBRANCH  33  34
ENDBRANCH  32  33
ENDBRANCH   1  32
TORSDOF 24
ENDMDL
