MODEL 1
REMARK VINA RESULT:     -10.5      0.000      0.000
REMARK SMILES O=C(OCCOCCOCCOC(=O)[C@@H]1CCCC[C@H]1C(=O)N[C@@H]1CONC1=O)c1ccc(-c2c3nc(c(-c4cc(S(=O)(=O)[O-])ccc4F)c4ccc([nH]4)c(-c4cc(S(=O)(=O)[O-])ccc4F)c4nc(c(-c5cc(S(=O)(=O)[O-])ccc5F)c5ccc2[nH]5)C=C4)C=C3)cc1
REMARK SMILES IDX 7 1 6 2 5 3 4 4 3 5 2 6 1 7 30 8 31 9 92 10 32 11 91 12
REMARK SMILES IDX 33 13 34 14 35 15 85 16 36 17 90 18 84 19 86 20 37 21 89 22
REMARK SMILES IDX 83 23 82 24 38 26 70 27 50 28 69 29 51 30 54 31 68 32 87 33
REMARK SMILES IDX 52 34 53 35 67 37 88 38 55 39 39 40 40 41 48 42 41 43 47 44
REMARK SMILES IDX 49 45 46 46 42 47 43 48 44 49 45 50 71 51 72 52 80 53 73 54
REMARK SMILES IDX 79 55 81 56 78 57 74 58 75 59 76 60 77 61 56 62 57 63 65 64
REMARK SMILES IDX 58 65 64 66 66 67 63 68 59 69 60 70 61 71 62 72 8 73 9 74
REMARK SMILES IDX 10 75 11 76 12 77 13 78 14 79 15 80 16 81 20 82 17 83 19 84
REMARK SMILES IDX 18 85 21 86 22 87 23 88 24 90 25 91 28 92 26 93 27 94 29 95
REMARK H PARENT 86 25 54 36 23 89 27 96
REMARK Flexibility Score: inf
ROOT
ATOM      1  C   UNL A   1      31.939  28.420  24.680  1.00  0.00     0.188 C 
ENDROOT
BRANCH   1   2
ATOM      2  O   UNL A   1      32.710  29.029  25.722  1.00  0.00    -0.376 OA
BRANCH   2   3
ATOM      3  C   UNL A   1      32.315  30.381  25.995  1.00  0.00     0.202 C 
BRANCH   3   4
ATOM      4  C   UNL A   1      32.713  30.935  27.378  1.00  0.00     0.261 C 
BRANCH   4   5
ATOM      5  O   UNL A   1      33.105  32.317  27.364  1.00  0.00    -0.460 OA
BRANCH   5   6
ATOM      6  C   UNL A   1      34.257  32.879  27.803  1.00  0.00     0.338 C 
ATOM      7  O   UNL A   1      34.426  34.082  27.600  1.00  0.00    -0.246 OA
BRANCH   6   8
ATOM      8  C   UNL A   1      35.365  32.128  28.477  1.00  0.00     0.060 A 
ATOM      9  C   UNL A   1      35.213  30.981  29.259  1.00  0.00     0.016 A 
ATOM     10  C   UNL A   1      36.676  32.568  28.222  1.00  0.00     0.016 A 
ATOM     11  C   UNL A   1      36.303  30.306  29.806  1.00  0.00     0.010 A 
ATOM     12  C   UNL A   1      37.779  31.862  28.717  1.00  0.00     0.010 A 
ATOM     13  C   UNL A   1      37.595  30.716  29.514  1.00  0.00    -0.014 A 
BRANCH  13  14
ATOM     14  C   UNL A   1      38.748  30.039  30.151  1.00  0.00     0.031 A 
ATOM     15  C   UNL A   1      39.206  30.605  31.447  1.00  0.00     0.074 A 
ATOM     16  C   UNL A   1      39.336  28.940  29.637  1.00  0.00     0.049 A 
ATOM     17  N   UNL A   1      40.252  30.289  32.150  1.00  0.00    -0.248 NA
ATOM     18  C   UNL A   1      38.344  31.635  32.052  1.00  0.00     0.031 C 
ATOM     19  C   UNL A   1      38.807  28.168  28.529  1.00  0.00     0.029 A 
ATOM     20  N   UNL A   1      40.495  28.273  29.933  1.00  0.00    -0.354 N 
ATOM     21  C   UNL A   1      40.153  31.051  33.300  1.00  0.00     0.074 A 
ATOM     22  C   UNL A   1      39.008  31.920  33.157  1.00  0.00     0.031 C 
ATOM     23  C   UNL A   1      39.699  27.269  28.097  1.00  0.00     0.029 A 
ATOM     24  C   UNL A   1      40.851  27.345  28.966  1.00  0.00     0.049 A 
ATOM     25  H   UNL A   1      41.021  28.436  30.748  1.00  0.00     0.167 HD
ATOM     26  C   UNL A   1      40.931  30.969  34.398  1.00  0.00     0.034 A 
ATOM     27  C   UNL A   1      41.983  26.635  28.804  1.00  0.00     0.034 A 
ATOM     28  C   UNL A   1      42.059  30.082  34.478  1.00  0.00     0.049 A 
ATOM     29  C   UNL A   1      42.969  26.738  29.925  1.00  0.00     0.074 A 
ATOM     30  C   UNL A   1      42.943  29.903  35.520  1.00  0.00     0.029 A 
ATOM     31  N   UNL A   1      42.464  29.229  33.452  1.00  0.00    -0.354 N 
ATOM     32  N   UNL A   1      42.884  27.476  31.010  1.00  0.00    -0.248 NA
ATOM     33  C   UNL A   1      44.153  25.886  29.852  1.00  0.00     0.031 C 
ATOM     34  C   UNL A   1      43.923  28.997  35.100  1.00  0.00     0.029 A 
ATOM     35  C   UNL A   1      43.612  28.550  33.823  1.00  0.00     0.049 A 
ATOM     36  H   UNL A   1      42.000  29.124  32.590  1.00  0.00     0.167 HD
ATOM     37  C   UNL A   1      43.972  27.130  31.788  1.00  0.00     0.074 A 
ATOM     38  C   UNL A   1      44.707  26.125  31.032  1.00  0.00     0.031 C 
ATOM     39  C   UNL A   1      44.317  27.575  33.022  1.00  0.00     0.034 A 
BRANCH  26  40
ATOM     40  C   UNL A   1      40.590  31.904  35.522  1.00  0.00     0.023 A 
ATOM     41  C   UNL A   1      39.535  31.632  36.414  1.00  0.00     0.031 A 
ATOM     42  C   UNL A   1      41.241  33.143  35.620  1.00  0.00     0.131 A 
ATOM     43  C   UNL A   1      39.112  32.622  37.314  1.00  0.00     0.055 A 
ATOM     44  C   UNL A   1      40.870  34.090  36.573  1.00  0.00     0.041 A 
ATOM     45  F   UNL A   1      42.217  33.470  34.758  1.00  0.00    -0.206 F 
ATOM     46  C   UNL A   1      39.791  33.838  37.418  1.00  0.00     0.022 A 
BRANCH  43  47
ATOM     47  S   UNL A   1      37.573  32.360  38.238  1.00  0.00     0.124 S 
ATOM     48  O   UNL A   1      37.933  32.873  39.559  1.00  0.00    -0.237 OA
ATOM     49  O   UNL A   1      36.609  33.156  37.488  1.00  0.00    -0.237 OA
ATOM     50  O   UNL A   1      37.375  30.913  38.170  1.00  0.00    -0.744 OA
ENDBRANCH  43  47
ENDBRANCH  26  40
BRANCH  27  51
ATOM     51  C   UNL A   1      42.238  25.822  27.577  1.00  0.00     0.023 A 
ATOM     52  C   UNL A   1      41.915  24.457  27.485  1.00  0.00     0.031 A 
ATOM     53  C   UNL A   1      42.882  26.409  26.469  1.00  0.00     0.131 A 
ATOM     54  C   UNL A   1      42.273  23.723  26.338  1.00  0.00     0.055 A 
ATOM     55  C   UNL A   1      43.193  25.687  25.313  1.00  0.00     0.041 A 
ATOM     56  F   UNL A   1      43.242  27.700  26.501  1.00  0.00    -0.206 F 
ATOM     57  C   UNL A   1      42.900  24.331  25.250  1.00  0.00     0.022 A 
BRANCH  54  58
ATOM     58  S   UNL A   1      42.009  21.924  26.324  1.00  0.00     0.124 S 
ATOM     59  O   UNL A   1      42.375  21.553  27.685  1.00  0.00    -0.237 OA
ATOM     60  O   UNL A   1      40.592  21.829  25.991  1.00  0.00    -0.237 OA
ATOM     61  O   UNL A   1      42.924  21.454  25.284  1.00  0.00    -0.744 OA
ENDBRANCH  54  58
ENDBRANCH  27  51
BRANCH  39  62
ATOM     62  C   UNL A   1      45.518  26.913  33.628  1.00  0.00     0.023 A 
ATOM     63  C   UNL A   1      45.398  25.717  34.349  1.00  0.00     0.031 A 
ATOM     64  C   UNL A   1      46.777  27.528  33.537  1.00  0.00     0.131 A 
ATOM     65  C   UNL A   1      46.508  25.219  35.036  1.00  0.00     0.055 A 
ATOM     66  C   UNL A   1      47.899  26.976  34.149  1.00  0.00     0.041 A 
ATOM     67  F   UNL A   1      46.931  28.680  32.864  1.00  0.00    -0.206 F 
ATOM     68  C   UNL A   1      47.764  25.825  34.921  1.00  0.00     0.022 A 
BRANCH  65  69
ATOM     69  S   UNL A   1      46.250  23.852  36.194  1.00  0.00     0.124 S 
ATOM     70  O   UNL A   1      44.940  24.177  36.749  1.00  0.00    -0.237 OA
ATOM     71  O   UNL A   1      46.300  22.685  35.320  1.00  0.00    -0.237 OA
ATOM     72  O   UNL A   1      47.370  23.979  37.125  1.00  0.00    -0.744 OA
ENDBRANCH  65  69
ENDBRANCH  39  62
ENDBRANCH  13  14
ENDBRANCH   6   8
ENDBRANCH   5   6
ENDBRANCH   4   5
ENDBRANCH   3   4
ENDBRANCH   2   3
ENDBRANCH   1   2
BRANCH   1  73
ATOM     73  C   UNL A   1      32.777  27.614  23.687  1.00  0.00     0.188 C 
BRANCH  73  74
ATOM     74  O   UNL A   1      32.948  26.221  23.947  1.00  0.00    -0.376 OA
BRANCH  74  75
ATOM     75  C   UNL A   1      31.932  25.563  24.699  1.00  0.00     0.202 C 
BRANCH  75  76
ATOM     76  C   UNL A   1      32.053  24.046  24.897  1.00  0.00     0.261 C 
BRANCH  76  77
ATOM     77  O   UNL A   1      31.806  23.300  23.709  1.00  0.00    -0.463 OA
BRANCH  77  78
ATOM     78  C   UNL A   1      32.686  22.313  23.370  1.00  0.00     0.309 C 
ATOM     79  O   UNL A   1      32.546  21.516  22.456  1.00  0.00    -0.252 OA
BRANCH  78  80
ATOM     80  C   UNL A   1      33.897  22.402  24.300  1.00  0.00     0.111 C 
ATOM     81  C   UNL A   1      34.985  23.331  23.788  1.00  0.00     0.016 C 
ATOM     82  C   UNL A   1      34.343  20.980  24.661  1.00  0.00     0.092 C 
ATOM     83  C   UNL A   1      36.290  23.133  24.544  1.00  0.00     0.001 C 
ATOM     84  C   UNL A   1      35.820  20.679  24.895  1.00  0.00     0.014 C 
ATOM     85  C   UNL A   1      36.792  21.713  24.354  1.00  0.00     0.001 C 
BRANCH  82  86
ATOM     86  C   UNL A   1      33.463  20.600  25.832  1.00  0.00     0.224 C 
ATOM     87  O   UNL A   1      33.283  21.422  26.740  1.00  0.00    -0.275 OA
ATOM     88  N   UNL A   1      32.951  19.364  26.034  1.00  0.00    -0.342 N 
ATOM     89  H   UNL A   1      32.677  19.258  26.973  1.00  0.00     0.164 HD
BRANCH  88  90
ATOM     90  C   UNL A   1      32.680  18.135  25.286  1.00  0.00     0.202 C 
ATOM     91  C   UNL A   1      33.272  16.819  25.755  1.00  0.00     0.228 C 
ATOM     92  C   UNL A   1      32.597  17.975  23.793  1.00  0.00     0.268 C 
ATOM     93  O   UNL A   1      33.321  15.928  24.626  1.00  0.00    -0.271 OA
ATOM     94  N   UNL A   1      32.942  16.687  23.502  1.00  0.00    -0.233 N 
ATOM     95  O   UNL A   1      32.180  18.779  22.974  1.00  0.00    -0.270 OA
ATOM     96  H   UNL A   1      32.929  16.322  22.587  1.00  0.00     0.199 HD
ENDBRANCH  88  90
ENDBRANCH  82  86
ENDBRANCH  78  80
ENDBRANCH  77  78
ENDBRANCH  76  77
ENDBRANCH  75  76
ENDBRANCH  74  75
ENDBRANCH  73  74
ENDBRANCH   1  73
TORSDOF 22
ENDMDL
MODEL 2
REMARK VINA RESULT:     -10.3      2.296      2.890
REMARK SMILES O=C(OCCOCCOCCOC(=O)[C@@H]1CCCC[C@H]1C(=O)N[C@@H]1CONC1=O)c1ccc(-c2c3nc(c(-c4cc(S(=O)(=O)[O-])ccc4F)c4ccc([nH]4)c(-c4cc(S(=O)(=O)[O-])ccc4F)c4nc(c(-c5cc(S(=O)(=O)[O-])ccc5F)c5ccc2[nH]5)C=C4)C=C3)cc1
REMARK SMILES IDX 7 1 6 2 5 3 4 4 3 5 2 6 1 7 30 8 31 9 92 10 32 11 91 12
REMARK SMILES IDX 33 13 34 14 35 15 85 16 36 17 90 18 84 19 86 20 37 21 89 22
REMARK SMILES IDX 83 23 82 24 38 26 70 27 50 28 69 29 51 30 54 31 68 32 87 33
REMARK SMILES IDX 52 34 53 35 67 37 88 38 55 39 39 40 40 41 48 42 41 43 47 44
REMARK SMILES IDX 49 45 46 46 42 47 43 48 44 49 45 50 71 51 72 52 80 53 73 54
REMARK SMILES IDX 79 55 81 56 78 57 74 58 75 59 76 60 77 61 56 62 57 63 65 64
REMARK SMILES IDX 58 65 64 66 66 67 63 68 59 69 60 70 61 71 62 72 8 73 9 74
REMARK SMILES IDX 10 75 11 76 12 77 13 78 14 79 15 80 16 81 20 82 17 83 19 84
REMARK SMILES IDX 18 85 21 86 22 87 23 88 24 90 25 91 28 92 26 93 27 94 29 95
REMARK H PARENT 86 25 54 36 23 89 27 96
REMARK Flexibility Score: inf
ROOT
ATOM      1  C   UNL A   1      32.254  29.151  24.131  1.00  0.00     0.188 C 
ENDROOT
BRANCH   1   2
ATOM      2  O   UNL A   1      32.569  29.508  25.483  1.00  0.00    -0.376 OA
BRANCH   2   3
ATOM      3  C   UNL A   1      31.896  30.698  25.920  1.00  0.00     0.202 C 
BRANCH   3   4
ATOM      4  C   UNL A   1      32.344  31.265  27.282  1.00  0.00     0.261 C 
BRANCH   4   5
ATOM      5  O   UNL A   1      32.785  32.632  27.231  1.00  0.00    -0.460 OA
BRANCH   5   6
ATOM      6  C   UNL A   1      33.960  33.162  27.647  1.00  0.00     0.338 C 
ATOM      7  O   UNL A   1      34.185  34.344  27.383  1.00  0.00    -0.246 OA
BRANCH   6   8
ATOM      8  C   UNL A   1      35.029  32.398  28.368  1.00  0.00     0.060 A 
ATOM      9  C   UNL A   1      34.872  31.146  28.967  1.00  0.00     0.016 A 
ATOM     10  C   UNL A   1      36.321  32.952  28.358  1.00  0.00     0.016 A 
ATOM     11  C   UNL A   1      35.933  30.473  29.571  1.00  0.00     0.010 A 
ATOM     12  C   UNL A   1      37.405  32.256  28.908  1.00  0.00     0.010 A 
ATOM     13  C   UNL A   1      37.213  31.002  29.518  1.00  0.00    -0.014 A 
BRANCH  13  14
ATOM     14  C   UNL A   1      38.326  30.319  30.218  1.00  0.00     0.031 A 
ATOM     15  C   UNL A   1      38.661  30.831  31.572  1.00  0.00     0.074 A 
ATOM     16  C   UNL A   1      38.980  29.257  29.704  1.00  0.00     0.049 A 
ATOM     17  N   UNL A   1      39.651  30.503  32.345  1.00  0.00    -0.248 NA
ATOM     18  C   UNL A   1      37.727  31.814  32.149  1.00  0.00     0.031 C 
ATOM     19  C   UNL A   1      38.564  28.529  28.522  1.00  0.00     0.029 A 
ATOM     20  N   UNL A   1      40.126  28.601  30.066  1.00  0.00    -0.354 N 
ATOM     21  C   UNL A   1      39.439  31.207  33.516  1.00  0.00     0.074 A 
ATOM     22  C   UNL A   1      38.290  32.059  33.318  1.00  0.00     0.031 C 
ATOM     23  C   UNL A   1      39.510  27.670  28.125  1.00  0.00     0.029 A 
ATOM     24  C   UNL A   1      40.585  27.727  29.091  1.00  0.00     0.049 A 
ATOM     25  H   UNL A   1      40.579  28.735  30.930  1.00  0.00     0.167 HD
ATOM     26  C   UNL A   1      40.125  31.089  34.671  1.00  0.00     0.034 A 
ATOM     27  C   UNL A   1      41.742  27.049  28.993  1.00  0.00     0.034 A 
ATOM     28  C   UNL A   1      41.264  30.222  34.805  1.00  0.00     0.049 A 
ATOM     29  C   UNL A   1      42.629  27.118  30.196  1.00  0.00     0.074 A 
ATOM     30  C   UNL A   1      42.062  30.011  35.909  1.00  0.00     0.029 A 
ATOM     31  N   UNL A   1      41.773  29.427  33.779  1.00  0.00    -0.354 N 
ATOM     32  N   UNL A   1      42.436  27.802  31.303  1.00  0.00    -0.248 NA
ATOM     33  C   UNL A   1      43.835  26.294  30.184  1.00  0.00     0.031 C 
ATOM     34  C   UNL A   1      43.095  29.147  35.531  1.00  0.00     0.029 A 
ATOM     35  C   UNL A   1      42.902  28.755  34.213  1.00  0.00     0.049 A 
ATOM     36  H   UNL A   1      41.385  29.354  32.877  1.00  0.00     0.167 HD
ATOM     37  C   UNL A   1      43.464  27.441  32.152  1.00  0.00     0.074 A 
ATOM     38  C   UNL A   1      44.284  26.488  31.416  1.00  0.00     0.031 C 
ATOM     39  C   UNL A   1      43.694  27.833  33.431  1.00  0.00     0.034 A 
BRANCH  26  40
ATOM     40  C   UNL A   1      39.670  31.963  35.804  1.00  0.00     0.023 A 
ATOM     41  C   UNL A   1      40.344  33.154  36.133  1.00  0.00     0.031 A 
ATOM     42  C   UNL A   1      38.632  31.532  36.643  1.00  0.00     0.131 A 
ATOM     43  C   UNL A   1      40.021  33.831  37.319  1.00  0.00     0.055 A 
ATOM     44  C   UNL A   1      38.260  32.255  37.775  1.00  0.00     0.041 A 
ATOM     45  F   UNL A   1      37.994  30.375  36.400  1.00  0.00    -0.206 F 
ATOM     46  C   UNL A   1      38.964  33.404  38.127  1.00  0.00     0.022 A 
BRANCH  43  47
ATOM     47  S   UNL A   1      41.095  35.185  37.870  1.00  0.00     0.124 S 
ATOM     48  O   UNL A   1      40.123  36.117  38.441  1.00  0.00    -0.237 OA
ATOM     49  O   UNL A   1      41.979  34.526  38.824  1.00  0.00    -0.237 OA
ATOM     50  O   UNL A   1      41.735  35.638  36.637  1.00  0.00    -0.744 OA
ENDBRANCH  43  47
ENDBRANCH  26  40
BRANCH  27  51
ATOM     51  C   UNL A   1      42.118  26.300  27.755  1.00  0.00     0.023 A 
ATOM     52  C   UNL A   1      41.806  24.944  27.559  1.00  0.00     0.031 A 
ATOM     53  C   UNL A   1      42.869  26.942  26.750  1.00  0.00     0.131 A 
ATOM     54  C   UNL A   1      42.275  24.270  26.416  1.00  0.00     0.055 A 
ATOM     55  C   UNL A   1      43.293  26.281  25.594  1.00  0.00     0.041 A 
ATOM     56  F   UNL A   1      43.225  28.227  26.886  1.00  0.00    -0.206 F 
ATOM     57  C   UNL A   1      43.008  24.932  25.429  1.00  0.00     0.022 A 
BRANCH  54  58
ATOM     58  S   UNL A   1      42.013  22.476  26.279  1.00  0.00     0.124 S 
ATOM     59  O   UNL A   1      40.559  22.382  26.265  1.00  0.00    -0.237 OA
ATOM     60  O   UNL A   1      42.690  22.167  25.024  1.00  0.00    -0.237 OA
ATOM     61  O   UNL A   1      42.659  21.945  27.479  1.00  0.00    -0.744 OA
ENDBRANCH  54  58
ENDBRANCH  27  51
BRANCH  39  62
ATOM     62  C   UNL A   1      44.857  27.168  34.104  1.00  0.00     0.023 A 
ATOM     63  C   UNL A   1      44.700  25.951  34.782  1.00  0.00     0.031 A 
ATOM     64  C   UNL A   1      46.111  27.798  34.122  1.00  0.00     0.131 A 
ATOM     65  C   UNL A   1      45.764  25.446  35.534  1.00  0.00     0.055 A 
ATOM     66  C   UNL A   1      47.192  27.242  34.799  1.00  0.00     0.041 A 
ATOM     67  F   UNL A   1      46.299  28.970  33.493  1.00  0.00    -0.206 F 
ATOM     68  C   UNL A   1      47.016  26.069  35.528  1.00  0.00     0.022 A 
BRANCH  65  69
ATOM     69  S   UNL A   1      45.440  24.045  36.634  1.00  0.00     0.124 S 
ATOM     70  O   UNL A   1      44.434  23.303  35.880  1.00  0.00    -0.237 OA
ATOM     71  O   UNL A   1      46.752  23.415  36.736  1.00  0.00    -0.237 OA
ATOM     72  O   UNL A   1      44.958  24.679  37.860  1.00  0.00    -0.744 OA
ENDBRANCH  65  69
ENDBRANCH  39  62
ENDBRANCH  13  14
ENDBRANCH   6   8
ENDBRANCH   5   6
ENDBRANCH   4   5
ENDBRANCH   3   4
ENDBRANCH   2   3
ENDBRANCH   1   2
BRANCH   1  73
ATOM     73  C   UNL A   1      33.438  28.569  23.359  1.00  0.00     0.188 C 
BRANCH  73  74
ATOM     74  O   UNL A   1      33.390  27.182  23.028  1.00  0.00    -0.376 OA
BRANCH  74  75
ATOM     75  C   UNL A   1      32.322  26.740  22.196  1.00  0.00     0.202 C 
BRANCH  75  76
ATOM     76  C   UNL A   1      32.232  25.242  21.875  1.00  0.00     0.261 C 
BRANCH  76  77
ATOM     77  O   UNL A   1      33.479  24.563  21.995  1.00  0.00    -0.463 OA
BRANCH  77  78
ATOM     78  C   UNL A   1      33.582  23.555  22.910  1.00  0.00     0.309 C 
ATOM     79  O   UNL A   1      32.798  22.629  23.042  1.00  0.00    -0.252 OA
BRANCH  78  80
ATOM     80  C   UNL A   1      34.869  23.758  23.712  1.00  0.00     0.111 C 
ATOM     81  C   UNL A   1      36.000  22.839  23.281  1.00  0.00     0.016 C 
ATOM     82  C   UNL A   1      34.522  23.743  25.205  1.00  0.00     0.092 C 
ATOM     83  C   UNL A   1      37.126  22.823  24.303  1.00  0.00     0.001 C 
ATOM     84  C   UNL A   1      35.520  23.183  26.215  1.00  0.00     0.014 C 
ATOM     85  C   UNL A   1      36.615  22.305  25.635  1.00  0.00     0.001 C 
BRANCH  82  86
ATOM     86  C   UNL A   1      34.104  25.166  25.504  1.00  0.00     0.224 C 
ATOM     87  O   UNL A   1      34.963  26.057  25.506  1.00  0.00    -0.275 OA
ATOM     88  N   UNL A   1      32.864  25.529  25.906  1.00  0.00    -0.342 N 
ATOM     89  H   UNL A   1      32.888  26.419  26.326  1.00  0.00     0.164 HD
BRANCH  88  90
ATOM     90  C   UNL A   1      31.496  25.007  25.907  1.00  0.00     0.202 C 
ATOM     91  C   UNL A   1      30.321  25.966  25.943  1.00  0.00     0.228 C 
ATOM     92  C   UNL A   1      30.985  23.791  26.630  1.00  0.00     0.268 C 
ATOM     93  O   UNL A   1      29.185  25.255  26.467  1.00  0.00    -0.271 OA
ATOM     94  N   UNL A   1      29.659  23.995  26.882  1.00  0.00    -0.233 N 
ATOM     95  O   UNL A   1      31.575  22.746  26.853  1.00  0.00    -0.270 OA
ATOM     96  H   UNL A   1      29.086  23.322  27.316  1.00  0.00     0.199 HD
ENDBRANCH  88  90
ENDBRANCH  82  86
ENDBRANCH  78  80
ENDBRANCH  77  78
ENDBRANCH  76  77
ENDBRANCH  75  76
ENDBRANCH  74  75
ENDBRANCH  73  74
ENDBRANCH   1  73
TORSDOF 22
ENDMDL
MODEL 3
REMARK VINA RESULT:     -10.1      5.618      9.672
REMARK SMILES O=C(OCCOCCOCCOC(=O)[C@@H]1CCCC[C@H]1C(=O)N[C@@H]1CONC1=O)c1ccc(-c2c3nc(c(-c4cc(S(=O)(=O)[O-])ccc4F)c4ccc([nH]4)c(-c4cc(S(=O)(=O)[O-])ccc4F)c4nc(c(-c5cc(S(=O)(=O)[O-])ccc5F)c5ccc2[nH]5)C=C4)C=C3)cc1
REMARK SMILES IDX 7 1 6 2 5 3 4 4 3 5 2 6 1 7 30 8 31 9 92 10 32 11 91 12
REMARK SMILES IDX 33 13 34 14 35 15 85 16 36 17 90 18 84 19 86 20 37 21 89 22
REMARK SMILES IDX 83 23 82 24 38 26 70 27 50 28 69 29 51 30 54 31 68 32 87 33
REMARK SMILES IDX 52 34 53 35 67 37 88 38 55 39 39 40 40 41 48 42 41 43 47 44
REMARK SMILES IDX 49 45 46 46 42 47 43 48 44 49 45 50 71 51 72 52 80 53 73 54
REMARK SMILES IDX 79 55 81 56 78 57 74 58 75 59 76 60 77 61 56 62 57 63 65 64
REMARK SMILES IDX 58 65 64 66 66 67 63 68 59 69 60 70 61 71 62 72 8 73 9 74
REMARK SMILES IDX 10 75 11 76 12 77 13 78 14 79 15 80 16 81 20 82 17 83 19 84
REMARK SMILES IDX 18 85 21 86 22 87 23 88 24 90 25 91 28 92 26 93 27 94 29 95
REMARK H PARENT 86 25 54 36 23 89 27 96
REMARK Flexibility Score: inf
ROOT
ATOM      1  C   UNL A   1      41.746  19.363  26.187  1.00  0.00     0.188 C 
ENDROOT
BRANCH   1   2
ATOM      2  O   UNL A   1      42.673  19.309  25.096  1.00  0.00    -0.376 OA
BRANCH   2   3
ATOM      3  C   UNL A   1      44.041  19.407  25.516  1.00  0.00     0.202 C 
BRANCH   3   4
ATOM      4  C   UNL A   1      44.867  20.538  24.870  1.00  0.00     0.261 C 
BRANCH   4   5
ATOM      5  O   UNL A   1      44.708  21.816  25.507  1.00  0.00    -0.460 OA
BRANCH   5   6
ATOM      6  C   UNL A   1      44.038  22.908  25.066  1.00  0.00     0.338 C 
ATOM      7  O   UNL A   1      43.369  22.798  24.038  1.00  0.00    -0.246 OA
BRANCH   6   8
ATOM      8  C   UNL A   1      44.091  24.257  25.717  1.00  0.00     0.060 A 
ATOM      9  C   UNL A   1      43.969  25.483  25.060  1.00  0.00     0.016 A 
ATOM     10  C   UNL A   1      44.180  24.281  27.119  1.00  0.00     0.016 A 
ATOM     11  C   UNL A   1      43.972  26.696  25.745  1.00  0.00     0.010 A 
ATOM     12  C   UNL A   1      44.123  25.492  27.822  1.00  0.00     0.010 A 
ATOM     13  C   UNL A   1      44.013  26.713  27.131  1.00  0.00    -0.014 A 
BRANCH  13  14
ATOM     14  C   UNL A   1      44.085  28.004  27.854  1.00  0.00     0.031 A 
ATOM     15  C   UNL A   1      42.787  28.589  28.282  1.00  0.00     0.074 A 
ATOM     16  C   UNL A   1      45.248  28.612  28.167  1.00  0.00     0.049 A 
ATOM     17  N   UNL A   1      42.552  29.749  28.817  1.00  0.00    -0.248 NA
ATOM     18  C   UNL A   1      41.600  27.730  28.126  1.00  0.00     0.031 C 
ATOM     19  C   UNL A   1      46.556  28.004  28.026  1.00  0.00     0.029 A 
ATOM     20  N   UNL A   1      45.552  29.859  28.645  1.00  0.00    -0.354 N 
ATOM     21  C   UNL A   1      41.199  29.745  29.099  1.00  0.00     0.074 A 
ATOM     22  C   UNL A   1      40.643  28.516  28.583  1.00  0.00     0.031 C 
ATOM     23  C   UNL A   1      47.529  28.905  28.204  1.00  0.00     0.029 A 
ATOM     24  C   UNL A   1      46.904  30.158  28.563  1.00  0.00     0.049 A 
ATOM     25  H   UNL A   1      44.881  30.479  29.009  1.00  0.00     0.167 HD
ATOM     26  C   UNL A   1      40.510  30.677  29.789  1.00  0.00     0.034 A 
ATOM     27  C   UNL A   1      47.561  31.316  28.757  1.00  0.00     0.034 A 
ATOM     28  C   UNL A   1      41.122  31.883  30.276  1.00  0.00     0.049 A 
ATOM     29  C   UNL A   1      46.733  32.438  29.299  1.00  0.00     0.074 A 
ATOM     30  C   UNL A   1      40.546  32.920  30.978  1.00  0.00     0.029 A 
ATOM     31  N   UNL A   1      42.464  32.215  30.092  1.00  0.00    -0.354 N 
ATOM     32  N   UNL A   1      45.442  32.442  29.551  1.00  0.00    -0.248 NA
ATOM     33  C   UNL A   1      47.430  33.675  29.646  1.00  0.00     0.031 C 
ATOM     34  C   UNL A   1      41.519  33.910  31.155  1.00  0.00     0.029 A 
ATOM     35  C   UNL A   1      42.724  33.462  30.632  1.00  0.00     0.049 A 
ATOM     36  H   UNL A   1      43.130  31.644  29.644  1.00  0.00     0.167 HD
ATOM     37  C   UNL A   1      45.178  33.658  30.151  1.00  0.00     0.074 A 
ATOM     38  C   UNL A   1      46.448  34.367  30.206  1.00  0.00     0.031 C 
ATOM     39  C   UNL A   1      44.005  34.133  30.640  1.00  0.00     0.034 A 
BRANCH  26  40
ATOM     40  C   UNL A   1      39.044  30.415  29.972  1.00  0.00     0.023 A 
ATOM     41  C   UNL A   1      38.078  31.005  29.134  1.00  0.00     0.031 A 
ATOM     42  C   UNL A   1      38.601  29.673  31.077  1.00  0.00     0.131 A 
ATOM     43  C   UNL A   1      36.718  30.906  29.463  1.00  0.00     0.055 A 
ATOM     44  C   UNL A   1      37.244  29.508  31.350  1.00  0.00     0.041 A 
ATOM     45  F   UNL A   1      39.483  29.135  31.935  1.00  0.00    -0.206 F 
ATOM     46  C   UNL A   1      36.294  30.138  30.550  1.00  0.00     0.022 A 
BRANCH  43  47
ATOM     47  S   UNL A   1      35.524  31.917  28.544  1.00  0.00     0.124 S 
ATOM     48  O   UNL A   1      35.115  30.997  27.484  1.00  0.00    -0.237 OA
ATOM     49  O   UNL A   1      34.514  32.215  29.551  1.00  0.00    -0.237 OA
ATOM     50  O   UNL A   1      36.316  33.061  28.097  1.00  0.00    -0.744 OA
ENDBRANCH  43  47
ENDBRANCH  26  40
BRANCH  27  51
ATOM     51  C   UNL A   1      49.011  31.468  28.430  1.00  0.00     0.023 A 
ATOM     52  C   UNL A   1      49.468  32.062  27.242  1.00  0.00     0.031 A 
ATOM     53  C   UNL A   1      49.984  30.948  29.308  1.00  0.00     0.131 A 
ATOM     54  C   UNL A   1      50.844  32.084  26.947  1.00  0.00     0.055 A 
ATOM     55  C   UNL A   1      51.353  31.013  29.033  1.00  0.00     0.041 A 
ATOM     56  F   UNL A   1      49.616  30.343  30.446  1.00  0.00    -0.206 F 
ATOM     57  C   UNL A   1      51.789  31.572  27.839  1.00  0.00     0.022 A 
BRANCH  54  58
ATOM     58  S   UNL A   1      51.390  32.692  25.323  1.00  0.00     0.124 S 
ATOM     59  O   UNL A   1      50.321  33.618  24.971  1.00  0.00    -0.237 OA
ATOM     60  O   UNL A   1      52.681  33.291  25.643  1.00  0.00    -0.237 OA
ATOM     61  O   UNL A   1      51.454  31.479  24.509  1.00  0.00    -0.744 OA
ENDBRANCH  54  58
ENDBRANCH  27  51
BRANCH  39  62
ATOM     62  C   UNL A   1      44.089  35.465  31.322  1.00  0.00     0.023 A 
ATOM     63  C   UNL A   1      43.797  36.650  30.633  1.00  0.00     0.031 A 
ATOM     64  C   UNL A   1      44.535  35.546  32.651  1.00  0.00     0.131 A 
ATOM     65  C   UNL A   1      44.045  37.879  31.249  1.00  0.00     0.055 A 
ATOM     66  C   UNL A   1      44.693  36.772  33.289  1.00  0.00     0.041 A 
ATOM     67  F   UNL A   1      44.835  34.434  33.342  1.00  0.00    -0.206 F 
ATOM     68  C   UNL A   1      44.467  37.949  32.581  1.00  0.00     0.022 A 
BRANCH  65  69
ATOM     69  S   UNL A   1      43.947  39.376  30.236  1.00  0.00     0.124 S 
ATOM     70  O   UNL A   1      43.351  40.327  31.169  1.00  0.00    -0.237 OA
ATOM     71  O   UNL A   1      45.345  39.613  29.890  1.00  0.00    -0.237 OA
ATOM     72  O   UNL A   1      43.091  38.977  29.121  1.00  0.00    -0.744 OA
ENDBRANCH  65  69
ENDBRANCH  39  62
ENDBRANCH  13  14
ENDBRANCH   6   8
ENDBRANCH   5   6
ENDBRANCH   4   5
ENDBRANCH   3   4
ENDBRANCH   2   3
ENDBRANCH   1   2
BRANCH   1  73
ATOM     73  C   UNL A   1      41.511  20.775  26.723  1.00  0.00     0.188 C 
BRANCH  73  74
ATOM     74  O   UNL A   1      40.188  21.110  27.139  1.00  0.00    -0.376 OA
BRANCH  74  75
ATOM     75  C   UNL A   1      39.468  22.051  26.348  1.00  0.00     0.202 C 
BRANCH  75  76
ATOM     76  C   UNL A   1      38.293  21.534  25.507  1.00  0.00     0.261 C 
BRANCH  76  77
ATOM     77  O   UNL A   1      37.089  22.268  25.708  1.00  0.00    -0.463 OA
BRANCH  77  78
ATOM     78  C   UNL A   1      36.253  22.445  24.643  1.00  0.00     0.309 C 
ATOM     79  O   UNL A   1      36.559  22.947  23.573  1.00  0.00    -0.252 OA
BRANCH  78  80
ATOM     80  C   UNL A   1      34.883  21.869  25.001  1.00  0.00     0.111 C 
ATOM     81  C   UNL A   1      34.797  20.361  24.825  1.00  0.00     0.016 C 
ATOM     82  C   UNL A   1      33.804  22.691  24.286  1.00  0.00     0.092 C 
ATOM     83  C   UNL A   1      33.355  19.877  24.853  1.00  0.00     0.001 C 
ATOM     84  C   UNL A   1      32.520  22.018  23.812  1.00  0.00     0.014 C 
ATOM     85  C   UNL A   1      32.572  20.503  23.714  1.00  0.00     0.001 C 
BRANCH  82  86
ATOM     86  C   UNL A   1      33.558  23.864  25.209  1.00  0.00     0.224 C 
ATOM     87  O   UNL A   1      33.343  23.650  26.409  1.00  0.00    -0.275 OA
ATOM     88  N   UNL A   1      33.424  25.146  24.797  1.00  0.00    -0.342 N 
ATOM     89  H   UNL A   1      32.981  25.683  25.492  1.00  0.00     0.164 HD
BRANCH  88  90
ATOM     90  C   UNL A   1      33.734  25.980  23.634  1.00  0.00     0.202 C 
ATOM     91  C   UNL A   1      33.740  27.492  23.768  1.00  0.00     0.228 C 
ATOM     92  C   UNL A   1      33.313  25.752  22.209  1.00  0.00     0.268 C 
ATOM     93  O   UNL A   1      33.535  28.053  22.460  1.00  0.00    -0.271 OA
ATOM     94  N   UNL A   1      33.256  26.972  21.601  1.00  0.00    -0.233 N 
ATOM     95  O   UNL A   1      33.167  24.687  21.630  1.00  0.00    -0.270 OA
ATOM     96  H   UNL A   1      33.038  27.087  20.647  1.00  0.00     0.199 HD
ENDBRANCH  88  90
ENDBRANCH  82  86
ENDBRANCH  78  80
ENDBRANCH  77  78
ENDBRANCH  76  77
ENDBRANCH  75  76
ENDBRANCH  74  75
ENDBRANCH  73  74
ENDBRANCH   1  73
TORSDOF 22
ENDMDL
