MODEL 1
REMARK VINA RESULT:     -10.6      0.000      0.000
REMARK SMILES CSCc1ccc(C(=O)N[C@H]2C=C[C@@H](C(=O)OCCOCCOCCOC(=O)c3ccc(-c4c5nc(c(-c6cc(S(=O)(=O)[O-])ccc6F)c6ccc([nH]6)c(-c6cc(S(=O)(=O)[O-])ccc6F)c6nc(c(-c7cc(S(=O)(=O)[O-])ccc7F)c7ccc4[nH]7)C=C6)C=C5)cc3)C2)o1
REMARK SMILES IDX 21 1 20 2 19 3 18 4 17 5 15 6 16 7 14 8 11 9 12 10 92 11
REMARK SMILES IDX 13 12 10 13 8 14 9 15 7 17 4 18 5 19 93 20 6 21 3 22 2 23
REMARK SMILES IDX 1 24 22 25 23 26 24 27 25 28 26 29 27 30 28 31 29 32 30 33
REMARK SMILES IDX 91 34 31 35 90 36 32 37 33 38 34 39 84 40 35 41 89 42 83 43
REMARK SMILES IDX 85 44 36 45 88 46 82 47 81 48 37 50 69 51 49 52 68 53 50 54
REMARK SMILES IDX 53 55 67 56 86 57 51 58 52 59 66 61 87 62 54 63 38 64 39 65
REMARK SMILES IDX 47 66 40 67 46 68 48 69 45 70 41 71 42 72 43 73 44 74 70 75
REMARK SMILES IDX 71 76 79 77 72 78 78 79 80 80 77 81 73 82 74 83 75 84 76 85
REMARK SMILES IDX 55 86 56 87 64 88 57 89 63 90 65 91 62 92 58 93 59 94 60 95
REMARK SMILES IDX 61 96
REMARK H PARENT 10 16 85 49 53 60
REMARK Flexibility Score: inf
ROOT
ATOM      1  C   UNL A   1      32.069  24.453  26.367  1.00  0.00     0.188 C 
ENDROOT
BRANCH   1   2
ATOM      2  O   UNL A   1      31.888  23.428  27.334  1.00  0.00    -0.376 OA
BRANCH   2   3
ATOM      3  C   UNL A   1      33.035  22.780  27.876  1.00  0.00     0.202 C 
BRANCH   3   4
ATOM      4  C   UNL A   1      33.512  21.451  27.265  1.00  0.00     0.261 C 
BRANCH   4   5
ATOM      5  O   UNL A   1      34.775  21.536  26.574  1.00  0.00    -0.463 OA
BRANCH   5   6
ATOM      6  C   UNL A   1      34.722  21.404  25.226  1.00  0.00     0.312 C 
ATOM      7  O   UNL A   1      35.406  20.611  24.585  1.00  0.00    -0.252 OA
BRANCH   6   8
ATOM      8  C   UNL A   1      33.635  22.252  24.568  1.00  0.00     0.124 C 
ATOM      9  C   UNL A   1      32.736  23.375  22.658  1.00  0.00     0.106 C 
ATOM     10  C   UNL A   1      32.277  21.964  22.656  1.00  0.00    -0.006 C 
ATOM     11  C   UNL A   1      34.001  23.300  23.504  1.00  0.00     0.048 C 
ATOM     12  C   UNL A   1      32.722  21.355  23.762  1.00  0.00    -0.014 C 
BRANCH   9  13
ATOM     13  N   UNL A   1      32.907  23.918  21.349  1.00  0.00    -0.343 N 
ATOM     14  C   UNL A   1      32.862  25.229  20.910  1.00  0.00     0.287 C 
ATOM     15  O   UNL A   1      33.027  25.371  19.693  1.00  0.00    -0.266 OA
ATOM     16  H   UNL A   1      33.086  23.252  20.645  1.00  0.00     0.164 HD
BRANCH  14  17
ATOM     17  C   UNL A   1      32.608  26.359  21.804  1.00  0.00     0.191 A 
ATOM     18  C   UNL A   1      31.230  27.772  22.848  1.00  0.00     0.114 A 
ATOM     19  C   UNL A   1      32.492  28.041  23.315  1.00  0.00     0.047 A 
ATOM     20  O   UNL A   1      31.283  26.735  21.961  1.00  0.00    -0.455 OA
ATOM     21  C   UNL A   1      33.368  27.216  22.584  1.00  0.00     0.056 A 
BRANCH  18  22
ATOM     22  C   UNL A   1      29.901  28.351  23.159  1.00  0.00     0.144 C 
BRANCH  22  23
ATOM     23  S   UNL A   1      29.449  29.758  22.084  1.00  0.00    -0.157 SA
ATOM     24  C   UNL A   1      27.833  30.218  22.771  1.00  0.00     0.085 C 
ENDBRANCH  22  23
ENDBRANCH  18  22
ENDBRANCH  14  17
ENDBRANCH   9  13
ENDBRANCH   6   8
ENDBRANCH   5   6
ENDBRANCH   4   5
ENDBRANCH   3   4
ENDBRANCH   2   3
ENDBRANCH   1   2
BRANCH   1  25
ATOM     25  C   UNL A   1      31.285  25.764  26.531  1.00  0.00     0.188 C 
BRANCH  25  26
ATOM     26  O   UNL A   1      32.068  26.933  26.556  1.00  0.00    -0.376 OA
BRANCH  26  27
ATOM     27  C   UNL A   1      31.544  28.087  27.193  1.00  0.00     0.202 C 
BRANCH  27  28
ATOM     28  C   UNL A   1      31.553  29.474  26.520  1.00  0.00     0.261 C 
BRANCH  28  29
ATOM     29  O   UNL A   1      32.825  30.081  26.246  1.00  0.00    -0.460 OA
BRANCH  29  30
ATOM     30  C   UNL A   1      33.133  31.221  26.910  1.00  0.00     0.338 C 
ATOM     31  O   UNL A   1      32.408  32.194  27.061  1.00  0.00    -0.246 OA
BRANCH  30  32
ATOM     32  C   UNL A   1      34.407  30.985  27.628  1.00  0.00     0.060 A 
ATOM     33  C   UNL A   1      34.767  29.674  27.978  1.00  0.00     0.016 A 
ATOM     34  C   UNL A   1      35.269  32.047  27.907  1.00  0.00     0.016 A 
ATOM     35  C   UNL A   1      35.998  29.422  28.589  1.00  0.00     0.010 A 
ATOM     36  C   UNL A   1      36.487  31.794  28.548  1.00  0.00     0.010 A 
ATOM     37  C   UNL A   1      36.859  30.483  28.897  1.00  0.00    -0.014 A 
BRANCH  37  38
ATOM     38  C   UNL A   1      38.099  30.254  29.683  1.00  0.00     0.031 A 
ATOM     39  C   UNL A   1      39.135  29.308  29.144  1.00  0.00     0.074 A 
ATOM     40  C   UNL A   1      38.293  30.859  30.871  1.00  0.00     0.049 A 
ATOM     41  N   UNL A   1      40.220  28.851  29.713  1.00  0.00    -0.248 NA
ATOM     42  C   UNL A   1      38.908  28.808  27.781  1.00  0.00     0.031 C 
ATOM     43  C   UNL A   1      37.392  31.841  31.474  1.00  0.00     0.029 A 
ATOM     44  N   UNL A   1      39.303  30.719  31.792  1.00  0.00    -0.354 N 
ATOM     45  C   UNL A   1      40.804  27.999  28.782  1.00  0.00     0.074 A 
ATOM     46  C   UNL A   1      39.936  27.985  27.623  1.00  0.00     0.031 C 
ATOM     47  C   UNL A   1      37.882  32.198  32.675  1.00  0.00     0.029 A 
ATOM     48  C   UNL A   1      39.095  31.431  32.952  1.00  0.00     0.049 A 
ATOM     49  H   UNL A   1      40.099  30.161  31.637  1.00  0.00     0.167 HD
ATOM     50  C   UNL A   1      41.959  27.295  28.885  1.00  0.00     0.034 A 
ATOM     51  C   UNL A   1      39.779  31.429  34.115  1.00  0.00     0.034 A 
ATOM     52  C   UNL A   1      42.805  27.306  30.055  1.00  0.00     0.049 A 
ATOM     53  C   UNL A   1      40.996  30.541  34.253  1.00  0.00     0.074 A 
ATOM     54  C   UNL A   1      44.004  26.644  30.254  1.00  0.00     0.029 A 
ATOM     55  N   UNL A   1      42.532  27.993  31.231  1.00  0.00    -0.354 N 
ATOM     56  N   UNL A   1      41.546  29.747  33.364  1.00  0.00    -0.248 NA
ATOM     57  C   UNL A   1      41.681  30.548  35.553  1.00  0.00     0.031 C 
ATOM     58  C   UNL A   1      44.410  26.859  31.575  1.00  0.00     0.029 A 
ATOM     59  C   UNL A   1      43.515  27.731  32.173  1.00  0.00     0.049 A 
ATOM     60  H   UNL A   1      41.756  28.580  31.373  1.00  0.00     0.167 HD
ATOM     61  C   UNL A   1      42.655  29.182  33.991  1.00  0.00     0.074 A 
ATOM     62  C   UNL A   1      42.707  29.743  35.324  1.00  0.00     0.031 C 
ATOM     63  C   UNL A   1      43.551  28.283  33.508  1.00  0.00     0.034 A 
BRANCH  50  64
ATOM     64  C   UNL A   1      42.342  26.411  27.724  1.00  0.00     0.023 A 
ATOM     65  C   UNL A   1      41.822  25.114  27.577  1.00  0.00     0.031 A 
ATOM     66  C   UNL A   1      43.254  26.869  26.756  1.00  0.00     0.131 A 
ATOM     67  C   UNL A   1      42.267  24.298  26.526  1.00  0.00     0.055 A 
ATOM     68  C   UNL A   1      43.629  26.082  25.666  1.00  0.00     0.041 A 
ATOM     69  F   UNL A   1      43.804  28.090  26.857  1.00  0.00    -0.206 F 
ATOM     70  C   UNL A   1      43.144  24.782  25.554  1.00  0.00     0.022 A 
BRANCH  67  71
ATOM     71  S   UNL A   1      41.789  22.549  26.530  1.00  0.00     0.124 S 
ATOM     72  O   UNL A   1      42.475  22.054  25.339  1.00  0.00    -0.237 OA
ATOM     73  O   UNL A   1      42.312  22.082  27.809  1.00  0.00    -0.237 OA
ATOM     74  O   UNL A   1      40.331  22.592  26.429  1.00  0.00    -0.744 OA
ENDBRANCH  67  71
ENDBRANCH  50  64
BRANCH  51  75
ATOM     75  C   UNL A   1      39.306  32.241  35.278  1.00  0.00     0.023 A 
ATOM     76  C   UNL A   1      39.700  33.579  35.436  1.00  0.00     0.031 A 
ATOM     77  C   UNL A   1      38.515  31.666  36.288  1.00  0.00     0.131 A 
ATOM     78  C   UNL A   1      39.344  34.282  36.598  1.00  0.00     0.055 A 
ATOM     79  C   UNL A   1      38.109  32.388  37.412  1.00  0.00     0.041 A 
ATOM     80  F   UNL A   1      38.120  30.385  36.198  1.00  0.00    -0.206 F 
ATOM     81  C   UNL A   1      38.536  33.701  37.579  1.00  0.00     0.022 A 
BRANCH  78  82
ATOM     82  S   UNL A   1      40.041  35.936  36.859  1.00  0.00     0.124 S 
ATOM     83  O   UNL A   1      39.242  36.419  37.979  1.00  0.00    -0.237 OA
ATOM     84  O   UNL A   1      41.437  35.632  37.152  1.00  0.00    -0.237 OA
ATOM     85  O   UNL A   1      39.805  36.610  35.585  1.00  0.00    -0.744 OA
ENDBRANCH  78  82
ENDBRANCH  51  75
BRANCH  63  86
ATOM     86  C   UNL A   1      44.686  27.876  34.420  1.00  0.00     0.023 A 
ATOM     87  C   UNL A   1      44.596  26.752  35.259  1.00  0.00     0.031 A 
ATOM     88  C   UNL A   1      45.877  28.624  34.448  1.00  0.00     0.131 A 
ATOM     89  C   UNL A   1      45.654  26.439  36.128  1.00  0.00     0.055 A 
ATOM     90  C   UNL A   1      46.952  28.270  35.265  1.00  0.00     0.041 A 
ATOM     91  F   UNL A   1      46.020  29.712  33.672  1.00  0.00    -0.206 F 
ATOM     92  C   UNL A   1      46.838  27.180  36.122  1.00  0.00     0.022 A 
BRANCH  89  93
ATOM     93  S   UNL A   1      45.422  25.108  37.338  1.00  0.00     0.124 S 
ATOM     94  O   UNL A   1      44.577  24.174  36.602  1.00  0.00    -0.237 OA
ATOM     95  O   UNL A   1      46.792  24.670  37.587  1.00  0.00    -0.237 OA
ATOM     96  O   UNL A   1      44.773  25.777  38.465  1.00  0.00    -0.744 OA
ENDBRANCH  89  93
ENDBRANCH  63  86
ENDBRANCH  37  38
ENDBRANCH  30  32
ENDBRANCH  29  30
ENDBRANCH  28  29
ENDBRANCH  27  28
ENDBRANCH  26  27
ENDBRANCH  25  26
ENDBRANCH   1  25
TORSDOF 24
ENDMDL
MODEL 2
REMARK VINA RESULT:      -9.9      2.598      4.753
REMARK SMILES CSCc1ccc(C(=O)N[C@H]2C=C[C@@H](C(=O)OCCOCCOCCOC(=O)c3ccc(-c4c5nc(c(-c6cc(S(=O)(=O)[O-])ccc6F)c6ccc([nH]6)c(-c6cc(S(=O)(=O)[O-])ccc6F)c6nc(c(-c7cc(S(=O)(=O)[O-])ccc7F)c7ccc4[nH]7)C=C6)C=C5)cc3)C2)o1
REMARK SMILES IDX 21 1 20 2 19 3 18 4 17 5 15 6 16 7 14 8 11 9 12 10 92 11
REMARK SMILES IDX 13 12 10 13 8 14 9 15 7 17 4 18 5 19 93 20 6 21 3 22 2 23
REMARK SMILES IDX 1 24 22 25 23 26 24 27 25 28 26 29 27 30 28 31 29 32 30 33
REMARK SMILES IDX 91 34 31 35 90 36 32 37 33 38 34 39 84 40 35 41 89 42 83 43
REMARK SMILES IDX 85 44 36 45 88 46 82 47 81 48 37 50 69 51 49 52 68 53 50 54
REMARK SMILES IDX 53 55 67 56 86 57 51 58 52 59 66 61 87 62 54 63 38 64 39 65
REMARK SMILES IDX 47 66 40 67 46 68 48 69 45 70 41 71 42 72 43 73 44 74 70 75
REMARK SMILES IDX 71 76 79 77 72 78 78 79 80 80 77 81 73 82 74 83 75 84 76 85
REMARK SMILES IDX 55 86 56 87 64 88 57 89 63 90 65 91 62 92 58 93 59 94 60 95
REMARK SMILES IDX 61 96
REMARK H PARENT 10 16 85 49 53 60
REMARK Flexibility Score: inf
ROOT
ATOM      1  C   UNL A   1      33.140  28.579  25.663  1.00  0.00     0.188 C 
ENDROOT
BRANCH   1   2
ATOM      2  O   UNL A   1      32.397  27.470  25.179  1.00  0.00    -0.376 OA
BRANCH   2   3
ATOM      3  C   UNL A   1      31.321  27.701  24.273  1.00  0.00     0.202 C 
BRANCH   3   4
ATOM      4  C   UNL A   1      31.619  27.870  22.774  1.00  0.00     0.261 C 
BRANCH   4   5
ATOM      5  O   UNL A   1      31.474  26.661  22.000  1.00  0.00    -0.463 OA
BRANCH   5   6
ATOM      6  C   UNL A   1      32.578  25.878  21.915  1.00  0.00     0.312 C 
ATOM      7  O   UNL A   1      33.654  26.254  21.457  1.00  0.00    -0.252 OA
BRANCH   6   8
ATOM      8  C   UNL A   1      32.407  24.503  22.555  1.00  0.00     0.124 C 
ATOM      9  C   UNL A   1      32.270  23.105  24.491  1.00  0.00     0.106 C 
ATOM     10  C   UNL A   1      30.920  23.632  24.172  1.00  0.00    -0.006 C 
ATOM     11  C   UNL A   1      33.180  24.134  23.831  1.00  0.00     0.048 C 
ATOM     12  C   UNL A   1      30.984  24.356  23.048  1.00  0.00    -0.014 C 
BRANCH   9  13
ATOM     13  N   UNL A   1      32.486  22.903  25.887  1.00  0.00    -0.343 N 
ATOM     14  C   UNL A   1      33.286  21.987  26.547  1.00  0.00     0.287 C 
ATOM     15  O   UNL A   1      33.234  22.052  27.780  1.00  0.00    -0.266 OA
ATOM     16  H   UNL A   1      31.984  23.513  26.476  1.00  0.00     0.164 HD
BRANCH  14  17
ATOM     17  C   UNL A   1      34.106  20.998  25.847  1.00  0.00     0.191 A 
ATOM     18  C   UNL A   1      34.356  19.070  24.749  1.00  0.00     0.114 A 
ATOM     19  C   UNL A   1      35.572  19.703  24.708  1.00  0.00     0.047 A 
ATOM     20  O   UNL A   1      33.454  19.859  25.404  1.00  0.00    -0.455 OA
ATOM     21  C   UNL A   1      35.438  20.871  25.482  1.00  0.00     0.056 A 
BRANCH  18  22
ATOM     22  C   UNL A   1      33.878  17.778  24.199  1.00  0.00     0.144 C 
BRANCH  22  23
ATOM     23  S   UNL A   1      34.229  16.350  25.282  1.00  0.00    -0.157 SA
ATOM     24  C   UNL A   1      32.592  15.573  25.379  1.00  0.00     0.085 C 
ENDBRANCH  22  23
ENDBRANCH  18  22
ENDBRANCH  14  17
ENDBRANCH   9  13
ENDBRANCH   6   8
ENDBRANCH   5   6
ENDBRANCH   4   5
ENDBRANCH   3   4
ENDBRANCH   2   3
ENDBRANCH   1   2
BRANCH   1  25
ATOM     25  C   UNL A   1      32.436  29.939  25.783  1.00  0.00     0.188 C 
BRANCH  25  26
ATOM     26  O   UNL A   1      32.642  30.617  26.998  1.00  0.00    -0.376 OA
BRANCH  26  27
ATOM     27  C   UNL A   1      31.977  31.853  27.207  1.00  0.00     0.202 C 
BRANCH  27  28
ATOM     28  C   UNL A   1      32.742  33.175  27.417  1.00  0.00     0.261 C 
BRANCH  28  29
ATOM     29  O   UNL A   1      32.421  33.962  28.575  1.00  0.00    -0.460 OA
BRANCH  29  30
ATOM     30  C   UNL A   1      33.258  34.978  28.894  1.00  0.00     0.338 C 
ATOM     31  O   UNL A   1      32.995  36.172  28.872  1.00  0.00    -0.246 OA
BRANCH  30  32
ATOM     32  C   UNL A   1      34.466  34.380  29.509  1.00  0.00     0.060 A 
ATOM     33  C   UNL A   1      34.335  33.607  30.674  1.00  0.00     0.016 A 
ATOM     34  C   UNL A   1      35.716  34.537  28.910  1.00  0.00     0.016 A 
ATOM     35  C   UNL A   1      35.450  32.974  31.228  1.00  0.00     0.010 A 
ATOM     36  C   UNL A   1      36.837  33.927  29.485  1.00  0.00     0.010 A 
ATOM     37  C   UNL A   1      36.714  33.146  30.648  1.00  0.00    -0.014 A 
BRANCH  37  38
ATOM     38  C   UNL A   1      37.933  32.610  31.308  1.00  0.00     0.031 A 
ATOM     39  C   UNL A   1      38.641  31.441  30.683  1.00  0.00     0.074 A 
ATOM     40  C   UNL A   1      38.393  33.139  32.458  1.00  0.00     0.049 A 
ATOM     41  N   UNL A   1      39.633  30.725  31.145  1.00  0.00    -0.248 NA
ATOM     42  C   UNL A   1      38.158  31.023  29.359  1.00  0.00     0.031 C 
ATOM     43  C   UNL A   1      37.831  34.309  33.132  1.00  0.00     0.029 A 
ATOM     44  N   UNL A   1      39.427  32.745  33.274  1.00  0.00    -0.354 N 
ATOM     45  C   UNL A   1      39.888  29.762  30.176  1.00  0.00     0.074 A 
ATOM     46  C   UNL A   1      38.928  29.973  29.112  1.00  0.00     0.031 C 
ATOM     47  C   UNL A   1      38.515  34.524  34.270  1.00  0.00     0.029 A 
ATOM     48  C   UNL A   1      39.523  33.478  34.435  1.00  0.00     0.049 A 
ATOM     49  H   UNL A   1      40.039  32.009  33.048  1.00  0.00     0.167 HD
ATOM     50  C   UNL A   1      40.837  28.793  30.173  1.00  0.00     0.034 A 
ATOM     51  C   UNL A   1      40.302  33.297  35.522  1.00  0.00     0.034 A 
ATOM     52  C   UNL A   1      41.776  28.584  31.249  1.00  0.00     0.049 A 
ATOM     53  C   UNL A   1      41.269  32.135  35.551  1.00  0.00     0.074 A 
ATOM     54  C   UNL A   1      42.788  27.645  31.337  1.00  0.00     0.029 A 
ATOM     55  N   UNL A   1      41.805  29.308  32.434  1.00  0.00    -0.354 N 
ATOM     56  N   UNL A   1      41.510  31.236  34.625  1.00  0.00    -0.248 NA
ATOM     57  C   UNL A   1      42.065  31.961  36.774  1.00  0.00     0.031 C 
ATOM     58  C   UNL A   1      43.369  27.742  32.605  1.00  0.00     0.029 A 
ATOM     59  C   UNL A   1      42.785  28.804  33.276  1.00  0.00     0.049 A 
ATOM     60  H   UNL A   1      41.217  30.069  32.645  1.00  0.00     0.167 HD
ATOM     61  C   UNL A   1      42.504  30.409  35.145  1.00  0.00     0.074 A 
ATOM     62  C   UNL A   1      42.831  30.929  36.456  1.00  0.00     0.031 C 
ATOM     63  C   UNL A   1      43.094  29.319  34.590  1.00  0.00     0.034 A 
BRANCH  50  64
ATOM     64  C   UNL A   1      40.867  27.851  28.995  1.00  0.00     0.023 A 
ATOM     65  C   UNL A   1      41.861  27.932  28.006  1.00  0.00     0.031 A 
ATOM     66  C   UNL A   1      39.875  26.864  28.853  1.00  0.00     0.131 A 
ATOM     67  C   UNL A   1      41.805  27.087  26.887  1.00  0.00     0.055 A 
ATOM     68  C   UNL A   1      39.871  25.971  27.779  1.00  0.00     0.041 A 
ATOM     69  F   UNL A   1      38.885  26.755  29.753  1.00  0.00    -0.206 F 
ATOM     70  C   UNL A   1      40.834  26.089  26.781  1.00  0.00     0.022 A 
BRANCH  67  71
ATOM     71  S   UNL A   1      42.935  27.406  25.506  1.00  0.00     0.124 S 
ATOM     72  O   UNL A   1      44.083  27.992  26.195  1.00  0.00    -0.237 OA
ATOM     73  O   UNL A   1      43.137  26.074  24.949  1.00  0.00    -0.237 OA
ATOM     74  O   UNL A   1      42.187  28.333  24.658  1.00  0.00    -0.744 OA
ENDBRANCH  67  71
ENDBRANCH  50  64
BRANCH  51  75
ATOM     75  C   UNL A   1      40.167  34.192  36.712  1.00  0.00     0.023 A 
ATOM     76  C   UNL A   1      41.138  35.164  37.002  1.00  0.00     0.031 A 
ATOM     77  C   UNL A   1      39.104  34.035  37.619  1.00  0.00     0.131 A 
ATOM     78  C   UNL A   1      41.053  35.907  38.190  1.00  0.00     0.055 A 
ATOM     79  C   UNL A   1      38.990  34.821  38.768  1.00  0.00     0.041 A 
ATOM     80  F   UNL A   1      38.154  33.111  37.401  1.00  0.00    -0.206 F 
ATOM     81  C   UNL A   1      39.976  35.754  39.066  1.00  0.00     0.022 A 
BRANCH  78  82
ATOM     82  S   UNL A   1      42.430  37.004  38.628  1.00  0.00     0.124 S 
ATOM     83  O   UNL A   1      43.093  37.173  37.340  1.00  0.00    -0.237 OA
ATOM     84  O   UNL A   1      41.730  38.174  39.147  1.00  0.00    -0.237 OA
ATOM     85  O   UNL A   1      43.175  36.235  39.620  1.00  0.00    -0.744 OA
ENDBRANCH  78  82
ENDBRANCH  51  75
BRANCH  63  86
ATOM     86  C   UNL A   1      44.182  28.636  35.388  1.00  0.00     0.023 A 
ATOM     87  C   UNL A   1      43.896  27.599  36.293  1.00  0.00     0.031 A 
ATOM     88  C   UNL A   1      45.524  29.029  35.239  1.00  0.00     0.131 A 
ATOM     89  C   UNL A   1      44.930  27.027  37.052  1.00  0.00     0.055 A 
ATOM     90  C   UNL A   1      46.557  28.411  35.947  1.00  0.00     0.041 A 
ATOM     91  F   UNL A   1      45.858  30.018  34.394  1.00  0.00    -0.206 F 
ATOM     92  C   UNL A   1      46.260  27.413  36.870  1.00  0.00     0.022 A 
BRANCH  89  93
ATOM     93  S   UNL A   1      44.500  25.838  38.352  1.00  0.00     0.124 S 
ATOM     94  O   UNL A   1      45.510  26.121  39.367  1.00  0.00    -0.237 OA
ATOM     95  O   UNL A   1      43.133  26.221  38.688  1.00  0.00    -0.237 OA
ATOM     96  O   UNL A   1      44.633  24.542  37.689  1.00  0.00    -0.744 OA
ENDBRANCH  89  93
ENDBRANCH  63  86
ENDBRANCH  37  38
ENDBRANCH  30  32
ENDBRANCH  29  30
ENDBRANCH  28  29
ENDBRANCH  27  28
ENDBRANCH  26  27
ENDBRANCH  25  26
ENDBRANCH   1  25
TORSDOF 24
ENDMDL
MODEL 3
REMARK VINA RESULT:      -9.8      2.467      8.583
REMARK SMILES CSCc1ccc(C(=O)N[C@H]2C=C[C@@H](C(=O)OCCOCCOCCOC(=O)c3ccc(-c4c5nc(c(-c6cc(S(=O)(=O)[O-])ccc6F)c6ccc([nH]6)c(-c6cc(S(=O)(=O)[O-])ccc6F)c6nc(c(-c7cc(S(=O)(=O)[O-])ccc7F)c7ccc4[nH]7)C=C6)C=C5)cc3)C2)o1
REMARK SMILES IDX 21 1 20 2 19 3 18 4 17 5 15 6 16 7 14 8 11 9 12 10 92 11
REMARK SMILES IDX 13 12 10 13 8 14 9 15 7 17 4 18 5 19 93 20 6 21 3 22 2 23
REMARK SMILES IDX 1 24 22 25 23 26 24 27 25 28 26 29 27 30 28 31 29 32 30 33
REMARK SMILES IDX 91 34 31 35 90 36 32 37 33 38 34 39 84 40 35 41 89 42 83 43
REMARK SMILES IDX 85 44 36 45 88 46 82 47 81 48 37 50 69 51 49 52 68 53 50 54
REMARK SMILES IDX 53 55 67 56 86 57 51 58 52 59 66 61 87 62 54 63 38 64 39 65
REMARK SMILES IDX 47 66 40 67 46 68 48 69 45 70 41 71 42 72 43 73 44 74 70 75
REMARK SMILES IDX 71 76 79 77 72 78 78 79 80 80 77 81 73 82 74 83 75 84 76 85
REMARK SMILES IDX 55 86 56 87 64 88 57 89 63 90 65 91 62 92 58 93 59 94 60 95
REMARK SMILES IDX 61 96
REMARK H PARENT 10 16 85 49 53 60
REMARK Flexibility Score: inf
ROOT
ATOM      1  C   UNL A   1      32.493  29.236  25.080  1.00  0.00     0.188 C 
ENDROOT
BRANCH   1   2
ATOM      2  O   UNL A   1      32.025  27.938  24.743  1.00  0.00    -0.376 OA
BRANCH   2   3
ATOM      3  C   UNL A   1      30.860  27.812  23.931  1.00  0.00     0.202 C 
BRANCH   3   4
ATOM      4  C   UNL A   1      30.976  27.999  22.409  1.00  0.00     0.261 C 
BRANCH   4   5
ATOM      5  O   UNL A   1      31.220  26.780  21.678  1.00  0.00    -0.463 OA
BRANCH   5   6
ATOM      6  C   UNL A   1      32.465  26.257  21.797  1.00  0.00     0.312 C 
ATOM      7  O   UNL A   1      33.496  26.867  21.526  1.00  0.00    -0.252 OA
BRANCH   6   8
ATOM      8  C   UNL A   1      32.489  24.863  22.420  1.00  0.00     0.124 C 
ATOM      9  C   UNL A   1      32.443  23.434  24.337  1.00  0.00     0.106 C 
ATOM     10  C   UNL A   1      31.052  23.717  23.906  1.00  0.00    -0.006 C 
ATOM     11  C   UNL A   1      33.207  24.618  23.758  1.00  0.00     0.048 C 
ATOM     12  C   UNL A   1      31.079  24.458  22.791  1.00  0.00    -0.014 C 
BRANCH   9  13
ATOM     13  N   UNL A   1      32.575  23.251  25.747  1.00  0.00    -0.343 N 
ATOM     14  C   UNL A   1      33.216  22.259  26.466  1.00  0.00     0.287 C 
ATOM     15  O   UNL A   1      33.125  22.372  27.693  1.00  0.00    -0.266 OA
ATOM     16  H   UNL A   1      32.138  23.943  26.296  1.00  0.00     0.164 HD
BRANCH  14  17
ATOM     17  C   UNL A   1      33.921  21.145  25.830  1.00  0.00     0.191 A 
ATOM     18  C   UNL A   1      33.961  19.116  24.900  1.00  0.00     0.114 A 
ATOM     19  C   UNL A   1      35.225  19.633  24.765  1.00  0.00     0.047 A 
ATOM     20  O   UNL A   1      33.156  20.035  25.510  1.00  0.00    -0.455 OA
ATOM     21  C   UNL A   1      35.221  20.869  25.437  1.00  0.00     0.056 A 
BRANCH  18  22
ATOM     22  C   UNL A   1      33.353  17.830  24.480  1.00  0.00     0.144 C 
BRANCH  22  23
ATOM     23  S   UNL A   1      32.795  16.797  25.880  1.00  0.00    -0.157 SA
ATOM     24  C   UNL A   1      32.787  15.150  25.117  1.00  0.00     0.085 C 
ENDBRANCH  22  23
ENDBRANCH  18  22
ENDBRANCH  14  17
ENDBRANCH   9  13
ENDBRANCH   6   8
ENDBRANCH   5   6
ENDBRANCH   4   5
ENDBRANCH   3   4
ENDBRANCH   2   3
ENDBRANCH   1   2
BRANCH   1  25
ATOM     25  C   UNL A   1      31.519  30.217  25.750  1.00  0.00     0.188 C 
BRANCH  25  26
ATOM     26  O   UNL A   1      32.061  30.975  26.804  1.00  0.00    -0.376 OA
BRANCH  26  27
ATOM     27  C   UNL A   1      31.704  32.343  26.909  1.00  0.00     0.202 C 
BRANCH  27  28
ATOM     28  C   UNL A   1      32.739  33.442  27.226  1.00  0.00     0.261 C 
BRANCH  28  29
ATOM     29  O   UNL A   1      32.549  34.222  28.417  1.00  0.00    -0.460 OA
BRANCH  29  30
ATOM     30  C   UNL A   1      33.552  35.052  28.790  1.00  0.00     0.338 C 
ATOM     31  O   UNL A   1      33.515  36.273  28.817  1.00  0.00    -0.246 OA
BRANCH  30  32
ATOM     32  C   UNL A   1      34.617  34.216  29.392  1.00  0.00     0.060 A 
ATOM     33  C   UNL A   1      35.952  34.421  29.010  1.00  0.00     0.016 A 
ATOM     34  C   UNL A   1      34.306  33.269  30.369  1.00  0.00     0.016 A 
ATOM     35  C   UNL A   1      36.979  33.695  29.620  1.00  0.00     0.010 A 
ATOM     36  C   UNL A   1      35.334  32.521  30.955  1.00  0.00     0.010 A 
ATOM     37  C   UNL A   1      36.675  32.725  30.583  1.00  0.00    -0.014 A 
BRANCH  37  38
ATOM     38  C   UNL A   1      37.734  31.836  31.129  1.00  0.00     0.031 A 
ATOM     39  C   UNL A   1      38.258  32.098  32.513  1.00  0.00     0.074 A 
ATOM     40  C   UNL A   1      38.240  30.825  30.397  1.00  0.00     0.049 A 
ATOM     41  N   UNL A   1      39.264  31.547  33.139  1.00  0.00    -0.248 NA
ATOM     42  C   UNL A   1      37.550  33.126  33.290  1.00  0.00     0.031 C 
ATOM     43  C   UNL A   1      37.777  30.432  29.067  1.00  0.00     0.029 A 
ATOM     44  N   UNL A   1      39.271  29.956  30.664  1.00  0.00    -0.354 N 
ATOM     45  C   UNL A   1      39.321  32.167  34.382  1.00  0.00     0.074 A 
ATOM     46  C   UNL A   1      38.261  33.154  34.407  1.00  0.00     0.031 C 
ATOM     47  C   UNL A   1      38.537  29.413  28.626  1.00  0.00     0.029 A 
ATOM     48  C   UNL A   1      39.574  29.119  29.614  1.00  0.00     0.049 A 
ATOM     49  H   UNL A   1      39.749  29.936  31.525  1.00  0.00     0.167 HD
ATOM     50  C   UNL A   1      40.178  31.933  35.407  1.00  0.00     0.034 A 
ATOM     51  C   UNL A   1      40.595  28.252  29.452  1.00  0.00     0.034 A 
ATOM     52  C   UNL A   1      41.241  30.958  35.360  1.00  0.00     0.049 A 
ATOM     53  C   UNL A   1      41.612  28.096  30.560  1.00  0.00     0.074 A 
ATOM     54  C   UNL A   1      42.152  30.630  36.349  1.00  0.00     0.029 A 
ATOM     55  N   UNL A   1      41.554  30.171  34.258  1.00  0.00    -0.354 N 
ATOM     56  N   UNL A   1      41.651  28.679  31.736  1.00  0.00    -0.248 NA
ATOM     57  C   UNL A   1      42.724  27.167  30.316  1.00  0.00     0.031 C 
ATOM     58  C   UNL A   1      43.064  29.712  35.820  1.00  0.00     0.029 A 
ATOM     59  C   UNL A   1      42.670  29.395  34.530  1.00  0.00     0.049 A 
ATOM     60  H   UNL A   1      41.054  30.164  33.411  1.00  0.00     0.167 HD
ATOM     61  C   UNL A   1      42.777  28.166  32.379  1.00  0.00     0.074 A 
ATOM     62  C   UNL A   1      43.374  27.212  31.469  1.00  0.00     0.031 C 
ATOM     63  C   UNL A   1      43.271  28.456  33.610  1.00  0.00     0.034 A 
BRANCH  50  64
ATOM     64  C   UNL A   1      40.035  32.787  36.643  1.00  0.00     0.023 A 
ATOM     65  C   UNL A   1      39.182  32.426  37.698  1.00  0.00     0.031 A 
ATOM     66  C   UNL A   1      40.755  33.990  36.759  1.00  0.00     0.131 A 
ATOM     67  C   UNL A   1      39.019  33.289  38.792  1.00  0.00     0.055 A 
ATOM     68  C   UNL A   1      40.653  34.804  37.888  1.00  0.00     0.041 A 
ATOM     69  F   UNL A   1      41.568  34.399  35.771  1.00  0.00    -0.206 F 
ATOM     70  C   UNL A   1      39.770  34.461  38.908  1.00  0.00     0.022 A 
BRANCH  67  71
ATOM     71  S   UNL A   1      37.710  32.926  39.992  1.00  0.00     0.124 S 
ATOM     72  O   UNL A   1      38.192  31.682  40.587  1.00  0.00    -0.237 OA
ATOM     73  O   UNL A   1      37.739  34.100  40.856  1.00  0.00    -0.237 OA
ATOM     74  O   UNL A   1      36.514  32.789  39.162  1.00  0.00    -0.744 OA
ENDBRANCH  67  71
ENDBRANCH  50  64
BRANCH  51  75
ATOM     75  C   UNL A   1      40.759  27.501  28.170  1.00  0.00     0.023 A 
ATOM     76  C   UNL A   1      40.438  26.138  28.081  1.00  0.00     0.031 A 
ATOM     77  C   UNL A   1      41.314  28.120  27.035  1.00  0.00     0.131 A 
ATOM     78  C   UNL A   1      40.718  25.427  26.903  1.00  0.00     0.055 A 
ATOM     79  C   UNL A   1      41.531  27.424  25.844  1.00  0.00     0.041 A 
ATOM     80  F   UNL A   1      41.654  29.419  27.066  1.00  0.00    -0.206 F 
ATOM     81  C   UNL A   1      41.245  26.065  25.778  1.00  0.00     0.022 A 
BRANCH  78  82
ATOM     82  S   UNL A   1      40.479  23.629  26.897  1.00  0.00     0.124 S 
ATOM     83  O   UNL A   1      40.852  23.278  28.262  1.00  0.00    -0.237 OA
ATOM     84  O   UNL A   1      39.062  23.513  26.570  1.00  0.00    -0.237 OA
ATOM     85  O   UNL A   1      41.396  23.167  25.859  1.00  0.00    -0.744 OA
ENDBRANCH  78  82
ENDBRANCH  51  75
BRANCH  63  86
ATOM     86  C   UNL A   1      44.503  27.704  34.059  1.00  0.00     0.023 A 
ATOM     87  C   UNL A   1      44.416  26.456  34.699  1.00  0.00     0.031 A 
ATOM     88  C   UNL A   1      45.783  28.245  33.841  1.00  0.00     0.131 A 
ATOM     89  C   UNL A   1      45.583  25.815  35.146  1.00  0.00     0.055 A 
ATOM     90  C   UNL A   1      46.944  27.572  34.227  1.00  0.00     0.041 A 
ATOM     91  F   UNL A   1      45.929  29.437  33.239  1.00  0.00    -0.206 F 
ATOM     92  C   UNL A   1      46.847  26.355  34.896  1.00  0.00     0.022 A 
BRANCH  89  93
ATOM     93  S   UNL A   1      45.422  24.309  36.144  1.00  0.00     0.124 S 
ATOM     94  O   UNL A   1      46.575  23.530  35.704  1.00  0.00    -0.237 OA
ATOM     95  O   UNL A   1      45.484  24.828  37.506  1.00  0.00    -0.237 OA
ATOM     96  O   UNL A   1      44.122  23.770  35.746  1.00  0.00    -0.744 OA
ENDBRANCH  89  93
ENDBRANCH  63  86
ENDBRANCH  37  38
ENDBRANCH  30  32
ENDBRANCH  29  30
ENDBRANCH  28  29
ENDBRANCH  27  28
ENDBRANCH  26  27
ENDBRANCH  25  26
ENDBRANCH   1  25
TORSDOF 24
ENDMDL
