MODEL 1
REMARK VINA RESULT:      -6.7      0.000      0.000
REMARK SMILES CC[C@H](O)C[C@@H](Cc1ccccc1OC)C(=O)OCCOCCOCCOC(=O)c1ccc(-c2c3nc(c(-c4cc(S(=O)(=O)[O-])ccc4F)c4ccc([nH]4)c(-c4cc(S(=O)(=O)[O-])ccc4F)c4nc(c(-c5cc(S(=O)(=O)[O-])ccc5F)c5ccc2[nH]5)C=C4)C=C3)cc1
REMARK SMILES IDX 22 1 21 2 20 3 19 4 18 5 16 6 17 7 6 8 5 9 3 10 2 11 1 12
REMARK SMILES IDX 4 13 7 15 8 16 9 17 13 18 10 19 12 20 11 21 14 22 15 23
REMARK SMILES IDX 23 24 24 25 25 26 26 27 27 28 28 29 29 30 30 31 31 32 92 33
REMARK SMILES IDX 32 34 91 35 33 36 34 37 35 38 85 39 36 40 90 41 84 42 86 43
REMARK SMILES IDX 37 44 89 45 83 46 82 47 38 49 70 50 50 51 69 52 51 53 54 54
REMARK SMILES IDX 68 55 87 56 52 57 53 58 67 60 88 61 55 62 39 63 40 64 48 65
REMARK SMILES IDX 41 66 47 67 49 68 46 69 42 70 43 71 44 72 45 73 71 74 72 75
REMARK SMILES IDX 80 76 73 77 79 78 81 79 78 80 74 81 75 82 76 83 77 84 56 85
REMARK SMILES IDX 57 86 65 87 58 88 64 89 66 90 63 91 59 92 60 93 61 94 62 95
REMARK H PARENT 4 14 86 48 54 59
REMARK Flexibility Score: inf
ROOT
ATOM      1  C   UNL A   1      38.888  31.868  36.365  1.00  0.00     0.188 C 
ENDROOT
BRANCH   1   2
ATOM      2  O   UNL A   1      38.909  30.480  36.114  1.00  0.00    -0.376 OA
BRANCH   2   3
ATOM      3  C   UNL A   1      39.071  30.036  34.777  1.00  0.00     0.202 C 
BRANCH   3   4
ATOM      4  C   UNL A   1      39.572  30.956  33.657  1.00  0.00     0.261 C 
BRANCH   4   5
ATOM      5  O   UNL A   1      38.594  31.599  32.804  1.00  0.00    -0.463 OA
BRANCH   5   6
ATOM      6  C   UNL A   1      39.098  32.248  31.716  1.00  0.00     0.309 C 
ATOM      7  O   UNL A   1      39.659  33.341  31.775  1.00  0.00    -0.252 OA
BRANCH   6   8
ATOM      8  C   UNL A   1      38.853  31.577  30.363  1.00  0.00     0.106 C 
BRANCH   8   9
ATOM      9  C   UNL A   1      38.049  32.338  29.276  1.00  0.00     0.047 C 
BRANCH   9  10
ATOM     10  C   UNL A   1      36.887  33.172  29.859  1.00  0.00     0.115 C 
BRANCH  10  11
ATOM     11  C   UNL A   1      35.565  32.391  29.870  1.00  0.00     0.028 C 
ATOM     12  C   UNL A   1      34.698  32.736  31.079  1.00  0.00     0.006 C 
ENDBRANCH  10  11
BRANCH  10  13
ATOM     13  O   UNL A   1      36.699  34.328  29.044  1.00  0.00    -0.393 OA
ATOM     14  H   UNL A   1      35.753  34.452  28.874  1.00  0.00     0.210 HD
ENDBRANCH  10  13
ENDBRANCH   9  10
ENDBRANCH   8   9
BRANCH   8  15
ATOM     15  C   UNL A   1      40.166  30.959  29.836  1.00  0.00     0.054 C 
BRANCH  15  16
ATOM     16  C   UNL A   1      39.994  29.573  29.254  1.00  0.00    -0.005 A 
ATOM     17  C   UNL A   1      40.086  29.493  27.844  1.00  0.00     0.007 A 
ATOM     18  C   UNL A   1      39.961  28.376  29.987  1.00  0.00     0.122 A 
ATOM     19  C   UNL A   1      40.275  28.278  27.189  1.00  0.00     0.001 A 
ATOM     20  C   UNL A   1      40.187  27.164  29.313  1.00  0.00     0.047 A 
ATOM     21  C   UNL A   1      40.361  27.111  27.932  1.00  0.00     0.004 A 
BRANCH  18  22
ATOM     22  O   UNL A   1      39.940  28.195  31.340  1.00  0.00    -0.496 OA
ATOM     23  C   UNL A   1      38.752  27.873  32.042  1.00  0.00     0.278 C 
ENDBRANCH  18  22
ENDBRANCH  15  16
ENDBRANCH   8  15
ENDBRANCH   6   8
ENDBRANCH   5   6
ENDBRANCH   4   5
ENDBRANCH   3   4
ENDBRANCH   2   3
ENDBRANCH   1   2
BRANCH   1  24
ATOM     24  C   UNL A   1      38.336  32.330  37.714  1.00  0.00     0.188 C 
BRANCH  24  25
ATOM     25  O   UNL A   1      39.186  32.530  38.818  1.00  0.00    -0.376 OA
BRANCH  25  26
ATOM     26  C   UNL A   1      38.791  33.415  39.850  1.00  0.00     0.202 C 
BRANCH  26  27
ATOM     27  C   UNL A   1      39.416  34.804  40.094  1.00  0.00     0.261 C 
BRANCH  27  28
ATOM     28  O   UNL A   1      39.625  35.662  38.967  1.00  0.00    -0.460 OA
BRANCH  28  29
ATOM     29  C   UNL A   1      40.909  36.082  38.789  1.00  0.00     0.338 C 
ATOM     30  O   UNL A   1      41.616  36.606  39.624  1.00  0.00    -0.246 OA
BRANCH  29  31
ATOM     31  C   UNL A   1      41.409  35.550  37.493  1.00  0.00     0.060 A 
ATOM     32  C   UNL A   1      40.472  35.282  36.480  1.00  0.00     0.016 A 
ATOM     33  C   UNL A   1      42.766  35.319  37.269  1.00  0.00     0.016 A 
ATOM     34  C   UNL A   1      40.876  34.722  35.271  1.00  0.00     0.010 A 
ATOM     35  C   UNL A   1      43.169  34.717  36.070  1.00  0.00     0.010 A 
ATOM     36  C   UNL A   1      42.216  34.361  35.093  1.00  0.00    -0.014 A 
BRANCH  36  37
ATOM     37  C   UNL A   1      42.537  33.326  34.075  1.00  0.00     0.031 A 
ATOM     38  C   UNL A   1      42.780  33.803  32.664  1.00  0.00     0.074 A 
ATOM     39  C   UNL A   1      42.687  32.025  34.384  1.00  0.00     0.049 A 
ATOM     40  N   UNL A   1      43.046  33.119  31.582  1.00  0.00    -0.248 NA
ATOM     41  C   UNL A   1      42.705  35.258  32.450  1.00  0.00     0.031 C 
ATOM     42  C   UNL A   1      42.554  31.449  35.719  1.00  0.00     0.029 A 
ATOM     43  N   UNL A   1      42.990  30.952  33.582  1.00  0.00    -0.354 N 
ATOM     44  C   UNL A   1      43.158  34.059  30.561  1.00  0.00     0.074 A 
ATOM     45  C   UNL A   1      42.885  35.353  31.144  1.00  0.00     0.031 C 
ATOM     46  C   UNL A   1      42.765  30.123  35.643  1.00  0.00     0.029 A 
ATOM     47  C   UNL A   1      43.014  29.750  34.250  1.00  0.00     0.049 A 
ATOM     48  H   UNL A   1      43.174  31.035  32.619  1.00  0.00     0.167 HD
ATOM     49  C   UNL A   1      43.473  33.865  29.257  1.00  0.00     0.034 A 
ATOM     50  C   UNL A   1      43.194  28.495  33.784  1.00  0.00     0.034 A 
ATOM     51  C   UNL A   1      43.737  32.568  28.685  1.00  0.00     0.049 A 
ATOM     52  C   UNL A   1      43.455  28.291  32.307  1.00  0.00     0.074 A 
ATOM     53  C   UNL A   1      44.057  32.254  27.376  1.00  0.00     0.029 A 
ATOM     54  N   UNL A   1      43.703  31.369  29.385  1.00  0.00    -0.354 N 
ATOM     55  N   UNL A   1      43.544  29.185  31.346  1.00  0.00    -0.248 NA
ATOM     56  C   UNL A   1      43.656  26.908  31.855  1.00  0.00     0.031 C 
ATOM     57  C   UNL A   1      44.137  30.862  27.268  1.00  0.00     0.029 A 
ATOM     58  C   UNL A   1      43.970  30.312  28.528  1.00  0.00     0.049 A 
ATOM     59  H   UNL A   1      43.518  31.282  30.348  1.00  0.00     0.167 HD
ATOM     60  C   UNL A   1      43.863  28.472  30.190  1.00  0.00     0.074 A 
ATOM     61  C   UNL A   1      43.959  27.081  30.577  1.00  0.00     0.031 C 
ATOM     62  C   UNL A   1      44.067  28.926  28.925  1.00  0.00     0.034 A 
BRANCH  49  63
ATOM     63  C   UNL A   1      43.483  35.080  28.359  1.00  0.00     0.023 A 
ATOM     64  C   UNL A   1      44.678  35.712  27.971  1.00  0.00     0.031 A 
ATOM     65  C   UNL A   1      42.271  35.639  27.916  1.00  0.00     0.131 A 
ATOM     66  C   UNL A   1      44.633  36.902  27.228  1.00  0.00     0.055 A 
ATOM     67  C   UNL A   1      42.236  36.773  27.103  1.00  0.00     0.041 A 
ATOM     68  F   UNL A   1      41.096  35.099  28.277  1.00  0.00    -0.206 F 
ATOM     69  C   UNL A   1      43.420  37.420  26.767  1.00  0.00     0.022 A 
BRANCH  66  70
ATOM     70  S   UNL A   1      46.165  37.847  27.004  1.00  0.00     0.124 S 
ATOM     71  O   UNL A   1      46.691  37.883  28.367  1.00  0.00    -0.237 OA
ATOM     72  O   UNL A   1      46.905  37.027  26.053  1.00  0.00    -0.237 OA
ATOM     73  O   UNL A   1      45.701  39.135  26.490  1.00  0.00    -0.744 OA
ENDBRANCH  66  70
ENDBRANCH  49  63
BRANCH  50  74
ATOM     74  C   UNL A   1      43.101  27.319  34.700  1.00  0.00     0.023 A 
ATOM     75  C   UNL A   1      44.218  26.859  35.417  1.00  0.00     0.031 A 
ATOM     76  C   UNL A   1      41.907  26.582  34.805  1.00  0.00     0.131 A 
ATOM     77  C   UNL A   1      44.135  25.669  36.159  1.00  0.00     0.055 A 
ATOM     78  C   UNL A   1      41.812  25.435  35.595  1.00  0.00     0.041 A 
ATOM     79  F   UNL A   1      40.810  26.967  34.134  1.00  0.00    -0.206 F 
ATOM     80  C   UNL A   1      42.936  24.962  36.264  1.00  0.00     0.022 A 
BRANCH  77  81
ATOM     81  S   UNL A   1      45.649  24.994  36.898  1.00  0.00     0.124 S 
ATOM     82  O   UNL A   1      45.112  24.174  37.977  1.00  0.00    -0.237 OA
ATOM     83  O   UNL A   1      46.237  24.271  35.775  1.00  0.00    -0.237 OA
ATOM     84  O   UNL A   1      46.382  26.185  37.321  1.00  0.00    -0.744 OA
ENDBRANCH  77  81
ENDBRANCH  50  74
BRANCH  62  85
ATOM     85  C   UNL A   1      44.496  27.913  27.884  1.00  0.00     0.023 A 
ATOM     86  C   UNL A   1      43.569  27.180  27.123  1.00  0.00     0.031 A 
ATOM     87  C   UNL A   1      45.864  27.660  27.674  1.00  0.00     0.131 A 
ATOM     88  C   UNL A   1      44.018  26.174  26.252  1.00  0.00     0.055 A 
ATOM     89  C   UNL A   1      46.307  26.716  26.747  1.00  0.00     0.041 A 
ATOM     90  F   UNL A   1      46.798  28.327  28.371  1.00  0.00    -0.206 F 
ATOM     91  C   UNL A   1      45.381  25.952  26.044  1.00  0.00     0.022 A 
BRANCH  88  92
ATOM     92  S   UNL A   1      42.795  25.065  25.500  1.00  0.00     0.124 S 
ATOM     93  O   UNL A   1      41.886  26.006  24.856  1.00  0.00    -0.237 OA
ATOM     94  O   UNL A   1      43.617  24.257  24.604  1.00  0.00    -0.237 OA
ATOM     95  O   UNL A   1      42.236  24.346  26.644  1.00  0.00    -0.744 OA
ENDBRANCH  88  92
ENDBRANCH  62  85
ENDBRANCH  36  37
ENDBRANCH  29  31
ENDBRANCH  28  29
ENDBRANCH  27  28
ENDBRANCH  26  27
ENDBRANCH  25  26
ENDBRANCH  24  25
ENDBRANCH   1  24
TORSDOF 27
ENDMDL
MODEL 2
REMARK VINA RESULT:      -6.5      5.114     10.089
REMARK SMILES CC[C@H](O)C[C@@H](Cc1ccccc1OC)C(=O)OCCOCCOCCOC(=O)c1ccc(-c2c3nc(c(-c4cc(S(=O)(=O)[O-])ccc4F)c4ccc([nH]4)c(-c4cc(S(=O)(=O)[O-])ccc4F)c4nc(c(-c5cc(S(=O)(=O)[O-])ccc5F)c5ccc2[nH]5)C=C4)C=C3)cc1
REMARK SMILES IDX 22 1 21 2 20 3 19 4 18 5 16 6 17 7 6 8 5 9 3 10 2 11 1 12
REMARK SMILES IDX 4 13 7 15 8 16 9 17 13 18 10 19 12 20 11 21 14 22 15 23
REMARK SMILES IDX 23 24 24 25 25 26 26 27 27 28 28 29 29 30 30 31 31 32 92 33
REMARK SMILES IDX 32 34 91 35 33 36 34 37 35 38 85 39 36 40 90 41 84 42 86 43
REMARK SMILES IDX 37 44 89 45 83 46 82 47 38 49 70 50 50 51 69 52 51 53 54 54
REMARK SMILES IDX 68 55 87 56 52 57 53 58 67 60 88 61 55 62 39 63 40 64 48 65
REMARK SMILES IDX 41 66 47 67 49 68 46 69 42 70 43 71 44 72 45 73 71 74 72 75
REMARK SMILES IDX 80 76 73 77 79 78 81 79 78 80 74 81 75 82 76 83 77 84 56 85
REMARK SMILES IDX 57 86 65 87 58 88 64 89 66 90 63 91 59 92 60 93 61 94 62 95
REMARK H PARENT 4 14 86 48 54 59
REMARK Flexibility Score: inf
ROOT
ATOM      1  C   UNL A   1      31.783  29.260  27.038  1.00  0.00     0.188 C 
ENDROOT
BRANCH   1   2
ATOM      2  O   UNL A   1      31.579  28.205  26.123  1.00  0.00    -0.376 OA
BRANCH   2   3
ATOM      3  C   UNL A   1      31.216  26.931  26.628  1.00  0.00     0.202 C 
BRANCH   3   4
ATOM      4  C   UNL A   1      30.327  25.955  25.848  1.00  0.00     0.261 C 
BRANCH   4   5
ATOM      5  O   UNL A   1      30.739  24.570  25.755  1.00  0.00    -0.463 OA
BRANCH   5   6
ATOM      6  C   UNL A   1      31.379  24.222  24.602  1.00  0.00     0.309 C 
ATOM      7  O   UNL A   1      30.800  24.025  23.535  1.00  0.00    -0.252 OA
BRANCH   6   8
ATOM      8  C   UNL A   1      32.888  23.997  24.714  1.00  0.00     0.106 C 
BRANCH   8   9
ATOM      9  C   UNL A   1      33.412  22.638  25.246  1.00  0.00     0.047 C 
BRANCH   9  10
ATOM     10  C   UNL A   1      32.498  21.450  24.871  1.00  0.00     0.115 C 
BRANCH  10  11
ATOM     11  C   UNL A   1      32.998  20.126  25.467  1.00  0.00     0.028 C 
ATOM     12  C   UNL A   1      33.538  19.178  24.398  1.00  0.00     0.006 C 
ENDBRANCH  10  11
BRANCH  10  13
ATOM     13  O   UNL A   1      32.489  21.309  23.451  1.00  0.00    -0.393 OA
ATOM     14  H   UNL A   1      33.257  20.786  23.174  1.00  0.00     0.210 HD
ENDBRANCH  10  13
ENDBRANCH   9  10
ENDBRANCH   8   9
BRANCH   8  15
ATOM     15  C   UNL A   1      33.588  24.462  23.420  1.00  0.00     0.054 C 
BRANCH  15  16
ATOM     16  C   UNL A   1      33.575  25.963  23.226  1.00  0.00    -0.005 A 
ATOM     17  C   UNL A   1      33.885  26.725  24.379  1.00  0.00     0.007 A 
ATOM     18  C   UNL A   1      33.489  26.628  21.993  1.00  0.00     0.122 A 
ATOM     19  C   UNL A   1      34.230  28.072  24.296  1.00  0.00     0.001 A 
ATOM     20  C   UNL A   1      33.873  27.978  21.924  1.00  0.00     0.047 A 
ATOM     21  C   UNL A   1      34.258  28.692  23.057  1.00  0.00     0.004 A 
BRANCH  18  22
ATOM     22  O   UNL A   1      33.270  26.111  20.749  1.00  0.00    -0.496 OA
ATOM     23  C   UNL A   1      32.405  25.012  20.527  1.00  0.00     0.278 C 
ENDBRANCH  18  22
ENDBRANCH  15  16
ENDBRANCH   8  15
ENDBRANCH   6   8
ENDBRANCH   5   6
ENDBRANCH   4   5
ENDBRANCH   3   4
ENDBRANCH   2   3
ENDBRANCH   1   2
BRANCH   1  24
ATOM     24  C   UNL A   1      33.138  29.969  27.002  1.00  0.00     0.188 C 
BRANCH  24  25
ATOM     25  O   UNL A   1      33.270  31.308  27.414  1.00  0.00    -0.376 OA
BRANCH  25  26
ATOM     26  C   UNL A   1      32.197  32.209  27.207  1.00  0.00     0.202 C 
BRANCH  26  27
ATOM     27  C   UNL A   1      32.241  33.712  27.555  1.00  0.00     0.261 C 
BRANCH  27  28
ATOM     28  O   UNL A   1      33.506  34.293  27.889  1.00  0.00    -0.460 OA
BRANCH  28  29
ATOM     29  C   UNL A   1      33.765  34.386  29.224  1.00  0.00     0.338 C 
ATOM     30  O   UNL A   1      33.036  34.866  30.067  1.00  0.00    -0.246 OA
BRANCH  29  31
ATOM     31  C   UNL A   1      34.962  33.560  29.535  1.00  0.00     0.060 A 
ATOM     32  C   UNL A   1      34.774  32.358  30.238  1.00  0.00     0.016 A 
ATOM     33  C   UNL A   1      36.244  33.949  29.145  1.00  0.00     0.016 A 
ATOM     34  C   UNL A   1      35.865  31.577  30.613  1.00  0.00     0.010 A 
ATOM     35  C   UNL A   1      37.345  33.188  29.558  1.00  0.00     0.010 A 
ATOM     36  C   UNL A   1      37.160  32.033  30.345  1.00  0.00    -0.014 A 
BRANCH  36  37
ATOM     37  C   UNL A   1      38.277  31.504  31.173  1.00  0.00     0.031 A 
ATOM     38  C   UNL A   1      39.115  30.402  30.572  1.00  0.00     0.074 A 
ATOM     39  C   UNL A   1      38.598  32.018  32.374  1.00  0.00     0.049 A 
ATOM     40  N   UNL A   1      40.123  29.743  31.081  1.00  0.00    -0.248 NA
ATOM     41  C   UNL A   1      38.756  29.986  29.206  1.00  0.00     0.031 C 
ATOM     42  C   UNL A   1      37.917  33.131  33.030  1.00  0.00     0.029 A 
ATOM     43  N   UNL A   1      39.591  31.664  33.254  1.00  0.00    -0.354 N 
ATOM     44  C   UNL A   1      40.508  28.830  30.103  1.00  0.00     0.074 A 
ATOM     45  C   UNL A   1      39.597  28.989  28.992  1.00  0.00     0.031 C 
ATOM     46  C   UNL A   1      38.507  33.363  34.217  1.00  0.00     0.029 A 
ATOM     47  C   UNL A   1      39.585  32.394  34.420  1.00  0.00     0.049 A 
ATOM     48  H   UNL A   1      40.247  30.955  33.069  1.00  0.00     0.167 HD
ATOM     49  C   UNL A   1      41.536  27.947  30.120  1.00  0.00     0.034 A 
ATOM     50  C   UNL A   1      40.347  32.276  35.528  1.00  0.00     0.034 A 
ATOM     51  C   UNL A   1      42.435  27.792  31.237  1.00  0.00     0.049 A 
ATOM     52  C   UNL A   1      41.433  31.221  35.564  1.00  0.00     0.074 A 
ATOM     53  C   UNL A   1      43.504  26.924  31.367  1.00  0.00     0.029 A 
ATOM     54  N   UNL A   1      42.366  28.517  32.420  1.00  0.00    -0.354 N 
ATOM     55  N   UNL A   1      41.780  30.353  34.640  1.00  0.00    -0.248 NA
ATOM     56  C   UNL A   1      42.241  31.144  36.788  1.00  0.00     0.031 C 
ATOM     57  C   UNL A   1      44.030  27.067  32.655  1.00  0.00     0.029 A 
ATOM     58  C   UNL A   1      43.356  28.096  33.294  1.00  0.00     0.049 A 
ATOM     59  H   UNL A   1      41.710  29.226  32.610  1.00  0.00     0.167 HD
ATOM     60  C   UNL A   1      42.878  29.665  35.156  1.00  0.00     0.074 A 
ATOM     61  C   UNL A   1      43.139  30.227  36.463  1.00  0.00     0.031 C 
ATOM     62  C   UNL A   1      43.611  28.665  34.596  1.00  0.00     0.034 A 
BRANCH  49  63
ATOM     63  C   UNL A   1      41.693  27.043  28.920  1.00  0.00     0.023 A 
ATOM     64  C   UNL A   1      42.798  27.135  28.055  1.00  0.00     0.031 A 
ATOM     65  C   UNL A   1      40.697  26.098  28.614  1.00  0.00     0.131 A 
ATOM     66  C   UNL A   1      42.846  26.352  26.892  1.00  0.00     0.055 A 
ATOM     67  C   UNL A   1      40.794  25.259  27.503  1.00  0.00     0.041 A 
ATOM     68  F   UNL A   1      39.604  25.983  29.384  1.00  0.00    -0.206 F 
ATOM     69  C   UNL A   1      41.865  25.393  26.626  1.00  0.00     0.022 A 
BRANCH  66  70
ATOM     70  S   UNL A   1      44.123  26.708  25.654  1.00  0.00     0.124 S 
ATOM     71  O   UNL A   1      44.134  25.471  24.876  1.00  0.00    -0.237 OA
ATOM     72  O   UNL A   1      43.590  27.884  24.980  1.00  0.00    -0.237 OA
ATOM     73  O   UNL A   1      45.323  26.939  26.457  1.00  0.00    -0.744 OA
ENDBRANCH  66  70
ENDBRANCH  49  63
BRANCH  50  74
ATOM     74  C   UNL A   1      40.105  33.145  36.719  1.00  0.00     0.023 A 
ATOM     75  C   UNL A   1      39.314  32.709  37.795  1.00  0.00     0.031 A 
ATOM     76  C   UNL A   1      40.595  34.464  36.760  1.00  0.00     0.131 A 
ATOM     77  C   UNL A   1      38.989  33.597  38.834  1.00  0.00     0.055 A 
ATOM     78  C   UNL A   1      40.322  35.323  37.825  1.00  0.00     0.041 A 
ATOM     79  F   UNL A   1      41.348  34.939  35.755  1.00  0.00    -0.206 F 
ATOM     80  C   UNL A   1      39.499  34.896  38.863  1.00  0.00     0.022 A 
BRANCH  77  81
ATOM     81  S   UNL A   1      37.796  33.066  40.094  1.00  0.00     0.124 S 
ATOM     82  O   UNL A   1      37.667  34.271  40.906  1.00  0.00    -0.237 OA
ATOM     83  O   UNL A   1      36.636  32.712  39.282  1.00  0.00    -0.237 OA
ATOM     84  O   UNL A   1      38.465  31.942  40.745  1.00  0.00    -0.744 OA
ENDBRANCH  77  81
ENDBRANCH  50  74
BRANCH  62  85
ATOM     85  C   UNL A   1      44.818  28.173  35.367  1.00  0.00     0.023 A 
ATOM     86  C   UNL A   1      44.737  27.125  36.300  1.00  0.00     0.031 A 
ATOM     87  C   UNL A   1      46.068  28.791  35.181  1.00  0.00     0.131 A 
ATOM     88  C   UNL A   1      45.861  26.783  37.069  1.00  0.00     0.055 A 
ATOM     89  C   UNL A   1      47.202  28.393  35.890  1.00  0.00     0.041 A 
ATOM     90  F   UNL A   1      46.210  29.800  34.306  1.00  0.00    -0.206 F 
ATOM     91  C   UNL A   1      47.098  27.396  36.855  1.00  0.00     0.022 A 
BRANCH  88  92
ATOM     92  S   UNL A   1      45.652  25.625  38.450  1.00  0.00     0.124 S 
ATOM     93  O   UNL A   1      46.868  25.850  39.222  1.00  0.00    -0.237 OA
ATOM     94  O   UNL A   1      44.412  26.091  39.062  1.00  0.00    -0.237 OA
ATOM     95  O   UNL A   1      45.567  24.321  37.793  1.00  0.00    -0.744 OA
ENDBRANCH  88  92
ENDBRANCH  62  85
ENDBRANCH  36  37
ENDBRANCH  29  31
ENDBRANCH  28  29
ENDBRANCH  27  28
ENDBRANCH  26  27
ENDBRANCH  25  26
ENDBRANCH  24  25
ENDBRANCH   1  24
TORSDOF 27
ENDMDL
MODEL 3
REMARK VINA RESULT:      -6.3      2.864      5.355
REMARK SMILES CC[C@H](O)C[C@@H](Cc1ccccc1OC)C(=O)OCCOCCOCCOC(=O)c1ccc(-c2c3nc(c(-c4cc(S(=O)(=O)[O-])ccc4F)c4ccc([nH]4)c(-c4cc(S(=O)(=O)[O-])ccc4F)c4nc(c(-c5cc(S(=O)(=O)[O-])ccc5F)c5ccc2[nH]5)C=C4)C=C3)cc1
REMARK SMILES IDX 22 1 21 2 20 3 19 4 18 5 16 6 17 7 6 8 5 9 3 10 2 11 1 12
REMARK SMILES IDX 4 13 7 15 8 16 9 17 13 18 10 19 12 20 11 21 14 22 15 23
REMARK SMILES IDX 23 24 24 25 25 26 26 27 27 28 28 29 29 30 30 31 31 32 92 33
REMARK SMILES IDX 32 34 91 35 33 36 34 37 35 38 85 39 36 40 90 41 84 42 86 43
REMARK SMILES IDX 37 44 89 45 83 46 82 47 38 49 70 50 50 51 69 52 51 53 54 54
REMARK SMILES IDX 68 55 87 56 52 57 53 58 67 60 88 61 55 62 39 63 40 64 48 65
REMARK SMILES IDX 41 66 47 67 49 68 46 69 42 70 43 71 44 72 45 73 71 74 72 75
REMARK SMILES IDX 80 76 73 77 79 78 81 79 78 80 74 81 75 82 76 83 77 84 56 85
REMARK SMILES IDX 57 86 65 87 58 88 64 89 66 90 63 91 59 92 60 93 61 94 62 95
REMARK H PARENT 4 14 86 48 54 59
REMARK Flexibility Score: inf
ROOT
ATOM      1  C   UNL A   1      36.379  31.480  28.597  1.00  0.00     0.188 C 
ENDROOT
BRANCH   1   2
ATOM      2  O   UNL A   1      37.312  31.369  29.650  1.00  0.00    -0.376 OA
BRANCH   2   3
ATOM      3  C   UNL A   1      38.188  30.254  29.664  1.00  0.00     0.202 C 
BRANCH   3   4
ATOM      4  C   UNL A   1      39.268  30.039  28.597  1.00  0.00     0.261 C 
BRANCH   4   5
ATOM      5  O   UNL A   1      40.597  29.658  29.028  1.00  0.00    -0.463 OA
BRANCH   5   6
ATOM      6  C   UNL A   1      40.786  28.325  29.244  1.00  0.00     0.309 C 
ATOM      7  O   UNL A   1      40.315  27.718  30.205  1.00  0.00    -0.252 OA
BRANCH   6   8
ATOM      8  C   UNL A   1      41.709  27.610  28.256  1.00  0.00     0.106 C 
BRANCH   8   9
ATOM      9  C   UNL A   1      41.328  27.579  26.753  1.00  0.00     0.047 C 
BRANCH   9  10
ATOM     10  C   UNL A   1      40.759  26.215  26.303  1.00  0.00     0.115 C 
BRANCH  10  11
ATOM     11  C   UNL A   1      41.101  25.092  27.293  1.00  0.00     0.028 C 
ATOM     12  C   UNL A   1      41.907  23.970  26.641  1.00  0.00     0.006 C 
ENDBRANCH  10  11
BRANCH  10  13
ATOM     13  O   UNL A   1      41.336  25.870  25.044  1.00  0.00    -0.393 OA
ATOM     14  H   UNL A   1      40.846  26.312  24.333  1.00  0.00     0.210 HD
ENDBRANCH  10  13
ENDBRANCH   9  10
ENDBRANCH   8   9
BRANCH   8  15
ATOM     15  C   UNL A   1      43.174  28.023  28.510  1.00  0.00     0.054 C 
BRANCH  15  16
ATOM     16  C   UNL A   1      44.155  26.874  28.412  1.00  0.00    -0.005 A 
ATOM     17  C   UNL A   1      44.041  25.892  29.425  1.00  0.00     0.007 A 
ATOM     18  C   UNL A   1      44.998  26.609  27.321  1.00  0.00     0.122 A 
ATOM     19  C   UNL A   1      44.631  24.637  29.300  1.00  0.00     0.001 A 
ATOM     20  C   UNL A   1      45.558  25.326  27.196  1.00  0.00     0.047 A 
ATOM     21  C   UNL A   1      45.364  24.341  28.163  1.00  0.00     0.004 A 
BRANCH  18  22
ATOM     22  O   UNL A   1      45.223  27.359  26.204  1.00  0.00    -0.496 OA
ATOM     23  C   UNL A   1      45.850  26.830  25.049  1.00  0.00     0.278 C 
ENDBRANCH  18  22
ENDBRANCH  15  16
ENDBRANCH   8  15
ENDBRANCH   6   8
ENDBRANCH   5   6
ENDBRANCH   4   5
ENDBRANCH   3   4
ENDBRANCH   2   3
ENDBRANCH   1   2
BRANCH   1  24
ATOM     24  C   UNL A   1      35.711  32.840  28.391  1.00  0.00     0.188 C 
BRANCH  24  25
ATOM     25  O   UNL A   1      34.626  33.246  29.187  1.00  0.00    -0.376 OA
BRANCH  25  26
ATOM     26  C   UNL A   1      34.839  34.173  30.236  1.00  0.00     0.202 C 
BRANCH  26  27
ATOM     27  C   UNL A   1      35.045  33.785  31.715  1.00  0.00     0.261 C 
BRANCH  27  28
ATOM     28  O   UNL A   1      36.194  34.299  32.398  1.00  0.00    -0.460 OA
BRANCH  28  29
ATOM     29  C   UNL A   1      36.391  33.804  33.652  1.00  0.00     0.338 C 
ATOM     30  O   UNL A   1      35.620  33.884  34.586  1.00  0.00    -0.246 OA
BRANCH  29  31
ATOM     31  C   UNL A   1      37.579  32.909  33.630  1.00  0.00     0.060 A 
ATOM     32  C   UNL A   1      38.803  33.419  34.095  1.00  0.00     0.016 A 
ATOM     33  C   UNL A   1      37.499  31.596  33.165  1.00  0.00     0.016 A 
ATOM     34  C   UNL A   1      39.961  32.647  34.036  1.00  0.00     0.010 A 
ATOM     35  C   UNL A   1      38.670  30.834  33.066  1.00  0.00     0.010 A 
ATOM     36  C   UNL A   1      39.913  31.381  33.445  1.00  0.00    -0.014 A 
BRANCH  36  37
ATOM     37  C   UNL A   1      41.178  30.803  32.916  1.00  0.00     0.031 A 
ATOM     38  C   UNL A   1      41.847  31.540  31.781  1.00  0.00     0.074 A 
ATOM     39  C   UNL A   1      41.763  29.718  33.455  1.00  0.00     0.049 A 
ATOM     40  N   UNL A   1      42.933  31.245  31.116  1.00  0.00    -0.248 NA
ATOM     41  C   UNL A   1      41.189  32.780  31.336  1.00  0.00     0.031 C 
ATOM     42  C   UNL A   1      41.258  28.963  34.599  1.00  0.00     0.029 A 
ATOM     43  N   UNL A   1      42.920  29.068  33.105  1.00  0.00    -0.354 N 
ATOM     44  C   UNL A   1      43.080  32.255  30.169  1.00  0.00     0.074 A 
ATOM     45  C   UNL A   1      41.948  33.142  30.317  1.00  0.00     0.031 C 
ATOM     46  C   UNL A   1      42.099  27.943  34.851  1.00  0.00     0.029 A 
ATOM     47  C   UNL A   1      43.181  27.952  33.867  1.00  0.00     0.049 A 
ATOM     48  H   UNL A   1      43.509  29.371  32.378  1.00  0.00     0.167 HD
ATOM     49  C   UNL A   1      44.074  32.437  29.266  1.00  0.00     0.034 A 
ATOM     50  C   UNL A   1      44.168  27.036  33.763  1.00  0.00     0.034 A 
ATOM     51  C   UNL A   1      45.195  31.542  29.123  1.00  0.00     0.049 A 
ATOM     52  C   UNL A   1      45.220  27.207  32.688  1.00  0.00     0.074 A 
ATOM     53  C   UNL A   1      46.254  31.623  28.238  1.00  0.00     0.029 A 
ATOM     54  N   UNL A   1      45.399  30.395  29.881  1.00  0.00    -0.354 N 
ATOM     55  N   UNL A   1      45.342  28.158  31.787  1.00  0.00    -0.248 NA
ATOM     56  C   UNL A   1      46.277  26.189  32.628  1.00  0.00     0.031 C 
ATOM     57  C   UNL A   1      47.053  30.488  28.405  1.00  0.00     0.029 A 
ATOM     58  C   UNL A   1      46.552  29.748  29.464  1.00  0.00     0.049 A 
ATOM     59  H   UNL A   1      44.811  30.088  30.608  1.00  0.00     0.167 HD
ATOM     60  C   UNL A   1      46.518  27.876  31.092  1.00  0.00     0.074 A 
ATOM     61  C   UNL A   1      47.068  26.675  31.683  1.00  0.00     0.031 C 
ATOM     62  C   UNL A   1      47.095  28.551  30.063  1.00  0.00     0.034 A 
BRANCH  49  63
ATOM     63  C   UNL A   1      43.950  33.614  28.327  1.00  0.00     0.023 A 
ATOM     64  C   UNL A   1      43.995  34.943  28.785  1.00  0.00     0.031 A 
ATOM     65  C   UNL A   1      43.744  33.400  26.952  1.00  0.00     0.131 A 
ATOM     66  C   UNL A   1      43.764  36.001  27.892  1.00  0.00     0.055 A 
ATOM     67  C   UNL A   1      43.603  34.459  26.055  1.00  0.00     0.041 A 
ATOM     68  F   UNL A   1      43.661  32.154  26.459  1.00  0.00    -0.206 F 
ATOM     69  C   UNL A   1      43.598  35.768  26.525  1.00  0.00     0.022 A 
BRANCH  66  70
ATOM     70  S   UNL A   1      43.532  37.670  28.562  1.00  0.00     0.124 S 
ATOM     71  O   UNL A   1      42.217  38.021  28.029  1.00  0.00    -0.237 OA
ATOM     72  O   UNL A   1      43.600  37.445  30.001  1.00  0.00    -0.237 OA
ATOM     73  O   UNL A   1      44.647  38.426  27.995  1.00  0.00    -0.744 OA
ENDBRANCH  66  70
ENDBRANCH  49  63
BRANCH  50  74
ATOM     74  C   UNL A   1      44.206  25.848  34.668  1.00  0.00     0.023 A 
ATOM     75  C   UNL A   1      44.520  25.975  36.032  1.00  0.00     0.031 A 
ATOM     76  C   UNL A   1      44.012  24.550  34.160  1.00  0.00     0.131 A 
ATOM     77  C   UNL A   1      44.686  24.827  36.825  1.00  0.00     0.055 A 
ATOM     78  C   UNL A   1      44.115  23.415  34.966  1.00  0.00     0.041 A 
ATOM     79  F   UNL A   1      43.720  24.366  32.863  1.00  0.00    -0.206 F 
ATOM     80  C   UNL A   1      44.472  23.550  36.305  1.00  0.00     0.022 A 
BRANCH  77  81
ATOM     81  S   UNL A   1      45.296  25.021  38.523  1.00  0.00     0.124 S 
ATOM     82  O   UNL A   1      46.620  25.590  38.299  1.00  0.00    -0.237 OA
ATOM     83  O   UNL A   1      44.301  25.918  39.101  1.00  0.00    -0.237 OA
ATOM     84  O   UNL A   1      45.282  23.657  39.047  1.00  0.00    -0.744 OA
ENDBRANCH  77  81
ENDBRANCH  50  74
BRANCH  62  85
ATOM     85  C   UNL A   1      48.435  28.050  29.567  1.00  0.00     0.023 A 
ATOM     86  C   UNL A   1      48.551  27.156  28.490  1.00  0.00     0.031 A 
ATOM     87  C   UNL A   1      49.618  28.458  30.211  1.00  0.00     0.131 A 
ATOM     88  C   UNL A   1      49.808  26.635  28.143  1.00  0.00     0.055 A 
ATOM     89  C   UNL A   1      50.874  28.001  29.810  1.00  0.00     0.041 A 
ATOM     90  F   UNL A   1      49.574  29.309  31.249  1.00  0.00    -0.206 F 
ATOM     91  C   UNL A   1      50.972  27.068  28.782  1.00  0.00     0.022 A 
BRANCH  88  92
ATOM     92  S   UNL A   1      49.887  25.280  26.939  1.00  0.00     0.124 S 
ATOM     93  O   UNL A   1      51.324  25.137  26.736  1.00  0.00    -0.237 OA
ATOM     94  O   UNL A   1      49.233  24.190  27.654  1.00  0.00    -0.237 OA
ATOM     95  O   UNL A   1      49.147  25.800  25.790  1.00  0.00    -0.744 OA
ENDBRANCH  88  92
ENDBRANCH  62  85
ENDBRANCH  36  37
ENDBRANCH  29  31
ENDBRANCH  28  29
ENDBRANCH  27  28
ENDBRANCH  26  27
ENDBRANCH  25  26
ENDBRANCH  24  25
ENDBRANCH   1  24
TORSDOF 27
ENDMDL
