MODEL 1
REMARK VINA RESULT:     -10.9      0.000      0.000
REMARK SMILES O=C1O[C@@H](c2ccc(O)c(O)c2)[C@H](C(=O)OCCOCCOCCOC(=O)c2ccc(-c3c4nc(c(-c5cc(S(=O)(=O)[O-])ccc5F)c5ccc([nH]5)c(-c5cc(S(=O)(=O)[O-])ccc5F)c5nc(c(-c6cc(S(=O)(=O)[O-])ccc6F)c6ccc3[nH]6)C=C5)C=C4)cc2)/C1=C\c1ccc(O)c(O)c1
REMARK SMILES IDX 21 1 20 2 19 3 18 4 17 5 16 6 14 7 15 8 13 9 1 10 2 11 3 12
REMARK SMILES IDX 91 13 4 14 92 15 5 16 6 17 12 18 7 19 10 20 8 21 11 22 9 24
REMARK SMILES IDX 93 26 94 27 100 28 95 29 98 30 96 31 99 32 97 34 22 36 23 37
REMARK SMILES IDX 24 38 25 39 26 40 27 41 28 42 29 43 90 44 30 45 89 46 31 47
REMARK SMILES IDX 32 48 33 49 83 50 34 51 88 52 82 53 84 54 35 55 87 56 81 57
REMARK SMILES IDX 80 58 36 60 68 61 48 62 67 63 49 64 52 65 66 66 85 67 50 68
REMARK SMILES IDX 51 69 65 71 86 72 53 73 37 74 38 75 46 76 39 77 45 78 47 79
REMARK SMILES IDX 44 80 40 81 41 82 42 83 43 84 69 85 70 86 78 87 71 88 77 89
REMARK SMILES IDX 79 90 76 91 72 92 73 93 74 94 75 95 54 96 55 97 63 98 56 99
REMARK SMILES IDX 62 100 64 101 61 102 57 103 58 104 59 105 60 106
REMARK H PARENT 11 23 9 25 99 33 97 35 84 59 52 70
REMARK Flexibility Score: inf
ROOT
ATOM      1  C   UNL A   1      31.805  28.958  27.379  1.00  0.00     0.188 C 
ENDROOT
BRANCH   1   2
ATOM      2  C   UNL A   1      31.441  27.842  26.366  1.00  0.00     0.188 C 
BRANCH   2   3
ATOM      3  O   UNL A   1      30.955  26.617  26.844  1.00  0.00    -0.376 OA
BRANCH   3   4
ATOM      4  C   UNL A   1      29.976  25.918  26.117  1.00  0.00     0.202 C 
BRANCH   4   5
ATOM      5  C   UNL A   1      29.967  24.388  25.933  1.00  0.00     0.261 C 
BRANCH   5   6
ATOM      6  O   UNL A   1      31.040  23.632  26.519  1.00  0.00    -0.463 OA
BRANCH   6   7
ATOM      7  C   UNL A   1      31.378  22.456  25.902  1.00  0.00     0.317 C 
ATOM      8  O   UNL A   1      30.710  21.434  25.955  1.00  0.00    -0.251 OA
BRANCH   7   9
ATOM      9  C   UNL A   1      32.682  22.629  25.118  1.00  0.00     0.182 C 
ATOM     10  O   UNL A   1      32.031  20.804  22.180  1.00  0.00    -0.247 OA
ATOM     11  C   UNL A   1      32.447  21.249  23.230  1.00  0.00     0.335 C 
ATOM     12  O   UNL A   1      32.987  20.503  24.241  1.00  0.00    -0.453 OA
ATOM     13  C   UNL A   1      32.466  22.676  23.649  1.00  0.00     0.056 C 
ATOM     14  C   UNL A   1      33.477  21.353  25.291  1.00  0.00     0.226 C 
ATOM     15  C   UNL A   1      32.406  23.690  22.760  1.00  0.00     0.020 C 
BRANCH  14  16
ATOM     16  C   UNL A   1      34.994  21.512  25.239  1.00  0.00    -0.002 A 
ATOM     17  C   UNL A   1      35.609  22.752  25.519  1.00  0.00     0.012 A 
ATOM     18  C   UNL A   1      35.821  20.403  24.995  1.00  0.00     0.057 A 
ATOM     19  C   UNL A   1      37.006  22.882  25.535  1.00  0.00     0.050 A 
ATOM     20  C   UNL A   1      37.202  20.539  25.025  1.00  0.00     0.157 A 
ATOM     21  C   UNL A   1      37.795  21.767  25.292  1.00  0.00     0.157 A 
BRANCH  20  22
ATOM     22  O   UNL A   1      37.979  19.439  24.802  1.00  0.00    -0.504 OA
ATOM     23  H   UNL A   1      37.579  18.600  24.676  1.00  0.00     0.293 HD
ENDBRANCH  20  22
BRANCH  21  24
ATOM     24  O   UNL A   1      39.161  21.820  25.321  1.00  0.00    -0.504 OA
ATOM     25  H   UNL A   1      39.664  21.278  24.746  1.00  0.00     0.293 HD
ENDBRANCH  21  24
ENDBRANCH  14  16
BRANCH  15  26
ATOM     26  C   UNL A   1      32.500  25.154  22.998  1.00  0.00    -0.021 A 
ATOM     27  C   UNL A   1      33.850  25.800  23.952  1.00  0.00     0.012 A 
ATOM     28  C   UNL A   1      31.326  26.184  22.209  1.00  0.00     0.058 A 
ATOM     29  C   UNL A   1      34.138  27.528  24.222  1.00  0.00     0.051 A 
ATOM     30  C   UNL A   1      31.458  27.978  22.375  1.00  0.00     0.157 A 
ATOM     31  C   UNL A   1      32.995  28.725  23.482  1.00  0.00     0.157 A 
BRANCH  30  32
ATOM     32  O   UNL A   1      30.333  28.477  21.706  1.00  0.00    -0.504 OA
ATOM     33  H   UNL A   1      29.732  27.887  21.295  1.00  0.00     0.293 HD
ENDBRANCH  30  32
BRANCH  31  34
ATOM     34  O   UNL A   1      33.347  29.987  23.963  1.00  0.00    -0.504 OA
ATOM     35  H   UNL A   1      33.929  30.531  23.469  1.00  0.00     0.293 HD
ENDBRANCH  31  34
ENDBRANCH  15  26
ENDBRANCH   7   9
ENDBRANCH   6   7
ENDBRANCH   5   6
ENDBRANCH   4   5
ENDBRANCH   3   4
ENDBRANCH   2   3
ENDBRANCH   1   2
BRANCH   1  36
ATOM     36  O   UNL A   1      32.426  30.121  26.897  1.00  0.00    -0.376 OA
BRANCH  36  37
ATOM     37  C   UNL A   1      31.591  31.237  26.636  1.00  0.00     0.202 C 
BRANCH  37  38
ATOM     38  C   UNL A   1      31.896  32.686  27.084  1.00  0.00     0.261 C 
BRANCH  38  39
ATOM     39  O   UNL A   1      33.237  32.981  27.500  1.00  0.00    -0.460 OA
BRANCH  39  40
ATOM     40  C   UNL A   1      33.358  33.997  28.390  1.00  0.00     0.338 C 
ATOM     41  O   UNL A   1      32.541  34.869  28.632  1.00  0.00    -0.246 OA
BRANCH  40  42
ATOM     42  C   UNL A   1      34.559  33.818  29.211  1.00  0.00     0.060 A 
ATOM     43  C   UNL A   1      36.201  34.324  28.615  1.00  0.00     0.016 A 
ATOM     44  C   UNL A   1      34.447  32.655  30.516  1.00  0.00     0.016 A 
ATOM     45  C   UNL A   1      37.822  33.479  29.494  1.00  0.00     0.010 A 
ATOM     46  C   UNL A   1      35.871  31.915  31.271  1.00  0.00     0.010 A 
ATOM     47  C   UNL A   1      37.531  32.273  30.800  1.00  0.00    -0.014 A 
BRANCH  47  48
ATOM     48  C   UNL A   1      38.629  31.535  31.429  1.00  0.00     0.031 A 
ATOM     49  C   UNL A   1      39.085  31.910  32.806  1.00  0.00     0.074 A 
ATOM     50  C   UNL A   1      39.228  30.579  30.704  1.00  0.00     0.049 A 
ATOM     51  N   UNL A   1      40.083  31.437  33.502  1.00  0.00    -0.248 NA
ATOM     52  C   UNL A   1      38.344  32.977  33.490  1.00  0.00     0.031 C 
ATOM     53  C   UNL A   1      38.859  30.210  29.337  1.00  0.00     0.029 A 
ATOM     54  N   UNL A   1      40.275  29.752  30.993  1.00  0.00    -0.354 N 
ATOM     55  C   UNL A   1      40.085  32.155  34.694  1.00  0.00     0.074 A 
ATOM     56  C   UNL A   1      39.035  33.137  34.604  1.00  0.00     0.031 C 
ATOM     57  C   UNL A   1      39.631  29.199  28.922  1.00  0.00     0.029 A 
ATOM     58  C   UNL A   1      40.605  28.908  29.959  1.00  0.00     0.049 A 
ATOM     59  H   UNL A   1      40.747  29.761  31.857  1.00  0.00     0.167 HD
ATOM     60  C   UNL A   1      40.893  31.993  35.768  1.00  0.00     0.034 A 
ATOM     61  C   UNL A   1      41.610  28.023  29.854  1.00  0.00     0.034 A 
ATOM     62  C   UNL A   1      41.954  31.020  35.784  1.00  0.00     0.049 A 
ATOM     63  C   UNL A   1      42.528  27.896  31.037  1.00  0.00     0.074 A 
ATOM     64  C   UNL A   1      42.851  30.733  36.794  1.00  0.00     0.029 A 
ATOM     65  N   UNL A   1      42.268  30.184  34.715  1.00  0.00    -0.354 N 
ATOM     66  N   UNL A   1      42.501  28.559  32.173  1.00  0.00    -0.248 NA
ATOM     67  C   UNL A   1      43.600  26.907  30.933  1.00  0.00     0.031 C 
ATOM     68  C   UNL A   1      43.760  29.791  36.303  1.00  0.00     0.029 A 
ATOM     69  C   UNL A   1      43.368  29.407  35.028  1.00  0.00     0.049 A 
ATOM     70  H   UNL A   1      41.779  30.151  33.862  1.00  0.00     0.167 HD
ATOM     71  C   UNL A   1      43.538  28.041  32.937  1.00  0.00     0.074 A 
ATOM     72  C   UNL A   1      44.151  26.999  32.133  1.00  0.00     0.031 C 
ATOM     73  C   UNL A   1      43.951  28.389  34.184  1.00  0.00     0.034 A 
BRANCH  60  74
ATOM     74  C   UNL A   1      40.687  32.916  36.946  1.00  0.00     0.023 A 
ATOM     75  C   UNL A   1      39.885  32.549  38.044  1.00  0.00     0.031 A 
ATOM     76  C   UNL A   1      41.247  34.205  36.949  1.00  0.00     0.131 A 
ATOM     77  C   UNL A   1      39.601  33.485  39.051  1.00  0.00     0.055 A 
ATOM     78  C   UNL A   1      41.036  35.100  38.002  1.00  0.00     0.041 A 
ATOM     79  F   UNL A   1      41.990  34.631  35.915  1.00  0.00    -0.206 F 
ATOM     80  C   UNL A   1      40.196  34.748  39.054  1.00  0.00     0.022 A 
BRANCH  77  81
ATOM     81  S   UNL A   1      38.311  33.088  40.265  1.00  0.00     0.124 S 
ATOM     82  O   UNL A   1      38.461  34.179  41.226  1.00  0.00    -0.237 OA
ATOM     83  O   UNL A   1      37.096  33.113  39.458  1.00  0.00    -0.237 OA
ATOM     84  O   UNL A   1      38.701  31.770  40.764  1.00  0.00    -0.744 OA
ENDBRANCH  77  81
ENDBRANCH  60  74
BRANCH  61  85
ATOM     85  C   UNL A   1      41.793  27.227  28.609  1.00  0.00     0.023 A 
ATOM     86  C   UNL A   1      41.408  25.880  28.552  1.00  0.00     0.031 A 
ATOM     87  C   UNL A   1      42.366  27.795  27.455  1.00  0.00     0.131 A 
ATOM     88  C   UNL A   1      41.649  25.131  27.390  1.00  0.00     0.055 A 
ATOM     89  C   UNL A   1      42.535  27.067  26.276  1.00  0.00     0.041 A 
ATOM     90  F   UNL A   1      42.751  29.081  27.450  1.00  0.00    -0.206 F 
ATOM     91  C   UNL A   1      42.190  25.721  26.245  1.00  0.00     0.022 A 
BRANCH  88  92
ATOM     92  S   UNL A   1      41.362  23.343  27.443  1.00  0.00     0.124 S 
ATOM     93  O   UNL A   1      41.779  22.938  26.105  1.00  0.00    -0.237 OA
ATOM     94  O   UNL A   1      42.230  22.928  28.539  1.00  0.00    -0.237 OA
ATOM     95  O   UNL A   1      39.928  23.238  27.707  1.00  0.00    -0.744 OA
ENDBRANCH  88  92
ENDBRANCH  61  85
BRANCH  73  96
ATOM     96  C   UNL A   1      45.089  27.586  34.754  1.00  0.00     0.023 A 
ATOM     97  C   UNL A   1      44.868  26.377  35.431  1.00  0.00     0.031 A 
ATOM     98  C   UNL A   1      46.408  28.058  34.640  1.00  0.00     0.131 A 
ATOM     99  C   UNL A   1      45.941  25.728  36.050  1.00  0.00     0.055 A 
ATOM    100  C   UNL A   1      47.484  27.355  35.174  1.00  0.00     0.041 A 
ATOM    101  F   UNL A   1      46.669  29.214  34.008  1.00  0.00    -0.206 F 
ATOM    102  C   UNL A   1      47.251  26.192  35.902  1.00  0.00     0.022 A 
BRANCH  99 103
ATOM    103  S   UNL A   1      45.578  24.361  37.182  1.00  0.00     0.124 S 
ATOM    104  O   UNL A   1      46.919  23.914  37.550  1.00  0.00    -0.237 OA
ATOM    105  O   UNL A   1      44.815  25.021  38.236  1.00  0.00    -0.237 OA
ATOM    106  O   UNL A   1      44.818  23.427  36.355  1.00  0.00    -0.744 OA
ENDBRANCH  99 103
ENDBRANCH  73  96
ENDBRANCH  47  48
ENDBRANCH  40  42
ENDBRANCH  39  40
ENDBRANCH  38  39
ENDBRANCH  37  38
ENDBRANCH  36  37
ENDBRANCH   1  36
TORSDOF 26
ENDMDL
MODEL 2
REMARK VINA RESULT:     -10.1      2.043      8.154
REMARK SMILES O=C1O[C@@H](c2ccc(O)c(O)c2)[C@H](C(=O)OCCOCCOCCOC(=O)c2ccc(-c3c4nc(c(-c5cc(S(=O)(=O)[O-])ccc5F)c5ccc([nH]5)c(-c5cc(S(=O)(=O)[O-])ccc5F)c5nc(c(-c6cc(S(=O)(=O)[O-])ccc6F)c6ccc3[nH]6)C=C5)C=C4)cc2)/C1=C\c1ccc(O)c(O)c1
REMARK SMILES IDX 21 1 20 2 19 3 18 4 17 5 16 6 14 7 15 8 13 9 1 10 2 11 3 12
REMARK SMILES IDX 91 13 4 14 92 15 5 16 6 17 12 18 7 19 10 20 8 21 11 22 9 24
REMARK SMILES IDX 93 26 94 27 100 28 95 29 98 30 96 31 99 32 97 34 22 36 23 37
REMARK SMILES IDX 24 38 25 39 26 40 27 41 28 42 29 43 90 44 30 45 89 46 31 47
REMARK SMILES IDX 32 48 33 49 83 50 34 51 88 52 82 53 84 54 35 55 87 56 81 57
REMARK SMILES IDX 80 58 36 60 68 61 48 62 67 63 49 64 52 65 66 66 85 67 50 68
REMARK SMILES IDX 51 69 65 71 86 72 53 73 37 74 38 75 46 76 39 77 45 78 47 79
REMARK SMILES IDX 44 80 40 81 41 82 42 83 43 84 69 85 70 86 78 87 71 88 77 89
REMARK SMILES IDX 79 90 76 91 72 92 73 93 74 94 75 95 54 96 55 97 63 98 56 99
REMARK SMILES IDX 62 100 64 101 61 102 57 103 58 104 59 105 60 106
REMARK H PARENT 11 23 9 25 99 33 97 35 84 59 52 70
REMARK Flexibility Score: inf
ROOT
ATOM      1  C   UNL A   1      31.762  29.169  27.209  1.00  0.00     0.188 C 
ENDROOT
BRANCH   1   2
ATOM      2  C   UNL A   1      31.210  27.983  26.377  1.00  0.00     0.188 C 
BRANCH   2   3
ATOM      3  O   UNL A   1      31.224  26.695  26.931  1.00  0.00    -0.376 OA
BRANCH   3   4
ATOM      4  C   UNL A   1      30.678  25.616  26.213  1.00  0.00     0.202 C 
BRANCH   4   5
ATOM      5  C   UNL A   1      30.989  24.137  26.511  1.00  0.00     0.261 C 
BRANCH   5   6
ATOM      6  O   UNL A   1      31.878  23.840  27.601  1.00  0.00    -0.463 OA
BRANCH   6   7
ATOM      7  C   UNL A   1      32.954  23.039  27.323  1.00  0.00     0.317 C 
ATOM      8  O   UNL A   1      33.341  22.133  28.046  1.00  0.00    -0.251 OA
BRANCH   7   9
ATOM      9  C   UNL A   1      33.563  23.425  25.972  1.00  0.00     0.182 C 
ATOM     10  O   UNL A   1      37.013  23.347  26.665  1.00  0.00    -0.247 OA
ATOM     11  C   UNL A   1      35.868  23.634  26.381  1.00  0.00     0.335 C 
ATOM     12  O   UNL A   1      35.279  24.845  26.622  1.00  0.00    -0.453 OA
ATOM     13  C   UNL A   1      34.866  22.756  25.720  1.00  0.00     0.056 C 
ATOM     14  C   UNL A   1      33.956  24.883  26.063  1.00  0.00     0.226 C 
ATOM     15  C   UNL A   1      35.221  21.682  24.986  1.00  0.00     0.020 C 
BRANCH  14  16
ATOM     16  C   UNL A   1      33.911  25.658  24.749  1.00  0.00    -0.002 A 
ATOM     17  C   UNL A   1      33.705  24.998  23.518  1.00  0.00     0.012 A 
ATOM     18  C   UNL A   1      33.988  27.061  24.743  1.00  0.00     0.057 A 
ATOM     19  C   UNL A   1      33.599  25.717  22.317  1.00  0.00     0.050 A 
ATOM     20  C   UNL A   1      33.869  27.764  23.552  1.00  0.00     0.157 A 
ATOM     21  C   UNL A   1      33.677  27.102  22.345  1.00  0.00     0.157 A 
BRANCH  20  22
ATOM     22  O   UNL A   1      33.929  29.127  23.581  1.00  0.00    -0.504 OA
ATOM     23  H   UNL A   1      34.645  29.556  24.009  1.00  0.00     0.293 HD
ENDBRANCH  20  22
BRANCH  21  24
ATOM     24  O   UNL A   1      33.553  27.862  21.216  1.00  0.00    -0.504 OA
ATOM     25  H   UNL A   1      33.039  28.645  21.231  1.00  0.00     0.293 HD
ENDBRANCH  21  24
ENDBRANCH  14  16
BRANCH  15  26
ATOM     26  C   UNL A   1      34.363  20.760  24.195  1.00  0.00    -0.021 A 
ATOM     27  C   UNL A   1      34.494  19.008  24.450  1.00  0.00     0.012 A 
ATOM     28  C   UNL A   1      33.170  21.470  23.131  1.00  0.00     0.058 A 
ATOM     29  C   UNL A   1      33.462  17.809  23.653  1.00  0.00     0.051 A 
ATOM     30  C   UNL A   1      32.029  20.399  22.229  1.00  0.00     0.157 A 
ATOM     31  C   UNL A   1      32.184  18.388  22.505  1.00  0.00     0.157 A 
BRANCH  30  32
ATOM     32  O   UNL A   1      31.287  21.274  21.425  1.00  0.00    -0.504 OA
ATOM     33  H   UNL A   1      31.482  21.351  20.512  1.00  0.00     0.293 HD
ENDBRANCH  30  32
BRANCH  31  34
ATOM     34  O   UNL A   1      31.623  17.260  21.906  1.00  0.00    -0.504 OA
ATOM     35  H   UNL A   1      31.739  16.415  22.296  1.00  0.00     0.293 HD
ENDBRANCH  31  34
ENDBRANCH  15  26
ENDBRANCH   7   9
ENDBRANCH   6   7
ENDBRANCH   5   6
ENDBRANCH   4   5
ENDBRANCH   3   4
ENDBRANCH   2   3
ENDBRANCH   1   2
BRANCH   1  36
ATOM     36  O   UNL A   1      32.301  30.270  26.526  1.00  0.00    -0.376 OA
BRANCH  36  37
ATOM     37  C   UNL A   1      31.481  31.420  26.406  1.00  0.00     0.202 C 
BRANCH  37  38
ATOM     38  C   UNL A   1      31.845  32.820  26.955  1.00  0.00     0.261 C 
BRANCH  38  39
ATOM     39  O   UNL A   1      33.096  32.955  27.644  1.00  0.00    -0.460 OA
BRANCH  39  40
ATOM     40  C   UNL A   1      33.214  34.059  28.422  1.00  0.00     0.338 C 
ATOM     41  O   UNL A   1      32.403  34.960  28.555  1.00  0.00    -0.246 OA
BRANCH  40  42
ATOM     42  C   UNL A   1      34.399  33.957  29.280  1.00  0.00     0.060 A 
ATOM     43  C   UNL A   1      36.006  34.635  28.765  1.00  0.00     0.016 A 
ATOM     44  C   UNL A   1      34.352  32.736  30.536  1.00  0.00     0.016 A 
ATOM     45  C   UNL A   1      37.667  33.906  29.670  1.00  0.00     0.010 A 
ATOM     46  C   UNL A   1      35.812  32.098  31.314  1.00  0.00     0.010 A 
ATOM     47  C   UNL A   1      37.446  32.625  30.918  1.00  0.00    -0.014 A 
BRANCH  47  48
ATOM     48  C   UNL A   1      38.587  31.965  31.560  1.00  0.00     0.031 A 
ATOM     49  C   UNL A   1      39.286  30.841  30.860  1.00  0.00     0.074 A 
ATOM     50  C   UNL A   1      38.919  32.368  32.795  1.00  0.00     0.049 A 
ATOM     51  N   UNL A   1      40.258  30.081  31.287  1.00  0.00    -0.248 NA
ATOM     52  C   UNL A   1      38.820  30.499  29.510  1.00  0.00     0.031 C 
ATOM     53  C   UNL A   1      38.237  33.423  33.544  1.00  0.00     0.029 A 
ATOM     54  N   UNL A   1      39.894  31.941  33.649  1.00  0.00    -0.354 N 
ATOM     55  C   UNL A   1      40.507  29.175  30.260  1.00  0.00     0.074 A 
ATOM     56  C   UNL A   1      39.546  29.434  29.218  1.00  0.00     0.031 C 
ATOM     57  C   UNL A   1      38.841  33.597  34.725  1.00  0.00     0.029 A 
ATOM     58  C   UNL A   1      39.898  32.608  34.851  1.00  0.00     0.049 A 
ATOM     59  H   UNL A   1      40.532  31.225  33.425  1.00  0.00     0.167 HD
ATOM     60  C   UNL A   1      41.464  28.220  30.200  1.00  0.00     0.034 A 
ATOM     61  C   UNL A   1      40.652  32.412  35.945  1.00  0.00     0.034 A 
ATOM     62  C   UNL A   1      42.372  27.980  31.291  1.00  0.00     0.049 A 
ATOM     63  C   UNL A   1      41.673  31.312  35.877  1.00  0.00     0.074 A 
ATOM     64  C   UNL A   1      43.394  27.057  31.380  1.00  0.00     0.029 A 
ATOM     65  N   UNL A   1      42.344  28.670  32.501  1.00  0.00    -0.354 N 
ATOM     66  N   UNL A   1      41.922  30.481  34.887  1.00  0.00    -0.248 NA
ATOM     67  C   UNL A   1      42.516  31.125  37.057  1.00  0.00     0.031 C 
ATOM     68  C   UNL A   1      43.922  27.127  32.673  1.00  0.00     0.029 A 
ATOM     69  C   UNL A   1      43.306  28.167  33.356  1.00  0.00     0.049 A 
ATOM     70  H   UNL A   1      41.727  29.407  32.716  1.00  0.00     0.167 HD
ATOM     71  C   UNL A   1      42.977  29.688  35.316  1.00  0.00     0.074 A 
ATOM     72  C   UNL A   1      43.325  30.161  36.645  1.00  0.00     0.031 C 
ATOM     73  C   UNL A   1      43.605  28.666  34.679  1.00  0.00     0.034 A 
BRANCH  60  74
ATOM     74  C   UNL A   1      41.518  27.359  28.959  1.00  0.00     0.023 A 
ATOM     75  C   UNL A   1      42.498  27.548  27.966  1.00  0.00     0.031 A 
ATOM     76  C   UNL A   1      40.542  26.373  28.733  1.00  0.00     0.131 A 
ATOM     77  C   UNL A   1      42.430  26.826  26.764  1.00  0.00     0.055 A 
ATOM     78  C   UNL A   1      40.536  25.592  27.574  1.00  0.00     0.041 A 
ATOM     79  F   UNL A   1      39.557  26.168  29.622  1.00  0.00    -0.206 F 
ATOM     80  C   UNL A   1      41.475  25.827  26.574  1.00  0.00     0.022 A 
BRANCH  77  81
ATOM     81  S   UNL A   1      43.503  27.330  25.389  1.00  0.00     0.124 S 
ATOM     82  O   UNL A   1      42.529  27.841  24.426  1.00  0.00    -0.237 OA
ATOM     83  O   UNL A   1      44.369  28.326  26.008  1.00  0.00    -0.237 OA
ATOM     84  O   UNL A   1      44.163  26.087  24.994  1.00  0.00    -0.744 OA
ENDBRANCH  77  81
ENDBRANCH  60  74
BRANCH  61  85
ATOM     85  C   UNL A   1      40.457  33.251  37.161  1.00  0.00     0.023 A 
ATOM     86  C   UNL A   1      39.554  32.868  38.163  1.00  0.00     0.031 A 
ATOM     87  C   UNL A   1      41.162  34.456  37.338  1.00  0.00     0.131 A 
ATOM     88  C   UNL A   1      39.339  33.705  39.268  1.00  0.00     0.055 A 
ATOM     89  C   UNL A   1      41.001  35.249  38.476  1.00  0.00     0.041 A 
ATOM     90  F   UNL A   1      42.042  34.872  36.413  1.00  0.00    -0.206 F 
ATOM     91  C   UNL A   1      40.071  34.881  39.442  1.00  0.00     0.022 A 
BRANCH  88  92
ATOM     92  S   UNL A   1      37.993  33.294  40.410  1.00  0.00     0.124 S 
ATOM     93  O   UNL A   1      36.906  32.989  39.486  1.00  0.00    -0.237 OA
ATOM     94  O   UNL A   1      38.550  32.161  41.141  1.00  0.00    -0.237 OA
ATOM     95  O   UNL A   1      37.824  34.518  41.190  1.00  0.00    -0.744 OA
ENDBRANCH  88  92
ENDBRANCH  61  85
BRANCH  73  96
ATOM     96  C   UNL A   1      44.762  28.039  35.410  1.00  0.00     0.023 A 
ATOM     97  C   UNL A   1      46.074  28.508  35.247  1.00  0.00     0.031 A 
ATOM     98  C   UNL A   1      44.544  26.939  36.257  1.00  0.00     0.131 A 
ATOM     99  C   UNL A   1      47.132  27.818  35.849  1.00  0.00     0.055 A 
ATOM    100  C   UNL A   1      45.591  26.319  36.932  1.00  0.00     0.041 A 
ATOM    101  F   UNL A   1      43.307  26.449  36.439  1.00  0.00    -0.206 F 
ATOM    102  C   UNL A   1      46.898  26.745  36.713  1.00  0.00     0.022 A 
BRANCH  99 103
ATOM    103  S   UNL A   1      48.823  28.245  35.358  1.00  0.00     0.124 S 
ATOM    104  O   UNL A   1      49.318  26.967  34.855  1.00  0.00    -0.237 OA
ATOM    105  O   UNL A   1      48.605  29.283  34.356  1.00  0.00    -0.237 OA
ATOM    106  O   UNL A   1      49.434  28.702  36.604  1.00  0.00    -0.744 OA
ENDBRANCH  99 103
ENDBRANCH  73  96
ENDBRANCH  47  48
ENDBRANCH  40  42
ENDBRANCH  39  40
ENDBRANCH  38  39
ENDBRANCH  37  38
ENDBRANCH  36  37
ENDBRANCH   1  36
TORSDOF 26
ENDMDL
MODEL 3
REMARK VINA RESULT:     -10.0      7.808     12.333
REMARK SMILES O=C1O[C@@H](c2ccc(O)c(O)c2)[C@H](C(=O)OCCOCCOCCOC(=O)c2ccc(-c3c4nc(c(-c5cc(S(=O)(=O)[O-])ccc5F)c5ccc([nH]5)c(-c5cc(S(=O)(=O)[O-])ccc5F)c5nc(c(-c6cc(S(=O)(=O)[O-])ccc6F)c6ccc3[nH]6)C=C5)C=C4)cc2)/C1=C\c1ccc(O)c(O)c1
REMARK SMILES IDX 21 1 20 2 19 3 18 4 17 5 16 6 14 7 15 8 13 9 1 10 2 11 3 12
REMARK SMILES IDX 91 13 4 14 92 15 5 16 6 17 12 18 7 19 10 20 8 21 11 22 9 24
REMARK SMILES IDX 93 26 94 27 100 28 95 29 98 30 96 31 99 32 97 34 22 36 23 37
REMARK SMILES IDX 24 38 25 39 26 40 27 41 28 42 29 43 90 44 30 45 89 46 31 47
REMARK SMILES IDX 32 48 33 49 83 50 34 51 88 52 82 53 84 54 35 55 87 56 81 57
REMARK SMILES IDX 80 58 36 60 68 61 48 62 67 63 49 64 52 65 66 66 85 67 50 68
REMARK SMILES IDX 51 69 65 71 86 72 53 73 37 74 38 75 46 76 39 77 45 78 47 79
REMARK SMILES IDX 44 80 40 81 41 82 42 83 43 84 69 85 70 86 78 87 71 88 77 89
REMARK SMILES IDX 79 90 76 91 72 92 73 93 74 94 75 95 54 96 55 97 63 98 56 99
REMARK SMILES IDX 62 100 64 101 61 102 57 103 58 104 59 105 60 106
REMARK H PARENT 11 23 9 25 99 33 97 35 84 59 52 70
REMARK Flexibility Score: inf
ROOT
ATOM      1  C   UNL A   1      39.749  28.408  27.999  1.00  0.00     0.188 C 
ENDROOT
BRANCH   1   2
ATOM      2  C   UNL A   1      38.669  29.297  28.666  1.00  0.00     0.188 C 
BRANCH   2   3
ATOM      3  O   UNL A   1      37.634  29.821  27.879  1.00  0.00    -0.376 OA
BRANCH   3   4
ATOM      4  C   UNL A   1      36.301  29.457  28.138  1.00  0.00     0.202 C 
BRANCH   4   5
ATOM      5  C   UNL A   1      35.137  29.689  27.154  1.00  0.00     0.261 C 
BRANCH   5   6
ATOM      6  O   UNL A   1      34.562  28.540  26.508  1.00  0.00    -0.463 OA
BRANCH   6   7
ATOM      7  C   UNL A   1      33.260  28.245  26.815  1.00  0.00     0.317 C 
ATOM      8  O   UNL A   1      32.783  28.323  27.937  1.00  0.00    -0.251 OA
BRANCH   7   9
ATOM      9  C   UNL A   1      32.498  27.842  25.549  1.00  0.00     0.182 C 
ATOM     10  O   UNL A   1      34.693  28.877  23.000  1.00  0.00    -0.247 OA
ATOM     11  C   UNL A   1      33.771  28.702  23.771  1.00  0.00     0.335 C 
ATOM     12  O   UNL A   1      32.886  29.666  24.169  1.00  0.00    -0.453 OA
ATOM     13  C   UNL A   1      33.401  27.428  24.444  1.00  0.00     0.056 C 
ATOM     14  C   UNL A   1      31.858  29.097  24.997  1.00  0.00     0.226 C 
ATOM     15  C   UNL A   1      33.784  26.225  23.970  1.00  0.00     0.020 C 
BRANCH  14  16
ATOM     16  C   UNL A   1      30.555  28.887  24.231  1.00  0.00    -0.002 A 
ATOM     17  C   UNL A   1      29.984  27.602  24.096  1.00  0.00     0.012 A 
ATOM     18  C   UNL A   1      29.845  29.984  23.715  1.00  0.00     0.057 A 
ATOM     19  C   UNL A   1      28.753  27.418  23.448  1.00  0.00     0.050 A 
ATOM     20  C   UNL A   1      28.622  29.793  23.086  1.00  0.00     0.157 A 
ATOM     21  C   UNL A   1      28.076  28.523  22.951  1.00  0.00     0.157 A 
BRANCH  20  22
ATOM     22  O   UNL A   1      27.947  30.880  22.611  1.00  0.00    -0.504 OA
ATOM     23  H   UNL A   1      27.516  31.462  23.206  1.00  0.00     0.293 HD
ENDBRANCH  20  22
BRANCH  21  24
ATOM     24  O   UNL A   1      26.861  28.415  22.335  1.00  0.00    -0.504 OA
ATOM     25  H   UNL A   1      26.082  28.323  22.847  1.00  0.00     0.293 HD
ENDBRANCH  21  24
ENDBRANCH  14  16
BRANCH  15  26
ATOM     26  C   UNL A   1      33.434  24.866  24.464  1.00  0.00    -0.021 A 
ATOM     27  C   UNL A   1      31.940  24.090  23.902  1.00  0.00     0.012 A 
ATOM     28  C   UNL A   1      34.592  24.049  25.490  1.00  0.00     0.058 A 
ATOM     29  C   UNL A   1      31.458  22.439  24.329  1.00  0.00     0.051 A 
ATOM     30  C   UNL A   1      34.268  22.357  26.029  1.00  0.00     0.157 A 
ATOM     31  C   UNL A   1      32.548  21.466  25.401  1.00  0.00     0.157 A 
BRANCH  30  32
ATOM     32  O   UNL A   1      35.333  22.051  26.887  1.00  0.00    -0.504 OA
ATOM     33  H   UNL A   1      36.044  21.524  26.582  1.00  0.00     0.293 HD
ENDBRANCH  30  32
BRANCH  31  34
ATOM     34  O   UNL A   1      31.879  20.279  25.705  1.00  0.00    -0.504 OA
ATOM     35  H   UNL A   1      31.274  20.253  26.421  1.00  0.00     0.293 HD
ENDBRANCH  31  34
ENDBRANCH  15  26
ENDBRANCH   7   9
ENDBRANCH   6   7
ENDBRANCH   5   6
ENDBRANCH   4   5
ENDBRANCH   3   4
ENDBRANCH   2   3
ENDBRANCH   1   2
BRANCH   1  36
ATOM     36  O   UNL A   1      39.498  27.032  27.875  1.00  0.00    -0.376 OA
BRANCH  36  37
ATOM     37  C   UNL A   1      40.303  26.309  26.958  1.00  0.00     0.202 C 
BRANCH  37  38
ATOM     38  C   UNL A   1      40.068  24.833  26.557  1.00  0.00     0.261 C 
BRANCH  38  39
ATOM     39  O   UNL A   1      40.768  23.827  27.301  1.00  0.00    -0.460 OA
BRANCH  39  40
ATOM     40  C   UNL A   1      41.714  23.146  26.608  1.00  0.00     0.338 C 
ATOM     41  O   UNL A   1      41.544  22.190  25.870  1.00  0.00    -0.246 OA
BRANCH  40  42
ATOM     42  C   UNL A   1      43.006  23.832  26.693  1.00  0.00     0.060 A 
ATOM     43  C   UNL A   1      43.686  24.383  28.287  1.00  0.00     0.016 A 
ATOM     44  C   UNL A   1      43.604  24.558  25.215  1.00  0.00     0.016 A 
ATOM     45  C   UNL A   1      45.094  25.841  28.256  1.00  0.00     0.010 A 
ATOM     46  C   UNL A   1      44.829  25.841  25.199  1.00  0.00     0.010 A 
ATOM     47  C   UNL A   1      45.573  26.507  26.651  1.00  0.00    -0.014 A 
BRANCH  47  48
ATOM     48  C   UNL A   1      46.509  27.628  26.527  1.00  0.00     0.031 A 
ATOM     49  C   UNL A   1      47.978  27.362  26.421  1.00  0.00     0.074 A 
ATOM     50  C   UNL A   1      45.999  28.867  26.577  1.00  0.00     0.049 A 
ATOM     51  N   UNL A   1      48.970  28.210  26.383  1.00  0.00    -0.248 NA
ATOM     52  C   UNL A   1      48.404  25.957  26.379  1.00  0.00     0.031 C 
ATOM     53  C   UNL A   1      44.579  29.183  26.734  1.00  0.00     0.029 A 
ATOM     54  N   UNL A   1      46.600  30.091  26.518  1.00  0.00    -0.354 N 
ATOM     55  C   UNL A   1      50.125  27.437  26.319  1.00  0.00     0.074 A 
ATOM     56  C   UNL A   1      49.722  26.056  26.389  1.00  0.00     0.031 C 
ATOM     57  C   UNL A   1      44.410  30.510  26.709  1.00  0.00     0.029 A 
ATOM     58  C   UNL A   1      45.716  31.139  26.623  1.00  0.00     0.049 A 
ATOM     59  H   UNL A   1      47.572  30.211  26.411  1.00  0.00     0.167 HD
ATOM     60  C   UNL A   1      51.407  27.857  26.203  1.00  0.00     0.034 A 
ATOM     61  C   UNL A   1      45.947  32.461  26.679  1.00  0.00     0.034 A 
ATOM     62  C   UNL A   1      51.754  29.253  26.179  1.00  0.00     0.049 A 
ATOM     63  C   UNL A   1      47.381  32.903  26.602  1.00  0.00     0.074 A 
ATOM     64  C   UNL A   1      53.001  29.834  26.061  1.00  0.00     0.029 A 
ATOM     65  N   UNL A   1      50.834  30.292  26.296  1.00  0.00    -0.354 N 
ATOM     66  N   UNL A   1      48.465  32.163  26.510  1.00  0.00    -0.248 NA
ATOM     67  C   UNL A   1      47.627  34.344  26.628  1.00  0.00     0.031 C 
ATOM     68  C   UNL A   1      52.843  31.217  26.199  1.00  0.00     0.029 A 
ATOM     69  C   UNL A   1      51.489  31.509  26.290  1.00  0.00     0.049 A 
ATOM     70  H   UNL A   1      49.859  30.177  26.372  1.00  0.00     0.167 HD
ATOM     71  C   UNL A   1      49.526  33.056  26.435  1.00  0.00     0.074 A 
ATOM     72  C   UNL A   1      48.940  34.384  26.472  1.00  0.00     0.031 C 
ATOM     73  C   UNL A   1      50.859  32.809  26.344  1.00  0.00     0.034 A 
BRANCH  60  74
ATOM     74  C   UNL A   1      52.488  26.801  26.157  1.00  0.00     0.023 A 
ATOM     75  C   UNL A   1      53.305  26.527  27.271  1.00  0.00     0.031 A 
ATOM     76  C   UNL A   1      52.749  26.098  24.968  1.00  0.00     0.131 A 
ATOM     77  C   UNL A   1      54.389  25.644  27.148  1.00  0.00     0.055 A 
ATOM     78  C   UNL A   1      53.772  25.150  24.880  1.00  0.00     0.041 A 
ATOM     79  F   UNL A   1      52.032  26.339  23.859  1.00  0.00    -0.206 F 
ATOM     80  C   UNL A   1      54.609  24.929  25.969  1.00  0.00     0.022 A 
BRANCH  77  81
ATOM     81  S   UNL A   1      55.605  25.571  28.493  1.00  0.00     0.124 S 
ATOM     82  O   UNL A   1      54.801  25.983  29.642  1.00  0.00    -0.237 OA
ATOM     83  O   UNL A   1      56.018  24.172  28.475  1.00  0.00    -0.237 OA
ATOM     84  O   UNL A   1      56.630  26.529  28.084  1.00  0.00    -0.744 OA
ENDBRANCH  77  81
ENDBRANCH  60  74
BRANCH  61  85
ATOM     85  C   UNL A   1      44.819  33.422  26.825  1.00  0.00     0.023 A 
ATOM     86  C   UNL A   1      44.308  33.748  28.090  1.00  0.00     0.031 A 
ATOM     87  C   UNL A   1      44.224  34.026  25.701  1.00  0.00     0.131 A 
ATOM     88  C   UNL A   1      43.203  34.606  28.199  1.00  0.00     0.055 A 
ATOM     89  C   UNL A   1      43.173  34.939  25.820  1.00  0.00     0.041 A 
ATOM     90  F   UNL A   1      44.673  33.756  24.465  1.00  0.00    -0.206 F 
ATOM     91  C   UNL A   1      42.646  35.220  27.075  1.00  0.00     0.022 A 
BRANCH  88  92
ATOM     92  S   UNL A   1      42.426  34.805  29.823  1.00  0.00     0.124 S 
ATOM     93  O   UNL A   1      41.072  35.203  29.455  1.00  0.00    -0.237 OA
ATOM     94  O   UNL A   1      42.569  33.471  30.396  1.00  0.00    -0.237 OA
ATOM     95  O   UNL A   1      43.231  35.847  30.458  1.00  0.00    -0.744 OA
ENDBRANCH  88  92
ENDBRANCH  61  85
BRANCH  73  96
ATOM     96  C   UNL A   1      51.750  34.016  26.227  1.00  0.00     0.023 A 
ATOM     97  C   UNL A   1      52.218  34.697  27.361  1.00  0.00     0.031 A 
ATOM     98  C   UNL A   1      52.107  34.504  24.958  1.00  0.00     0.131 A 
ATOM     99  C   UNL A   1      52.941  35.883  27.202  1.00  0.00     0.055 A 
ATOM    100  C   UNL A   1      52.911  35.630  24.808  1.00  0.00     0.041 A 
ATOM    101  F   UNL A   1      51.677  33.891  23.842  1.00  0.00    -0.206 F 
ATOM    102  C   UNL A   1      53.316  36.340  25.935  1.00  0.00     0.022 A 
BRANCH  99 103
ATOM    103  S   UNL A   1      53.245  36.904  28.668  1.00  0.00     0.124 S 
ATOM    104  O   UNL A   1      51.970  36.802  29.371  1.00  0.00    -0.237 OA
ATOM    105  O   UNL A   1      54.374  36.224  29.294  1.00  0.00    -0.237 OA
ATOM    106  O   UNL A   1      53.544  38.221  28.110  1.00  0.00    -0.744 OA
ENDBRANCH  99 103
ENDBRANCH  73  96
ENDBRANCH  47  48
ENDBRANCH  40  42
ENDBRANCH  39  40
ENDBRANCH  38  39
ENDBRANCH  37  38
ENDBRANCH  36  37
ENDBRANCH   1  36
TORSDOF 26
ENDMDL
