MODEL 1
REMARK VINA RESULT:     -11.1      0.000      0.000
REMARK SMILES O=C(OCCOCCOCCOC(=O)c1ccc([S@@](=O)[C@H]2CCOC3(CCCC3)C2)cc1)c1ccc(-c2c3nc(c(-c4cc(S(=O)(=O)[O-])ccc4F)c4ccc([nH]4)c(-c4cc(S(=O)(=O)[O-])ccc4F)c4nc(c(-c5cc(S(=O)(=O)[O-])ccc5F)c5ccc2[nH]5)C=C4)C=C3)cc1
REMARK SMILES IDX 7 1 6 2 5 3 4 4 3 5 2 6 1 7 33 8 34 9 95 10 35 11 94 12
REMARK SMILES IDX 36 13 37 14 38 15 88 16 39 17 93 18 87 19 89 20 40 21 92 22
REMARK SMILES IDX 86 23 85 24 41 26 73 27 53 28 72 29 54 30 57 31 71 32 90 33
REMARK SMILES IDX 55 34 56 35 70 37 91 38 58 39 42 40 43 41 51 42 44 43 50 44
REMARK SMILES IDX 52 45 49 46 45 47 46 48 47 49 48 50 74 51 75 52 83 53 76 54
REMARK SMILES IDX 82 55 84 56 81 57 77 58 78 59 79 60 80 61 59 62 60 63 68 64
REMARK SMILES IDX 61 65 67 66 69 67 66 68 62 69 63 70 64 71 65 72 8 73 9 74
REMARK SMILES IDX 10 75 11 76 12 77 13 78 14 79 15 80 16 81 32 82 17 83 31 84
REMARK SMILES IDX 18 85 19 86 20 87 21 88 22 89 30 90 23 91 25 92 24 93 26 94
REMARK SMILES IDX 29 95 27 96 28 97
REMARK H PARENT 89 25 57 36
REMARK Flexibility Score: inf
ROOT
ATOM      1  C   UNL A   1      43.200  22.111  26.642  1.00  0.00     0.188 C 
ENDROOT
BRANCH   1   2
ATOM      2  O   UNL A   1      43.049  22.478  25.267  1.00  0.00    -0.376 OA
BRANCH   2   3
ATOM      3  C   UNL A   1      43.244  23.875  25.024  1.00  0.00     0.202 C 
BRANCH   3   4
ATOM      4  C   UNL A   1      42.278  24.802  25.780  1.00  0.00     0.261 C 
BRANCH   4   5
ATOM      5  O   UNL A   1      41.826  25.903  24.973  1.00  0.00    -0.460 OA
BRANCH   5   6
ATOM      6  C   UNL A   1      42.066  27.229  25.144  1.00  0.00     0.338 C 
ATOM      7  O   UNL A   1      42.671  27.825  24.252  1.00  0.00    -0.246 OA
BRANCH   6   8
ATOM      8  C   UNL A   1      41.648  28.017  26.351  1.00  0.00     0.060 A 
ATOM      9  C   UNL A   1      42.303  29.145  26.840  1.00  0.00     0.016 A 
ATOM     10  C   UNL A   1      40.475  27.608  27.016  1.00  0.00     0.016 A 
ATOM     11  C   UNL A   1      41.898  29.769  28.013  1.00  0.00     0.010 A 
ATOM     12  C   UNL A   1      40.017  28.274  28.163  1.00  0.00     0.010 A 
ATOM     13  C   UNL A   1      40.760  29.334  28.688  1.00  0.00    -0.014 A 
BRANCH  13  14
ATOM     14  C   UNL A   1      40.463  29.967  29.990  1.00  0.00     0.031 A 
ATOM     15  C   UNL A   1      39.263  30.859  30.104  1.00  0.00     0.074 A 
ATOM     16  C   UNL A   1      41.163  29.596  31.078  1.00  0.00     0.049 A 
ATOM     17  N   UNL A   1      38.768  31.447  31.161  1.00  0.00    -0.248 NA
ATOM     18  C   UNL A   1      38.502  31.098  28.867  1.00  0.00     0.031 C 
ATOM     19  C   UNL A   1      42.294  28.664  31.072  1.00  0.00     0.029 A 
ATOM     20  N   UNL A   1      41.024  29.941  32.397  1.00  0.00    -0.354 N 
ATOM     21  C   UNL A   1      37.620  32.099  30.723  1.00  0.00     0.074 A 
ATOM     22  C   UNL A   1      37.523  31.878  29.297  1.00  0.00     0.031 C 
ATOM     23  C   UNL A   1      42.737  28.507  32.329  1.00  0.00     0.029 A 
ATOM     24  C   UNL A   1      41.964  29.364  33.219  1.00  0.00     0.049 A 
ATOM     25  H   UNL A   1      40.319  30.544  32.725  1.00  0.00     0.167 HD
ATOM     26  C   UNL A   1      36.720  32.803  31.451  1.00  0.00     0.034 A 
ATOM     27  C   UNL A   1      42.191  29.533  34.535  1.00  0.00     0.034 A 
ATOM     28  C   UNL A   1      36.867  33.051  32.862  1.00  0.00     0.049 A 
ATOM     29  C   UNL A   1      41.258  30.437  35.298  1.00  0.00     0.074 A 
ATOM     30  C   UNL A   1      36.091  33.839  33.693  1.00  0.00     0.029 A 
ATOM     31  N   UNL A   1      37.877  32.514  33.653  1.00  0.00    -0.354 N 
ATOM     32  N   UNL A   1      40.210  31.098  34.858  1.00  0.00    -0.248 NA
ATOM     33  C   UNL A   1      41.528  30.612  36.729  1.00  0.00     0.031 C 
ATOM     34  C   UNL A   1      36.661  33.816  34.972  1.00  0.00     0.029 A 
ATOM     35  C   UNL A   1      37.756  32.966  34.956  1.00  0.00     0.049 A 
ATOM     36  H   UNL A   1      38.577  31.900  33.332  1.00  0.00     0.167 HD
ATOM     37  C   UNL A   1      39.684  31.752  35.966  1.00  0.00     0.074 A 
ATOM     38  C   UNL A   1      40.516  31.383  37.096  1.00  0.00     0.031 C 
ATOM     39  C   UNL A   1      38.618  32.590  36.051  1.00  0.00     0.034 A 
BRANCH  26  40
ATOM     40  C   UNL A   1      35.557  33.395  30.698  1.00  0.00     0.023 A 
ATOM     41  C   UNL A   1      35.111  34.706  30.951  1.00  0.00     0.031 A 
ATOM     42  C   UNL A   1      34.832  32.616  29.781  1.00  0.00     0.131 A 
ATOM     43  C   UNL A   1      33.933  35.173  30.346  1.00  0.00     0.055 A 
ATOM     44  C   UNL A   1      33.699  33.109  29.133  1.00  0.00     0.041 A 
ATOM     45  F   UNL A   1      35.197  31.350  29.525  1.00  0.00    -0.206 F 
ATOM     46  C   UNL A   1      33.234  34.389  29.424  1.00  0.00     0.022 A 
BRANCH  43  47
ATOM     47  S   UNL A   1      33.249  36.766  30.884  1.00  0.00     0.124 S 
ATOM     48  O   UNL A   1      34.200  37.161  31.920  1.00  0.00    -0.237 OA
ATOM     49  O   UNL A   1      33.278  37.553  29.658  1.00  0.00    -0.237 OA
ATOM     50  O   UNL A   1      31.915  36.419  31.371  1.00  0.00    -0.744 OA
ENDBRANCH  43  47
ENDBRANCH  26  40
BRANCH  27  51
ATOM     51  C   UNL A   1      43.363  28.890  35.197  1.00  0.00     0.023 A 
ATOM     52  C   UNL A   1      43.233  27.699  35.927  1.00  0.00     0.031 A 
ATOM     53  C   UNL A   1      44.635  29.495  35.156  1.00  0.00     0.131 A 
ATOM     54  C   UNL A   1      44.335  27.180  36.625  1.00  0.00     0.055 A 
ATOM     55  C   UNL A   1      45.741  28.949  35.808  1.00  0.00     0.041 A 
ATOM     56  F   UNL A   1      44.824  30.631  34.466  1.00  0.00    -0.206 F 
ATOM     57  C   UNL A   1      45.590  27.791  36.563  1.00  0.00     0.022 A 
BRANCH  54  58
ATOM     58  S   UNL A   1      44.083  25.745  37.707  1.00  0.00     0.124 S 
ATOM     59  O   UNL A   1      44.053  26.369  39.026  1.00  0.00    -0.237 OA
ATOM     60  O   UNL A   1      42.813  25.223  37.215  1.00  0.00    -0.237 OA
ATOM     61  O   UNL A   1      45.250  24.908  37.438  1.00  0.00    -0.744 OA
ENDBRANCH  54  58
ENDBRANCH  27  51
BRANCH  39  62
ATOM     62  C   UNL A   1      38.307  33.134  37.419  1.00  0.00     0.023 A 
ATOM     63  C   UNL A   1      37.424  32.465  38.283  1.00  0.00     0.031 A 
ATOM     64  C   UNL A   1      38.867  34.349  37.847  1.00  0.00     0.131 A 
ATOM     65  C   UNL A   1      37.075  33.048  39.509  1.00  0.00     0.055 A 
ATOM     66  C   UNL A   1      38.562  34.896  39.093  1.00  0.00     0.041 A 
ATOM     67  F   UNL A   1      39.716  35.025  37.056  1.00  0.00    -0.206 F 
ATOM     68  C   UNL A   1      37.649  34.253  39.925  1.00  0.00     0.022 A 
BRANCH  65  69
ATOM     69  S   UNL A   1      35.782  32.258  40.504  1.00  0.00     0.124 S 
ATOM     70  O   UNL A   1      36.082  32.757  41.842  1.00  0.00    -0.237 OA
ATOM     71  O   UNL A   1      34.561  32.769  39.891  1.00  0.00    -0.237 OA
ATOM     72  O   UNL A   1      36.024  30.829  40.306  1.00  0.00    -0.744 OA
ENDBRANCH  65  69
ENDBRANCH  39  62
ENDBRANCH  13  14
ENDBRANCH   6   8
ENDBRANCH   5   6
ENDBRANCH   4   5
ENDBRANCH   3   4
ENDBRANCH   2   3
ENDBRANCH   1   2
BRANCH   1  73
ATOM     73  C   UNL A   1      42.254  20.977  27.043  1.00  0.00     0.188 C 
BRANCH  73  74
ATOM     74  O   UNL A   1      41.054  20.867  26.278  1.00  0.00    -0.376 OA
BRANCH  74  75
ATOM     75  C   UNL A   1      39.900  21.521  26.798  1.00  0.00     0.202 C 
BRANCH  75  76
ATOM     76  C   UNL A   1      38.888  22.082  25.787  1.00  0.00     0.261 C 
BRANCH  76  77
ATOM     77  O   UNL A   1      37.621  21.402  25.732  1.00  0.00    -0.460 OA
BRANCH  77  78
ATOM     78  C   UNL A   1      36.764  21.886  24.805  1.00  0.00     0.338 C 
ATOM     79  O   UNL A   1      37.034  22.225  23.651  1.00  0.00    -0.246 OA
BRANCH  78  80
ATOM     80  C   UNL A   1      35.385  21.942  25.313  1.00  0.00     0.060 A 
ATOM     81  C   UNL A   1      34.369  21.310  24.589  1.00  0.00     0.017 A 
ATOM     82  C   UNL A   1      35.068  22.833  26.340  1.00  0.00     0.017 A 
ATOM     83  C   UNL A   1      33.028  21.612  24.856  1.00  0.00     0.018 A 
ATOM     84  C   UNL A   1      33.723  23.131  26.603  1.00  0.00     0.018 A 
ATOM     85  C   UNL A   1      32.697  22.546  25.845  1.00  0.00     0.039 A 
BRANCH  85  86
ATOM     86  S   UNL A   1      31.045  23.262  25.944  1.00  0.00     0.056 S 
ATOM     87  O   UNL A   1      30.702  23.267  27.407  1.00  0.00    -0.254 OA
BRANCH  86  88
ATOM     88  C   UNL A   1      31.259  24.987  25.435  1.00  0.00     0.089 C 
ATOM     89  C   UNL A   1      30.029  25.616  24.796  1.00  0.00     0.046 C 
ATOM     90  C   UNL A   1      31.806  25.899  26.522  1.00  0.00     0.053 C 
ATOM     91  C   UNL A   1      30.401  26.988  24.255  1.00  0.00     0.162 C 
ATOM     92  C   UNL A   1      32.134  27.284  25.933  1.00  0.00     0.069 C 
ATOM     93  O   UNL A   1      30.976  27.817  25.262  1.00  0.00    -0.375 OA
ATOM     94  C   UNL A   1      32.501  28.290  27.047  1.00  0.00     0.035 C 
ATOM     95  C   UNL A   1      33.370  27.271  25.008  1.00  0.00     0.035 C 
ATOM     96  C   UNL A   1      33.896  28.813  26.730  1.00  0.00     0.003 C 
ATOM     97  C   UNL A   1      34.032  28.623  25.234  1.00  0.00     0.003 C 
ENDBRANCH  86  88
ENDBRANCH  85  86
ENDBRANCH  78  80
ENDBRANCH  77  78
ENDBRANCH  76  77
ENDBRANCH  75  76
ENDBRANCH  74  75
ENDBRANCH  73  74
ENDBRANCH   1  73
TORSDOF 22
ENDMDL
MODEL 2
REMARK VINA RESULT:     -10.9      5.083     10.212
REMARK SMILES O=C(OCCOCCOCCOC(=O)c1ccc([S@@](=O)[C@H]2CCOC3(CCCC3)C2)cc1)c1ccc(-c2c3nc(c(-c4cc(S(=O)(=O)[O-])ccc4F)c4ccc([nH]4)c(-c4cc(S(=O)(=O)[O-])ccc4F)c4nc(c(-c5cc(S(=O)(=O)[O-])ccc5F)c5ccc2[nH]5)C=C4)C=C3)cc1
REMARK SMILES IDX 7 1 6 2 5 3 4 4 3 5 2 6 1 7 33 8 34 9 95 10 35 11 94 12
REMARK SMILES IDX 36 13 37 14 38 15 88 16 39 17 93 18 87 19 89 20 40 21 92 22
REMARK SMILES IDX 86 23 85 24 41 26 73 27 53 28 72 29 54 30 57 31 71 32 90 33
REMARK SMILES IDX 55 34 56 35 70 37 91 38 58 39 42 40 43 41 51 42 44 43 50 44
REMARK SMILES IDX 52 45 49 46 45 47 46 48 47 49 48 50 74 51 75 52 83 53 76 54
REMARK SMILES IDX 82 55 84 56 81 57 77 58 78 59 79 60 80 61 59 62 60 63 68 64
REMARK SMILES IDX 61 65 67 66 69 67 66 68 62 69 63 70 64 71 65 72 8 73 9 74
REMARK SMILES IDX 10 75 11 76 12 77 13 78 14 79 15 80 16 81 32 82 17 83 31 84
REMARK SMILES IDX 18 85 19 86 20 87 21 88 22 89 30 90 23 91 25 92 24 93 26 94
REMARK SMILES IDX 29 95 27 96 28 97
REMARK H PARENT 89 25 57 36
REMARK Flexibility Score: inf
ROOT
ATOM      1  C   UNL A   1      34.196  21.636  26.300  1.00  0.00     0.188 C 
ENDROOT
BRANCH   1   2
ATOM      2  O   UNL A   1      34.675  21.033  25.094  1.00  0.00    -0.376 OA
BRANCH   2   3
ATOM      3  C   UNL A   1      35.707  21.788  24.449  1.00  0.00     0.202 C 
BRANCH   3   4
ATOM      4  C   UNL A   1      37.139  21.363  24.813  1.00  0.00     0.261 C 
BRANCH   4   5
ATOM      5  O   UNL A   1      37.729  22.213  25.812  1.00  0.00    -0.460 OA
BRANCH   5   6
ATOM      6  C   UNL A   1      38.931  22.081  26.430  1.00  0.00     0.338 C 
ATOM      7  O   UNL A   1      39.292  20.948  26.752  1.00  0.00    -0.246 OA
BRANCH   6   8
ATOM      8  C   UNL A   1      39.848  23.224  26.753  1.00  0.00     0.060 A 
ATOM      9  C   UNL A   1      40.897  23.179  27.668  1.00  0.00     0.016 A 
ATOM     10  C   UNL A   1      39.659  24.425  26.041  1.00  0.00     0.016 A 
ATOM     11  C   UNL A   1      41.647  24.308  27.970  1.00  0.00     0.010 A 
ATOM     12  C   UNL A   1      40.458  25.552  26.287  1.00  0.00     0.010 A 
ATOM     13  C   UNL A   1      41.429  25.504  27.291  1.00  0.00    -0.014 A 
BRANCH  13  14
ATOM     14  C   UNL A   1      42.181  26.690  27.750  1.00  0.00     0.031 A 
ATOM     15  C   UNL A   1      43.573  26.908  27.236  1.00  0.00     0.074 A 
ATOM     16  C   UNL A   1      41.548  27.633  28.472  1.00  0.00     0.049 A 
ATOM     17  N   UNL A   1      44.379  27.917  27.437  1.00  0.00    -0.248 NA
ATOM     18  C   UNL A   1      44.118  25.865  26.354  1.00  0.00     0.031 C 
ATOM     19  C   UNL A   1      40.163  27.541  28.944  1.00  0.00     0.029 A 
ATOM     20  N   UNL A   1      41.972  28.853  28.927  1.00  0.00    -0.354 N 
ATOM     21  C   UNL A   1      45.515  27.644  26.682  1.00  0.00     0.074 A 
ATOM     22  C   UNL A   1      45.313  26.353  26.062  1.00  0.00     0.031 C 
ATOM     23  C   UNL A   1      39.854  28.663  29.611  1.00  0.00     0.029 A 
ATOM     24  C   UNL A   1      41.027  29.526  29.665  1.00  0.00     0.049 A 
ATOM     25  H   UNL A   1      42.869  29.215  28.742  1.00  0.00     0.167 HD
ATOM     26  C   UNL A   1      46.617  28.413  26.508  1.00  0.00     0.034 A 
ATOM     27  C   UNL A   1      41.111  30.692  30.333  1.00  0.00     0.034 A 
ATOM     28  C   UNL A   1      46.814  29.673  27.178  1.00  0.00     0.049 A 
ATOM     29  C   UNL A   1      42.402  31.463  30.240  1.00  0.00     0.074 A 
ATOM     30  C   UNL A   1      47.927  30.494  27.177  1.00  0.00     0.029 A 
ATOM     31  N   UNL A   1      45.864  30.292  27.983  1.00  0.00    -0.354 N 
ATOM     32  N   UNL A   1      43.492  31.163  29.570  1.00  0.00    -0.248 NA
ATOM     33  C   UNL A   1      42.474  32.727  30.980  1.00  0.00     0.031 C 
ATOM     34  C   UNL A   1      47.667  31.582  28.021  1.00  0.00     0.029 A 
ATOM     35  C   UNL A   1      46.370  31.472  28.499  1.00  0.00     0.049 A 
ATOM     36  H   UNL A   1      44.961  29.940  28.160  1.00  0.00     0.167 HD
ATOM     37  C   UNL A   1      44.374  32.215  29.794  1.00  0.00     0.074 A 
ATOM     38  C   UNL A   1      43.675  33.165  30.638  1.00  0.00     0.031 C 
ATOM     39  C   UNL A   1      45.648  32.384  29.354  1.00  0.00     0.034 A 
BRANCH  26  40
ATOM     40  C   UNL A   1      47.695  27.856  25.615  1.00  0.00     0.023 A 
ATOM     41  C   UNL A   1      47.727  28.144  24.238  1.00  0.00     0.031 A 
ATOM     42  C   UNL A   1      48.650  26.961  26.126  1.00  0.00     0.131 A 
ATOM     43  C   UNL A   1      48.650  27.487  23.408  1.00  0.00     0.055 A 
ATOM     44  C   UNL A   1      49.608  26.362  25.306  1.00  0.00     0.041 A 
ATOM     45  F   UNL A   1      48.646  26.629  27.426  1.00  0.00    -0.206 F 
ATOM     46  C   UNL A   1      49.603  26.613  23.936  1.00  0.00     0.022 A 
BRANCH  43  47
ATOM     47  S   UNL A   1      48.501  27.687  21.610  1.00  0.00     0.124 S 
ATOM     48  O   UNL A   1      49.583  28.625  21.325  1.00  0.00    -0.237 OA
ATOM     49  O   UNL A   1      48.691  26.326  21.123  1.00  0.00    -0.237 OA
ATOM     50  O   UNL A   1      47.154  28.228  21.437  1.00  0.00    -0.744 OA
ENDBRANCH  43  47
ENDBRANCH  26  40
BRANCH  27  51
ATOM     51  C   UNL A   1      39.980  31.170  31.180  1.00  0.00     0.023 A 
ATOM     52  C   UNL A   1      40.024  31.084  32.580  1.00  0.00     0.031 A 
ATOM     53  C   UNL A   1      38.802  31.672  30.592  1.00  0.00     0.131 A 
ATOM     54  C   UNL A   1      38.899  31.444  33.340  1.00  0.00     0.055 A 
ATOM     55  C   UNL A   1      37.705  32.078  31.354  1.00  0.00     0.041 A 
ATOM     56  F   UNL A   1      38.704  31.787  29.258  1.00  0.00    -0.206 F 
ATOM     57  C   UNL A   1      37.744  31.949  32.737  1.00  0.00     0.022 A 
BRANCH  54  58
ATOM     58  S   UNL A   1      38.924  31.143  35.129  1.00  0.00     0.124 S 
ATOM     59  O   UNL A   1      39.278  29.729  35.189  1.00  0.00    -0.237 OA
ATOM     60  O   UNL A   1      39.951  32.081  35.572  1.00  0.00    -0.237 OA
ATOM     61  O   UNL A   1      37.562  31.465  35.547  1.00  0.00    -0.744 OA
ENDBRANCH  54  58
ENDBRANCH  27  51
BRANCH  39  62
ATOM     62  C   UNL A   1      46.335  33.654  29.779  1.00  0.00     0.023 A 
ATOM     63  C   UNL A   1      46.285  34.809  28.980  1.00  0.00     0.031 A 
ATOM     64  C   UNL A   1      47.075  33.698  30.972  1.00  0.00     0.131 A 
ATOM     65  C   UNL A   1      47.019  35.943  29.353  1.00  0.00     0.055 A 
ATOM     66  C   UNL A   1      47.756  34.849  31.367  1.00  0.00     0.041 A 
ATOM     67  F   UNL A   1      47.153  32.620  31.768  1.00  0.00    -0.206 F 
ATOM     68  C   UNL A   1      47.743  35.975  30.547  1.00  0.00     0.022 A 
BRANCH  65  69
ATOM     69  S   UNL A   1      47.093  37.340  28.199  1.00  0.00     0.124 S 
ATOM     70  O   UNL A   1      47.733  36.737  27.034  1.00  0.00    -0.237 OA
ATOM     71  O   UNL A   1      45.685  37.691  28.044  1.00  0.00    -0.237 OA
ATOM     72  O   UNL A   1      47.904  38.328  28.910  1.00  0.00    -0.744 OA
ENDBRANCH  65  69
ENDBRANCH  39  62
ENDBRANCH  13  14
ENDBRANCH   6   8
ENDBRANCH   5   6
ENDBRANCH   4   5
ENDBRANCH   3   4
ENDBRANCH   2   3
ENDBRANCH   1   2
BRANCH   1  73
ATOM     73  C   UNL A   1      33.128  22.698  26.028  1.00  0.00     0.188 C 
BRANCH  73  74
ATOM     74  O   UNL A   1      31.983  22.258  25.301  1.00  0.00    -0.376 OA
BRANCH  74  75
ATOM     75  C   UNL A   1      31.411  23.187  24.384  1.00  0.00     0.202 C 
BRANCH  75  76
ATOM     76  C   UNL A   1      32.272  23.623  23.187  1.00  0.00     0.261 C 
BRANCH  76  77
ATOM     77  O   UNL A   1      31.861  24.837  22.535  1.00  0.00    -0.460 OA
BRANCH  77  78
ATOM     78  C   UNL A   1      32.865  25.708  22.284  1.00  0.00     0.338 C 
ATOM     79  O   UNL A   1      33.627  25.702  21.316  1.00  0.00    -0.246 OA
BRANCH  78  80
ATOM     80  C   UNL A   1      32.953  26.751  23.316  1.00  0.00     0.060 A 
ATOM     81  C   UNL A   1      33.592  26.457  24.526  1.00  0.00     0.017 A 
ATOM     82  C   UNL A   1      32.182  27.908  23.191  1.00  0.00     0.017 A 
ATOM     83  C   UNL A   1      33.411  27.296  25.632  1.00  0.00     0.018 A 
ATOM     84  C   UNL A   1      32.006  28.743  24.303  1.00  0.00     0.018 A 
ATOM     85  C   UNL A   1      32.594  28.428  25.537  1.00  0.00     0.039 A 
BRANCH  85  86
ATOM     86  S   UNL A   1      32.012  29.292  27.009  1.00  0.00     0.056 S 
ATOM     87  O   UNL A   1      31.689  28.211  28.002  1.00  0.00    -0.254 OA
BRANCH  86  88
ATOM     88  C   UNL A   1      33.465  30.177  27.630  1.00  0.00     0.089 C 
ATOM     89  C   UNL A   1      34.798  29.620  27.150  1.00  0.00     0.046 C 
ATOM     90  C   UNL A   1      33.422  31.682  27.418  1.00  0.00     0.053 C 
ATOM     91  C   UNL A   1      35.923  30.333  27.887  1.00  0.00     0.162 C 
ATOM     92  C   UNL A   1      34.598  32.353  28.151  1.00  0.00     0.069 C 
ATOM     93  O   UNL A   1      35.840  31.748  27.740  1.00  0.00    -0.375 OA
ATOM     94  C   UNL A   1      34.697  33.852  27.791  1.00  0.00     0.035 C 
ATOM     95  C   UNL A   1      34.441  32.338  29.688  1.00  0.00     0.035 C 
ATOM     96  C   UNL A   1      34.602  34.629  29.099  1.00  0.00     0.003 C 
ATOM     97  C   UNL A   1      35.072  33.645  30.150  1.00  0.00     0.003 C 
ENDBRANCH  86  88
ENDBRANCH  85  86
ENDBRANCH  78  80
ENDBRANCH  77  78
ENDBRANCH  76  77
ENDBRANCH  75  76
ENDBRANCH  74  75
ENDBRANCH  73  74
ENDBRANCH   1  73
TORSDOF 22
ENDMDL
MODEL 3
REMARK VINA RESULT:     -10.8      5.672      9.888
REMARK SMILES O=C(OCCOCCOCCOC(=O)c1ccc([S@@](=O)[C@H]2CCOC3(CCCC3)C2)cc1)c1ccc(-c2c3nc(c(-c4cc(S(=O)(=O)[O-])ccc4F)c4ccc([nH]4)c(-c4cc(S(=O)(=O)[O-])ccc4F)c4nc(c(-c5cc(S(=O)(=O)[O-])ccc5F)c5ccc2[nH]5)C=C4)C=C3)cc1
REMARK SMILES IDX 7 1 6 2 5 3 4 4 3 5 2 6 1 7 33 8 34 9 95 10 35 11 94 12
REMARK SMILES IDX 36 13 37 14 38 15 88 16 39 17 93 18 87 19 89 20 40 21 92 22
REMARK SMILES IDX 86 23 85 24 41 26 73 27 53 28 72 29 54 30 57 31 71 32 90 33
REMARK SMILES IDX 55 34 56 35 70 37 91 38 58 39 42 40 43 41 51 42 44 43 50 44
REMARK SMILES IDX 52 45 49 46 45 47 46 48 47 49 48 50 74 51 75 52 83 53 76 54
REMARK SMILES IDX 82 55 84 56 81 57 77 58 78 59 79 60 80 61 59 62 60 63 68 64
REMARK SMILES IDX 61 65 67 66 69 67 66 68 62 69 63 70 64 71 65 72 8 73 9 74
REMARK SMILES IDX 10 75 11 76 12 77 13 78 14 79 15 80 16 81 32 82 17 83 31 84
REMARK SMILES IDX 18 85 19 86 20 87 21 88 22 89 30 90 23 91 25 92 24 93 26 94
REMARK SMILES IDX 29 95 27 96 28 97
REMARK H PARENT 89 25 57 36
REMARK Flexibility Score: inf
ROOT
ATOM      1  C   UNL A   1      41.961  20.666  26.162  1.00  0.00     0.188 C 
ENDROOT
BRANCH   1   2
ATOM      2  O   UNL A   1      42.103  19.432  25.449  1.00  0.00    -0.376 OA
BRANCH   2   3
ATOM      3  C   UNL A   1      43.217  18.646  25.886  1.00  0.00     0.202 C 
BRANCH   3   4
ATOM      4  C   UNL A   1      44.490  18.806  25.039  1.00  0.00     0.261 C 
BRANCH   4   5
ATOM      5  O   UNL A   1      45.163  20.052  25.287  1.00  0.00    -0.460 OA
BRANCH   5   6
ATOM      6  C   UNL A   1      44.944  21.260  24.705  1.00  0.00     0.338 C 
ATOM      7  O   UNL A   1      44.562  21.274  23.534  1.00  0.00    -0.246 OA
BRANCH   6   8
ATOM      8  C   UNL A   1      45.144  22.579  25.391  1.00  0.00     0.060 A 
ATOM      9  C   UNL A   1      45.400  22.747  26.750  1.00  0.00     0.016 A 
ATOM     10  C   UNL A   1      45.114  23.737  24.588  1.00  0.00     0.016 A 
ATOM     11  C   UNL A   1      45.491  24.009  27.322  1.00  0.00     0.010 A 
ATOM     12  C   UNL A   1      45.276  25.014  25.145  1.00  0.00     0.010 A 
ATOM     13  C   UNL A   1      45.421  25.152  26.528  1.00  0.00    -0.014 A 
BRANCH  13  14
ATOM     14  C   UNL A   1      45.403  26.457  27.221  1.00  0.00     0.031 A 
ATOM     15  C   UNL A   1      46.677  27.244  27.314  1.00  0.00     0.074 A 
ATOM     16  C   UNL A   1      44.225  26.989  27.594  1.00  0.00     0.049 A 
ATOM     17  N   UNL A   1      46.875  28.441  27.798  1.00  0.00    -0.248 NA
ATOM     18  C   UNL A   1      47.883  26.608  26.761  1.00  0.00     0.031 C 
ATOM     19  C   UNL A   1      42.924  26.327  27.461  1.00  0.00     0.029 A 
ATOM     20  N   UNL A   1      43.923  28.206  28.147  1.00  0.00    -0.354 N 
ATOM     21  C   UNL A   1      48.221  28.715  27.580  1.00  0.00     0.074 A 
ATOM     22  C   UNL A   1      48.800  27.539  26.969  1.00  0.00     0.031 C 
ATOM     23  C   UNL A   1      41.967  27.152  27.912  1.00  0.00     0.029 A 
ATOM     24  C   UNL A   1      42.585  28.371  28.415  1.00  0.00     0.049 A 
ATOM     25  H   UNL A   1      44.600  28.895  28.335  1.00  0.00     0.167 HD
ATOM     26  C   UNL A   1      48.904  29.854  27.850  1.00  0.00     0.034 A 
ATOM     27  C   UNL A   1      41.937  29.383  29.025  1.00  0.00     0.034 A 
ATOM     28  C   UNL A   1      48.313  30.992  28.505  1.00  0.00     0.049 A 
ATOM     29  C   UNL A   1      42.746  30.582  29.447  1.00  0.00     0.074 A 
ATOM     30  C   UNL A   1      48.919  32.159  28.936  1.00  0.00     0.029 A 
ATOM     31  N   UNL A   1      46.967  31.098  28.834  1.00  0.00    -0.354 N 
ATOM     32  N   UNL A   1      44.033  30.802  29.289  1.00  0.00    -0.248 NA
ATOM     33  C   UNL A   1      42.022  31.668  30.114  1.00  0.00     0.031 C 
ATOM     34  C   UNL A   1      47.948  32.946  29.568  1.00  0.00     0.029 A 
ATOM     35  C   UNL A   1      46.725  32.299  29.478  1.00  0.00     0.049 A 
ATOM     36  H   UNL A   1      46.283  30.416  28.637  1.00  0.00     0.167 HD
ATOM     37  C   UNL A   1      44.267  32.064  29.823  1.00  0.00     0.074 A 
ATOM     38  C   UNL A   1      42.984  32.563  30.281  1.00  0.00     0.031 C 
ATOM     39  C   UNL A   1      45.433  32.752  29.937  1.00  0.00     0.034 A 
BRANCH  26  40
ATOM     40  C   UNL A   1      50.368  29.864  27.491  1.00  0.00     0.023 A 
ATOM     41  C   UNL A   1      50.813  30.340  26.244  1.00  0.00     0.031 A 
ATOM     42  C   UNL A   1      51.318  29.314  28.367  1.00  0.00     0.131 A 
ATOM     43  C   UNL A   1      52.161  30.193  25.881  1.00  0.00     0.055 A 
ATOM     44  C   UNL A   1      52.670  29.232  28.026  1.00  0.00     0.041 A 
ATOM     45  F   UNL A   1      50.943  28.820  29.557  1.00  0.00    -0.206 F 
ATOM     46  C   UNL A   1      53.096  29.660  26.772  1.00  0.00     0.022 A 
BRANCH  43  47
ATOM     47  S   UNL A   1      52.652  30.583  24.178  1.00  0.00     0.124 S 
ATOM     48  O   UNL A   1      52.489  29.290  23.519  1.00  0.00    -0.237 OA
ATOM     49  O   UNL A   1      51.695  31.617  23.801  1.00  0.00    -0.237 OA
ATOM     50  O   UNL A   1      54.035  31.036  24.315  1.00  0.00    -0.744 OA
ENDBRANCH  43  47
ENDBRANCH  26  40
BRANCH  27  51
ATOM     51  C   UNL A   1      40.478  29.286  29.323  1.00  0.00     0.023 A 
ATOM     52  C   UNL A   1      40.004  29.159  30.637  1.00  0.00     0.031 A 
ATOM     53  C   UNL A   1      39.531  29.262  28.280  1.00  0.00     0.131 A 
ATOM     54  C   UNL A   1      38.633  28.963  30.872  1.00  0.00     0.055 A 
ATOM     55  C   UNL A   1      38.164  29.119  28.521  1.00  0.00     0.041 A 
ATOM     56  F   UNL A   1      39.923  29.388  27.003  1.00  0.00    -0.206 F 
ATOM     57  C   UNL A   1      37.709  28.952  29.824  1.00  0.00     0.022 A 
BRANCH  54  58
ATOM     58  S   UNL A   1      38.081  28.616  32.565  1.00  0.00     0.124 S 
ATOM     59  O   UNL A   1      36.755  29.224  32.576  1.00  0.00    -0.237 OA
ATOM     60  O   UNL A   1      38.119  27.158  32.596  1.00  0.00    -0.237 OA
ATOM     61  O   UNL A   1      39.082  29.285  33.392  1.00  0.00    -0.744 OA
ENDBRANCH  54  58
ENDBRANCH  27  51
BRANCH  39  62
ATOM     62  C   UNL A   1      45.342  34.115  30.569  1.00  0.00     0.023 A 
ATOM     63  C   UNL A   1      45.188  35.271  29.785  1.00  0.00     0.031 A 
ATOM     64  C   UNL A   1      45.447  34.263  31.962  1.00  0.00     0.131 A 
ATOM     65  C   UNL A   1      45.209  36.532  30.394  1.00  0.00     0.055 A 
ATOM     66  C   UNL A   1      45.408  35.518  32.569  1.00  0.00     0.041 A 
ATOM     67  F   UNL A   1      45.595  33.188  32.753  1.00  0.00    -0.206 F 
ATOM     68  C   UNL A   1      45.304  36.663  31.783  1.00  0.00     0.022 A 
BRANCH  65  69
ATOM     69  S   UNL A   1      45.211  38.003  29.334  1.00  0.00     0.124 S 
ATOM     70  O   UNL A   1      44.678  37.476  28.083  1.00  0.00    -0.237 OA
ATOM     71  O   UNL A   1      44.339  38.916  30.066  1.00  0.00    -0.237 OA
ATOM     72  O   UNL A   1      46.620  38.392  29.293  1.00  0.00    -0.744 OA
ENDBRANCH  65  69
ENDBRANCH  39  62
ENDBRANCH  13  14
ENDBRANCH   6   8
ENDBRANCH   5   6
ENDBRANCH   4   5
ENDBRANCH   3   4
ENDBRANCH   2   3
ENDBRANCH   1   2
BRANCH   1  73
ATOM     73  C   UNL A   1      41.085  20.513  27.407  1.00  0.00     0.188 C 
BRANCH  73  74
ATOM     74  O   UNL A   1      40.350  21.672  27.798  1.00  0.00    -0.376 OA
BRANCH  74  75
ATOM     75  C   UNL A   1      40.088  22.636  26.782  1.00  0.00     0.202 C 
BRANCH  75  76
ATOM     76  C   UNL A   1      38.832  23.507  26.939  1.00  0.00     0.261 C 
BRANCH  76  77
ATOM     77  O   UNL A   1      38.000  23.618  25.770  1.00  0.00    -0.460 OA
BRANCH  77  78
ATOM     78  C   UNL A   1      37.458  22.451  25.354  1.00  0.00     0.338 C 
ATOM     79  O   UNL A   1      38.049  21.389  25.153  1.00  0.00    -0.246 OA
BRANCH  78  80
ATOM     80  C   UNL A   1      36.001  22.556  25.187  1.00  0.00     0.060 A 
ATOM     81  C   UNL A   1      35.477  23.633  24.463  1.00  0.00     0.017 A 
ATOM     82  C   UNL A   1      35.161  21.753  25.960  1.00  0.00     0.017 A 
ATOM     83  C   UNL A   1      34.114  23.941  24.558  1.00  0.00     0.018 A 
ATOM     84  C   UNL A   1      33.798  22.067  26.050  1.00  0.00     0.018 A 
ATOM     85  C   UNL A   1      33.271  23.178  25.374  1.00  0.00     0.039 A 
BRANCH  85  86
ATOM     86  S   UNL A   1      31.634  23.770  25.844  1.00  0.00     0.056 S 
ATOM     87  O   UNL A   1      31.591  23.672  27.343  1.00  0.00    -0.254 OA
BRANCH  86  88
ATOM     88  C   UNL A   1      31.640  25.531  25.419  1.00  0.00     0.089 C 
ATOM     89  C   UNL A   1      30.461  25.982  24.570  1.00  0.00     0.046 C 
ATOM     90  C   UNL A   1      31.813  26.462  26.609  1.00  0.00     0.053 C 
ATOM     91  C   UNL A   1      30.688  27.423  24.137  1.00  0.00     0.162 C 
ATOM     92  C   UNL A   1      32.003  27.911  26.122  1.00  0.00     0.069 C 
ATOM     93  O   UNL A   1      30.916  28.282  25.252  1.00  0.00    -0.375 OA
ATOM     94  C   UNL A   1      31.980  28.904  27.305  1.00  0.00     0.035 C 
ATOM     95  C   UNL A   1      33.373  28.149  25.451  1.00  0.00     0.035 C 
ATOM     96  C   UNL A   1      33.300  29.664  27.272  1.00  0.00     0.003 C 
ATOM     97  C   UNL A   1      33.741  29.578  25.826  1.00  0.00     0.003 C 
ENDBRANCH  86  88
ENDBRANCH  85  86
ENDBRANCH  78  80
ENDBRANCH  77  78
ENDBRANCH  76  77
ENDBRANCH  75  76
ENDBRANCH  74  75
ENDBRANCH  73  74
ENDBRANCH   1  73
TORSDOF 22
ENDMDL
