MODEL 1
REMARK VINA RESULT:     -10.1      0.000      0.000
REMARK SMILES CC[C@@]1(C(=O)OCCOCCOCCOC(=O)c2ccc(-c3c4nc(c(-c5cc(S(=O)(=O)[O-])ccc5F)c5ccc([nH]5)c(-c5cc(S(=O)(=O)[O-])ccc5F)c5nc(c(-c6cc(S(=O)(=O)[O-])ccc6F)c6ccc3[nH]6)C=C5)C=C4)cc2)CCC[N@@H+](Cc2ccc(C3CC3)cc2)C1
REMARK SMILES IDX 10 1 9 2 8 3 7 4 6 5 4 6 5 7 3 8 81 9 95 10 82 11 84 12
REMARK SMILES IDX 83 13 2 15 1 16 85 17 86 18 87 19 94 20 88 21 93 22 89 23
REMARK SMILES IDX 90 24 91 25 92 26 11 27 12 28 13 29 14 30 15 31 16 32 17 33
REMARK SMILES IDX 18 34 19 35 80 36 20 37 79 38 21 39 22 40 23 41 73 42 24 43
REMARK SMILES IDX 78 44 72 45 74 46 25 47 77 48 71 49 70 50 26 52 58 53 38 54
REMARK SMILES IDX 57 55 39 56 42 57 56 58 75 59 40 60 41 61 55 63 76 64 43 65
REMARK SMILES IDX 27 66 28 67 36 68 29 69 35 70 37 71 34 72 30 73 31 74 32 75
REMARK SMILES IDX 33 76 59 77 60 78 68 79 61 80 67 81 69 82 66 83 62 84 63 85
REMARK SMILES IDX 64 86 65 87 44 88 45 89 53 90 46 91 52 92 54 93 51 94 47 95
REMARK SMILES IDX 48 96 49 97 50 98
REMARK H PARENT 84 14 74 51 42 62
REMARK Flexibility Score: inf
ROOT
ATOM      1  C   UNL A   1      34.727  32.362  28.374  1.00  0.00     0.188 C 
ENDROOT
BRANCH   1   2
ATOM      2  O   UNL A   1      33.981  31.211  28.019  1.00  0.00    -0.376 OA
BRANCH   2   3
ATOM      3  C   UNL A   1      34.699  30.191  27.339  1.00  0.00     0.202 C 
BRANCH   3   4
ATOM      4  C   UNL A   1      33.936  28.892  27.060  1.00  0.00     0.261 C 
BRANCH   4   5
ATOM      5  O   UNL A   1      33.950  28.468  25.688  1.00  0.00    -0.463 OA
BRANCH   5   6
ATOM      6  C   UNL A   1      33.487  27.228  25.386  1.00  0.00     0.317 C 
ATOM      7  O   UNL A   1      34.040  26.196  25.748  1.00  0.00    -0.251 OA
BRANCH   6   8
ATOM      8  C   UNL A   1      32.166  27.279  24.587  1.00  0.00     0.117 C 
ATOM      9  C   UNL A   1      30.988  27.020  25.552  1.00  0.00     0.030 C 
ATOM     10  C   UNL A   1      32.098  26.174  23.504  1.00  0.00     0.281 C 
ATOM     11  C   UNL A   1      30.980  25.573  26.060  1.00  0.00     0.063 C 
ATOM     12  N   UNL A   1      32.184  24.818  24.053  1.00  0.00    -0.330 N 
ATOM     13  C   UNL A   1      31.044  24.543  24.922  1.00  0.00     0.262 C 
ATOM     14  H   UNL A   1      33.008  24.760  24.652  1.00  0.00     0.348 HD
BRANCH   8  15
ATOM     15  C   UNL A   1      31.995  28.648  23.862  1.00  0.00     0.021 C 
ATOM     16  C   UNL A   1      30.790  29.495  24.253  1.00  0.00     0.005 C 
ENDBRANCH   8  15
BRANCH  12  17
ATOM     17  C   UNL A   1      32.446  23.800  23.018  1.00  0.00     0.299 C 
BRANCH  17  18
ATOM     18  C   UNL A   1      32.625  22.383  23.516  1.00  0.00     0.006 A 
ATOM     19  C   UNL A   1      32.151  21.305  22.766  1.00  0.00     0.010 A 
ATOM     20  C   UNL A   1      33.326  22.114  24.696  1.00  0.00     0.010 A 
ATOM     21  C   UNL A   1      32.467  19.994  23.136  1.00  0.00     0.004 A 
ATOM     22  C   UNL A   1      33.658  20.801  25.045  1.00  0.00     0.004 A 
ATOM     23  C   UNL A   1      33.276  19.709  24.251  1.00  0.00    -0.045 A 
BRANCH  23  24
ATOM     24  C   UNL A   1      33.720  18.284  24.508  1.00  0.00     0.019 C 
ATOM     25  C   UNL A   1      33.023  17.397  25.513  1.00  0.00     0.009 C 
ATOM     26  C   UNL A   1      32.890  17.115  24.044  1.00  0.00     0.009 C 
ENDBRANCH  23  24
ENDBRANCH  17  18
ENDBRANCH  12  17
ENDBRANCH   6   8
ENDBRANCH   5   6
ENDBRANCH   4   5
ENDBRANCH   3   4
ENDBRANCH   2   3
ENDBRANCH   1   2
BRANCH   1  27
ATOM     27  C   UNL A   1      33.940  33.679  28.223  1.00  0.00     0.188 C 
BRANCH  27  28
ATOM     28  O   UNL A   1      34.608  34.876  27.860  1.00  0.00    -0.376 OA
BRANCH  28  29
ATOM     29  C   UNL A   1      34.057  36.105  28.306  1.00  0.00     0.202 C 
BRANCH  29  30
ATOM     30  C   UNL A   1      32.872  36.094  29.292  1.00  0.00     0.261 C 
BRANCH  30  31
ATOM     31  O   UNL A   1      33.117  36.638  30.606  1.00  0.00    -0.460 OA
BRANCH  31  32
ATOM     32  C   UNL A   1      32.911  35.795  31.652  1.00  0.00     0.338 C 
ATOM     33  O   UNL A   1      31.900  35.722  32.338  1.00  0.00    -0.246 OA
BRANCH  32  34
ATOM     34  C   UNL A   1      34.015  34.808  31.746  1.00  0.00     0.060 A 
ATOM     35  C   UNL A   1      33.749  33.525  32.252  1.00  0.00     0.016 A 
ATOM     36  C   UNL A   1      35.319  35.161  31.397  1.00  0.00     0.016 A 
ATOM     37  C   UNL A   1      34.785  32.601  32.437  1.00  0.00     0.010 A 
ATOM     38  C   UNL A   1      36.359  34.246  31.612  1.00  0.00     0.010 A 
ATOM     39  C   UNL A   1      36.106  32.974  32.162  1.00  0.00    -0.014 A 
BRANCH  39  40
ATOM     40  C   UNL A   1      37.246  32.153  32.654  1.00  0.00     0.031 A 
ATOM     41  C   UNL A   1      37.859  32.521  33.981  1.00  0.00     0.074 A 
ATOM     42  C   UNL A   1      37.749  31.123  31.949  1.00  0.00     0.049 A 
ATOM     43  N   UNL A   1      38.953  32.081  34.547  1.00  0.00    -0.248 NA
ATOM     44  C   UNL A   1      37.138  33.533  34.766  1.00  0.00     0.031 C 
ATOM     45  C   UNL A   1      37.208  30.611  30.693  1.00  0.00     0.029 A 
ATOM     46  N   UNL A   1      38.850  30.332  32.187  1.00  0.00    -0.354 N 
ATOM     47  C   UNL A   1      39.062  32.776  35.748  1.00  0.00     0.074 A 
ATOM     48  C   UNL A   1      37.937  33.686  35.809  1.00  0.00     0.031 C 
ATOM     49  C   UNL A   1      37.992  29.608  30.257  1.00  0.00     0.029 A 
ATOM     50  C   UNL A   1      39.121  29.440  31.174  1.00  0.00     0.049 A 
ATOM     51  H   UNL A   1      39.394  30.399  33.004  1.00  0.00     0.167 HD
ATOM     52  C   UNL A   1      40.009  32.665  36.712  1.00  0.00     0.034 A 
ATOM     53  C   UNL A   1      40.176  28.617  30.989  1.00  0.00     0.034 A 
ATOM     54  C   UNL A   1      41.136  31.767  36.631  1.00  0.00     0.049 A 
ATOM     55  C   UNL A   1      41.287  28.595  32.019  1.00  0.00     0.074 A 
ATOM     56  C   UNL A   1      42.157  31.583  37.547  1.00  0.00     0.029 A 
ATOM     57  N   UNL A   1      41.397  30.912  35.569  1.00  0.00    -0.354 N 
ATOM     58  N   UNL A   1      41.395  29.273  33.139  1.00  0.00    -0.248 NA
ATOM     59  C   UNL A   1      42.420  27.694  31.758  1.00  0.00     0.031 C 
ATOM     60  C   UNL A   1      43.076  30.680  37.003  1.00  0.00     0.029 A 
ATOM     61  C   UNL A   1      42.578  30.223  35.794  1.00  0.00     0.049 A 
ATOM     62  H   UNL A   1      40.826  30.810  34.773  1.00  0.00     0.167 HD
ATOM     63  C   UNL A   1      42.579  28.840  33.735  1.00  0.00     0.074 A 
ATOM     64  C   UNL A   1      43.149  27.846  32.853  1.00  0.00     0.031 C 
ATOM     65  C   UNL A   1      43.138  29.223  34.913  1.00  0.00     0.034 A 
BRANCH  52  66
ATOM     66  C   UNL A   1      39.894  33.582  37.906  1.00  0.00     0.023 A 
ATOM     67  C   UNL A   1      39.144  33.230  39.041  1.00  0.00     0.031 A 
ATOM     68  C   UNL A   1      40.520  34.842  37.896  1.00  0.00     0.131 A 
ATOM     69  C   UNL A   1      38.975  34.155  40.082  1.00  0.00     0.055 A 
ATOM     70  C   UNL A   1      40.421  35.723  38.975  1.00  0.00     0.041 A 
ATOM     71  F   UNL A   1      41.229  35.246  36.830  1.00  0.00    -0.206 F 
ATOM     72  C   UNL A   1      39.632  35.387  40.070  1.00  0.00     0.022 A 
BRANCH  69  73
ATOM     73  S   UNL A   1      37.763  33.784  41.379  1.00  0.00     0.124 S 
ATOM     74  O   UNL A   1      38.548  32.953  42.288  1.00  0.00    -0.237 OA
ATOM     75  O   UNL A   1      37.409  35.110  41.870  1.00  0.00    -0.237 OA
ATOM     76  O   UNL A   1      36.700  33.079  40.663  1.00  0.00    -0.744 OA
ENDBRANCH  69  73
ENDBRANCH  52  66
BRANCH  53  77
ATOM     77  C   UNL A   1      40.282  27.773  29.760  1.00  0.00     0.023 A 
ATOM     78  C   UNL A   1      41.186  28.097  28.734  1.00  0.00     0.031 A 
ATOM     79  C   UNL A   1      39.422  26.678  29.553  1.00  0.00     0.131 A 
ATOM     80  C   UNL A   1      41.170  27.374  27.530  1.00  0.00     0.055 A 
ATOM     81  C   UNL A   1      39.455  25.923  28.379  1.00  0.00     0.041 A 
ATOM     82  F   UNL A   1      38.529  26.329  30.492  1.00  0.00    -0.206 F 
ATOM     83  C   UNL A   1      40.323  26.279  27.352  1.00  0.00     0.022 A 
BRANCH  80  84
ATOM     84  S   UNL A   1      42.194  27.960  26.152  1.00  0.00     0.124 S 
ATOM     85  O   UNL A   1      41.808  27.044  25.086  1.00  0.00    -0.237 OA
ATOM     86  O   UNL A   1      41.745  29.341  26.007  1.00  0.00    -0.237 OA
ATOM     87  O   UNL A   1      43.560  27.800  26.650  1.00  0.00    -0.744 OA
ENDBRANCH  80  84
ENDBRANCH  53  77
BRANCH  65  88
ATOM     88  C   UNL A   1      44.388  28.503  35.365  1.00  0.00     0.023 A 
ATOM     89  C   UNL A   1      44.345  27.295  36.081  1.00  0.00     0.031 A 
ATOM     90  C   UNL A   1      45.653  29.037  35.050  1.00  0.00     0.131 A 
ATOM     91  C   UNL A   1      45.541  26.686  36.499  1.00  0.00     0.055 A 
ATOM     92  C   UNL A   1      46.837  28.395  35.411  1.00  0.00     0.041 A 
ATOM     93  F   UNL A   1      45.757  30.191  34.370  1.00  0.00    -0.206 F 
ATOM     94  C   UNL A   1      46.785  27.217  36.151  1.00  0.00     0.022 A 
BRANCH  91  95
ATOM     95  S   UNL A   1      45.452  25.232  37.582  1.00  0.00     0.124 S 
ATOM     96  O   UNL A   1      44.208  25.470  38.307  1.00  0.00    -0.237 OA
ATOM     97  O   UNL A   1      45.432  24.130  36.625  1.00  0.00    -0.237 OA
ATOM     98  O   UNL A   1      46.667  25.329  38.388  1.00  0.00    -0.744 OA
ENDBRANCH  91  95
ENDBRANCH  65  88
ENDBRANCH  39  40
ENDBRANCH  32  34
ENDBRANCH  31  32
ENDBRANCH  30  31
ENDBRANCH  29  30
ENDBRANCH  28  29
ENDBRANCH  27  28
ENDBRANCH   1  27
TORSDOF 24
ENDMDL
MODEL 2
REMARK VINA RESULT:      -9.9      1.774      3.093
REMARK SMILES CC[C@@]1(C(=O)OCCOCCOCCOC(=O)c2ccc(-c3c4nc(c(-c5cc(S(=O)(=O)[O-])ccc5F)c5ccc([nH]5)c(-c5cc(S(=O)(=O)[O-])ccc5F)c5nc(c(-c6cc(S(=O)(=O)[O-])ccc6F)c6ccc3[nH]6)C=C5)C=C4)cc2)CCC[N@@H+](Cc2ccc(C3CC3)cc2)C1
REMARK SMILES IDX 10 1 9 2 8 3 7 4 6 5 4 6 5 7 3 8 81 9 95 10 82 11 84 12
REMARK SMILES IDX 83 13 2 15 1 16 85 17 86 18 87 19 94 20 88 21 93 22 89 23
REMARK SMILES IDX 90 24 91 25 92 26 11 27 12 28 13 29 14 30 15 31 16 32 17 33
REMARK SMILES IDX 18 34 19 35 80 36 20 37 79 38 21 39 22 40 23 41 73 42 24 43
REMARK SMILES IDX 78 44 72 45 74 46 25 47 77 48 71 49 70 50 26 52 58 53 38 54
REMARK SMILES IDX 57 55 39 56 42 57 56 58 75 59 40 60 41 61 55 63 76 64 43 65
REMARK SMILES IDX 27 66 28 67 36 68 29 69 35 70 37 71 34 72 30 73 31 74 32 75
REMARK SMILES IDX 33 76 59 77 60 78 68 79 61 80 67 81 69 82 66 83 62 84 63 85
REMARK SMILES IDX 64 86 65 87 44 88 45 89 53 90 46 91 52 92 54 93 51 94 47 95
REMARK SMILES IDX 48 96 49 97 50 98
REMARK H PARENT 84 14 74 51 42 62
REMARK Flexibility Score: inf
ROOT
ATOM      1  C   UNL A   1      31.453  29.586  25.664  1.00  0.00     0.188 C 
ENDROOT
BRANCH   1   2
ATOM      2  O   UNL A   1      32.119  28.371  25.966  1.00  0.00    -0.376 OA
BRANCH   2   3
ATOM      3  C   UNL A   1      31.402  27.458  26.784  1.00  0.00     0.202 C 
BRANCH   3   4
ATOM      4  C   UNL A   1      30.673  26.323  26.059  1.00  0.00     0.261 C 
BRANCH   4   5
ATOM      5  O   UNL A   1      31.285  25.031  26.192  1.00  0.00    -0.463 OA
BRANCH   5   6
ATOM      6  C   UNL A   1      32.273  24.688  25.326  1.00  0.00     0.317 C 
ATOM      7  O   UNL A   1      33.354  25.263  25.275  1.00  0.00    -0.251 OA
BRANCH   6   8
ATOM      8  C   UNL A   1      31.890  23.465  24.463  1.00  0.00     0.117 C 
ATOM      9  C   UNL A   1      31.350  22.351  25.387  1.00  0.00     0.030 C 
ATOM     10  C   UNL A   1      33.113  22.869  23.723  1.00  0.00     0.281 C 
ATOM     11  C   UNL A   1      32.458  21.763  26.271  1.00  0.00     0.063 C 
ATOM     12  N   UNL A   1      34.170  22.408  24.628  1.00  0.00    -0.330 N 
ATOM     13  C   UNL A   1      33.687  21.314  25.466  1.00  0.00     0.262 C 
ATOM     14  H   UNL A   1      34.404  23.166  25.270  1.00  0.00     0.348 HD
BRANCH   8  15
ATOM     15  C   UNL A   1      30.834  23.844  23.381  1.00  0.00     0.021 C 
ATOM     16  C   UNL A   1      31.032  25.165  22.650  1.00  0.00     0.005 C 
ENDBRANCH   8  15
BRANCH  12  17
ATOM     17  C   UNL A   1      35.444  22.150  23.931  1.00  0.00     0.299 C 
BRANCH  17  18
ATOM     18  C   UNL A   1      36.681  22.130  24.801  1.00  0.00     0.006 A 
ATOM     19  C   UNL A   1      37.496  20.997  24.845  1.00  0.00     0.010 A 
ATOM     20  C   UNL A   1      37.076  23.261  25.524  1.00  0.00     0.010 A 
ATOM     21  C   UNL A   1      38.726  21.038  25.510  1.00  0.00     0.004 A 
ATOM     22  C   UNL A   1      38.318  23.301  26.164  1.00  0.00     0.004 A 
ATOM     23  C   UNL A   1      39.196  22.206  26.137  1.00  0.00    -0.045 A 
BRANCH  23  24
ATOM     24  C   UNL A   1      40.603  22.240  26.697  1.00  0.00     0.019 C 
ATOM     25  C   UNL A   1      41.035  21.340  27.831  1.00  0.00     0.009 C 
ATOM     26  C   UNL A   1      41.567  21.110  26.445  1.00  0.00     0.009 C 
ENDBRANCH  23  24
ENDBRANCH  17  18
ENDBRANCH  12  17
ENDBRANCH   6   8
ENDBRANCH   5   6
ENDBRANCH   4   5
ENDBRANCH   3   4
ENDBRANCH   2   3
ENDBRANCH   1   2
BRANCH   1  27
ATOM     27  C   UNL A   1      32.021  30.805  26.420  1.00  0.00     0.188 C 
BRANCH  27  28
ATOM     28  O   UNL A   1      33.185  30.674  27.219  1.00  0.00    -0.376 OA
BRANCH  28  29
ATOM     29  C   UNL A   1      33.713  31.846  27.817  1.00  0.00     0.202 C 
BRANCH  29  30
ATOM     30  C   UNL A   1      32.922  33.167  27.735  1.00  0.00     0.261 C 
BRANCH  30  31
ATOM     31  O   UNL A   1      33.614  34.364  28.145  1.00  0.00    -0.460 OA
BRANCH  31  32
ATOM     32  C   UNL A   1      33.513  34.695  29.459  1.00  0.00     0.338 C 
ATOM     33  O   UNL A   1      32.552  35.224  30.003  1.00  0.00    -0.246 OA
BRANCH  32  34
ATOM     34  C   UNL A   1      34.661  34.145  30.220  1.00  0.00     0.060 A 
ATOM     35  C   UNL A   1      35.961  34.291  29.705  1.00  0.00     0.016 A 
ATOM     36  C   UNL A   1      34.459  33.436  31.404  1.00  0.00     0.016 A 
ATOM     37  C   UNL A   1      37.055  33.707  30.354  1.00  0.00     0.010 A 
ATOM     38  C   UNL A   1      35.552  32.825  32.034  1.00  0.00     0.010 A 
ATOM     39  C   UNL A   1      36.851  32.928  31.499  1.00  0.00    -0.014 A 
BRANCH  39  40
ATOM     40  C   UNL A   1      37.924  32.033  32.012  1.00  0.00     0.031 A 
ATOM     41  C   UNL A   1      38.514  32.343  33.364  1.00  0.00     0.074 A 
ATOM     42  C   UNL A   1      38.388  30.986  31.305  1.00  0.00     0.049 A 
ATOM     43  N   UNL A   1      39.562  31.831  33.956  1.00  0.00    -0.248 NA
ATOM     44  C   UNL A   1      37.828  33.384  34.144  1.00  0.00     0.031 C 
ATOM     45  C   UNL A   1      37.858  30.527  30.024  1.00  0.00     0.029 A 
ATOM     46  N   UNL A   1      39.433  30.128  31.564  1.00  0.00    -0.354 N 
ATOM     47  C   UNL A   1      39.672  32.499  35.172  1.00  0.00     0.074 A 
ATOM     48  C   UNL A   1      38.601  33.473  35.214  1.00  0.00     0.031 C 
ATOM     49  C   UNL A   1      38.596  29.486  29.596  1.00  0.00     0.029 A 
ATOM     50  C   UNL A   1      39.683  29.237  30.545  1.00  0.00     0.049 A 
ATOM     51  H   UNL A   1      39.953  30.150  32.399  1.00  0.00     0.167 HD
ATOM     52  C   UNL A   1      40.579  32.318  36.163  1.00  0.00     0.034 A 
ATOM     53  C   UNL A   1      40.693  28.356  30.379  1.00  0.00     0.034 A 
ATOM     54  C   UNL A   1      41.653  31.356  36.102  1.00  0.00     0.049 A 
ATOM     55  C   UNL A   1      41.767  28.252  31.442  1.00  0.00     0.074 A 
ATOM     56  C   UNL A   1      42.632  31.098  37.046  1.00  0.00     0.029 A 
ATOM     57  N   UNL A   1      41.897  30.503  35.034  1.00  0.00    -0.354 N 
ATOM     58  N   UNL A   1      41.878  28.905  32.577  1.00  0.00    -0.248 NA
ATOM     59  C   UNL A   1      42.853  27.290  31.202  1.00  0.00     0.031 C 
ATOM     60  C   UNL A   1      43.512  30.150  36.516  1.00  0.00     0.029 A 
ATOM     61  C   UNL A   1      43.029  29.742  35.284  1.00  0.00     0.049 A 
ATOM     62  H   UNL A   1      41.348  30.448  34.219  1.00  0.00     0.167 HD
ATOM     63  C   UNL A   1      43.014  28.394  33.203  1.00  0.00     0.074 A 
ATOM     64  C   UNL A   1      43.554  27.381  32.322  1.00  0.00     0.031 C 
ATOM     65  C   UNL A   1      43.557  28.724  34.404  1.00  0.00     0.034 A 
BRANCH  52  66
ATOM     66  C   UNL A   1      40.480  33.222  37.369  1.00  0.00     0.023 A 
ATOM     67  C   UNL A   1      39.840  32.812  38.551  1.00  0.00     0.031 A 
ATOM     68  C   UNL A   1      41.006  34.525  37.323  1.00  0.00     0.131 A 
ATOM     69  C   UNL A   1      39.675  33.719  39.608  1.00  0.00     0.055 A 
ATOM     70  C   UNL A   1      40.918  35.394  38.413  1.00  0.00     0.041 A 
ATOM     71  F   UNL A   1      41.606  34.983  36.214  1.00  0.00    -0.206 F 
ATOM     72  C   UNL A   1      40.235  34.998  39.558  1.00  0.00     0.022 A 
BRANCH  69  73
ATOM     73  S   UNL A   1      38.588  33.255  40.984  1.00  0.00     0.124 S 
ATOM     74  O   UNL A   1      39.132  31.953  41.362  1.00  0.00    -0.237 OA
ATOM     75  O   UNL A   1      38.803  34.338  41.936  1.00  0.00    -0.237 OA
ATOM     76  O   UNL A   1      37.260  33.215  40.373  1.00  0.00    -0.744 OA
ENDBRANCH  69  73
ENDBRANCH  52  66
BRANCH  53  77
ATOM     77  C   UNL A   1      40.789  27.526  29.139  1.00  0.00     0.023 A 
ATOM     78  C   UNL A   1      41.694  27.854  28.116  1.00  0.00     0.031 A 
ATOM     79  C   UNL A   1      39.919  26.442  28.921  1.00  0.00     0.131 A 
ATOM     80  C   UNL A   1      41.670  27.147  26.903  1.00  0.00     0.055 A 
ATOM     81  C   UNL A   1      39.943  25.701  27.738  1.00  0.00     0.041 A 
ATOM     82  F   UNL A   1      39.024  26.090  29.856  1.00  0.00    -0.206 F 
ATOM     83  C   UNL A   1      40.812  26.061  26.713  1.00  0.00     0.022 A 
BRANCH  80  84
ATOM     84  S   UNL A   1      42.697  27.740  25.530  1.00  0.00     0.124 S 
ATOM     85  O   UNL A   1      43.978  27.957  26.192  1.00  0.00    -0.237 OA
ATOM     86  O   UNL A   1      42.636  26.618  24.599  1.00  0.00    -0.237 OA
ATOM     87  O   UNL A   1      42.008  28.952  25.089  1.00  0.00    -0.744 OA
ENDBRANCH  80  84
ENDBRANCH  53  77
BRANCH  65  88
ATOM     88  C   UNL A   1      44.747  27.925  34.882  1.00  0.00     0.023 A 
ATOM     89  C   UNL A   1      44.615  26.663  35.488  1.00  0.00     0.031 A 
ATOM     90  C   UNL A   1      46.047  28.437  34.707  1.00  0.00     0.131 A 
ATOM     91  C   UNL A   1      45.756  25.979  35.938  1.00  0.00     0.055 A 
ATOM     92  C   UNL A   1      47.181  27.724  35.097  1.00  0.00     0.041 A 
ATOM     93  F   UNL A   1      46.237  29.639  34.138  1.00  0.00    -0.206 F 
ATOM     94  C   UNL A   1      47.038  26.492  35.728  1.00  0.00     0.022 A 
BRANCH  91  95
ATOM     95  S   UNL A   1      45.542  24.445  36.883  1.00  0.00     0.124 S 
ATOM     96  O   UNL A   1      46.923  24.023  37.093  1.00  0.00    -0.237 OA
ATOM     97  O   UNL A   1      44.828  24.906  38.070  1.00  0.00    -0.237 OA
ATOM     98  O   UNL A   1      44.764  23.594  35.985  1.00  0.00    -0.744 OA
ENDBRANCH  91  95
ENDBRANCH  65  88
ENDBRANCH  39  40
ENDBRANCH  32  34
ENDBRANCH  31  32
ENDBRANCH  30  31
ENDBRANCH  29  30
ENDBRANCH  28  29
ENDBRANCH  27  28
ENDBRANCH   1  27
TORSDOF 24
ENDMDL
MODEL 3
REMARK VINA RESULT:      -9.3      5.779     10.475
REMARK SMILES CC[C@@]1(C(=O)OCCOCCOCCOC(=O)c2ccc(-c3c4nc(c(-c5cc(S(=O)(=O)[O-])ccc5F)c5ccc([nH]5)c(-c5cc(S(=O)(=O)[O-])ccc5F)c5nc(c(-c6cc(S(=O)(=O)[O-])ccc6F)c6ccc3[nH]6)C=C5)C=C4)cc2)CCC[N@@H+](Cc2ccc(C3CC3)cc2)C1
REMARK SMILES IDX 10 1 9 2 8 3 7 4 6 5 4 6 5 7 3 8 81 9 95 10 82 11 84 12
REMARK SMILES IDX 83 13 2 15 1 16 85 17 86 18 87 19 94 20 88 21 93 22 89 23
REMARK SMILES IDX 90 24 91 25 92 26 11 27 12 28 13 29 14 30 15 31 16 32 17 33
REMARK SMILES IDX 18 34 19 35 80 36 20 37 79 38 21 39 22 40 23 41 73 42 24 43
REMARK SMILES IDX 78 44 72 45 74 46 25 47 77 48 71 49 70 50 26 52 58 53 38 54
REMARK SMILES IDX 57 55 39 56 42 57 56 58 75 59 40 60 41 61 55 63 76 64 43 65
REMARK SMILES IDX 27 66 28 67 36 68 29 69 35 70 37 71 34 72 30 73 31 74 32 75
REMARK SMILES IDX 33 76 59 77 60 78 68 79 61 80 67 81 69 82 66 83 62 84 63 85
REMARK SMILES IDX 64 86 65 87 44 88 45 89 53 90 46 91 52 92 54 93 51 94 47 95
REMARK SMILES IDX 48 96 49 97 50 98
REMARK H PARENT 84 14 74 51 42 62
REMARK Flexibility Score: inf
ROOT
ATOM      1  C   UNL A   1      34.924  29.806  28.047  1.00  0.00     0.188 C 
ENDROOT
BRANCH   1   2
ATOM      2  O   UNL A   1      34.191  30.184  26.894  1.00  0.00    -0.376 OA
BRANCH   2   3
ATOM      3  C   UNL A   1      33.248  29.233  26.419  1.00  0.00     0.202 C 
BRANCH   3   4
ATOM      4  C   UNL A   1      33.825  27.980  25.751  1.00  0.00     0.261 C 
BRANCH   4   5
ATOM      5  O   UNL A   1      33.314  26.738  26.259  1.00  0.00    -0.463 OA
BRANCH   5   6
ATOM      6  C   UNL A   1      33.226  25.678  25.415  1.00  0.00     0.317 C 
ATOM      7  O   UNL A   1      34.197  25.023  25.052  1.00  0.00    -0.251 OA
BRANCH   6   8
ATOM      8  C   UNL A   1      31.766  25.372  25.017  1.00  0.00     0.117 C 
ATOM      9  C   UNL A   1      31.015  24.828  26.253  1.00  0.00     0.030 C 
ATOM     10  C   UNL A   1      31.677  24.272  23.929  1.00  0.00     0.281 C 
ATOM     11  C   UNL A   1      31.519  23.436  26.653  1.00  0.00     0.063 C 
ATOM     12  N   UNL A   1      32.257  22.994  24.350  1.00  0.00    -0.330 N 
ATOM     13  C   UNL A   1      31.517  22.442  25.482  1.00  0.00     0.262 C 
ATOM     14  H   UNL A   1      33.202  23.161  24.693  1.00  0.00     0.348 HD
BRANCH   8  15
ATOM     15  C   UNL A   1      31.055  26.639  24.453  1.00  0.00     0.021 C 
ATOM     16  C   UNL A   1      31.351  27.016  23.007  1.00  0.00     0.005 C 
ENDBRANCH   8  15
BRANCH  12  17
ATOM     17  C   UNL A   1      32.464  22.065  23.223  1.00  0.00     0.299 C 
BRANCH  17  18
ATOM     18  C   UNL A   1      32.767  20.630  23.595  1.00  0.00     0.006 A 
ATOM     19  C   UNL A   1      32.099  19.580  22.964  1.00  0.00     0.010 A 
ATOM     20  C   UNL A   1      33.765  20.320  24.525  1.00  0.00     0.010 A 
ATOM     21  C   UNL A   1      32.498  18.258  23.181  1.00  0.00     0.004 A 
ATOM     22  C   UNL A   1      34.174  18.996  24.717  1.00  0.00     0.004 A 
ATOM     23  C   UNL A   1      33.581  17.934  24.017  1.00  0.00    -0.045 A 
BRANCH  23  24
ATOM     24  C   UNL A   1      34.072  16.502  24.086  1.00  0.00     0.019 C 
ATOM     25  C   UNL A   1      35.034  16.037  25.155  1.00  0.00     0.009 C 
ATOM     26  C   UNL A   1      33.606  15.572  25.176  1.00  0.00     0.009 C 
ENDBRANCH  23  24
ENDBRANCH  17  18
ENDBRANCH  12  17
ENDBRANCH   6   8
ENDBRANCH   5   6
ENDBRANCH   4   5
ENDBRANCH   3   4
ENDBRANCH   2   3
ENDBRANCH   1   2
BRANCH   1  27
ATOM     27  C   UNL A   1      36.430  29.608  27.782  1.00  0.00     0.188 C 
BRANCH  27  28
ATOM     28  O   UNL A   1      37.378  30.510  28.329  1.00  0.00    -0.376 OA
BRANCH  28  29
ATOM     29  C   UNL A   1      37.865  30.247  29.635  1.00  0.00     0.202 C 
BRANCH  29  30
ATOM     30  C   UNL A   1      37.662  28.851  30.257  1.00  0.00     0.261 C 
BRANCH  30  31
ATOM     31  O   UNL A   1      37.047  28.806  31.562  1.00  0.00    -0.460 OA
BRANCH  31  32
ATOM     32  C   UNL A   1      37.864  28.484  32.599  1.00  0.00     0.338 C 
ATOM     33  O   UNL A   1      38.118  27.356  33.000  1.00  0.00    -0.246 OA
BRANCH  32  34
ATOM     34  C   UNL A   1      38.587  29.687  33.081  1.00  0.00     0.060 A 
ATOM     35  C   UNL A   1      37.874  30.879  33.291  1.00  0.00     0.016 A 
ATOM     36  C   UNL A   1      39.969  29.662  33.266  1.00  0.00     0.016 A 
ATOM     37  C   UNL A   1      38.541  32.054  33.660  1.00  0.00     0.010 A 
ATOM     38  C   UNL A   1      40.639  30.846  33.603  1.00  0.00     0.010 A 
ATOM     39  C   UNL A   1      39.937  32.056  33.771  1.00  0.00    -0.014 A 
BRANCH  39  40
ATOM     40  C   UNL A   1      40.694  33.336  33.829  1.00  0.00     0.031 A 
ATOM     41  C   UNL A   1      41.280  33.867  32.545  1.00  0.00     0.074 A 
ATOM     42  C   UNL A   1      40.884  34.009  34.978  1.00  0.00     0.049 A 
ATOM     43  N   UNL A   1      42.114  34.855  32.354  1.00  0.00    -0.248 NA
ATOM     44  C   UNL A   1      40.871  33.173  31.315  1.00  0.00     0.031 C 
ATOM     45  C   UNL A   1      40.311  33.654  36.273  1.00  0.00     0.029 A 
ATOM     46  N   UNL A   1      41.636  35.132  35.240  1.00  0.00    -0.354 N 
ATOM     47  C   UNL A   1      42.345  34.893  30.981  1.00  0.00     0.074 A 
ATOM     48  C   UNL A   1      41.586  33.807  30.398  1.00  0.00     0.031 C 
ATOM     49  C   UNL A   1      40.751  34.526  37.199  1.00  0.00     0.029 A 
ATOM     50  C   UNL A   1      41.679  35.470  36.574  1.00  0.00     0.049 A 
ATOM     51  H   UNL A   1      42.100  35.644  34.540  1.00  0.00     0.167 HD
ATOM     52  C   UNL A   1      43.117  35.753  30.272  1.00  0.00     0.034 A 
ATOM     53  C   UNL A   1      42.412  36.404  37.218  1.00  0.00     0.034 A 
ATOM     54  C   UNL A   1      43.884  36.820  30.867  1.00  0.00     0.049 A 
ATOM     55  C   UNL A   1      43.362  37.277  36.424  1.00  0.00     0.074 A 
ATOM     56  C   UNL A   1      44.706  37.742  30.241  1.00  0.00     0.029 A 
ATOM     57  N   UNL A   1      43.935  37.103  32.225  1.00  0.00    -0.354 N 
ATOM     58  N   UNL A   1      43.594  37.290  35.131  1.00  0.00    -0.248 NA
ATOM     59  C   UNL A   1      44.150  38.264  37.178  1.00  0.00     0.031 C 
ATOM     60  C   UNL A   1      45.315  38.527  31.226  1.00  0.00     0.029 A 
ATOM     61  C   UNL A   1      44.798  38.162  32.458  1.00  0.00     0.049 A 
ATOM     62  H   UNL A   1      43.433  36.620  32.921  1.00  0.00     0.167 HD
ATOM     63  C   UNL A   1      44.513  38.317  34.917  1.00  0.00     0.074 A 
ATOM     64  C   UNL A   1      44.793  38.900  36.210  1.00  0.00     0.031 C 
ATOM     65  C   UNL A   1      45.066  38.747  33.753  1.00  0.00     0.034 A 
BRANCH  52  66
ATOM     66  C   UNL A   1      43.213  35.531  28.781  1.00  0.00     0.023 A 
ATOM     67  C   UNL A   1      44.075  34.567  28.230  1.00  0.00     0.031 A 
ATOM     68  C   UNL A   1      42.454  36.318  27.897  1.00  0.00     0.131 A 
ATOM     69  C   UNL A   1      44.214  34.468  26.838  1.00  0.00     0.055 A 
ATOM     70  C   UNL A   1      42.530  36.152  26.513  1.00  0.00     0.041 A 
ATOM     71  F   UNL A   1      41.633  37.272  28.362  1.00  0.00    -0.206 F 
ATOM     72  C   UNL A   1      43.426  35.233  25.975  1.00  0.00     0.022 A 
BRANCH  69  73
ATOM     73  S   UNL A   1      45.546  33.433  26.174  1.00  0.00     0.124 S 
ATOM     74  O   UNL A   1      46.277  34.389  25.346  1.00  0.00    -0.237 OA
ATOM     75  O   UNL A   1      46.228  32.981  27.381  1.00  0.00    -0.237 OA
ATOM     76  O   UNL A   1      44.835  32.393  25.431  1.00  0.00    -0.744 OA
ENDBRANCH  69  73
ENDBRANCH  52  66
BRANCH  53  77
ATOM     77  C   UNL A   1      42.336  36.546  38.704  1.00  0.00     0.023 A 
ATOM     78  C   UNL A   1      41.422  37.430  39.302  1.00  0.00     0.031 A 
ATOM     79  C   UNL A   1      43.234  35.864  39.546  1.00  0.00     0.131 A 
ATOM     80  C   UNL A   1      41.463  37.652  40.688  1.00  0.00     0.055 A 
ATOM     81  C   UNL A   1      43.228  36.040  40.932  1.00  0.00     0.041 A 
ATOM     82  F   UNL A   1      44.139  35.017  39.032  1.00  0.00    -0.206 F 
ATOM     83  C   UNL A   1      42.349  36.950  41.509  1.00  0.00     0.022 A 
BRANCH  80  84
ATOM     84  S   UNL A   1      40.419  38.959  41.390  1.00  0.00     0.124 S 
ATOM     85  O   UNL A   1      40.465  39.969  40.340  1.00  0.00    -0.237 OA
ATOM     86  O   UNL A   1      39.145  38.269  41.563  1.00  0.00    -0.237 OA
ATOM     87  O   UNL A   1      41.107  39.315  42.630  1.00  0.00    -0.744 OA
ENDBRANCH  80  84
ENDBRANCH  53  77
BRANCH  65  88
ATOM     88  C   UNL A   1      45.964  39.962  33.807  1.00  0.00     0.023 A 
ATOM     89  C   UNL A   1      45.457  41.272  33.877  1.00  0.00     0.031 A 
ATOM     90  C   UNL A   1      47.362  39.796  33.807  1.00  0.00     0.131 A 
ATOM     91  C   UNL A   1      46.340  42.364  33.897  1.00  0.00     0.055 A 
ATOM     92  C   UNL A   1      48.235  40.882  33.893  1.00  0.00     0.041 A 
ATOM     93  F   UNL A   1      47.905  38.570  33.738  1.00  0.00    -0.206 F 
ATOM     94  C   UNL A   1      47.724  42.176  33.926  1.00  0.00     0.022 A 
BRANCH  91  95
ATOM     95  S   UNL A   1      45.660  44.043  33.796  1.00  0.00     0.124 S 
ATOM     96  O   UNL A   1      45.395  44.178  32.368  1.00  0.00    -0.237 OA
ATOM     97  O   UNL A   1      44.484  43.956  34.657  1.00  0.00    -0.237 OA
ATOM     98  O   UNL A   1      46.740  44.883  34.308  1.00  0.00    -0.744 OA
ENDBRANCH  91  95
ENDBRANCH  65  88
ENDBRANCH  39  40
ENDBRANCH  32  34
ENDBRANCH  31  32
ENDBRANCH  30  31
ENDBRANCH  29  30
ENDBRANCH  28  29
ENDBRANCH  27  28
ENDBRANCH   1  27
TORSDOF 24
ENDMDL
