MODEL 1
REMARK VINA RESULT:     -10.7      0.000      0.000
REMARK SMILES C[C@@H]1C(=O)NC(=O)CN1C(=O)NC1(CC(=O)OCCOCCOCCOC(=O)c2ccc(-c3c4nc(c(-c5cc(S(=O)(=O)[O-])ccc5F)c5ccc([nH]5)c(-c5cc(S(=O)(=O)[O-])ccc5F)c5nc(c(-c6cc(S(=O)(=O)[O-])ccc6F)c6ccc3[nH]6)C=C5)C=C4)cc2)CCC1
REMARK SMILES IDX 21 1 20 2 19 3 18 4 17 5 15 6 16 7 14 8 13 9 92 10 94 11
REMARK SMILES IDX 93 12 12 13 10 14 11 15 9 17 1 18 2 19 3 20 4 21 5 22 8 23
REMARK SMILES IDX 6 24 7 26 22 27 23 28 24 29 25 30 26 31 27 32 28 33 29 34
REMARK SMILES IDX 30 35 91 36 31 37 90 38 32 39 33 40 34 41 84 42 35 43 89 44
REMARK SMILES IDX 83 45 85 46 36 47 88 48 82 49 81 50 37 52 69 53 49 54 68 55
REMARK SMILES IDX 50 56 53 57 67 58 86 59 51 60 52 61 66 63 87 64 54 65 38 66
REMARK SMILES IDX 39 67 47 68 40 69 46 70 48 71 45 72 41 73 42 74 43 75 44 76
REMARK SMILES IDX 70 77 71 78 79 79 72 80 78 81 80 82 77 83 73 84 74 85 75 86
REMARK SMILES IDX 76 87 55 88 56 89 64 90 57 91 63 92 65 93 62 94 58 95 59 96
REMARK SMILES IDX 60 97 61 98
REMARK H PARENT 12 16 5 25 85 51 53 62
REMARK Flexibility Score: inf
ROOT
ATOM      1  C   UNL A   1      31.983  28.576  26.236  1.00  0.00     0.188 C 
ENDROOT
BRANCH   1   2
ATOM      2  O   UNL A   1      31.939  27.749  25.080  1.00  0.00    -0.376 OA
BRANCH   2   3
ATOM      3  C   UNL A   1      31.967  28.372  23.807  1.00  0.00     0.202 C 
BRANCH   3   4
ATOM      4  C   UNL A   1      32.518  27.554  22.630  1.00  0.00     0.261 C 
BRANCH   4   5
ATOM      5  O   UNL A   1      33.652  26.719  22.954  1.00  0.00    -0.463 OA
BRANCH   5   6
ATOM      6  C   UNL A   1      33.465  25.380  22.827  1.00  0.00     0.308 C 
ATOM      7  O   UNL A   1      33.535  24.780  21.759  1.00  0.00    -0.252 OA
BRANCH   6   8
ATOM      8  C   UNL A   1      33.272  24.627  24.129  1.00  0.00     0.151 C 
BRANCH   8   9
ATOM      9  C   UNL A   1      32.010  23.758  24.419  1.00  0.00     0.052 C 
ATOM     10  C   UNL A   1      30.711  24.598  24.176  1.00  0.00     0.029 C 
ATOM     11  C   UNL A   1      31.614  23.646  25.905  1.00  0.00     0.029 C 
ATOM     12  C   UNL A   1      30.527  24.718  25.691  1.00  0.00     0.005 C 
BRANCH   9  13
ATOM     13  N   UNL A   1      31.977  22.580  23.499  1.00  0.00    -0.332 N 
ATOM     14  C   UNL A   1      32.401  21.309  23.355  1.00  0.00     0.318 C 
ATOM     15  O   UNL A   1      31.780  20.698  22.478  1.00  0.00    -0.249 OA
ATOM     16  H   UNL A   1      31.450  22.824  22.703  1.00  0.00     0.165 HD
BRANCH  14  17
ATOM     17  N   UNL A   1      33.415  20.696  24.017  1.00  0.00    -0.304 N 
ATOM     18  C   UNL A   1      35.708  20.918  25.000  1.00  0.00     0.042 C 
ATOM     19  C   UNL A   1      34.224  21.278  25.083  1.00  0.00     0.174 C 
ATOM     20  C   UNL A   1      33.651  20.872  26.448  1.00  0.00     0.249 C 
ATOM     21  O   UNL A   1      33.928  21.485  27.479  1.00  0.00    -0.272 OA
ATOM     22  N   UNL A   1      32.964  19.686  26.501  1.00  0.00    -0.293 N 
ATOM     23  C   UNL A   1      33.325  19.220  24.100  1.00  0.00     0.222 C 
ATOM     24  C   UNL A   1      32.826  18.776  25.478  1.00  0.00     0.246 C 
ATOM     25  H   UNL A   1      32.529  19.464  27.355  1.00  0.00     0.173 HD
ATOM     26  O   UNL A   1      32.494  17.621  25.735  1.00  0.00    -0.273 OA
ENDBRANCH  14  17
ENDBRANCH   9  13
ENDBRANCH   8   9
ENDBRANCH   6   8
ENDBRANCH   5   6
ENDBRANCH   4   5
ENDBRANCH   3   4
ENDBRANCH   2   3
ENDBRANCH   1   2
BRANCH   1  27
ATOM     27  C   UNL A   1      32.244  30.083  26.076  1.00  0.00     0.188 C 
BRANCH  27  28
ATOM     28  O   UNL A   1      31.451  30.911  26.909  1.00  0.00    -0.376 OA
BRANCH  28  29
ATOM     29  C   UNL A   1      31.297  32.245  26.449  1.00  0.00     0.202 C 
BRANCH  29  30
ATOM     30  C   UNL A   1      32.469  33.148  26.877  1.00  0.00     0.261 C 
BRANCH  30  31
ATOM     31  O   UNL A   1      32.237  33.979  28.037  1.00  0.00    -0.460 OA
BRANCH  31  32
ATOM     32  C   UNL A   1      33.278  34.735  28.462  1.00  0.00     0.338 C 
ATOM     33  O   UNL A   1      33.220  35.927  28.747  1.00  0.00    -0.246 OA
BRANCH  32  34
ATOM     34  C   UNL A   1      34.416  33.841  28.816  1.00  0.00     0.060 A 
ATOM     35  C   UNL A   1      34.126  32.627  29.449  1.00  0.00     0.016 A 
ATOM     36  C   UNL A   1      35.744  34.156  28.540  1.00  0.00     0.016 A 
ATOM     37  C   UNL A   1      35.132  31.753  29.865  1.00  0.00     0.010 A 
ATOM     38  C   UNL A   1      36.764  33.283  28.963  1.00  0.00     0.010 A 
ATOM     39  C   UNL A   1      36.470  32.090  29.659  1.00  0.00    -0.014 A 
BRANCH  39  40
ATOM     40  C   UNL A   1      37.552  31.307  30.326  1.00  0.00     0.031 A 
ATOM     41  C   UNL A   1      37.872  31.611  31.768  1.00  0.00     0.074 A 
ATOM     42  C   UNL A   1      38.220  30.315  29.704  1.00  0.00     0.049 A 
ATOM     43  N   UNL A   1      38.859  31.188  32.515  1.00  0.00    -0.248 NA
ATOM     44  C   UNL A   1      36.949  32.529  32.451  1.00  0.00     0.031 C 
ATOM     45  C   UNL A   1      37.952  29.833  28.350  1.00  0.00     0.029 A 
ATOM     46  N   UNL A   1      39.274  29.541  30.132  1.00  0.00    -0.354 N 
ATOM     47  C   UNL A   1      38.697  31.815  33.748  1.00  0.00     0.074 A 
ATOM     48  C   UNL A   1      37.531  32.665  33.631  1.00  0.00     0.031 C 
ATOM     49  C   UNL A   1      38.829  28.857  28.054  1.00  0.00     0.029 A 
ATOM     50  C   UNL A   1      39.762  28.687  29.168  1.00  0.00     0.049 A 
ATOM     51  H   UNL A   1      39.645  29.592  31.042  1.00  0.00     0.167 HD
ATOM     52  C   UNL A   1      39.449  31.691  34.871  1.00  0.00     0.034 A 
ATOM     53  C   UNL A   1      40.858  27.897  29.162  1.00  0.00     0.034 A 
ATOM     54  C   UNL A   1      40.604  30.832  34.977  1.00  0.00     0.049 A 
ATOM     55  C   UNL A   1      41.755  27.862  30.380  1.00  0.00     0.074 A 
ATOM     56  C   UNL A   1      41.431  30.632  36.070  1.00  0.00     0.029 A 
ATOM     57  N   UNL A   1      41.105  30.035  33.955  1.00  0.00    -0.354 N 
ATOM     58  N   UNL A   1      41.623  28.494  31.523  1.00  0.00    -0.248 NA
ATOM     59  C   UNL A   1      42.949  27.009  30.303  1.00  0.00     0.031 C 
ATOM     60  C   UNL A   1      42.478  29.789  35.682  1.00  0.00     0.029 A 
ATOM     61  C   UNL A   1      42.252  29.379  34.379  1.00  0.00     0.049 A 
ATOM     62  H   UNL A   1      40.704  29.948  33.060  1.00  0.00     0.167 HD
ATOM     63  C   UNL A   1      42.700  28.087  32.311  1.00  0.00     0.074 A 
ATOM     64  C   UNL A   1      43.464  27.148  31.516  1.00  0.00     0.031 C 
ATOM     65  C   UNL A   1      43.021  28.450  33.581  1.00  0.00     0.034 A 
BRANCH  52  66
ATOM     66  C   UNL A   1      39.085  32.570  36.047  1.00  0.00     0.023 A 
ATOM     67  C   UNL A   1      39.567  33.884  36.179  1.00  0.00     0.031 A 
ATOM     68  C   UNL A   1      38.280  32.062  37.082  1.00  0.00     0.131 A 
ATOM     69  C   UNL A   1      39.317  34.607  37.355  1.00  0.00     0.055 A 
ATOM     70  C   UNL A   1      37.955  32.821  38.207  1.00  0.00     0.041 A 
ATOM     71  F   UNL A   1      37.809  30.805  37.029  1.00  0.00    -0.206 F 
ATOM     72  C   UNL A   1      38.491  34.096  38.358  1.00  0.00     0.022 A 
BRANCH  69  73
ATOM     73  S   UNL A   1      40.233  36.149  37.636  1.00  0.00     0.124 S 
ATOM     74  O   UNL A   1      39.278  36.916  38.431  1.00  0.00    -0.237 OA
ATOM     75  O   UNL A   1      41.423  35.683  38.338  1.00  0.00    -0.237 OA
ATOM     76  O   UNL A   1      40.463  36.661  36.287  1.00  0.00    -0.744 OA
ENDBRANCH  69  73
ENDBRANCH  52  66
BRANCH  53  77
ATOM     77  C   UNL A   1      41.224  27.121  27.937  1.00  0.00     0.023 A 
ATOM     78  C   UNL A   1      41.023  25.733  27.860  1.00  0.00     0.031 A 
ATOM     79  C   UNL A   1      41.837  27.757  26.841  1.00  0.00     0.131 A 
ATOM     80  C   UNL A   1      41.462  25.022  26.730  1.00  0.00     0.055 A 
ATOM     81  C   UNL A   1      42.217  27.056  25.695  1.00  0.00     0.041 A 
ATOM     82  F   UNL A   1      42.070  29.079  26.865  1.00  0.00    -0.206 F 
ATOM     83  C   UNL A   1      42.040  25.677  25.640  1.00  0.00     0.022 A 
BRANCH  80  84
ATOM     84  S   UNL A   1      41.342  23.212  26.736  1.00  0.00     0.124 S 
ATOM     85  O   UNL A   1      42.231  22.852  25.637  1.00  0.00    -0.237 OA
ATOM     86  O   UNL A   1      41.810  22.880  28.077  1.00  0.00    -0.237 OA
ATOM     87  O   UNL A   1      39.920  22.964  26.497  1.00  0.00    -0.744 OA
ENDBRANCH  80  84
ENDBRANCH  53  77
BRANCH  65  88
ATOM     88  C   UNL A   1      44.222  27.785  34.216  1.00  0.00     0.023 A 
ATOM     89  C   UNL A   1      44.123  26.574  34.924  1.00  0.00     0.031 A 
ATOM     90  C   UNL A   1      45.494  28.379  34.108  1.00  0.00     0.131 A 
ATOM     91  C   UNL A   1      45.260  26.026  35.540  1.00  0.00     0.055 A 
ATOM     92  C   UNL A   1      46.633  27.795  34.665  1.00  0.00     0.041 A 
ATOM     93  F   UNL A   1      45.653  29.539  33.450  1.00  0.00    -0.206 F 
ATOM     94  C   UNL A   1      46.518  26.619  35.399  1.00  0.00     0.022 A 
BRANCH  91  95
ATOM     95  S   UNL A   1      45.061  24.581  36.620  1.00  0.00     0.124 S 
ATOM     96  O   UNL A   1      43.743  24.091  36.229  1.00  0.00    -0.237 OA
ATOM     97  O   UNL A   1      46.193  23.745  36.235  1.00  0.00    -0.237 OA
ATOM     98  O   UNL A   1      45.138  25.144  37.967  1.00  0.00    -0.744 OA
ENDBRANCH  91  95
ENDBRANCH  65  88
ENDBRANCH  39  40
ENDBRANCH  32  34
ENDBRANCH  31  32
ENDBRANCH  30  31
ENDBRANCH  29  30
ENDBRANCH  28  29
ENDBRANCH  27  28
ENDBRANCH   1  27
TORSDOF 23
ENDMDL
MODEL 2
REMARK VINA RESULT:     -10.3      1.435      2.959
REMARK SMILES C[C@@H]1C(=O)NC(=O)CN1C(=O)NC1(CC(=O)OCCOCCOCCOC(=O)c2ccc(-c3c4nc(c(-c5cc(S(=O)(=O)[O-])ccc5F)c5ccc([nH]5)c(-c5cc(S(=O)(=O)[O-])ccc5F)c5nc(c(-c6cc(S(=O)(=O)[O-])ccc6F)c6ccc3[nH]6)C=C5)C=C4)cc2)CCC1
REMARK SMILES IDX 21 1 20 2 19 3 18 4 17 5 15 6 16 7 14 8 13 9 92 10 94 11
REMARK SMILES IDX 93 12 12 13 10 14 11 15 9 17 1 18 2 19 3 20 4 21 5 22 8 23
REMARK SMILES IDX 6 24 7 26 22 27 23 28 24 29 25 30 26 31 27 32 28 33 29 34
REMARK SMILES IDX 30 35 91 36 31 37 90 38 32 39 33 40 34 41 84 42 35 43 89 44
REMARK SMILES IDX 83 45 85 46 36 47 88 48 82 49 81 50 37 52 69 53 49 54 68 55
REMARK SMILES IDX 50 56 53 57 67 58 86 59 51 60 52 61 66 63 87 64 54 65 38 66
REMARK SMILES IDX 39 67 47 68 40 69 46 70 48 71 45 72 41 73 42 74 43 75 44 76
REMARK SMILES IDX 70 77 71 78 79 79 72 80 78 81 80 82 77 83 73 84 74 85 75 86
REMARK SMILES IDX 76 87 55 88 56 89 64 90 57 91 63 92 65 93 62 94 58 95 59 96
REMARK SMILES IDX 60 97 61 98
REMARK H PARENT 12 16 5 25 85 51 53 62
REMARK Flexibility Score: inf
ROOT
ATOM      1  C   UNL A   1      32.292  28.971  25.062  1.00  0.00     0.188 C 
ENDROOT
BRANCH   1   2
ATOM      2  O   UNL A   1      32.230  27.592  25.401  1.00  0.00    -0.376 OA
BRANCH   2   3
ATOM      3  C   UNL A   1      31.187  27.158  26.259  1.00  0.00     0.202 C 
BRANCH   3   4
ATOM      4  C   UNL A   1      31.399  25.841  27.020  1.00  0.00     0.261 C 
BRANCH   4   5
ATOM      5  O   UNL A   1      32.002  24.783  26.242  1.00  0.00    -0.463 OA
BRANCH   5   6
ATOM      6  C   UNL A   1      32.323  23.651  26.919  1.00  0.00     0.308 C 
ATOM      7  O   UNL A   1      31.503  22.959  27.515  1.00  0.00    -0.252 OA
BRANCH   6   8
ATOM      8  C   UNL A   1      33.769  23.212  26.800  1.00  0.00     0.151 C 
BRANCH   8   9
ATOM      9  C   UNL A   1      34.416  22.806  25.440  1.00  0.00     0.052 C 
ATOM     10  C   UNL A   1      33.486  21.801  24.680  1.00  0.00     0.029 C 
ATOM     11  C   UNL A   1      35.483  21.697  25.522  1.00  0.00     0.029 C 
ATOM     12  C   UNL A   1      34.439  20.664  25.055  1.00  0.00     0.005 C 
BRANCH   9  13
ATOM     13  N   UNL A   1      34.592  24.013  24.576  1.00  0.00    -0.332 N 
ATOM     14  C   UNL A   1      33.960  24.813  23.695  1.00  0.00     0.318 C 
ATOM     15  O   UNL A   1      34.544  25.890  23.527  1.00  0.00    -0.249 OA
ATOM     16  H   UNL A   1      35.512  24.347  24.694  1.00  0.00     0.165 HD
BRANCH  14  17
ATOM     17  N   UNL A   1      32.834  24.537  22.988  1.00  0.00    -0.304 N 
ATOM     18  C   UNL A   1      30.391  23.992  23.073  1.00  0.00     0.042 C 
ATOM     19  C   UNL A   1      31.493  25.033  23.276  1.00  0.00     0.174 C 
ATOM     20  C   UNL A   1      31.210  26.282  22.429  1.00  0.00     0.249 C 
ATOM     21  O   UNL A   1      30.313  27.075  22.718  1.00  0.00    -0.272 OA
ATOM     22  N   UNL A   1      31.877  26.383  21.236  1.00  0.00    -0.293 N 
ATOM     23  C   UNL A   1      33.039  24.224  21.555  1.00  0.00     0.222 C 
ATOM     24  C   UNL A   1      32.694  25.428  20.674  1.00  0.00     0.246 C 
ATOM     25  H   UNL A   1      31.759  27.219  20.730  1.00  0.00     0.173 HD
ATOM     26  O   UNL A   1      32.953  25.483  19.474  1.00  0.00    -0.273 OA
ENDBRANCH  14  17
ENDBRANCH   9  13
ENDBRANCH   8   9
ENDBRANCH   6   8
ENDBRANCH   5   6
ENDBRANCH   4   5
ENDBRANCH   3   4
ENDBRANCH   2   3
ENDBRANCH   1   2
BRANCH   1  27
ATOM     27  C   UNL A   1      31.004  29.812  25.082  1.00  0.00     0.188 C 
BRANCH  27  28
ATOM     28  O   UNL A   1      31.207  31.197  25.303  1.00  0.00    -0.376 OA
BRANCH  28  29
ATOM     29  C   UNL A   1      31.615  31.536  26.621  1.00  0.00     0.202 C 
BRANCH  29  30
ATOM     30  C   UNL A   1      31.828  33.052  26.791  1.00  0.00     0.261 C 
BRANCH  30  31
ATOM     31  O   UNL A   1      32.378  33.475  28.059  1.00  0.00    -0.460 OA
BRANCH  31  32
ATOM     32  C   UNL A   1      33.499  34.236  28.014  1.00  0.00     0.338 C 
ATOM     33  O   UNL A   1      33.524  35.459  27.925  1.00  0.00    -0.246 OA
BRANCH  32  34
ATOM     34  C   UNL A   1      34.672  33.395  28.387  1.00  0.00     0.060 A 
ATOM     35  C   UNL A   1      34.429  32.095  28.845  1.00  0.00     0.016 A 
ATOM     36  C   UNL A   1      35.986  33.843  28.297  1.00  0.00     0.016 A 
ATOM     37  C   UNL A   1      35.463  31.257  29.269  1.00  0.00     0.010 A 
ATOM     38  C   UNL A   1      37.033  33.006  28.728  1.00  0.00     0.010 A 
ATOM     39  C   UNL A   1      36.779  31.719  29.250  1.00  0.00    -0.014 A 
BRANCH  39  40
ATOM     40  C   UNL A   1      37.855  30.947  29.940  1.00  0.00     0.031 A 
ATOM     41  C   UNL A   1      38.125  31.238  31.395  1.00  0.00     0.074 A 
ATOM     42  C   UNL A   1      38.559  29.976  29.326  1.00  0.00     0.049 A 
ATOM     43  N   UNL A   1      39.097  30.823  32.167  1.00  0.00    -0.248 NA
ATOM     44  C   UNL A   1      37.165  32.130  32.061  1.00  0.00     0.031 C 
ATOM     45  C   UNL A   1      38.341  29.507  27.959  1.00  0.00     0.029 A 
ATOM     46  N   UNL A   1      39.614  29.215  29.776  1.00  0.00    -0.354 N 
ATOM     47  C   UNL A   1      38.886  31.431  33.401  1.00  0.00     0.074 A 
ATOM     48  C   UNL A   1      37.708  32.262  33.260  1.00  0.00     0.031 C 
ATOM     49  C   UNL A   1      39.245  28.550  27.678  1.00  0.00     0.029 A 
ATOM     50  C   UNL A   1      40.146  28.383  28.818  1.00  0.00     0.049 A 
ATOM     51  H   UNL A   1      39.956  29.261  30.698  1.00  0.00     0.167 HD
ATOM     52  C   UNL A   1      39.605  31.306  34.545  1.00  0.00     0.034 A 
ATOM     53  C   UNL A   1      41.256  27.613  28.835  1.00  0.00     0.034 A 
ATOM     54  C   UNL A   1      40.772  30.466  34.676  1.00  0.00     0.049 A 
ATOM     55  C   UNL A   1      42.116  27.578  30.079  1.00  0.00     0.074 A 
ATOM     56  C   UNL A   1      41.569  30.268  35.791  1.00  0.00     0.029 A 
ATOM     57  N   UNL A   1      41.319  29.692  33.659  1.00  0.00    -0.354 N 
ATOM     58  N   UNL A   1      41.939  28.192  31.226  1.00  0.00    -0.248 NA
ATOM     59  C   UNL A   1      43.328  26.747  30.028  1.00  0.00     0.031 C 
ATOM     60  C   UNL A   1      42.642  29.448  35.425  1.00  0.00     0.029 A 
ATOM     61  C   UNL A   1      42.464  29.051  34.110  1.00  0.00     0.049 A 
ATOM     62  H   UNL A   1      40.947  29.610  32.752  1.00  0.00     0.167 HD
ATOM     63  C   UNL A   1      42.998  27.794  32.041  1.00  0.00     0.074 A 
ATOM     64  C   UNL A   1      43.803  26.880  31.258  1.00  0.00     0.031 C 
ATOM     65  C   UNL A   1      43.273  28.146  33.325  1.00  0.00     0.034 A 
BRANCH  52  66
ATOM     66  C   UNL A   1      39.190  32.163  35.721  1.00  0.00     0.023 A 
ATOM     67  C   UNL A   1      39.655  33.479  35.891  1.00  0.00     0.031 A 
ATOM     68  C   UNL A   1      38.352  31.631  36.717  1.00  0.00     0.131 A 
ATOM     69  C   UNL A   1      39.354  34.181  37.068  1.00  0.00     0.055 A 
ATOM     70  C   UNL A   1      37.978  32.370  37.841  1.00  0.00     0.041 A 
ATOM     71  F   UNL A   1      37.895  30.371  36.627  1.00  0.00    -0.206 F 
ATOM     72  C   UNL A   1      38.496  33.646  38.032  1.00  0.00     0.022 A 
BRANCH  69  73
ATOM     73  S   UNL A   1      40.244  35.726  37.407  1.00  0.00     0.124 S 
ATOM     74  O   UNL A   1      41.632  35.313  37.212  1.00  0.00    -0.237 OA
ATOM     75  O   UNL A   1      39.696  36.631  36.404  1.00  0.00    -0.237 OA
ATOM     76  O   UNL A   1      39.883  36.033  38.790  1.00  0.00    -0.744 OA
ENDBRANCH  69  73
ENDBRANCH  52  66
BRANCH  53  77
ATOM     77  C   UNL A   1      41.674  26.860  27.613  1.00  0.00     0.023 A 
ATOM     78  C   UNL A   1      41.515  25.467  27.519  1.00  0.00     0.031 A 
ATOM     79  C   UNL A   1      42.293  27.523  26.537  1.00  0.00     0.131 A 
ATOM     80  C   UNL A   1      42.001  24.780  26.393  1.00  0.00     0.055 A 
ATOM     81  C   UNL A   1      42.720  26.845  25.394  1.00  0.00     0.041 A 
ATOM     82  F   UNL A   1      42.486  28.851  26.578  1.00  0.00    -0.206 F 
ATOM     83  C   UNL A   1      42.586  25.462  25.323  1.00  0.00     0.022 A 
BRANCH  80  84
ATOM     84  S   UNL A   1      41.935  22.967  26.380  1.00  0.00     0.124 S 
ATOM     85  O   UNL A   1      42.716  22.633  27.565  1.00  0.00    -0.237 OA
ATOM     86  O   UNL A   1      40.500  22.715  26.463  1.00  0.00    -0.237 OA
ATOM     87  O   UNL A   1      42.553  22.613  25.103  1.00  0.00    -0.744 OA
ENDBRANCH  80  84
ENDBRANCH  53  77
BRANCH  65  88
ATOM     88  C   UNL A   1      44.467  27.495  33.987  1.00  0.00     0.023 A 
ATOM     89  C   UNL A   1      44.350  26.330  34.767  1.00  0.00     0.031 A 
ATOM     90  C   UNL A   1      45.750  28.055  33.834  1.00  0.00     0.131 A 
ATOM     91  C   UNL A   1      45.482  25.796  35.405  1.00  0.00     0.055 A 
ATOM     92  C   UNL A   1      46.882  27.481  34.415  1.00  0.00     0.041 A 
ATOM     93  F   UNL A   1      45.927  29.171  33.107  1.00  0.00    -0.206 F 
ATOM     94  C   UNL A   1      46.750  26.353  35.218  1.00  0.00     0.022 A 
BRANCH  91  95
ATOM     95  S   UNL A   1      45.263  24.422  36.570  1.00  0.00     0.124 S 
ATOM     96  O   UNL A   1      46.559  24.384  37.240  1.00  0.00    -0.237 OA
ATOM     97  O   UNL A   1      44.138  24.875  37.381  1.00  0.00    -0.237 OA
ATOM     98  O   UNL A   1      44.980  23.279  35.704  1.00  0.00    -0.744 OA
ENDBRANCH  91  95
ENDBRANCH  65  88
ENDBRANCH  39  40
ENDBRANCH  32  34
ENDBRANCH  31  32
ENDBRANCH  30  31
ENDBRANCH  29  30
ENDBRANCH  28  29
ENDBRANCH  27  28
ENDBRANCH   1  27
TORSDOF 23
ENDMDL
MODEL 3
REMARK VINA RESULT:     -10.0      1.556      2.043
REMARK SMILES C[C@@H]1C(=O)NC(=O)CN1C(=O)NC1(CC(=O)OCCOCCOCCOC(=O)c2ccc(-c3c4nc(c(-c5cc(S(=O)(=O)[O-])ccc5F)c5ccc([nH]5)c(-c5cc(S(=O)(=O)[O-])ccc5F)c5nc(c(-c6cc(S(=O)(=O)[O-])ccc6F)c6ccc3[nH]6)C=C5)C=C4)cc2)CCC1
REMARK SMILES IDX 21 1 20 2 19 3 18 4 17 5 15 6 16 7 14 8 13 9 92 10 94 11
REMARK SMILES IDX 93 12 12 13 10 14 11 15 9 17 1 18 2 19 3 20 4 21 5 22 8 23
REMARK SMILES IDX 6 24 7 26 22 27 23 28 24 29 25 30 26 31 27 32 28 33 29 34
REMARK SMILES IDX 30 35 91 36 31 37 90 38 32 39 33 40 34 41 84 42 35 43 89 44
REMARK SMILES IDX 83 45 85 46 36 47 88 48 82 49 81 50 37 52 69 53 49 54 68 55
REMARK SMILES IDX 50 56 53 57 67 58 86 59 51 60 52 61 66 63 87 64 54 65 38 66
REMARK SMILES IDX 39 67 47 68 40 69 46 70 48 71 45 72 41 73 42 74 43 75 44 76
REMARK SMILES IDX 70 77 71 78 79 79 72 80 78 81 80 82 77 83 73 84 74 85 75 86
REMARK SMILES IDX 76 87 55 88 56 89 64 90 57 91 63 92 65 93 62 94 58 95 59 96
REMARK SMILES IDX 60 97 61 98
REMARK H PARENT 12 16 5 25 85 51 53 62
REMARK Flexibility Score: inf
ROOT
ATOM      1  C   UNL A   1      32.000  28.935  26.816  1.00  0.00     0.188 C 
ENDROOT
BRANCH   1   2
ATOM      2  O   UNL A   1      32.126  28.215  25.597  1.00  0.00    -0.376 OA
BRANCH   2   3
ATOM      3  C   UNL A   1      32.545  28.920  24.440  1.00  0.00     0.202 C 
BRANCH   3   4
ATOM      4  C   UNL A   1      32.494  28.174  23.099  1.00  0.00     0.261 C 
BRANCH   4   5
ATOM      5  O   UNL A   1      33.672  27.395  22.795  1.00  0.00    -0.463 OA
BRANCH   5   6
ATOM      6  C   UNL A   1      33.457  26.120  22.382  1.00  0.00     0.308 C 
ATOM      7  O   UNL A   1      33.376  25.790  21.202  1.00  0.00    -0.252 OA
BRANCH   6   8
ATOM      8  C   UNL A   1      33.435  25.077  23.483  1.00  0.00     0.151 C 
BRANCH   8   9
ATOM      9  C   UNL A   1      32.157  24.259  23.840  1.00  0.00     0.052 C 
ATOM     10  C   UNL A   1      30.922  24.817  23.055  1.00  0.00     0.029 C 
ATOM     11  C   UNL A   1      31.458  24.666  25.152  1.00  0.00     0.029 C 
ATOM     12  C   UNL A   1      30.420  25.471  24.344  1.00  0.00     0.005 C 
BRANCH   9  13
ATOM     13  N   UNL A   1      32.340  22.826  23.452  1.00  0.00    -0.332 N 
ATOM     14  C   UNL A   1      32.862  21.654  23.864  1.00  0.00     0.318 C 
ATOM     15  O   UNL A   1      32.424  20.689  23.227  1.00  0.00    -0.249 OA
ATOM     16  H   UNL A   1      31.928  22.690  22.568  1.00  0.00     0.165 HD
BRANCH  14  17
ATOM     17  N   UNL A   1      33.800  21.459  24.826  1.00  0.00    -0.304 N 
ATOM     18  C   UNL A   1      36.221  21.080  25.341  1.00  0.00     0.042 C 
ATOM     19  C   UNL A   1      35.137  22.042  24.857  1.00  0.00     0.174 C 
ATOM     20  C   UNL A   1      35.127  23.313  25.718  1.00  0.00     0.249 C 
ATOM     21  O   UNL A   1      36.014  24.163  25.636  1.00  0.00    -0.272 OA
ATOM     22  N   UNL A   1      34.188  23.376  26.715  1.00  0.00    -0.293 N 
ATOM     23  C   UNL A   1      33.277  21.142  26.175  1.00  0.00     0.222 C 
ATOM     24  C   UNL A   1      33.322  22.372  27.085  1.00  0.00     0.246 C 
ATOM     25  H   UNL A   1      34.127  24.221  27.215  1.00  0.00     0.173 HD
ATOM     26  O   UNL A   1      32.779  22.417  28.186  1.00  0.00    -0.273 OA
ENDBRANCH  14  17
ENDBRANCH   9  13
ENDBRANCH   8   9
ENDBRANCH   6   8
ENDBRANCH   5   6
ENDBRANCH   4   5
ENDBRANCH   3   4
ENDBRANCH   2   3
ENDBRANCH   1   2
BRANCH   1  27
ATOM     27  C   UNL A   1      32.308  30.442  26.837  1.00  0.00     0.188 C 
BRANCH  27  28
ATOM     28  O   UNL A   1      31.172  31.279  26.714  1.00  0.00    -0.376 OA
BRANCH  28  29
ATOM     29  C   UNL A   1      31.463  32.657  26.533  1.00  0.00     0.202 C 
BRANCH  29  30
ATOM     30  C   UNL A   1      32.751  33.080  27.264  1.00  0.00     0.261 C 
BRANCH  30  31
ATOM     31  O   UNL A   1      32.584  34.029  28.342  1.00  0.00    -0.460 OA
BRANCH  31  32
ATOM     32  C   UNL A   1      33.615  34.879  28.571  1.00  0.00     0.338 C 
ATOM     33  O   UNL A   1      33.591  36.090  28.381  1.00  0.00    -0.246 OA
BRANCH  32  34
ATOM     34  C   UNL A   1      34.661  34.170  29.361  1.00  0.00     0.060 A 
ATOM     35  C   UNL A   1      36.001  34.392  29.026  1.00  0.00     0.016 A 
ATOM     36  C   UNL A   1      34.364  33.309  30.414  1.00  0.00     0.016 A 
ATOM     37  C   UNL A   1      37.044  33.729  29.676  1.00  0.00     0.010 A 
ATOM     38  C   UNL A   1      35.409  32.632  31.069  1.00  0.00     0.010 A 
ATOM     39  C   UNL A   1      36.756  32.809  30.685  1.00  0.00    -0.014 A 
BRANCH  39  40
ATOM     40  C   UNL A   1      37.826  31.904  31.201  1.00  0.00     0.031 A 
ATOM     41  C   UNL A   1      38.321  32.112  32.611  1.00  0.00     0.074 A 
ATOM     42  C   UNL A   1      38.331  30.889  30.473  1.00  0.00     0.049 A 
ATOM     43  N   UNL A   1      39.338  31.570  33.230  1.00  0.00    -0.248 NA
ATOM     44  C   UNL A   1      37.562  33.073  33.424  1.00  0.00     0.031 C 
ATOM     45  C   UNL A   1      37.881  30.496  29.140  1.00  0.00     0.029 A 
ATOM     46  N   UNL A   1      39.350  30.007  30.755  1.00  0.00    -0.354 N 
ATOM     47  C   UNL A   1      39.363  32.149  34.496  1.00  0.00     0.074 A 
ATOM     48  C   UNL A   1      38.274  33.103  34.538  1.00  0.00     0.031 C 
ATOM     49  C   UNL A   1      38.629  29.463  28.714  1.00  0.00     0.029 A 
ATOM     50  C   UNL A   1      39.654  29.160  29.714  1.00  0.00     0.049 A 
ATOM     51  H   UNL A   1      39.816  29.983  31.622  1.00  0.00     0.167 HD
ATOM     52  C   UNL A   1      40.214  31.908  35.526  1.00  0.00     0.034 A 
ATOM     53  C   UNL A   1      40.666  28.279  29.559  1.00  0.00     0.034 A 
ATOM     54  C   UNL A   1      41.290  30.947  35.474  1.00  0.00     0.049 A 
ATOM     55  C   UNL A   1      41.679  28.109  30.671  1.00  0.00     0.074 A 
ATOM     56  C   UNL A   1      42.205  30.626  36.462  1.00  0.00     0.029 A 
ATOM     57  N   UNL A   1      41.607  30.159  34.374  1.00  0.00    -0.354 N 
ATOM     58  N   UNL A   1      41.725  28.695  31.845  1.00  0.00    -0.248 NA
ATOM     59  C   UNL A   1      42.775  27.160  30.433  1.00  0.00     0.031 C 
ATOM     60  C   UNL A   1      43.124  29.714  35.933  1.00  0.00     0.029 A 
ATOM     61  C   UNL A   1      42.727  29.387  34.646  1.00  0.00     0.049 A 
ATOM     62  H   UNL A   1      41.108  30.150  33.525  1.00  0.00     0.167 HD
ATOM     63  C   UNL A   1      42.837  28.160  32.496  1.00  0.00     0.074 A 
ATOM     64  C   UNL A   1      43.424  27.196  31.588  1.00  0.00     0.031 C 
ATOM     65  C   UNL A   1      43.320  28.433  33.736  1.00  0.00     0.034 A 
BRANCH  52  66
ATOM     66  C   UNL A   1      40.056  32.759  36.766  1.00  0.00     0.023 A 
ATOM     67  C   UNL A   1      39.316  32.329  37.881  1.00  0.00     0.031 A 
ATOM     68  C   UNL A   1      40.617  34.048  36.810  1.00  0.00     0.131 A 
ATOM     69  C   UNL A   1      39.081  33.211  38.948  1.00  0.00     0.055 A 
ATOM     70  C   UNL A   1      40.460  34.886  37.916  1.00  0.00     0.041 A 
ATOM     71  F   UNL A   1      41.313  34.528  35.767  1.00  0.00    -0.206 F 
ATOM     72  C   UNL A   1      39.671  34.476  38.986  1.00  0.00     0.022 A 
BRANCH  69  73
ATOM     73  S   UNL A   1      37.847  32.751  40.197  1.00  0.00     0.124 S 
ATOM     74  O   UNL A   1      38.086  33.756  41.229  1.00  0.00    -0.237 OA
ATOM     75  O   UNL A   1      36.594  32.873  39.461  1.00  0.00    -0.237 OA
ATOM     76  O   UNL A   1      38.225  31.388  40.566  1.00  0.00    -0.744 OA
ENDBRANCH  69  73
ENDBRANCH  52  66
BRANCH  53  77
ATOM     77  C   UNL A   1      40.830  27.533  28.274  1.00  0.00     0.023 A 
ATOM     78  C   UNL A   1      40.521  26.166  28.174  1.00  0.00     0.031 A 
ATOM     79  C   UNL A   1      41.356  28.172  27.134  1.00  0.00     0.131 A 
ATOM     80  C   UNL A   1      40.773  25.476  26.976  1.00  0.00     0.055 A 
ATOM     81  C   UNL A   1      41.548  27.496  25.929  1.00  0.00     0.041 A 
ATOM     82  F   UNL A   1      41.685  29.472  27.176  1.00  0.00    -0.206 F 
ATOM     83  C   UNL A   1      41.267  26.135  25.848  1.00  0.00     0.022 A 
BRANCH  80  84
ATOM     84  S   UNL A   1      40.524  23.679  26.934  1.00  0.00     0.124 S 
ATOM     85  O   UNL A   1      39.155  23.581  26.438  1.00  0.00    -0.237 OA
ATOM     86  O   UNL A   1      41.573  23.248  26.016  1.00  0.00    -0.237 OA
ATOM     87  O   UNL A   1      40.715  23.276  28.326  1.00  0.00    -0.744 OA
ENDBRANCH  80  84
ENDBRANCH  53  77
BRANCH  65  88
ATOM     88  C   UNL A   1      44.515  27.637  34.211  1.00  0.00     0.023 A 
ATOM     89  C   UNL A   1      44.381  26.394  34.856  1.00  0.00     0.031 A 
ATOM     90  C   UNL A   1      45.817  28.136  34.014  1.00  0.00     0.131 A 
ATOM     91  C   UNL A   1      45.521  25.721  35.326  1.00  0.00     0.055 A 
ATOM     92  C   UNL A   1      46.949  27.431  34.424  1.00  0.00     0.041 A 
ATOM     93  F   UNL A   1      46.011  29.321  33.411  1.00  0.00    -0.206 F 
ATOM     94  C   UNL A   1      46.805  26.222  35.097  1.00  0.00     0.022 A 
BRANCH  91  95
ATOM     95  S   UNL A   1      45.302  24.229  36.336  1.00  0.00     0.124 S 
ATOM     96  O   UNL A   1      46.655  23.683  36.366  1.00  0.00    -0.237 OA
ATOM     97  O   UNL A   1      44.806  24.774  37.595  1.00  0.00    -0.237 OA
ATOM     98  O   UNL A   1      44.333  23.440  35.578  1.00  0.00    -0.744 OA
ENDBRANCH  91  95
ENDBRANCH  65  88
ENDBRANCH  39  40
ENDBRANCH  32  34
ENDBRANCH  31  32
ENDBRANCH  30  31
ENDBRANCH  29  30
ENDBRANCH  28  29
ENDBRANCH  27  28
ENDBRANCH   1  27
TORSDOF 23
ENDMDL
