MODEL 1
REMARK VINA RESULT:     -11.2      0.000      0.000
REMARK SMILES CC(=O)c1nnn(-c2ccc(C(=O)OCCOCCOCCOC(=O)c3ccc(-c4c5nc(c(-c6cc(S(=O)(=O)[O-])ccc6F)c6ccc([nH]6)c(-c6cc(S(=O)(=O)[O-])ccc6F)c6nc(c(-c7cc(S(=O)(=O)[O-])ccc7F)c7ccc4[nH]7)C=C6)C=C5)cc3)cc2)c1C
REMARK SMILES IDX 19 1 18 2 17 3 16 4 15 5 14 6 12 7 13 8 11 9 8 10 9 11 90 12
REMARK SMILES IDX 10 13 89 14 7 15 4 16 5 17 91 18 6 19 92 20 2 21 1 22 3 23
REMARK SMILES IDX 20 24 21 25 22 26 23 27 24 28 25 29 26 30 27 31 88 32 28 33
REMARK SMILES IDX 87 34 29 35 30 36 31 37 81 38 32 39 86 40 80 41 82 42 33 43
REMARK SMILES IDX 85 44 79 45 78 46 34 48 66 49 46 50 65 51 47 52 50 53 64 54
REMARK SMILES IDX 83 55 48 56 49 57 63 59 84 60 51 61 35 62 36 63 44 64 37 65
REMARK SMILES IDX 43 66 45 67 42 68 38 69 39 70 40 71 41 72 67 73 68 74 76 75
REMARK SMILES IDX 69 76 75 77 77 78 74 79 70 80 71 81 72 82 73 83 52 84 53 85
REMARK SMILES IDX 61 86 54 87 60 88 62 89 59 90 55 91 56 92 57 93 58 94
REMARK H PARENT 82 47 50 58
REMARK Flexibility Score: inf
ROOT
ATOM      1  C   UNL A   1      35.055  33.642  28.064  1.00  0.00     0.188 C 
ENDROOT
BRANCH   1   2
ATOM      2  C   UNL A   1      34.162  32.390  27.906  1.00  0.00     0.188 C 
BRANCH   2   3
ATOM      3  O   UNL A   1      34.625  31.216  27.249  1.00  0.00    -0.376 OA
BRANCH   3   4
ATOM      4  C   UNL A   1      34.089  29.947  27.591  1.00  0.00     0.202 C 
BRANCH   4   5
ATOM      5  C   UNL A   1      33.710  28.975  26.464  1.00  0.00     0.261 C 
BRANCH   5   6
ATOM      6  O   UNL A   1      33.615  27.602  26.876  1.00  0.00    -0.460 OA
BRANCH   6   7
ATOM      7  C   UNL A   1      32.394  27.033  26.748  1.00  0.00     0.338 C 
ATOM      8  O   UNL A   1      31.340  27.437  27.209  1.00  0.00    -0.246 OA
BRANCH   7   9
ATOM      9  C   UNL A   1      32.467  25.862  25.844  1.00  0.00     0.060 A 
ATOM     10  C   UNL A   1      32.506  23.505  24.374  1.00  0.00     0.067 A 
ATOM     11  C   UNL A   1      31.276  24.073  24.714  1.00  0.00     0.029 A 
ATOM     12  C   UNL A   1      33.705  24.182  24.638  1.00  0.00     0.029 A 
ATOM     13  C   UNL A   1      31.264  25.240  25.478  1.00  0.00     0.018 A 
ATOM     14  C   UNL A   1      33.687  25.369  25.371  1.00  0.00     0.018 A 
BRANCH  10  15
ATOM     15  N   UNL A   1      32.535  22.160  23.945  1.00  0.00    -0.217 N 
ATOM     16  C   UNL A   1      32.533  19.976  23.895  1.00  0.00     0.151 A 
ATOM     17  N   UNL A   1      32.153  20.454  22.668  1.00  0.00    -0.126 NA
ATOM     18  C   UNL A   1      32.766  21.045  24.746  1.00  0.00     0.073 A 
ATOM     19  N   UNL A   1      32.054  21.773  22.746  1.00  0.00    -0.061 NA
ATOM     20  C   UNL A   1      33.060  21.129  26.197  1.00  0.00     0.069 C 
BRANCH  16  21
ATOM     21  C   UNL A   1      32.559  18.548  24.182  1.00  0.00     0.181 C 
ATOM     22  C   UNL A   1      33.127  17.626  23.129  1.00  0.00     0.095 C 
ATOM     23  O   UNL A   1      32.153  18.091  25.250  1.00  0.00    -0.293 OA
ENDBRANCH  16  21
ENDBRANCH  10  15
ENDBRANCH   7   9
ENDBRANCH   6   7
ENDBRANCH   5   6
ENDBRANCH   4   5
ENDBRANCH   3   4
ENDBRANCH   2   3
ENDBRANCH   1   2
BRANCH   1  24
ATOM     24  O   UNL A   1      35.636  33.827  29.347  1.00  0.00    -0.376 OA
BRANCH  24  25
ATOM     25  C   UNL A   1      35.014  33.110  30.408  1.00  0.00     0.202 C 
BRANCH  25  26
ATOM     26  C   UNL A   1      35.928  32.117  31.126  1.00  0.00     0.261 C 
BRANCH  26  27
ATOM     27  O   UNL A   1      36.340  31.007  30.336  1.00  0.00    -0.460 OA
BRANCH  27  28
ATOM     28  C   UNL A   1      36.667  29.887  31.018  1.00  0.00     0.338 C 
ATOM     29  O   UNL A   1      36.277  29.572  32.127  1.00  0.00    -0.246 OA
BRANCH  28  30
ATOM     30  C   UNL A   1      37.635  29.125  30.219  1.00  0.00     0.060 A 
ATOM     31  C   UNL A   1      38.183  27.973  30.786  1.00  0.00     0.016 A 
ATOM     32  C   UNL A   1      38.147  29.679  29.035  1.00  0.00     0.016 A 
ATOM     33  C   UNL A   1      39.357  27.474  30.259  1.00  0.00     0.010 A 
ATOM     34  C   UNL A   1      39.325  29.190  28.520  1.00  0.00     0.010 A 
ATOM     35  C   UNL A   1      39.955  28.140  29.184  1.00  0.00    -0.014 A 
BRANCH  35  36
ATOM     36  C   UNL A   1      41.302  27.754  28.816  1.00  0.00     0.031 A 
ATOM     37  C   UNL A   1      41.444  26.465  28.117  1.00  0.00     0.074 A 
ATOM     38  C   UNL A   1      42.352  28.574  29.008  1.00  0.00     0.049 A 
ATOM     39  N   UNL A   1      42.087  25.420  28.515  1.00  0.00    -0.248 NA
ATOM     40  C   UNL A   1      40.713  26.283  26.857  1.00  0.00     0.031 C 
ATOM     41  C   UNL A   1      42.316  29.986  29.402  1.00  0.00     0.029 A 
ATOM     42  N   UNL A   1      43.674  28.342  28.774  1.00  0.00    -0.354 N 
ATOM     43  C   UNL A   1      42.027  24.517  27.462  1.00  0.00     0.074 A 
ATOM     44  C   UNL A   1      41.042  25.030  26.546  1.00  0.00     0.031 C 
ATOM     45  C   UNL A   1      43.528  30.535  29.173  1.00  0.00     0.029 A 
ATOM     46  C   UNL A   1      44.444  29.495  28.732  1.00  0.00     0.049 A 
ATOM     47  H   UNL A   1      44.047  27.440  28.646  1.00  0.00     0.167 HD
ATOM     48  C   UNL A   1      42.951  23.528  27.324  1.00  0.00     0.034 A 
ATOM     49  C   UNL A   1      45.721  29.605  28.289  1.00  0.00     0.034 A 
ATOM     50  C   UNL A   1      43.646  23.277  28.567  1.00  0.00     0.049 A 
ATOM     51  C   UNL A   1      46.343  28.261  28.365  1.00  0.00     0.074 A 
ATOM     52  C   UNL A   1      43.245  22.938  29.846  1.00  0.00     0.029 A 
ATOM     53  N   UNL A   1      44.953  23.692  28.691  1.00  0.00    -0.354 N 
ATOM     54  N   UNL A   1      46.591  27.637  29.483  1.00  0.00    -0.248 NA
ATOM     55  C   UNL A   1      46.326  27.414  27.181  1.00  0.00     0.031 C 
ATOM     56  C   UNL A   1      44.150  23.612  30.715  1.00  0.00     0.029 A 
ATOM     57  C   UNL A   1      45.076  24.290  29.921  1.00  0.00     0.049 A 
ATOM     58  H   UNL A   1      45.666  23.582  28.021  1.00  0.00     0.167 HD
ATOM     59  C   UNL A   1      46.344  26.300  29.214  1.00  0.00     0.074 A 
ATOM     60  C   UNL A   1      46.311  26.210  27.759  1.00  0.00     0.031 C 
ATOM     61  C   UNL A   1      45.909  25.449  30.190  1.00  0.00     0.034 A 
BRANCH  48  62
ATOM     62  C   UNL A   1      43.446  23.006  25.996  1.00  0.00     0.023 A 
ATOM     63  C   UNL A   1      43.482  21.611  25.822  1.00  0.00     0.031 A 
ATOM     64  C   UNL A   1      44.132  23.764  25.019  1.00  0.00     0.131 A 
ATOM     65  C   UNL A   1      44.238  21.029  24.790  1.00  0.00     0.055 A 
ATOM     66  C   UNL A   1      44.813  23.184  23.944  1.00  0.00     0.041 A 
ATOM     67  F   UNL A   1      44.270  25.093  25.098  1.00  0.00    -0.206 F 
ATOM     68  C   UNL A   1      44.896  21.807  23.843  1.00  0.00     0.022 A 
BRANCH  65  69
ATOM     69  S   UNL A   1      44.513  19.240  24.836  1.00  0.00     0.124 S 
ATOM     70  O   UNL A   1      43.332  18.780  25.560  1.00  0.00    -0.237 OA
ATOM     71  O   UNL A   1      44.568  18.911  23.416  1.00  0.00    -0.237 OA
ATOM     72  O   UNL A   1      45.776  19.111  25.557  1.00  0.00    -0.744 OA
ENDBRANCH  65  69
ENDBRANCH  48  62
BRANCH  49  73
ATOM     73  C   UNL A   1      46.315  30.758  27.566  1.00  0.00     0.023 A 
ATOM     74  C   UNL A   1      45.544  31.609  26.754  1.00  0.00     0.031 A 
ATOM     75  C   UNL A   1      47.638  31.173  27.845  1.00  0.00     0.131 A 
ATOM     76  C   UNL A   1      46.102  32.805  26.248  1.00  0.00     0.055 A 
ATOM     77  C   UNL A   1      48.193  32.342  27.324  1.00  0.00     0.041 A 
ATOM     78  F   UNL A   1      48.415  30.499  28.708  1.00  0.00    -0.206 F 
ATOM     79  C   UNL A   1      47.422  33.169  26.526  1.00  0.00     0.022 A 
BRANCH  76  80
ATOM     80  S   UNL A   1      45.063  33.974  25.321  1.00  0.00     0.124 S 
ATOM     81  O   UNL A   1      44.280  33.086  24.471  1.00  0.00    -0.237 OA
ATOM     82  O   UNL A   1      44.338  34.663  26.383  1.00  0.00    -0.237 OA
ATOM     83  O   UNL A   1      46.038  34.804  24.612  1.00  0.00    -0.744 OA
ENDBRANCH  76  80
ENDBRANCH  49  73
BRANCH  61  84
ATOM     84  C   UNL A   1      46.064  25.863  31.638  1.00  0.00     0.023 A 
ATOM     85  C   UNL A   1      45.001  26.282  32.470  1.00  0.00     0.031 A 
ATOM     86  C   UNL A   1      47.331  25.709  32.231  1.00  0.00     0.131 A 
ATOM     87  C   UNL A   1      45.232  26.546  33.832  1.00  0.00     0.055 A 
ATOM     88  C   UNL A   1      47.553  25.955  33.585  1.00  0.00     0.041 A 
ATOM     89  F   UNL A   1      48.376  25.282  31.502  1.00  0.00    -0.206 F 
ATOM     90  C   UNL A   1      46.504  26.382  34.391  1.00  0.00     0.022 A 
BRANCH  87  91
ATOM     91  S   UNL A   1      43.878  27.123  34.903  1.00  0.00     0.124 S 
ATOM     92  O   UNL A   1      42.736  27.202  34.000  1.00  0.00    -0.237 OA
ATOM     93  O   UNL A   1      43.817  26.077  35.921  1.00  0.00    -0.237 OA
ATOM     94  O   UNL A   1      44.358  28.417  35.392  1.00  0.00    -0.744 OA
ENDBRANCH  87  91
ENDBRANCH  61  84
ENDBRANCH  35  36
ENDBRANCH  28  30
ENDBRANCH  27  28
ENDBRANCH  26  27
ENDBRANCH  25  26
ENDBRANCH  24  25
ENDBRANCH   1  24
TORSDOF 22
ENDMDL
MODEL 2
REMARK VINA RESULT:     -11.0      4.673     10.066
REMARK SMILES CC(=O)c1nnn(-c2ccc(C(=O)OCCOCCOCCOC(=O)c3ccc(-c4c5nc(c(-c6cc(S(=O)(=O)[O-])ccc6F)c6ccc([nH]6)c(-c6cc(S(=O)(=O)[O-])ccc6F)c6nc(c(-c7cc(S(=O)(=O)[O-])ccc7F)c7ccc4[nH]7)C=C6)C=C5)cc3)cc2)c1C
REMARK SMILES IDX 19 1 18 2 17 3 16 4 15 5 14 6 12 7 13 8 11 9 8 10 9 11 90 12
REMARK SMILES IDX 10 13 89 14 7 15 4 16 5 17 91 18 6 19 92 20 2 21 1 22 3 23
REMARK SMILES IDX 20 24 21 25 22 26 23 27 24 28 25 29 26 30 27 31 88 32 28 33
REMARK SMILES IDX 87 34 29 35 30 36 31 37 81 38 32 39 86 40 80 41 82 42 33 43
REMARK SMILES IDX 85 44 79 45 78 46 34 48 66 49 46 50 65 51 47 52 50 53 64 54
REMARK SMILES IDX 83 55 48 56 49 57 63 59 84 60 51 61 35 62 36 63 44 64 37 65
REMARK SMILES IDX 43 66 45 67 42 68 38 69 39 70 40 71 41 72 67 73 68 74 76 75
REMARK SMILES IDX 69 76 75 77 77 78 74 79 70 80 71 81 72 82 73 83 52 84 53 85
REMARK SMILES IDX 61 86 54 87 60 88 62 89 59 90 55 91 56 92 57 93 58 94
REMARK H PARENT 82 47 50 58
REMARK Flexibility Score: inf
ROOT
ATOM      1  C   UNL A   1      32.905  36.101  30.755  1.00  0.00     0.188 C 
ENDROOT
BRANCH   1   2
ATOM      2  C   UNL A   1      33.348  35.717  32.186  1.00  0.00     0.188 C 
BRANCH   2   3
ATOM      3  O   UNL A   1      34.696  35.375  32.487  1.00  0.00    -0.376 OA
BRANCH   3   4
ATOM      4  C   UNL A   1      35.077  35.087  33.824  1.00  0.00     0.202 C 
BRANCH   4   5
ATOM      5  C   UNL A   1      35.046  33.629  34.306  1.00  0.00     0.261 C 
BRANCH   5   6
ATOM      6  O   UNL A   1      36.330  32.987  34.331  1.00  0.00    -0.460 OA
BRANCH   6   7
ATOM      7  C   UNL A   1      36.628  32.226  33.253  1.00  0.00     0.338 C 
ATOM      8  O   UNL A   1      35.903  31.420  32.696  1.00  0.00    -0.246 OA
BRANCH   7   9
ATOM      9  C   UNL A   1      37.967  32.583  32.729  1.00  0.00     0.060 A 
ATOM     10  C   UNL A   1      40.553  33.317  32.025  1.00  0.00     0.067 A 
ATOM     11  C   UNL A   1      40.353  32.131  32.736  1.00  0.00     0.029 A 
ATOM     12  C   UNL A   1      39.462  34.055  31.543  1.00  0.00     0.029 A 
ATOM     13  C   UNL A   1      39.055  31.784  33.113  1.00  0.00     0.018 A 
ATOM     14  C   UNL A   1      38.163  33.684  31.890  1.00  0.00     0.018 A 
BRANCH  10  15
ATOM     15  N   UNL A   1      41.854  33.864  31.972  1.00  0.00    -0.217 N 
ATOM     16  C   UNL A   1      43.779  34.626  31.275  1.00  0.00     0.151 A 
ATOM     17  N   UNL A   1      43.522  35.126  32.525  1.00  0.00    -0.126 NA
ATOM     18  C   UNL A   1      42.717  33.826  30.881  1.00  0.00     0.073 A 
ATOM     19  N   UNL A   1      42.306  34.744  32.887  1.00  0.00    -0.061 NA
ATOM     20  C   UNL A   1      42.389  33.151  29.602  1.00  0.00     0.069 C 
BRANCH  16  21
ATOM     21  C   UNL A   1      44.967  35.015  30.528  1.00  0.00     0.181 C 
ATOM     22  C   UNL A   1      45.811  33.920  29.922  1.00  0.00     0.095 C 
ATOM     23  O   UNL A   1      45.277  36.196  30.369  1.00  0.00    -0.293 OA
ENDBRANCH  16  21
ENDBRANCH  10  15
ENDBRANCH   7   9
ENDBRANCH   6   7
ENDBRANCH   5   6
ENDBRANCH   4   5
ENDBRANCH   3   4
ENDBRANCH   2   3
ENDBRANCH   1   2
BRANCH   1  24
ATOM     24  O   UNL A   1      32.862  35.037  29.816  1.00  0.00    -0.376 OA
BRANCH  24  25
ATOM     25  C   UNL A   1      34.121  34.653  29.271  1.00  0.00     0.202 C 
BRANCH  25  26
ATOM     26  C   UNL A   1      34.071  33.430  28.357  1.00  0.00     0.261 C 
BRANCH  26  27
ATOM     27  O   UNL A   1      35.320  32.773  28.169  1.00  0.00    -0.460 OA
BRANCH  27  28
ATOM     28  C   UNL A   1      35.276  31.423  28.131  1.00  0.00     0.338 C 
ATOM     29  O   UNL A   1      34.446  30.739  27.561  1.00  0.00    -0.246 OA
BRANCH  28  30
ATOM     30  C   UNL A   1      36.376  30.901  28.952  1.00  0.00     0.060 A 
ATOM     31  C   UNL A   1      37.585  31.601  28.942  1.00  0.00     0.016 A 
ATOM     32  C   UNL A   1      36.267  29.625  29.528  1.00  0.00     0.016 A 
ATOM     33  C   UNL A   1      38.728  30.946  29.356  1.00  0.00     0.010 A 
ATOM     34  C   UNL A   1      37.409  28.969  29.926  1.00  0.00     0.010 A 
ATOM     35  C   UNL A   1      38.635  29.611  29.763  1.00  0.00    -0.014 A 
BRANCH  35  36
ATOM     36  C   UNL A   1      39.869  28.874  29.947  1.00  0.00     0.031 A 
ATOM     37  C   UNL A   1      40.324  28.699  31.338  1.00  0.00     0.074 A 
ATOM     38  C   UNL A   1      40.508  28.294  28.915  1.00  0.00     0.049 A 
ATOM     39  N   UNL A   1      41.414  29.135  31.871  1.00  0.00    -0.248 NA
ATOM     40  C   UNL A   1      39.417  28.026  32.277  1.00  0.00     0.031 C 
ATOM     41  C   UNL A   1      40.015  28.127  27.545  1.00  0.00     0.029 A 
ATOM     42  N   UNL A   1      41.695  27.624  28.910  1.00  0.00    -0.354 N 
ATOM     43  C   UNL A   1      41.441  28.611  33.157  1.00  0.00     0.074 A 
ATOM     44  C   UNL A   1      40.126  28.082  33.403  1.00  0.00     0.031 C 
ATOM     45  C   UNL A   1      40.791  27.226  26.906  1.00  0.00     0.029 A 
ATOM     46  C   UNL A   1      41.892  26.847  27.778  1.00  0.00     0.049 A 
ATOM     47  H   UNL A   1      42.350  27.685  29.642  1.00  0.00     0.167 HD
ATOM     48  C   UNL A   1      42.611  28.462  33.835  1.00  0.00     0.034 A 
ATOM     49  C   UNL A   1      42.845  25.898  27.598  1.00  0.00     0.034 A 
ATOM     50  C   UNL A   1      43.656  29.292  33.278  1.00  0.00     0.049 A 
ATOM     51  C   UNL A   1      43.950  26.184  28.544  1.00  0.00     0.074 A 
ATOM     52  C   UNL A   1      43.787  30.647  33.036  1.00  0.00     0.029 A 
ATOM     53  N   UNL A   1      44.664  28.692  32.558  1.00  0.00    -0.354 N 
ATOM     54  N   UNL A   1      44.721  27.233  28.466  1.00  0.00    -0.248 NA
ATOM     55  C   UNL A   1      43.957  25.512  29.835  1.00  0.00     0.031 C 
ATOM     56  C   UNL A   1      44.542  30.743  31.832  1.00  0.00     0.029 A 
ATOM     57  C   UNL A   1      44.863  29.446  31.427  1.00  0.00     0.049 A 
ATOM     58  H   UNL A   1      45.151  27.874  32.807  1.00  0.00     0.167 HD
ATOM     59  C   UNL A   1      44.971  27.597  29.779  1.00  0.00     0.074 A 
ATOM     60  C   UNL A   1      44.585  26.434  30.570  1.00  0.00     0.031 C 
ATOM     61  C   UNL A   1      45.197  28.899  30.124  1.00  0.00     0.034 A 
BRANCH  48  62
ATOM     62  C   UNL A   1      42.895  27.338  34.802  1.00  0.00     0.023 A 
ATOM     63  C   UNL A   1      43.695  26.276  34.343  1.00  0.00     0.031 A 
ATOM     64  C   UNL A   1      42.215  27.111  36.021  1.00  0.00     0.131 A 
ATOM     65  C   UNL A   1      43.725  25.046  35.022  1.00  0.00     0.055 A 
ATOM     66  C   UNL A   1      42.314  25.915  36.738  1.00  0.00     0.041 A 
ATOM     67  F   UNL A   1      41.343  27.985  36.539  1.00  0.00    -0.206 F 
ATOM     68  C   UNL A   1      43.047  24.860  36.223  1.00  0.00     0.022 A 
BRANCH  65  69
ATOM     69  S   UNL A   1      44.496  23.632  34.195  1.00  0.00     0.124 S 
ATOM     70  O   UNL A   1      43.606  23.436  33.055  1.00  0.00    -0.237 OA
ATOM     71  O   UNL A   1      45.825  24.152  33.893  1.00  0.00    -0.237 OA
ATOM     72  O   UNL A   1      44.450  22.582  35.209  1.00  0.00    -0.744 OA
ENDBRANCH  65  69
ENDBRANCH  48  62
BRANCH  49  73
ATOM     73  C   UNL A   1      42.703  24.631  26.838  1.00  0.00     0.023 A 
ATOM     74  C   UNL A   1      43.748  24.107  26.056  1.00  0.00     0.031 A 
ATOM     75  C   UNL A   1      41.585  23.790  27.050  1.00  0.00     0.131 A 
ATOM     76  C   UNL A   1      43.647  22.806  25.514  1.00  0.00     0.055 A 
ATOM     77  C   UNL A   1      41.477  22.516  26.493  1.00  0.00     0.041 A 
ATOM     78  F   UNL A   1      40.592  24.144  27.881  1.00  0.00    -0.206 F 
ATOM     79  C   UNL A   1      42.514  22.014  25.725  1.00  0.00     0.022 A 
BRANCH  76  80
ATOM     80  S   UNL A   1      45.055  22.075  24.627  1.00  0.00     0.124 S 
ATOM     81  O   UNL A   1      45.201  22.970  23.486  1.00  0.00    -0.237 OA
ATOM     82  O   UNL A   1      46.116  22.120  25.628  1.00  0.00    -0.237 OA
ATOM     83  O   UNL A   1      44.586  20.728  24.298  1.00  0.00    -0.744 OA
ENDBRANCH  76  80
ENDBRANCH  49  73
BRANCH  61  84
ATOM     84  C   UNL A   1      45.557  29.888  29.036  1.00  0.00     0.023 A 
ATOM     85  C   UNL A   1      46.878  30.211  28.651  1.00  0.00     0.031 A 
ATOM     86  C   UNL A   1      44.507  30.436  28.276  1.00  0.00     0.131 A 
ATOM     87  C   UNL A   1      47.105  31.066  27.557  1.00  0.00     0.055 A 
ATOM     88  C   UNL A   1      44.736  31.268  27.181  1.00  0.00     0.041 A 
ATOM     89  F   UNL A   1      43.228  30.142  28.570  1.00  0.00    -0.206 F 
ATOM     90  C   UNL A   1      46.039  31.592  26.821  1.00  0.00     0.022 A 
BRANCH  87  91
ATOM     91  S   UNL A   1      48.803  31.517  27.076  1.00  0.00     0.124 S 
ATOM     92  O   UNL A   1      49.343  30.281  26.524  1.00  0.00    -0.237 OA
ATOM     93  O   UNL A   1      48.580  32.602  26.124  1.00  0.00    -0.237 OA
ATOM     94  O   UNL A   1      49.413  31.936  28.340  1.00  0.00    -0.744 OA
ENDBRANCH  87  91
ENDBRANCH  61  84
ENDBRANCH  35  36
ENDBRANCH  28  30
ENDBRANCH  27  28
ENDBRANCH  26  27
ENDBRANCH  25  26
ENDBRANCH  24  25
ENDBRANCH   1  24
TORSDOF 22
ENDMDL
MODEL 3
REMARK VINA RESULT:     -11.0      4.658     10.989
REMARK SMILES CC(=O)c1nnn(-c2ccc(C(=O)OCCOCCOCCOC(=O)c3ccc(-c4c5nc(c(-c6cc(S(=O)(=O)[O-])ccc6F)c6ccc([nH]6)c(-c6cc(S(=O)(=O)[O-])ccc6F)c6nc(c(-c7cc(S(=O)(=O)[O-])ccc7F)c7ccc4[nH]7)C=C6)C=C5)cc3)cc2)c1C
REMARK SMILES IDX 19 1 18 2 17 3 16 4 15 5 14 6 12 7 13 8 11 9 8 10 9 11 90 12
REMARK SMILES IDX 10 13 89 14 7 15 4 16 5 17 91 18 6 19 92 20 2 21 1 22 3 23
REMARK SMILES IDX 20 24 21 25 22 26 23 27 24 28 25 29 26 30 27 31 88 32 28 33
REMARK SMILES IDX 87 34 29 35 30 36 31 37 81 38 32 39 86 40 80 41 82 42 33 43
REMARK SMILES IDX 85 44 79 45 78 46 34 48 66 49 46 50 65 51 47 52 50 53 64 54
REMARK SMILES IDX 83 55 48 56 49 57 63 59 84 60 51 61 35 62 36 63 44 64 37 65
REMARK SMILES IDX 43 66 45 67 42 68 38 69 39 70 40 71 41 72 67 73 68 74 76 75
REMARK SMILES IDX 69 76 75 77 77 78 74 79 70 80 71 81 72 82 73 83 52 84 53 85
REMARK SMILES IDX 61 86 54 87 60 88 62 89 59 90 55 91 56 92 57 93 58 94
REMARK H PARENT 82 47 50 58
REMARK Flexibility Score: inf
ROOT
ATOM      1  C   UNL A   1      36.831  22.531  24.610  1.00  0.00     0.188 C 
ENDROOT
BRANCH   1   2
ATOM      2  C   UNL A   1      35.382  21.993  24.616  1.00  0.00     0.188 C 
BRANCH   2   3
ATOM      3  O   UNL A   1      34.461  22.306  23.578  1.00  0.00    -0.376 OA
BRANCH   3   4
ATOM      4  C   UNL A   1      33.065  22.182  23.800  1.00  0.00     0.202 C 
BRANCH   4   5
ATOM      5  C   UNL A   1      32.117  23.198  23.147  1.00  0.00     0.261 C 
BRANCH   5   6
ATOM      6  O   UNL A   1      32.157  24.506  23.736  1.00  0.00    -0.460 OA
BRANCH   6   7
ATOM      7  C   UNL A   1      31.522  24.636  24.924  1.00  0.00     0.338 C 
ATOM      8  O   UNL A   1      30.731  23.857  25.426  1.00  0.00    -0.246 OA
BRANCH   7   9
ATOM      9  C   UNL A   1      32.008  25.841  25.635  1.00  0.00     0.060 A 
ATOM     10  C   UNL A   1      32.715  28.253  26.819  1.00  0.00     0.067 A 
ATOM     11  C   UNL A   1      31.499  27.657  27.165  1.00  0.00     0.029 A 
ATOM     12  C   UNL A   1      33.635  27.581  26.002  1.00  0.00     0.029 A 
ATOM     13  C   UNL A   1      31.137  26.462  26.544  1.00  0.00     0.018 A 
ATOM     14  C   UNL A   1      33.284  26.367  25.411  1.00  0.00     0.018 A 
BRANCH  10  15
ATOM     15  N   UNL A   1      32.917  29.614  27.139  1.00  0.00    -0.217 N 
ATOM     16  C   UNL A   1      33.828  31.543  27.608  1.00  0.00     0.151 A 
ATOM     17  N   UNL A   1      32.558  31.748  27.138  1.00  0.00    -0.126 NA
ATOM     18  C   UNL A   1      34.098  30.183  27.603  1.00  0.00     0.073 A 
ATOM     19  N   UNL A   1      32.059  30.581  26.756  1.00  0.00    -0.061 NA
ATOM     20  C   UNL A   1      35.332  29.403  27.869  1.00  0.00     0.069 C 
BRANCH  16  21
ATOM     21  C   UNL A   1      34.707  32.656  27.941  1.00  0.00     0.181 C 
ATOM     22  C   UNL A   1      34.170  33.730  28.857  1.00  0.00     0.095 C 
ATOM     23  O   UNL A   1      35.859  32.725  27.515  1.00  0.00    -0.293 OA
ENDBRANCH  16  21
ENDBRANCH  10  15
ENDBRANCH   7   9
ENDBRANCH   6   7
ENDBRANCH   5   6
ENDBRANCH   4   5
ENDBRANCH   3   4
ENDBRANCH   2   3
ENDBRANCH   1   2
BRANCH   1  24
ATOM     24  O   UNL A   1      37.819  21.646  25.118  1.00  0.00    -0.376 OA
BRANCH  24  25
ATOM     25  C   UNL A   1      38.771  22.234  25.999  1.00  0.00     0.202 C 
BRANCH  25  26
ATOM     26  C   UNL A   1      38.403  23.634  26.488  1.00  0.00     0.261 C 
BRANCH  26  27
ATOM     27  O   UNL A   1      39.287  24.666  26.063  1.00  0.00    -0.460 OA
BRANCH  27  28
ATOM     28  C   UNL A   1      40.243  25.025  26.948  1.00  0.00     0.338 C 
ATOM     29  O   UNL A   1      41.310  24.469  27.131  1.00  0.00    -0.246 OA
BRANCH  28  30
ATOM     30  C   UNL A   1      39.755  26.180  27.713  1.00  0.00     0.060 A 
ATOM     31  C   UNL A   1      40.047  27.455  27.224  1.00  0.00     0.016 A 
ATOM     32  C   UNL A   1      39.224  25.987  28.998  1.00  0.00     0.016 A 
ATOM     33  C   UNL A   1      39.969  28.527  28.092  1.00  0.00     0.010 A 
ATOM     34  C   UNL A   1      39.161  27.053  29.866  1.00  0.00     0.010 A 
ATOM     35  C   UNL A   1      39.607  28.297  29.423  1.00  0.00    -0.014 A 
BRANCH  35  36
ATOM     36  C   UNL A   1      39.778  29.383  30.366  1.00  0.00     0.031 A 
ATOM     37  C   UNL A   1      38.615  30.268  30.561  1.00  0.00     0.074 A 
ATOM     38  C   UNL A   1      40.898  29.515  31.100  1.00  0.00     0.049 A 
ATOM     39  N   UNL A   1      38.536  31.530  30.311  1.00  0.00    -0.248 NA
ATOM     40  C   UNL A   1      37.357  29.659  31.012  1.00  0.00     0.031 C 
ATOM     41  C   UNL A   1      41.992  28.548  31.233  1.00  0.00     0.029 A 
ATOM     42  N   UNL A   1      41.236  30.501  31.978  1.00  0.00    -0.354 N 
ATOM     43  C   UNL A   1      37.288  31.928  30.774  1.00  0.00     0.074 A 
ATOM     44  C   UNL A   1      36.553  30.720  31.039  1.00  0.00     0.031 C 
ATOM     45  C   UNL A   1      42.757  28.895  32.290  1.00  0.00     0.029 A 
ATOM     46  C   UNL A   1      42.278  30.160  32.826  1.00  0.00     0.049 A 
ATOM     47  H   UNL A   1      40.782  31.374  32.006  1.00  0.00     0.167 HD
ATOM     48  C   UNL A   1      37.038  33.223  31.106  1.00  0.00     0.034 A 
ATOM     49  C   UNL A   1      42.670  30.824  33.942  1.00  0.00     0.034 A 
ATOM     50  C   UNL A   1      38.003  34.119  30.509  1.00  0.00     0.049 A 
ATOM     51  C   UNL A   1      42.194  32.224  33.825  1.00  0.00     0.074 A 
ATOM     52  C   UNL A   1      38.417  34.368  29.213  1.00  0.00     0.029 A 
ATOM     53  N   UNL A   1      38.955  34.699  31.316  1.00  0.00    -0.354 N 
ATOM     54  N   UNL A   1      42.641  33.072  32.940  1.00  0.00    -0.248 NA
ATOM     55  C   UNL A   1      40.919  32.581  34.427  1.00  0.00     0.031 C 
ATOM     56  C   UNL A   1      39.810  34.653  29.312  1.00  0.00     0.029 A 
ATOM     57  C   UNL A   1      40.159  34.601  30.662  1.00  0.00     0.049 A 
ATOM     58  H   UNL A   1      38.802  35.108  32.199  1.00  0.00     0.167 HD
ATOM     59  C   UNL A   1      41.538  33.825  32.571  1.00  0.00     0.074 A 
ATOM     60  C   UNL A   1      40.545  33.567  33.607  1.00  0.00     0.031 C 
ATOM     61  C   UNL A   1      41.432  34.361  31.319  1.00  0.00     0.034 A 
BRANCH  48  62
ATOM     62  C   UNL A   1      36.111  33.651  32.220  1.00  0.00     0.023 A 
ATOM     63  C   UNL A   1      35.104  34.580  31.903  1.00  0.00     0.031 A 
ATOM     64  C   UNL A   1      36.326  33.426  33.599  1.00  0.00     0.131 A 
ATOM     65  C   UNL A   1      34.435  35.294  32.910  1.00  0.00     0.055 A 
ATOM     66  C   UNL A   1      35.598  34.076  34.600  1.00  0.00     0.041 A 
ATOM     67  F   UNL A   1      37.310  32.645  34.061  1.00  0.00    -0.206 F 
ATOM     68  C   UNL A   1      34.668  35.042  34.259  1.00  0.00     0.022 A 
BRANCH  65  69
ATOM     69  S   UNL A   1      33.408  36.703  32.422  1.00  0.00     0.124 S 
ATOM     70  O   UNL A   1      32.988  36.310  31.081  1.00  0.00    -0.237 OA
ATOM     71  O   UNL A   1      32.374  36.689  33.451  1.00  0.00    -0.237 OA
ATOM     72  O   UNL A   1      34.333  37.831  32.480  1.00  0.00    -0.744 OA
ENDBRANCH  65  69
ENDBRANCH  48  62
BRANCH  49  73
ATOM     73  C   UNL A   1      43.197  30.225  35.194  1.00  0.00     0.023 A 
ATOM     74  C   UNL A   1      42.825  28.938  35.622  1.00  0.00     0.031 A 
ATOM     75  C   UNL A   1      44.263  30.843  35.890  1.00  0.00     0.131 A 
ATOM     76  C   UNL A   1      43.498  28.328  36.704  1.00  0.00     0.055 A 
ATOM     77  C   UNL A   1      44.908  30.248  36.974  1.00  0.00     0.041 A 
ATOM     78  F   UNL A   1      44.776  32.016  35.484  1.00  0.00    -0.206 F 
ATOM     79  C   UNL A   1      44.531  28.980  37.383  1.00  0.00     0.022 A 
BRANCH  76  80
ATOM     80  S   UNL A   1      43.117  26.610  37.162  1.00  0.00     0.124 S 
ATOM     81  O   UNL A   1      43.607  26.540  38.534  1.00  0.00    -0.237 OA
ATOM     82  O   UNL A   1      41.671  26.549  36.985  1.00  0.00    -0.237 OA
ATOM     83  O   UNL A   1      43.884  25.824  36.194  1.00  0.00    -0.744 OA
ENDBRANCH  76  80
ENDBRANCH  49  73
BRANCH  61  84
ATOM     84  C   UNL A   1      42.676  34.462  30.463  1.00  0.00     0.023 A 
ATOM     85  C   UNL A   1      42.973  33.611  29.375  1.00  0.00     0.031 A 
ATOM     86  C   UNL A   1      43.541  35.549  30.691  1.00  0.00     0.131 A 
ATOM     87  C   UNL A   1      44.106  33.852  28.577  1.00  0.00     0.055 A 
ATOM     88  C   UNL A   1      44.653  35.797  29.887  1.00  0.00     0.041 A 
ATOM     89  F   UNL A   1      43.297  36.416  31.689  1.00  0.00    -0.206 F 
ATOM     90  C   UNL A   1      44.944  34.944  28.829  1.00  0.00     0.022 A 
BRANCH  87  91
ATOM     91  S   UNL A   1      44.516  32.739  27.196  1.00  0.00     0.124 S 
ATOM     92  O   UNL A   1      45.966  32.852  27.085  1.00  0.00    -0.237 OA
ATOM     93  O   UNL A   1      44.008  31.454  27.668  1.00  0.00    -0.237 OA
ATOM     94  O   UNL A   1      43.774  33.308  26.070  1.00  0.00    -0.744 OA
ENDBRANCH  87  91
ENDBRANCH  61  84
ENDBRANCH  35  36
ENDBRANCH  28  30
ENDBRANCH  27  28
ENDBRANCH  26  27
ENDBRANCH  25  26
ENDBRANCH  24  25
ENDBRANCH   1  24
TORSDOF 22
ENDMDL
