MODEL 1
REMARK VINA RESULT:      -6.2      0.000      0.000
REMARK SMILES CCCCCCNC(=O)Oc1cccc(-c2ccc([C@@H](C)C(=O)OCCOCCOCCOC(=O)c3ccc(-c4c5nc(c(-c6cc(S(=O)(=O)[O-])ccc6F)c6ccc([nH]6)c(-c6cc(S(=O)(=O)[O-])ccc6F)c6nc(c(-c7cc(S(=O)(=O)[O-])ccc7F)c7ccc4[nH]7)C=C6)C=C5)cc3)cc2[N+](=O)[O-])c1
REMARK SMILES IDX 25 1 24 2 22 3 23 4 20 5 21 6 19 7 16 8 17 9 100 10 18 11
REMARK SMILES IDX 99 12 15 13 11 14 12 15 104 16 13 17 14 18 10 19 8 20 7 21
REMARK SMILES IDX 9 23 6 24 5 25 4 26 3 27 2 28 1 29 101 30 102 31 103 32
REMARK SMILES IDX 26 33 27 34 28 35 29 36 30 37 31 38 32 39 33 40 34 41 35 42
REMARK SMILES IDX 36 43 37 44 98 45 38 46 97 47 39 48 40 49 41 50 91 51 42 52
REMARK SMILES IDX 96 53 90 54 92 55 43 56 95 57 89 58 88 59 44 61 76 62 56 63
REMARK SMILES IDX 75 64 57 65 60 66 74 67 93 68 58 69 59 70 73 72 94 73 61 74
REMARK SMILES IDX 45 75 46 76 54 77 47 78 53 79 55 80 52 81 48 82 49 83 50 84
REMARK SMILES IDX 51 85 77 86 78 87 86 88 79 89 85 90 87 91 84 92 80 93 81 94
REMARK SMILES IDX 82 95 83 96 62 97 63 98 71 99 64 100 70 101 72 102 69 103
REMARK SMILES IDX 65 104 66 105 67 106 68 107
REMARK H PARENT 7 22 92 60 60 71
REMARK Flexibility Score: inf
ROOT
ATOM      1  C   UNL A   1      46.828  26.621  28.396  1.00  0.00     0.261 C 
ENDROOT
BRANCH   1   2
ATOM      2  O   UNL A   1      46.202  25.931  27.289  1.00  0.00    -0.463 OA
BRANCH   2   3
ATOM      3  C   UNL A   1      46.111  24.582  27.399  1.00  0.00     0.313 C 
ATOM      4  O   UNL A   1      47.015  23.820  27.061  1.00  0.00    -0.252 OA
BRANCH   3   5
ATOM      5  C   UNL A   1      44.813  24.033  28.001  1.00  0.00     0.126 C 
ATOM      6  C   UNL A   1      44.364  22.838  27.159  1.00  0.00     0.025 C 
BRANCH   5   7
ATOM      7  C   UNL A   1      43.613  24.935  28.296  1.00  0.00    -0.027 A 
ATOM      8  C   UNL A   1      41.323  26.661  28.695  1.00  0.00     0.060 A 
ATOM      9  C   UNL A   1      42.435  26.662  29.566  1.00  0.00     0.016 A 
ATOM     10  C   UNL A   1      41.391  25.760  27.618  1.00  0.00     0.277 A 
ATOM     11  C   UNL A   1      43.560  25.832  29.367  1.00  0.00     0.006 A 
ATOM     12  C   UNL A   1      42.508  24.913  27.420  1.00  0.00     0.091 A 
BRANCH   8  13
ATOM     13  C   UNL A   1      40.228  27.639  28.914  1.00  0.00    -0.008 A 
ATOM     14  C   UNL A   1      38.378  28.569  30.188  1.00  0.00     0.133 A 
ATOM     15  C   UNL A   1      38.056  29.437  29.146  1.00  0.00     0.047 A 
ATOM     16  C   UNL A   1      39.459  27.681  30.094  1.00  0.00     0.056 A 
ATOM     17  C   UNL A   1      38.824  29.427  27.990  1.00  0.00     0.004 A 
ATOM     18  C   UNL A   1      39.892  28.532  27.875  1.00  0.00     0.009 A 
BRANCH  14  19
ATOM     19  O   UNL A   1      37.446  28.516  31.245  1.00  0.00    -0.410 OA
BRANCH  19  20
ATOM     20  C   UNL A   1      37.859  28.276  32.543  1.00  0.00     0.412 C 
ATOM     21  N   UNL A   1      37.867  29.399  33.324  1.00  0.00    -0.321 N 
ATOM     22  H   UNL A   1      38.107  29.275  34.271  1.00  0.00     0.167 HD
ATOM     23  O   UNL A   1      38.230  27.187  32.986  1.00  0.00    -0.224 OA
BRANCH  21  24
ATOM     24  C   UNL A   1      37.558  30.756  32.904  1.00  0.00     0.119 C 
BRANCH  24  25
ATOM     25  C   UNL A   1      38.807  31.597  32.638  1.00  0.00     0.021 C 
BRANCH  25  26
ATOM     26  C   UNL A   1      39.466  32.202  33.884  1.00  0.00     0.002 C 
BRANCH  26  27
ATOM     27  C   UNL A   1      40.812  32.898  33.654  1.00  0.00    -0.000 C 
BRANCH  27  28
ATOM     28  C   UNL A   1      41.010  34.222  34.397  1.00  0.00    -0.003 C 
ATOM     29  C   UNL A   1      41.673  35.298  33.550  1.00  0.00     0.004 C 
ENDBRANCH  27  28
ENDBRANCH  26  27
ENDBRANCH  25  26
ENDBRANCH  24  25
ENDBRANCH  21  24
ENDBRANCH  19  20
ENDBRANCH  14  19
ENDBRANCH   8  13
BRANCH  10  30
ATOM     30  N   UNL A   1      40.336  25.690  26.610  1.00  0.00     0.063 N 
ATOM     31  O   UNL A   1      39.267  25.174  26.962  1.00  0.00    -0.258 OA
ATOM     32  O   UNL A   1      40.600  26.078  25.465  1.00  0.00    -0.258 OA
ENDBRANCH  10  30
ENDBRANCH   5   7
ENDBRANCH   3   5
ENDBRANCH   2   3
ENDBRANCH   1   2
BRANCH   1  33
ATOM     33  C   UNL A   1      47.498  25.707  29.431  1.00  0.00     0.202 C 
BRANCH  33  34
ATOM     34  O   UNL A   1      47.431  26.096  30.798  1.00  0.00    -0.376 OA
BRANCH  34  35
ATOM     35  C   UNL A   1      46.194  26.557  31.330  1.00  0.00     0.188 C 
BRANCH  35  36
ATOM     36  C   UNL A   1      45.592  25.838  32.545  1.00  0.00     0.188 C 
BRANCH  36  37
ATOM     37  O   UNL A   1      44.694  26.626  33.299  1.00  0.00    -0.376 OA
BRANCH  37  38
ATOM     38  C   UNL A   1      43.848  25.931  34.197  1.00  0.00     0.202 C 
BRANCH  38  39
ATOM     39  C   UNL A   1      42.567  26.700  34.540  1.00  0.00     0.261 C 
BRANCH  39  40
ATOM     40  O   UNL A   1      41.944  27.398  33.448  1.00  0.00    -0.460 OA
BRANCH  40  41
ATOM     41  C   UNL A   1      41.443  28.627  33.697  1.00  0.00     0.338 C 
ATOM     42  O   UNL A   1      40.690  28.939  34.614  1.00  0.00    -0.246 OA
BRANCH  41  43
ATOM     43  C   UNL A   1      42.166  29.584  32.833  1.00  0.00     0.060 A 
ATOM     44  C   UNL A   1      41.800  29.710  31.485  1.00  0.00     0.016 A 
ATOM     45  C   UNL A   1      43.179  30.383  33.363  1.00  0.00     0.016 A 
ATOM     46  C   UNL A   1      42.459  30.623  30.656  1.00  0.00     0.010 A 
ATOM     47  C   UNL A   1      43.852  31.278  32.530  1.00  0.00     0.010 A 
ATOM     48  C   UNL A   1      43.514  31.387  31.168  1.00  0.00    -0.014 A 
BRANCH  48  49
ATOM     49  C   UNL A   1      44.429  32.138  30.274  1.00  0.00     0.031 A 
ATOM     50  C   UNL A   1      45.722  31.472  29.893  1.00  0.00     0.074 A 
ATOM     51  C   UNL A   1      44.163  33.390  29.862  1.00  0.00     0.049 A 
ATOM     52  N   UNL A   1      46.799  31.986  29.364  1.00  0.00    -0.248 NA
ATOM     53  C   UNL A   1      45.810  30.030  30.169  1.00  0.00     0.031 C 
ATOM     54  C   UNL A   1      42.913  34.111  30.094  1.00  0.00     0.029 A 
ATOM     55  N   UNL A   1      44.951  34.292  29.186  1.00  0.00    -0.354 N 
ATOM     56  C   UNL A   1      47.702  30.933  29.254  1.00  0.00     0.074 A 
ATOM     57  C   UNL A   1      47.053  29.761  29.800  1.00  0.00     0.031 C 
ATOM     58  C   UNL A   1      43.034  35.359  29.604  1.00  0.00     0.029 A 
ATOM     59  C   UNL A   1      44.388  35.543  29.082  1.00  0.00     0.049 A 
ATOM     60  H   UNL A   1      45.832  34.063  28.813  1.00  0.00     0.167 HD
ATOM     61  C   UNL A   1      48.955  30.946  28.742  1.00  0.00     0.034 A 
ATOM     62  C   UNL A   1      44.927  36.711  28.668  1.00  0.00     0.034 A 
ATOM     63  C   UNL A   1      49.591  32.129  28.224  1.00  0.00     0.049 A 
ATOM     64  C   UNL A   1      46.375  36.733  28.216  1.00  0.00     0.074 A 
ATOM     65  C   UNL A   1      50.871  32.268  27.716  1.00  0.00     0.029 A 
ATOM     66  N   UNL A   1      48.995  33.381  28.148  1.00  0.00    -0.354 N 
ATOM     67  N   UNL A   1      47.239  35.746  28.159  1.00  0.00    -0.248 NA
ATOM     68  C   UNL A   1      46.923  38.027  27.778  1.00  0.00     0.031 C 
ATOM     69  C   UNL A   1      51.070  33.614  27.394  1.00  0.00     0.029 A 
ATOM     70  C   UNL A   1      49.886  34.298  27.617  1.00  0.00     0.049 A 
ATOM     71  H   UNL A   1      48.074  33.586  28.430  1.00  0.00     0.167 HD
ATOM     72  C   UNL A   1      48.409  36.290  27.629  1.00  0.00     0.074 A 
ATOM     73  C   UNL A   1      48.144  37.692  27.387  1.00  0.00     0.031 C 
ATOM     74  C   UNL A   1      49.593  35.687  27.357  1.00  0.00     0.034 A 
BRANCH  61  75
ATOM     75  C   UNL A   1      49.729  29.653  28.772  1.00  0.00     0.023 A 
ATOM     76  C   UNL A   1      50.453  29.254  29.908  1.00  0.00     0.031 A 
ATOM     77  C   UNL A   1      49.757  28.816  27.642  1.00  0.00     0.131 A 
ATOM     78  C   UNL A   1      51.220  28.081  29.870  1.00  0.00     0.055 A 
ATOM     79  C   UNL A   1      50.458  27.609  27.639  1.00  0.00     0.041 A 
ATOM     80  F   UNL A   1      49.109  29.161  26.518  1.00  0.00    -0.206 F 
ATOM     81  C   UNL A   1      51.205  27.241  28.754  1.00  0.00     0.022 A 
BRANCH  78  82
ATOM     82  S   UNL A   1      52.338  27.730  31.255  1.00  0.00     0.124 S 
ATOM     83  O   UNL A   1      52.528  29.061  31.824  1.00  0.00    -0.237 OA
ATOM     84  O   UNL A   1      51.562  26.795  32.059  1.00  0.00    -0.237 OA
ATOM     85  O   UNL A   1      53.520  27.165  30.607  1.00  0.00    -0.744 OA
ENDBRANCH  78  82
ENDBRANCH  61  75
BRANCH  62  86
ATOM     86  C   UNL A   1      44.143  37.983  28.725  1.00  0.00     0.023 A 
ATOM     87  C   UNL A   1      44.247  38.851  29.825  1.00  0.00     0.031 A 
ATOM     88  C   UNL A   1      43.198  38.298  27.731  1.00  0.00     0.131 A 
ATOM     89  C   UNL A   1      43.374  39.945  29.941  1.00  0.00     0.055 A 
ATOM     90  C   UNL A   1      42.382  39.428  27.816  1.00  0.00     0.041 A 
ATOM     91  F   UNL A   1      43.042  37.500  26.662  1.00  0.00    -0.206 F 
ATOM     92  C   UNL A   1      42.454  40.249  28.936  1.00  0.00     0.022 A 
BRANCH  89  93
ATOM     93  S   UNL A   1      43.361  40.881  31.496  1.00  0.00     0.124 S 
ATOM     94  O   UNL A   1      41.930  41.023  31.741  1.00  0.00    -0.237 OA
ATOM     95  O   UNL A   1      44.080  39.985  32.395  1.00  0.00    -0.237 OA
ATOM     96  O   UNL A   1      44.061  42.118  31.155  1.00  0.00    -0.744 OA
ENDBRANCH  89  93
ENDBRANCH  62  86
BRANCH  74  97
ATOM     97  C   UNL A   1      50.660  36.504  26.670  1.00  0.00     0.023 A 
ATOM     98  C   UNL A   1      51.627  37.231  27.384  1.00  0.00     0.031 A 
ATOM     99  C   UNL A   1      50.734  36.503  25.265  1.00  0.00     0.131 A 
ATOM    100  C   UNL A   1      52.611  37.951  26.686  1.00  0.00     0.055 A 
ATOM    101  C   UNL A   1      51.744  37.176  24.579  1.00  0.00     0.041 A 
ATOM    102  F   UNL A   1      49.835  35.822  24.534  1.00  0.00    -0.206 F 
ATOM    103  C   UNL A   1      52.687  37.911  25.290  1.00  0.00     0.022 A 
BRANCH 100 104
ATOM    104  S   UNL A   1      53.774  38.981  27.623  1.00  0.00     0.124 S 
ATOM    105  O   UNL A   1      53.990  38.182  28.824  1.00  0.00    -0.237 OA
ATOM    106  O   UNL A   1      54.909  39.081  26.711  1.00  0.00    -0.237 OA
ATOM    107  O   UNL A   1      53.039  40.228  27.831  1.00  0.00    -0.744 OA
ENDBRANCH 100 104
ENDBRANCH  74  97
ENDBRANCH  48  49
ENDBRANCH  41  43
ENDBRANCH  40  41
ENDBRANCH  39  40
ENDBRANCH  38  39
ENDBRANCH  37  38
ENDBRANCH  36  37
ENDBRANCH  35  36
ENDBRANCH  34  35
ENDBRANCH  33  34
ENDBRANCH   1  33
TORSDOF 30
ENDMDL
MODEL 2
REMARK VINA RESULT:      -5.4      4.498     10.382
REMARK SMILES CCCCCCNC(=O)Oc1cccc(-c2ccc([C@@H](C)C(=O)OCCOCCOCCOC(=O)c3ccc(-c4c5nc(c(-c6cc(S(=O)(=O)[O-])ccc6F)c6ccc([nH]6)c(-c6cc(S(=O)(=O)[O-])ccc6F)c6nc(c(-c7cc(S(=O)(=O)[O-])ccc7F)c7ccc4[nH]7)C=C6)C=C5)cc3)cc2[N+](=O)[O-])c1
REMARK SMILES IDX 25 1 24 2 22 3 23 4 20 5 21 6 19 7 16 8 17 9 100 10 18 11
REMARK SMILES IDX 99 12 15 13 11 14 12 15 104 16 13 17 14 18 10 19 8 20 7 21
REMARK SMILES IDX 9 23 6 24 5 25 4 26 3 27 2 28 1 29 101 30 102 31 103 32
REMARK SMILES IDX 26 33 27 34 28 35 29 36 30 37 31 38 32 39 33 40 34 41 35 42
REMARK SMILES IDX 36 43 37 44 98 45 38 46 97 47 39 48 40 49 41 50 91 51 42 52
REMARK SMILES IDX 96 53 90 54 92 55 43 56 95 57 89 58 88 59 44 61 76 62 56 63
REMARK SMILES IDX 75 64 57 65 60 66 74 67 93 68 58 69 59 70 73 72 94 73 61 74
REMARK SMILES IDX 45 75 46 76 54 77 47 78 53 79 55 80 52 81 48 82 49 83 50 84
REMARK SMILES IDX 51 85 77 86 78 87 86 88 79 89 85 90 87 91 84 92 80 93 81 94
REMARK SMILES IDX 82 95 83 96 62 97 63 98 71 99 64 100 70 101 72 102 69 103
REMARK SMILES IDX 65 104 66 105 67 106 68 107
REMARK H PARENT 7 22 92 60 60 71
REMARK Flexibility Score: inf
ROOT
ATOM      1  C   UNL A   1      36.542  34.134  34.701  1.00  0.00     0.261 C 
ENDROOT
BRANCH   1   2
ATOM      2  O   UNL A   1      36.312  33.545  33.399  1.00  0.00    -0.463 OA
BRANCH   2   3
ATOM      3  C   UNL A   1      35.557  34.273  32.538  1.00  0.00     0.313 C 
ATOM      4  O   UNL A   1      34.637  35.002  32.905  1.00  0.00    -0.252 OA
BRANCH   3   5
ATOM      5  C   UNL A   1      35.923  34.167  31.054  1.00  0.00     0.126 C 
ATOM      6  C   UNL A   1      34.628  34.036  30.251  1.00  0.00     0.025 C 
BRANCH   5   7
ATOM      7  C   UNL A   1      36.949  33.153  30.543  1.00  0.00    -0.027 A 
ATOM      8  C   UNL A   1      38.826  31.126  29.677  1.00  0.00     0.060 A 
ATOM      9  C   UNL A   1      39.183  32.488  29.801  1.00  0.00     0.016 A 
ATOM     10  C   UNL A   1      37.494  30.812  29.995  1.00  0.00     0.277 A 
ATOM     11  C   UNL A   1      38.274  33.477  30.236  1.00  0.00     0.006 A 
ATOM     12  C   UNL A   1      36.572  31.800  30.418  1.00  0.00     0.091 A 
BRANCH   8  13
ATOM     13  C   UNL A   1      39.868  30.133  29.315  1.00  0.00    -0.008 A 
ATOM     14  C   UNL A   1      40.888  28.513  27.817  1.00  0.00     0.133 A 
ATOM     15  C   UNL A   1      41.798  28.129  28.800  1.00  0.00     0.047 A 
ATOM     16  C   UNL A   1      39.934  29.512  28.052  1.00  0.00     0.056 A 
ATOM     17  C   UNL A   1      41.764  28.754  30.040  1.00  0.00     0.004 A 
ATOM     18  C   UNL A   1      40.804  29.738  30.294  1.00  0.00     0.009 A 
BRANCH  14  19
ATOM     19  O   UNL A   1      40.872  27.710  26.658  1.00  0.00    -0.410 OA
BRANCH  19  20
ATOM     20  C   UNL A   1      41.848  27.847  25.687  1.00  0.00     0.412 C 
ATOM     21  N   UNL A   1      42.498  26.676  25.405  1.00  0.00    -0.321 N 
ATOM     22  H   UNL A   1      43.170  26.707  24.687  1.00  0.00     0.167 HD
ATOM     23  O   UNL A   1      42.165  28.903  25.135  1.00  0.00    -0.224 OA
BRANCH  21  24
ATOM     24  C   UNL A   1      42.300  25.391  26.054  1.00  0.00     0.119 C 
BRANCH  24  25
ATOM     25  C   UNL A   1      43.498  24.957  26.898  1.00  0.00     0.021 C 
BRANCH  25  26
ATOM     26  C   UNL A   1      44.870  25.177  26.248  1.00  0.00     0.002 C 
BRANCH  26  27
ATOM     27  C   UNL A   1      45.770  26.216  26.926  1.00  0.00    -0.000 C 
BRANCH  27  28
ATOM     28  C   UNL A   1      46.871  26.815  26.047  1.00  0.00    -0.003 C 
ATOM     29  C   UNL A   1      46.338  27.574  24.841  1.00  0.00     0.004 C 
ENDBRANCH  27  28
ENDBRANCH  26  27
ENDBRANCH  25  26
ENDBRANCH  24  25
ENDBRANCH  21  24
ENDBRANCH  19  20
ENDBRANCH  14  19
ENDBRANCH   8  13
BRANCH  10  30
ATOM     30  N   UNL A   1      37.002  29.437  29.963  1.00  0.00     0.063 N 
ATOM     31  O   UNL A   1      37.090  28.793  31.017  1.00  0.00    -0.258 OA
ATOM     32  O   UNL A   1      36.604  28.987  28.881  1.00  0.00    -0.258 OA
ENDBRANCH  10  30
ENDBRANCH   5   7
ENDBRANCH   3   5
ENDBRANCH   2   3
ENDBRANCH   1   2
BRANCH   1  33
ATOM     33  C   UNL A   1      38.019  34.291  35.087  1.00  0.00     0.202 C 
BRANCH  33  34
ATOM     34  O   UNL A   1      38.851  35.052  34.220  1.00  0.00    -0.376 OA
BRANCH  34  35
ATOM     35  C   UNL A   1      39.811  34.382  33.411  1.00  0.00     0.188 C 
BRANCH  35  36
ATOM     36  C   UNL A   1      40.297  32.989  33.832  1.00  0.00     0.188 C 
BRANCH  36  37
ATOM     37  O   UNL A   1      39.577  31.923  33.250  1.00  0.00    -0.376 OA
BRANCH  37  38
ATOM     38  C   UNL A   1      39.842  30.629  33.762  1.00  0.00     0.202 C 
BRANCH  38  39
ATOM     39  C   UNL A   1      39.799  30.564  35.293  1.00  0.00     0.261 C 
BRANCH  39  40
ATOM     40  O   UNL A   1      41.063  30.356  35.946  1.00  0.00    -0.460 OA
BRANCH  40  41
ATOM     41  C   UNL A   1      41.456  29.080  36.154  1.00  0.00     0.338 C 
ATOM     42  O   UNL A   1      40.781  28.176  36.635  1.00  0.00    -0.246 OA
BRANCH  41  43
ATOM     43  C   UNL A   1      42.748  28.895  35.461  1.00  0.00     0.060 A 
ATOM     44  C   UNL A   1      43.870  29.621  35.887  1.00  0.00     0.016 A 
ATOM     45  C   UNL A   1      42.860  27.977  34.416  1.00  0.00     0.016 A 
ATOM     46  C   UNL A   1      45.105  29.447  35.256  1.00  0.00     0.010 A 
ATOM     47  C   UNL A   1      44.089  27.820  33.773  1.00  0.00     0.010 A 
ATOM     48  C   UNL A   1      45.212  28.570  34.172  1.00  0.00    -0.014 A 
BRANCH  48  49
ATOM     49  C   UNL A   1      46.405  28.571  33.290  1.00  0.00     0.031 A 
ATOM     50  C   UNL A   1      46.276  29.251  31.955  1.00  0.00     0.074 A 
ATOM     51  C   UNL A   1      47.545  27.940  33.624  1.00  0.00     0.049 A 
ATOM     52  N   UNL A   1      47.045  29.173  30.903  1.00  0.00    -0.248 NA
ATOM     53  C   UNL A   1      45.103  30.123  31.787  1.00  0.00     0.031 C 
ATOM     54  C   UNL A   1      47.822  27.318  34.916  1.00  0.00     0.029 A 
ATOM     55  N   UNL A   1      48.675  27.691  32.881  1.00  0.00    -0.354 N 
ATOM     56  C   UNL A   1      46.444  29.976  29.939  1.00  0.00     0.074 A 
ATOM     57  C   UNL A   1      45.232  30.505  30.526  1.00  0.00     0.031 C 
ATOM     58  C   UNL A   1      49.029  26.723  34.862  1.00  0.00     0.029 A 
ATOM     59  C   UNL A   1      49.579  26.869  33.514  1.00  0.00     0.049 A 
ATOM     60  H   UNL A   1      48.822  28.066  31.982  1.00  0.00     0.167 HD
ATOM     61  C   UNL A   1      46.868  30.246  28.682  1.00  0.00     0.034 A 
ATOM     62  C   UNL A   1      50.687  26.260  33.039  1.00  0.00     0.034 A 
ATOM     63  C   UNL A   1      48.067  29.691  28.110  1.00  0.00     0.049 A 
ATOM     64  C   UNL A   1      51.078  26.472  31.589  1.00  0.00     0.074 A 
ATOM     65  C   UNL A   1      48.573  29.865  26.833  1.00  0.00     0.029 A 
ATOM     66  N   UNL A   1      48.948  28.851  28.777  1.00  0.00    -0.354 N 
ATOM     67  N   UNL A   1      50.481  27.193  30.668  1.00  0.00    -0.248 NA
ATOM     68  C   UNL A   1      52.290  25.786  31.112  1.00  0.00     0.031 C 
ATOM     69  C   UNL A   1      49.723  29.080  26.709  1.00  0.00     0.029 A 
ATOM     70  C   UNL A   1      49.984  28.487  27.934  1.00  0.00     0.049 A 
ATOM     71  H   UNL A   1      48.850  28.558  29.712  1.00  0.00     0.167 HD
ATOM     72  C   UNL A   1      51.274  27.088  29.525  1.00  0.00     0.074 A 
ATOM     73  C   UNL A   1      52.389  26.233  29.869  1.00  0.00     0.031 C 
ATOM     74  C   UNL A   1      51.104  27.655  28.305  1.00  0.00     0.034 A 
BRANCH  61  75
ATOM     75  C   UNL A   1      45.998  31.138  27.834  1.00  0.00     0.023 A 
ATOM     76  C   UNL A   1      46.238  32.518  27.730  1.00  0.00     0.031 A 
ATOM     77  C   UNL A   1      44.902  30.604  27.133  1.00  0.00     0.131 A 
ATOM     78  C   UNL A   1      45.363  33.326  26.991  1.00  0.00     0.055 A 
ATOM     79  C   UNL A   1      44.082  31.400  26.333  1.00  0.00     0.041 A 
ATOM     80  F   UNL A   1      44.607  29.297  27.218  1.00  0.00    -0.206 F 
ATOM     81  C   UNL A   1      44.303  32.773  26.269  1.00  0.00     0.022 A 
BRANCH  78  82
ATOM     82  S   UNL A   1      45.553  35.127  27.087  1.00  0.00     0.124 S 
ATOM     83  O   UNL A   1      45.853  35.317  28.504  1.00  0.00    -0.237 OA
ATOM     84  O   UNL A   1      46.651  35.380  26.161  1.00  0.00    -0.237 OA
ATOM     85  O   UNL A   1      44.250  35.634  26.662  1.00  0.00    -0.744 OA
ENDBRANCH  78  82
ENDBRANCH  61  75
BRANCH  62  86
ATOM     86  C   UNL A   1      51.478  25.325  33.897  1.00  0.00     0.023 A 
ATOM     87  C   UNL A   1      52.585  25.778  34.636  1.00  0.00     0.031 A 
ATOM     88  C   UNL A   1      51.205  23.944  33.910  1.00  0.00     0.131 A 
ATOM     89  C   UNL A   1      53.416  24.855  35.291  1.00  0.00     0.055 A 
ATOM     90  C   UNL A   1      51.993  23.039  34.624  1.00  0.00     0.041 A 
ATOM     91  F   UNL A   1      50.169  23.449  33.213  1.00  0.00    -0.206 F 
ATOM     92  C   UNL A   1      53.118  23.491  35.305  1.00  0.00     0.022 A 
BRANCH  89  93
ATOM     93  S   UNL A   1      54.975  25.450  36.006  1.00  0.00     0.124 S 
ATOM     94  O   UNL A   1      55.958  24.707  35.225  1.00  0.00    -0.237 OA
ATOM     95  O   UNL A   1      54.899  26.883  35.747  1.00  0.00    -0.237 OA
ATOM     96  O   UNL A   1      54.874  25.063  37.412  1.00  0.00    -0.744 OA
ENDBRANCH  89  93
ENDBRANCH  62  86
BRANCH  74  97
ATOM     97  C   UNL A   1      52.193  27.461  27.278  1.00  0.00     0.023 A 
ATOM     98  C   UNL A   1      53.289  28.333  27.169  1.00  0.00     0.031 A 
ATOM     99  C   UNL A   1      52.149  26.340  26.428  1.00  0.00     0.131 A 
ATOM    100  C   UNL A   1      54.283  28.083  26.210  1.00  0.00     0.055 A 
ATOM    101  C   UNL A   1      53.166  26.068  25.513  1.00  0.00     0.041 A 
ATOM    102  F   UNL A   1      51.123  25.474  26.492  1.00  0.00    -0.206 F 
ATOM    103  C   UNL A   1      54.238  26.946  25.396  1.00  0.00     0.022 A 
BRANCH 100 104
ATOM    104  S   UNL A   1      55.625  29.286  26.002  1.00  0.00     0.124 S 
ATOM    105  O   UNL A   1      56.016  29.070  24.613  1.00  0.00    -0.237 OA
ATOM    106  O   UNL A   1      54.959  30.553  26.288  1.00  0.00    -0.237 OA
ATOM    107  O   UNL A   1      56.615  28.873  26.996  1.00  0.00    -0.744 OA
ENDBRANCH 100 104
ENDBRANCH  74  97
ENDBRANCH  48  49
ENDBRANCH  41  43
ENDBRANCH  40  41
ENDBRANCH  39  40
ENDBRANCH  38  39
ENDBRANCH  37  38
ENDBRANCH  36  37
ENDBRANCH  35  36
ENDBRANCH  34  35
ENDBRANCH  33  34
ENDBRANCH   1  33
TORSDOF 30
ENDMDL
MODEL 3
REMARK VINA RESULT:      -5.4      3.382      8.115
REMARK SMILES CCCCCCNC(=O)Oc1cccc(-c2ccc([C@@H](C)C(=O)OCCOCCOCCOC(=O)c3ccc(-c4c5nc(c(-c6cc(S(=O)(=O)[O-])ccc6F)c6ccc([nH]6)c(-c6cc(S(=O)(=O)[O-])ccc6F)c6nc(c(-c7cc(S(=O)(=O)[O-])ccc7F)c7ccc4[nH]7)C=C6)C=C5)cc3)cc2[N+](=O)[O-])c1
REMARK SMILES IDX 25 1 24 2 22 3 23 4 20 5 21 6 19 7 16 8 17 9 100 10 18 11
REMARK SMILES IDX 99 12 15 13 11 14 12 15 104 16 13 17 14 18 10 19 8 20 7 21
REMARK SMILES IDX 9 23 6 24 5 25 4 26 3 27 2 28 1 29 101 30 102 31 103 32
REMARK SMILES IDX 26 33 27 34 28 35 29 36 30 37 31 38 32 39 33 40 34 41 35 42
REMARK SMILES IDX 36 43 37 44 98 45 38 46 97 47 39 48 40 49 41 50 91 51 42 52
REMARK SMILES IDX 96 53 90 54 92 55 43 56 95 57 89 58 88 59 44 61 76 62 56 63
REMARK SMILES IDX 75 64 57 65 60 66 74 67 93 68 58 69 59 70 73 72 94 73 61 74
REMARK SMILES IDX 45 75 46 76 54 77 47 78 53 79 55 80 52 81 48 82 49 83 50 84
REMARK SMILES IDX 51 85 77 86 78 87 86 88 79 89 85 90 87 91 84 92 80 93 81 94
REMARK SMILES IDX 82 95 83 96 62 97 63 98 71 99 64 100 70 101 72 102 69 103
REMARK SMILES IDX 65 104 66 105 67 106 68 107
REMARK H PARENT 7 22 92 60 60 71
REMARK Flexibility Score: inf
ROOT
ATOM      1  C   UNL A   1      48.095  26.945  25.240  1.00  0.00     0.261 C 
ENDROOT
BRANCH   1   2
ATOM      2  O   UNL A   1      49.511  26.871  25.528  1.00  0.00    -0.463 OA
BRANCH   2   3
ATOM      3  C   UNL A   1      50.234  27.989  25.271  1.00  0.00     0.313 C 
ATOM      4  O   UNL A   1      50.593  28.310  24.140  1.00  0.00    -0.252 OA
BRANCH   3   5
ATOM      5  C   UNL A   1      50.571  28.874  26.476  1.00  0.00     0.126 C 
ATOM      6  C   UNL A   1      51.873  28.361  27.095  1.00  0.00     0.025 C 
BRANCH   5   7
ATOM      7  C   UNL A   1      49.554  29.160  27.582  1.00  0.00    -0.027 A 
ATOM      8  C   UNL A   1      47.690  29.577  29.758  1.00  0.00     0.060 A 
ATOM      9  C   UNL A   1      47.330  29.760  28.404  1.00  0.00     0.016 A 
ATOM     10  C   UNL A   1      49.020  29.185  29.989  1.00  0.00     0.277 A 
ATOM     11  C   UNL A   1      48.231  29.543  27.340  1.00  0.00     0.006 A 
ATOM     12  C   UNL A   1      49.935  28.981  28.928  1.00  0.00     0.091 A 
BRANCH   8  13
ATOM     13  C   UNL A   1      46.655  29.723  30.811  1.00  0.00    -0.008 A 
ATOM     14  C   UNL A   1      45.146  31.030  32.199  1.00  0.00     0.133 A 
ATOM     15  C   UNL A   1      44.818  29.905  32.955  1.00  0.00     0.047 A 
ATOM     16  C   UNL A   1      46.044  30.953  31.126  1.00  0.00     0.056 A 
ATOM     17  C   UNL A   1      45.388  28.680  32.637  1.00  0.00     0.004 A 
ATOM     18  C   UNL A   1      46.302  28.595  31.582  1.00  0.00     0.009 A 
BRANCH  14  19
ATOM     19  O   UNL A   1      44.666  32.258  32.697  1.00  0.00    -0.410 OA
BRANCH  19  20
ATOM     20  C   UNL A   1      45.490  33.100  33.422  1.00  0.00     0.412 C 
ATOM     21  N   UNL A   1      45.064  33.299  34.707  1.00  0.00    -0.321 N 
ATOM     22  H   UNL A   1      45.640  33.854  35.282  1.00  0.00     0.167 HD
ATOM     23  O   UNL A   1      46.492  33.670  32.986  1.00  0.00    -0.224 OA
BRANCH  21  24
ATOM     24  C   UNL A   1      43.850  32.778  35.314  1.00  0.00     0.119 C 
BRANCH  24  25
ATOM     25  C   UNL A   1      43.107  33.819  36.152  1.00  0.00     0.021 C 
BRANCH  25  26
ATOM     26  C   UNL A   1      43.819  34.252  37.439  1.00  0.00     0.002 C 
BRANCH  26  27
ATOM     27  C   UNL A   1      43.652  35.725  37.830  1.00  0.00    -0.000 C 
BRANCH  27  28
ATOM     28  C   UNL A   1      42.453  36.041  38.727  1.00  0.00    -0.003 C 
ATOM     29  C   UNL A   1      41.136  36.125  37.970  1.00  0.00     0.004 C 
ENDBRANCH  27  28
ENDBRANCH  26  27
ENDBRANCH  25  26
ENDBRANCH  24  25
ENDBRANCH  21  24
ENDBRANCH  19  20
ENDBRANCH  14  19
ENDBRANCH   8  13
BRANCH  10  30
ATOM     30  N   UNL A   1      49.515  28.909  31.335  1.00  0.00     0.063 N 
ATOM     31  O   UNL A   1      49.728  29.892  32.058  1.00  0.00    -0.258 OA
ATOM     32  O   UNL A   1      49.756  27.734  31.636  1.00  0.00    -0.258 OA
ENDBRANCH  10  30
ENDBRANCH   5   7
ENDBRANCH   3   5
ENDBRANCH   2   3
ENDBRANCH   1   2
BRANCH   1  33
ATOM     33  C   UNL A   1      47.561  25.830  24.330  1.00  0.00     0.202 C 
BRANCH  33  34
ATOM     34  O   UNL A   1      47.341  24.551  24.913  1.00  0.00    -0.376 OA
BRANCH  34  35
ATOM     35  C   UNL A   1      46.405  23.664  24.311  1.00  0.00     0.188 C 
BRANCH  35  36
ATOM     36  C   UNL A   1      45.182  23.211  25.120  1.00  0.00     0.188 C 
BRANCH  36  37
ATOM     37  O   UNL A   1      44.999  23.908  26.335  1.00  0.00    -0.376 OA
BRANCH  37  38
ATOM     38  C   UNL A   1      43.972  23.431  27.186  1.00  0.00     0.202 C 
BRANCH  38  39
ATOM     39  C   UNL A   1      42.711  24.302  27.161  1.00  0.00     0.261 C 
BRANCH  39  40
ATOM     40  O   UNL A   1      42.899  25.685  27.506  1.00  0.00    -0.460 OA
BRANCH  40  41
ATOM     41  C   UNL A   1      42.503  26.612  26.606  1.00  0.00     0.338 C 
ATOM     42  O   UNL A   1      41.854  26.411  25.586  1.00  0.00    -0.246 OA
BRANCH  41  43
ATOM     43  C   UNL A   1      42.760  27.943  27.199  1.00  0.00     0.060 A 
ATOM     44  C   UNL A   1      43.393  28.031  28.447  1.00  0.00     0.016 A 
ATOM     45  C   UNL A   1      42.411  29.101  26.504  1.00  0.00     0.016 A 
ATOM     46  C   UNL A   1      43.662  29.280  29.015  1.00  0.00     0.010 A 
ATOM     47  C   UNL A   1      42.660  30.346  27.082  1.00  0.00     0.010 A 
ATOM     48  C   UNL A   1      43.264  30.444  28.349  1.00  0.00    -0.014 A 
BRANCH  48  49
ATOM     49  C   UNL A   1      43.254  31.761  29.033  1.00  0.00     0.031 A 
ATOM     50  C   UNL A   1      44.412  32.683  28.772  1.00  0.00     0.074 A 
ATOM     51  C   UNL A   1      42.291  32.110  29.904  1.00  0.00     0.049 A 
ATOM     52  N   UNL A   1      44.791  33.749  29.424  1.00  0.00    -0.248 NA
ATOM     53  C   UNL A   1      45.268  32.335  27.627  1.00  0.00     0.031 C 
ATOM     54  C   UNL A   1      41.078  31.343  30.180  1.00  0.00     0.029 A 
ATOM     55  N   UNL A   1      42.202  33.193  30.747  1.00  0.00    -0.354 N 
ATOM     56  C   UNL A   1      45.939  34.195  28.777  1.00  0.00     0.074 A 
ATOM     57  C   UNL A   1      46.207  33.264  27.702  1.00  0.00     0.031 C 
ATOM     58  C   UNL A   1      40.386  31.960  31.156  1.00  0.00     0.029 A 
ATOM     59  C   UNL A   1      41.137  33.127  31.616  1.00  0.00     0.049 A 
ATOM     60  H   UNL A   1      42.840  33.943  30.730  1.00  0.00     0.167 HD
ATOM     61  C   UNL A   1      46.696  35.282  29.056  1.00  0.00     0.034 A 
ATOM     62  C   UNL A   1      40.841  33.888  32.693  1.00  0.00     0.034 A 
ATOM     63  C   UNL A   1      46.424  36.184  30.145  1.00  0.00     0.049 A 
ATOM     64  C   UNL A   1      41.770  35.027  33.067  1.00  0.00     0.074 A 
ATOM     65  C   UNL A   1      47.145  37.296  30.544  1.00  0.00     0.029 A 
ATOM     66  N   UNL A   1      45.345  36.077  31.012  1.00  0.00    -0.354 N 
ATOM     67  N   UNL A   1      42.880  35.416  32.481  1.00  0.00    -0.248 NA
ATOM     68  C   UNL A   1      41.412  35.827  34.249  1.00  0.00     0.031 C 
ATOM     69  C   UNL A   1      46.539  37.821  31.689  1.00  0.00     0.029 A 
ATOM     70  C   UNL A   1      45.391  37.092  31.952  1.00  0.00     0.049 A 
ATOM     71  H   UNL A   1      44.650  35.381  30.964  1.00  0.00     0.167 HD
ATOM     72  C   UNL A   1      43.316  36.533  33.191  1.00  0.00     0.074 A 
ATOM     73  C   UNL A   1      42.356  36.756  34.250  1.00  0.00     0.031 C 
ATOM     74  C   UNL A   1      44.406  37.314  32.983  1.00  0.00     0.034 A 
BRANCH  61  75
ATOM     75  C   UNL A   1      47.914  35.517  28.199  1.00  0.00     0.023 A 
ATOM     76  C   UNL A   1      49.209  35.238  28.667  1.00  0.00     0.031 A 
ATOM     77  C   UNL A   1      47.780  36.043  26.901  1.00  0.00     0.131 A 
ATOM     78  C   UNL A   1      50.321  35.539  27.868  1.00  0.00     0.055 A 
ATOM     79  C   UNL A   1      48.886  36.264  26.080  1.00  0.00     0.041 A 
ATOM     80  F   UNL A   1      46.570  36.356  26.412  1.00  0.00    -0.206 F 
ATOM     81  C   UNL A   1      50.167  36.023  26.567  1.00  0.00     0.022 A 
BRANCH  78  82
ATOM     82  S   UNL A   1      51.976  35.406  28.598  1.00  0.00     0.124 S 
ATOM     83  O   UNL A   1      51.783  36.063  29.888  1.00  0.00    -0.237 OA
ATOM     84  O   UNL A   1      52.190  33.965  28.639  1.00  0.00    -0.237 OA
ATOM     85  O   UNL A   1      52.825  36.136  27.658  1.00  0.00    -0.744 OA
ENDBRANCH  78  82
ENDBRANCH  61  75
BRANCH  62  86
ATOM     86  C   UNL A   1      39.661  33.572  33.556  1.00  0.00     0.023 A 
ATOM     87  C   UNL A   1      39.803  32.813  34.729  1.00  0.00     0.031 A 
ATOM     88  C   UNL A   1      38.358  33.934  33.165  1.00  0.00     0.131 A 
ATOM     89  C   UNL A   1      38.663  32.379  35.427  1.00  0.00     0.055 A 
ATOM     90  C   UNL A   1      37.233  33.562  33.903  1.00  0.00     0.041 A 
ATOM     91  F   UNL A   1      38.157  34.649  32.046  1.00  0.00    -0.206 F 
ATOM     92  C   UNL A   1      37.381  32.763  35.031  1.00  0.00     0.022 A 
BRANCH  89  93
ATOM     93  S   UNL A   1      38.877  31.185  36.776  1.00  0.00     0.124 S 
ATOM     94  O   UNL A   1      39.675  31.952  37.725  1.00  0.00    -0.237 OA
ATOM     95  O   UNL A   1      37.496  30.918  37.166  1.00  0.00    -0.237 OA
ATOM     96  O   UNL A   1      39.571  30.069  36.136  1.00  0.00    -0.744 OA
ENDBRANCH  89  93
ENDBRANCH  62  86
BRANCH  74  97
ATOM     97  C   UNL A   1      44.571  38.541  33.846  1.00  0.00     0.023 A 
ATOM     98  C   UNL A   1      43.741  39.668  33.718  1.00  0.00     0.031 A 
ATOM     99  C   UNL A   1      45.553  38.551  34.854  1.00  0.00     0.131 A 
ATOM    100  C   UNL A   1      43.929  40.770  34.568  1.00  0.00     0.055 A 
ATOM    101  C   UNL A   1      45.699  39.627  35.730  1.00  0.00     0.041 A 
ATOM    102  F   UNL A   1      46.371  37.498  35.020  1.00  0.00    -0.206 F 
ATOM    103  C   UNL A   1      44.889  40.747  35.585  1.00  0.00     0.022 A 
BRANCH 100 104
ATOM    104  S   UNL A   1      42.929  42.261  34.306  1.00  0.00     0.124 S 
ATOM    105  O   UNL A   1      43.712  42.980  33.307  1.00  0.00    -0.237 OA
ATOM    106  O   UNL A   1      41.659  41.711  33.845  1.00  0.00    -0.237 OA
ATOM    107  O   UNL A   1      42.887  42.885  35.628  1.00  0.00    -0.744 OA
ENDBRANCH 100 104
ENDBRANCH  74  97
ENDBRANCH  48  49
ENDBRANCH  41  43
ENDBRANCH  40  41
ENDBRANCH  39  40
ENDBRANCH  38  39
ENDBRANCH  37  38
ENDBRANCH  36  37
ENDBRANCH  35  36
ENDBRANCH  34  35
ENDBRANCH  33  34
ENDBRANCH   1  33
TORSDOF 30
ENDMDL
