MODEL 1
REMARK VINA RESULT:     -10.8      0.000      0.000
REMARK SMILES C[C@@H]1[NH2+]CC[C@H]1C(=O)N[C@@H]1CCC[C@H](C(=O)OCCOCCOCCOC(=O)c2ccc(-c3c4nc(c(-c5cc(S(=O)(=O)[O-])ccc5F)c5ccc([nH]5)c(-c5cc(S(=O)(=O)[O-])ccc5F)c5nc(c(-c6cc(S(=O)(=O)[O-])ccc6F)c6ccc3[nH]6)C=C5)C=C4)cc2)C1
REMARK SMILES IDX 22 1 21 2 20 3 19 4 18 5 17 6 15 7 16 8 14 9 10 10 11 11
REMARK SMILES IDX 92 12 12 13 13 14 9 15 7 16 8 17 6 19 1 20 2 21 3 22 4 23
REMARK SMILES IDX 5 26 23 27 24 28 25 29 26 30 27 31 28 32 29 33 30 34 91 35
REMARK SMILES IDX 31 36 90 37 32 38 33 39 34 40 84 41 35 42 89 43 83 44 85 45
REMARK SMILES IDX 36 46 88 47 82 48 81 49 37 51 69 52 49 53 68 54 50 55 53 56
REMARK SMILES IDX 67 57 86 58 51 59 52 60 66 62 87 63 54 64 38 65 39 66 47 67
REMARK SMILES IDX 40 68 46 69 48 70 45 71 41 72 42 73 43 74 44 75 70 76 71 77
REMARK SMILES IDX 79 78 72 79 78 80 80 81 77 82 73 83 74 84 75 85 76 86 55 87
REMARK SMILES IDX 56 88 64 89 57 90 63 91 65 92 62 93 58 94 59 95 60 96 61 97
REMARK H PARENT 9 18 3 24 3 25 85 50 53 61
REMARK Flexibility Score: inf
ROOT
ATOM      1  C   UNL A   1      31.056  27.608  24.500  1.00  0.00     0.188 C 
ENDROOT
BRANCH   1   2
ATOM      2  C   UNL A   1      30.833  26.361  23.635  1.00  0.00     0.188 C 
BRANCH   2   3
ATOM      3  O   UNL A   1      31.105  26.435  22.250  1.00  0.00    -0.376 OA
BRANCH   3   4
ATOM      4  C   UNL A   1      32.412  26.179  21.761  1.00  0.00     0.202 C 
BRANCH   4   5
ATOM      5  C   UNL A   1      33.182  24.909  22.136  1.00  0.00     0.261 C 
BRANCH   5   6
ATOM      6  O   UNL A   1      34.474  25.091  22.756  1.00  0.00    -0.463 OA
BRANCH   6   7
ATOM      7  C   UNL A   1      34.596  24.577  24.012  1.00  0.00     0.309 C 
ATOM      8  O   UNL A   1      34.004  25.023  24.990  1.00  0.00    -0.252 OA
BRANCH   7   9
ATOM      9  C   UNL A   1      35.670  23.507  24.170  1.00  0.00     0.101 C 
ATOM     10  C   UNL A   1      35.512  21.018  24.732  1.00  0.00     0.082 C 
ATOM     11  C   UNL A   1      36.851  21.138  25.492  1.00  0.00     0.025 C 
ATOM     12  C   UNL A   1      34.871  22.364  24.723  1.00  0.00     0.040 C 
ATOM     13  C   UNL A   1      37.696  22.354  25.067  1.00  0.00     0.003 C 
ATOM     14  C   UNL A   1      36.909  23.679  25.040  1.00  0.00     0.015 C 
BRANCH  10  15
ATOM     15  N   UNL A   1      34.607  20.048  25.382  1.00  0.00    -0.353 N 
ATOM     16  C   UNL A   1      33.280  19.740  25.331  1.00  0.00     0.229 C 
ATOM     17  O   UNL A   1      32.955  18.784  26.055  1.00  0.00    -0.275 OA
ATOM     18  H   UNL A   1      35.089  19.472  26.018  1.00  0.00     0.163 HD
BRANCH  16  19
ATOM     19  C   UNL A   1      32.163  20.422  24.507  1.00  0.00     0.142 C 
ATOM     20  C   UNL A   1      30.956  22.321  25.776  1.00  0.00     0.076 C 
ATOM     21  C   UNL A   1      31.937  21.928  24.678  1.00  0.00     0.192 C 
ATOM     22  N   UNL A   1      31.413  22.407  23.392  1.00  0.00    -0.343 N 
ATOM     23  C   UNL A   1      31.808  21.472  22.339  1.00  0.00     0.261 C 
ATOM     24  H   UNL A   1      31.796  23.331  23.191  1.00  0.00     0.346 HD
ATOM     25  H   UNL A   1      30.396  22.469  23.436  1.00  0.00     0.346 HD
ATOM     26  C   UNL A   1      32.227  20.170  23.005  1.00  0.00     0.081 C 
ENDBRANCH  16  19
ENDBRANCH  10  15
ENDBRANCH   7   9
ENDBRANCH   6   7
ENDBRANCH   5   6
ENDBRANCH   4   5
ENDBRANCH   3   4
ENDBRANCH   2   3
ENDBRANCH   1   2
BRANCH   1  27
ATOM     27  O   UNL A   1      32.348  28.038  24.856  1.00  0.00    -0.376 OA
BRANCH  27  28
ATOM     28  C   UNL A   1      32.598  29.430  24.854  1.00  0.00     0.202 C 
BRANCH  28  29
ATOM     29  C   UNL A   1      31.839  30.390  25.793  1.00  0.00     0.261 C 
BRANCH  29  30
ATOM     30  O   UNL A   1      32.394  30.613  27.102  1.00  0.00    -0.460 OA
BRANCH  30  31
ATOM     31  C   UNL A   1      33.102  31.765  27.258  1.00  0.00     0.338 C 
ATOM     32  O   UNL A   1      32.648  32.900  27.234  1.00  0.00    -0.246 OA
BRANCH  31  33
ATOM     33  C   UNL A   1      34.471  31.442  27.745  1.00  0.00     0.060 A 
ATOM     34  C   UNL A   1      34.786  30.105  28.051  1.00  0.00     0.016 A 
ATOM     35  C   UNL A   1      35.436  32.435  27.897  1.00  0.00     0.016 A 
ATOM     36  C   UNL A   1      36.054  29.762  28.527  1.00  0.00     0.010 A 
ATOM     37  C   UNL A   1      36.693  32.097  28.416  1.00  0.00     0.010 A 
ATOM     38  C   UNL A   1      36.999  30.766  28.764  1.00  0.00    -0.014 A 
BRANCH  38  39
ATOM     39  C   UNL A   1      38.192  30.478  29.604  1.00  0.00     0.031 A 
ATOM     40  C   UNL A   1      39.224  29.530  29.052  1.00  0.00     0.074 A 
ATOM     41  C   UNL A   1      38.374  31.034  30.815  1.00  0.00     0.049 A 
ATOM     42  N   UNL A   1      40.279  29.014  29.625  1.00  0.00    -0.248 NA
ATOM     43  C   UNL A   1      39.022  29.101  27.659  1.00  0.00     0.031 C 
ATOM     44  C   UNL A   1      37.493  32.017  31.440  1.00  0.00     0.029 A 
ATOM     45  N   UNL A   1      39.363  30.828  31.748  1.00  0.00    -0.354 N 
ATOM     46  C   UNL A   1      40.862  28.191  28.668  1.00  0.00     0.074 A 
ATOM     47  C   UNL A   1      40.017  28.247  27.495  1.00  0.00     0.031 C 
ATOM     48  C   UNL A   1      37.965  32.308  32.666  1.00  0.00     0.029 A 
ATOM     49  C   UNL A   1      39.155  31.498  32.932  1.00  0.00     0.049 A 
ATOM     50  H   UNL A   1      40.148  30.255  31.584  1.00  0.00     0.167 HD
ATOM     51  C   UNL A   1      42.003  27.461  28.754  1.00  0.00     0.034 A 
ATOM     52  C   UNL A   1      39.821  31.434  34.105  1.00  0.00     0.034 A 
ATOM     53  C   UNL A   1      42.824  27.394  29.937  1.00  0.00     0.049 A 
ATOM     54  C   UNL A   1      41.026  30.526  34.224  1.00  0.00     0.074 A 
ATOM     55  C   UNL A   1      43.992  26.680  30.137  1.00  0.00     0.029 A 
ATOM     56  N   UNL A   1      42.556  28.053  31.131  1.00  0.00    -0.354 N 
ATOM     57  N   UNL A   1      41.564  29.739  33.319  1.00  0.00    -0.248 NA
ATOM     58  C   UNL A   1      41.715  30.502  35.521  1.00  0.00     0.031 C 
ATOM     59  C   UNL A   1      44.386  26.844  31.470  1.00  0.00     0.029 A 
ATOM     60  C   UNL A   1      43.517  27.735  32.079  1.00  0.00     0.049 A 
ATOM     61  H   UNL A   1      41.794  28.658  31.283  1.00  0.00     0.167 HD
ATOM     62  C   UNL A   1      42.672  29.154  33.930  1.00  0.00     0.074 A 
ATOM     63  C   UNL A   1      42.732  29.688  35.275  1.00  0.00     0.031 C 
ATOM     64  C   UNL A   1      43.564  28.263  33.424  1.00  0.00     0.034 A 
BRANCH  51  65
ATOM     65  C   UNL A   1      42.382  26.634  27.548  1.00  0.00     0.023 A 
ATOM     66  C   UNL A   1      41.955  25.302  27.403  1.00  0.00     0.031 A 
ATOM     67  C   UNL A   1      43.227  27.165  26.557  1.00  0.00     0.131 A 
ATOM     68  C   UNL A   1      42.445  24.521  26.345  1.00  0.00     0.055 A 
ATOM     69  C   UNL A   1      43.635  26.410  25.456  1.00  0.00     0.041 A 
ATOM     70  F   UNL A   1      43.689  28.422  26.654  1.00  0.00    -0.206 F 
ATOM     71  C   UNL A   1      43.259  25.074  25.355  1.00  0.00     0.022 A 
BRANCH  68  72
ATOM     72  S   UNL A   1      42.145  22.733  26.381  1.00  0.00     0.124 S 
ATOM     73  O   UNL A   1      40.689  22.680  26.490  1.00  0.00    -0.237 OA
ATOM     74  O   UNL A   1      42.704  22.294  25.107  1.00  0.00    -0.237 OA
ATOM     75  O   UNL A   1      42.869  22.287  27.570  1.00  0.00    -0.744 OA
ENDBRANCH  68  72
ENDBRANCH  51  65
BRANCH  52  76
ATOM     76  C   UNL A   1      39.336  32.201  35.291  1.00  0.00     0.023 A 
ATOM     77  C   UNL A   1      38.677  31.567  36.356  1.00  0.00     0.031 A 
ATOM     78  C   UNL A   1      39.479  33.600  35.346  1.00  0.00     0.131 A 
ATOM     79  C   UNL A   1      38.153  32.331  37.410  1.00  0.00     0.055 A 
ATOM     80  C   UNL A   1      39.006  34.350  36.425  1.00  0.00     0.041 A 
ATOM     81  F   UNL A   1      40.092  34.260  34.350  1.00  0.00    -0.206 F 
ATOM     82  C   UNL A   1      38.327  33.716  37.460  1.00  0.00     0.022 A 
BRANCH  79  83
ATOM     83  S   UNL A   1      37.162  31.498  38.682  1.00  0.00     0.124 S 
ATOM     84  O   UNL A   1      35.934  32.284  38.664  1.00  0.00    -0.237 OA
ATOM     85  O   UNL A   1      37.066  30.143  38.151  1.00  0.00    -0.237 OA
ATOM     86  O   UNL A   1      37.974  31.635  39.890  1.00  0.00    -0.744 OA
ENDBRANCH  79  83
ENDBRANCH  52  76
BRANCH  64  87
ATOM     87  C   UNL A   1      44.718  27.849  34.311  1.00  0.00     0.023 A 
ATOM     88  C   UNL A   1      44.708  26.645  35.036  1.00  0.00     0.031 A 
ATOM     89  C   UNL A   1      45.849  28.678  34.427  1.00  0.00     0.131 A 
ATOM     90  C   UNL A   1      45.781  26.331  35.887  1.00  0.00     0.055 A 
ATOM     91  C   UNL A   1      46.941  28.329  35.223  1.00  0.00     0.041 A 
ATOM     92  F   UNL A   1      45.915  29.842  33.761  1.00  0.00    -0.206 F 
ATOM     93  C   UNL A   1      46.906  27.156  35.969  1.00  0.00     0.022 A 
BRANCH  90  94
ATOM     94  S   UNL A   1      45.645  24.877  36.963  1.00  0.00     0.124 S 
ATOM     95  O   UNL A   1      44.871  25.400  38.084  1.00  0.00    -0.237 OA
ATOM     96  O   UNL A   1      44.958  23.916  36.106  1.00  0.00    -0.237 OA
ATOM     97  O   UNL A   1      47.036  24.547  37.271  1.00  0.00    -0.744 OA
ENDBRANCH  90  94
ENDBRANCH  64  87
ENDBRANCH  38  39
ENDBRANCH  31  33
ENDBRANCH  30  31
ENDBRANCH  29  30
ENDBRANCH  28  29
ENDBRANCH  27  28
ENDBRANCH   1  27
TORSDOF 22
ENDMDL
MODEL 2
REMARK VINA RESULT:     -10.6      1.732      7.980
REMARK SMILES C[C@@H]1[NH2+]CC[C@H]1C(=O)N[C@@H]1CCC[C@H](C(=O)OCCOCCOCCOC(=O)c2ccc(-c3c4nc(c(-c5cc(S(=O)(=O)[O-])ccc5F)c5ccc([nH]5)c(-c5cc(S(=O)(=O)[O-])ccc5F)c5nc(c(-c6cc(S(=O)(=O)[O-])ccc6F)c6ccc3[nH]6)C=C5)C=C4)cc2)C1
REMARK SMILES IDX 22 1 21 2 20 3 19 4 18 5 17 6 15 7 16 8 14 9 10 10 11 11
REMARK SMILES IDX 92 12 12 13 13 14 9 15 7 16 8 17 6 19 1 20 2 21 3 22 4 23
REMARK SMILES IDX 5 26 23 27 24 28 25 29 26 30 27 31 28 32 29 33 30 34 91 35
REMARK SMILES IDX 31 36 90 37 32 38 33 39 34 40 84 41 35 42 89 43 83 44 85 45
REMARK SMILES IDX 36 46 88 47 82 48 81 49 37 51 69 52 49 53 68 54 50 55 53 56
REMARK SMILES IDX 67 57 86 58 51 59 52 60 66 62 87 63 54 64 38 65 39 66 47 67
REMARK SMILES IDX 40 68 46 69 48 70 45 71 41 72 42 73 43 74 44 75 70 76 71 77
REMARK SMILES IDX 79 78 72 79 78 80 80 81 77 82 73 83 74 84 75 85 76 86 55 87
REMARK SMILES IDX 56 88 64 89 57 90 63 91 65 92 62 93 58 94 59 95 60 96 61 97
REMARK H PARENT 9 18 3 24 3 25 85 50 53 61
REMARK Flexibility Score: inf
ROOT
ATOM      1  C   UNL A   1      32.716  30.710  26.957  1.00  0.00     0.188 C 
ENDROOT
BRANCH   1   2
ATOM      2  C   UNL A   1      33.176  29.825  25.791  1.00  0.00     0.188 C 
BRANCH   2   3
ATOM      3  O   UNL A   1      32.522  28.592  25.571  1.00  0.00    -0.376 OA
BRANCH   3   4
ATOM      4  C   UNL A   1      31.726  28.011  26.591  1.00  0.00     0.202 C 
BRANCH   4   5
ATOM      5  C   UNL A   1      31.112  26.615  26.441  1.00  0.00     0.261 C 
BRANCH   5   6
ATOM      6  O   UNL A   1      32.023  25.494  26.499  1.00  0.00    -0.463 OA
BRANCH   6   7
ATOM      7  C   UNL A   1      31.446  24.267  26.368  1.00  0.00     0.309 C 
ATOM      8  O   UNL A   1      30.465  23.904  27.009  1.00  0.00    -0.252 OA
BRANCH   7   9
ATOM      9  C   UNL A   1      32.213  23.284  25.490  1.00  0.00     0.101 C 
ATOM     10  C   UNL A   1      33.057  23.464  23.083  1.00  0.00     0.082 C 
ATOM     11  C   UNL A   1      32.788  21.954  22.910  1.00  0.00     0.025 C 
ATOM     12  C   UNL A   1      32.153  23.969  24.156  1.00  0.00     0.040 C 
ATOM     13  C   UNL A   1      32.720  21.181  24.241  1.00  0.00     0.003 C 
ATOM     14  C   UNL A   1      31.798  21.831  25.291  1.00  0.00     0.015 C 
BRANCH  10  15
ATOM     15  N   UNL A   1      32.797  24.206  21.832  1.00  0.00    -0.353 N 
ATOM     16  C   UNL A   1      32.484  25.487  21.485  1.00  0.00     0.229 C 
ATOM     17  O   UNL A   1      32.393  25.669  20.260  1.00  0.00    -0.275 OA
ATOM     18  H   UNL A   1      32.870  23.623  21.043  1.00  0.00     0.163 HD
BRANCH  16  19
ATOM     19  C   UNL A   1      32.231  26.701  22.407  1.00  0.00     0.142 C 
ATOM     20  C   UNL A   1      34.232  28.328  22.548  1.00  0.00     0.076 C 
ATOM     21  C   UNL A   1      32.829  28.058  22.020  1.00  0.00     0.192 C 
ATOM     22  N   UNL A   1      31.921  29.073  22.570  1.00  0.00    -0.343 N 
ATOM     23  C   UNL A   1      30.600  28.475  22.766  1.00  0.00     0.261 C 
ATOM     24  H   UNL A   1      31.849  29.856  21.919  1.00  0.00     0.346 HD
ATOM     25  H   UNL A   1      32.283  29.412  23.461  1.00  0.00     0.346 HD
ATOM     26  C   UNL A   1      30.765  26.964  22.738  1.00  0.00     0.081 C 
ENDBRANCH  16  19
ENDBRANCH  10  15
ENDBRANCH   7   9
ENDBRANCH   6   7
ENDBRANCH   5   6
ENDBRANCH   4   5
ENDBRANCH   3   4
ENDBRANCH   2   3
ENDBRANCH   1   2
BRANCH   1  27
ATOM     27  O   UNL A   1      31.527  31.460  26.889  1.00  0.00    -0.376 OA
BRANCH  27  28
ATOM     28  C   UNL A   1      31.641  32.842  26.606  1.00  0.00     0.202 C 
BRANCH  28  29
ATOM     29  C   UNL A   1      32.355  33.810  27.572  1.00  0.00     0.261 C 
BRANCH  29  30
ATOM     30  O   UNL A   1      33.780  33.953  27.431  1.00  0.00    -0.460 OA
BRANCH  30  31
ATOM     31  C   UNL A   1      34.448  34.364  28.545  1.00  0.00     0.338 C 
ATOM     32  O   UNL A   1      34.086  35.233  29.324  1.00  0.00    -0.246 OA
BRANCH  31  33
ATOM     33  C   UNL A   1      35.551  33.409  28.839  1.00  0.00     0.060 A 
ATOM     34  C   UNL A   1      35.229  32.120  29.302  1.00  0.00     0.016 A 
ATOM     35  C   UNL A   1      36.885  33.770  28.661  1.00  0.00     0.016 A 
ATOM     36  C   UNL A   1      36.235  31.200  29.606  1.00  0.00     0.010 A 
ATOM     37  C   UNL A   1      37.894  32.862  29.009  1.00  0.00     0.010 A 
ATOM     38  C   UNL A   1      37.577  31.585  29.513  1.00  0.00    -0.014 A 
BRANCH  38  39
ATOM     39  C   UNL A   1      38.630  30.770  30.175  1.00  0.00     0.031 A 
ATOM     40  C   UNL A   1      38.964  31.091  31.608  1.00  0.00     0.074 A 
ATOM     41  C   UNL A   1      39.275  29.771  29.545  1.00  0.00     0.049 A 
ATOM     42  N   UNL A   1      39.920  30.626  32.370  1.00  0.00    -0.248 NA
ATOM     43  C   UNL A   1      38.099  32.084  32.263  1.00  0.00     0.031 C 
ATOM     44  C   UNL A   1      39.005  29.311  28.186  1.00  0.00     0.029 A 
ATOM     45  N   UNL A   1      40.312  28.975  29.971  1.00  0.00    -0.354 N 
ATOM     46  C   UNL A   1      39.779  31.278  33.590  1.00  0.00     0.074 A 
ATOM     47  C   UNL A   1      38.672  32.199  33.449  1.00  0.00     0.031 C 
ATOM     48  C   UNL A   1      39.874  28.332  27.878  1.00  0.00     0.029 A 
ATOM     49  C   UNL A   1      40.792  28.127  28.999  1.00  0.00     0.049 A 
ATOM     50  H   UNL A   1      40.677  29.008  30.885  1.00  0.00     0.167 HD
ATOM     51  C   UNL A   1      40.500  31.119  34.729  1.00  0.00     0.034 A 
ATOM     52  C   UNL A   1      41.870  27.314  29.000  1.00  0.00     0.034 A 
ATOM     53  C   UNL A   1      41.617  30.216  34.850  1.00  0.00     0.049 A 
ATOM     54  C   UNL A   1      42.735  27.231  30.239  1.00  0.00     0.074 A 
ATOM     55  C   UNL A   1      42.421  29.982  35.951  1.00  0.00     0.029 A 
ATOM     56  N   UNL A   1      42.099  29.405  33.829  1.00  0.00    -0.354 N 
ATOM     57  N   UNL A   1      42.604  27.862  31.385  1.00  0.00    -0.248 NA
ATOM     58  C   UNL A   1      43.890  26.324  30.185  1.00  0.00     0.031 C 
ATOM     59  C   UNL A   1      43.435  29.094  35.574  1.00  0.00     0.029 A 
ATOM     60  C   UNL A   1      43.211  28.698  34.266  1.00  0.00     0.049 A 
ATOM     61  H   UNL A   1      41.711  29.342  32.927  1.00  0.00     0.167 HD
ATOM     62  C   UNL A   1      43.641  27.400  32.196  1.00  0.00     0.074 A 
ATOM     63  C   UNL A   1      44.379  26.432  31.412  1.00  0.00     0.031 C 
ATOM     64  C   UNL A   1      43.950  27.741  33.474  1.00  0.00     0.034 A 
BRANCH  51  65
ATOM     65  C   UNL A   1      40.128  31.992  35.904  1.00  0.00     0.023 A 
ATOM     66  C   UNL A   1      39.144  31.604  36.830  1.00  0.00     0.031 A 
ATOM     67  C   UNL A   1      40.725  33.254  36.070  1.00  0.00     0.131 A 
ATOM     68  C   UNL A   1      38.723  32.502  37.822  1.00  0.00     0.055 A 
ATOM     69  C   UNL A   1      40.367  34.106  37.117  1.00  0.00     0.041 A 
ATOM     70  F   UNL A   1      41.652  33.693  35.203  1.00  0.00    -0.206 F 
ATOM     71  C   UNL A   1      39.347  33.739  37.990  1.00  0.00     0.022 A 
BRANCH  68  72
ATOM     72  S   UNL A   1      37.232  32.100  38.775  1.00  0.00     0.124 S 
ATOM     73  O   UNL A   1      36.231  32.940  38.124  1.00  0.00    -0.237 OA
ATOM     74  O   UNL A   1      37.098  30.664  38.558  1.00  0.00    -0.237 OA
ATOM     75  O   UNL A   1      37.579  32.497  40.138  1.00  0.00    -0.744 OA
ENDBRANCH  68  72
ENDBRANCH  51  65
BRANCH  52  76
ATOM     76  C   UNL A   1      42.241  26.552  27.770  1.00  0.00     0.023 A 
ATOM     77  C   UNL A   1      41.922  25.193  27.624  1.00  0.00     0.031 A 
ATOM     78  C   UNL A   1      42.975  27.169  26.740  1.00  0.00     0.131 A 
ATOM     79  C   UNL A   1      42.368  24.485  26.496  1.00  0.00     0.055 A 
ATOM     80  C   UNL A   1      43.368  26.475  25.593  1.00  0.00     0.041 A 
ATOM     81  F   UNL A   1      43.318  28.464  26.832  1.00  0.00    -0.206 F 
ATOM     82  C   UNL A   1      43.074  25.121  25.473  1.00  0.00     0.022 A 
BRANCH  79  83
ATOM     83  S   UNL A   1      42.083  22.694  26.422  1.00  0.00     0.124 S 
ATOM     84  O   UNL A   1      42.929  22.214  27.508  1.00  0.00    -0.237 OA
ATOM     85  O   UNL A   1      40.643  22.608  26.642  1.00  0.00    -0.237 OA
ATOM     86  O   UNL A   1      42.527  22.335  25.077  1.00  0.00    -0.744 OA
ENDBRANCH  79  83
ENDBRANCH  52  76
BRANCH  64  87
ATOM     87  C   UNL A   1      45.107  27.019  34.129  1.00  0.00     0.023 A 
ATOM     88  C   UNL A   1      44.966  25.742  34.699  1.00  0.00     0.031 A 
ATOM     89  C   UNL A   1      46.376  27.625  34.180  1.00  0.00     0.131 A 
ATOM     90  C   UNL A   1      46.058  25.137  35.342  1.00  0.00     0.055 A 
ATOM     91  C   UNL A   1      47.474  26.990  34.763  1.00  0.00     0.041 A 
ATOM     92  F   UNL A   1      46.573  28.846  33.656  1.00  0.00    -0.206 F 
ATOM     93  C   UNL A   1      47.316  25.744  35.360  1.00  0.00     0.022 A 
BRANCH  90  94
ATOM     94  S   UNL A   1      45.791  23.585  36.244  1.00  0.00     0.124 S 
ATOM     95  O   UNL A   1      46.898  22.763  35.768  1.00  0.00    -0.237 OA
ATOM     96  O   UNL A   1      45.867  24.016  37.637  1.00  0.00    -0.237 OA
ATOM     97  O   UNL A   1      44.465  23.156  35.802  1.00  0.00    -0.744 OA
ENDBRANCH  90  94
ENDBRANCH  64  87
ENDBRANCH  38  39
ENDBRANCH  31  33
ENDBRANCH  30  31
ENDBRANCH  29  30
ENDBRANCH  28  29
ENDBRANCH  27  28
ENDBRANCH   1  27
TORSDOF 22
ENDMDL
MODEL 3
REMARK VINA RESULT:     -10.6      1.315      2.256
REMARK SMILES C[C@@H]1[NH2+]CC[C@H]1C(=O)N[C@@H]1CCC[C@H](C(=O)OCCOCCOCCOC(=O)c2ccc(-c3c4nc(c(-c5cc(S(=O)(=O)[O-])ccc5F)c5ccc([nH]5)c(-c5cc(S(=O)(=O)[O-])ccc5F)c5nc(c(-c6cc(S(=O)(=O)[O-])ccc6F)c6ccc3[nH]6)C=C5)C=C4)cc2)C1
REMARK SMILES IDX 22 1 21 2 20 3 19 4 18 5 17 6 15 7 16 8 14 9 10 10 11 11
REMARK SMILES IDX 92 12 12 13 13 14 9 15 7 16 8 17 6 19 1 20 2 21 3 22 4 23
REMARK SMILES IDX 5 26 23 27 24 28 25 29 26 30 27 31 28 32 29 33 30 34 91 35
REMARK SMILES IDX 31 36 90 37 32 38 33 39 34 40 84 41 35 42 89 43 83 44 85 45
REMARK SMILES IDX 36 46 88 47 82 48 81 49 37 51 69 52 49 53 68 54 50 55 53 56
REMARK SMILES IDX 67 57 86 58 51 59 52 60 66 62 87 63 54 64 38 65 39 66 47 67
REMARK SMILES IDX 40 68 46 69 48 70 45 71 41 72 42 73 43 74 44 75 70 76 71 77
REMARK SMILES IDX 79 78 72 79 78 80 80 81 77 82 73 83 74 84 75 85 76 86 55 87
REMARK SMILES IDX 56 88 64 89 57 90 63 91 65 92 62 93 58 94 59 95 60 96 61 97
REMARK H PARENT 9 18 3 24 3 25 85 50 53 61
REMARK Flexibility Score: inf
ROOT
ATOM      1  C   UNL A   1      30.278  28.917  24.210  1.00  0.00     0.188 C 
ENDROOT
BRANCH   1   2
ATOM      2  C   UNL A   1      29.898  27.971  23.064  1.00  0.00     0.188 C 
BRANCH   2   3
ATOM      3  O   UNL A   1      30.621  28.043  21.852  1.00  0.00    -0.376 OA
BRANCH   3   4
ATOM      4  C   UNL A   1      31.892  27.424  21.738  1.00  0.00     0.202 C 
BRANCH   4   5
ATOM      5  C   UNL A   1      32.055  26.009  21.173  1.00  0.00     0.261 C 
BRANCH   5   6
ATOM      6  O   UNL A   1      33.176  25.239  21.662  1.00  0.00    -0.463 OA
BRANCH   6   7
ATOM      7  C   UNL A   1      32.855  24.194  22.475  1.00  0.00     0.309 C 
ATOM      8  O   UNL A   1      32.934  23.018  22.135  1.00  0.00    -0.252 OA
BRANCH   7   9
ATOM      9  C   UNL A   1      32.206  24.582  23.799  1.00  0.00     0.101 C 
ATOM     10  C   UNL A   1      32.703  23.866  26.202  1.00  0.00     0.082 C 
ATOM     11  C   UNL A   1      31.194  23.974  26.512  1.00  0.00     0.025 C 
ATOM     12  C   UNL A   1      32.852  23.609  24.741  1.00  0.00     0.040 C 
ATOM     13  C   UNL A   1      30.423  24.869  25.524  1.00  0.00     0.003 C 
ATOM     14  C   UNL A   1      30.703  24.546  24.043  1.00  0.00     0.015 C 
BRANCH  10  15
ATOM     15  N   UNL A   1      33.333  22.766  26.961  1.00  0.00    -0.353 N 
ATOM     16  C   UNL A   1      34.412  21.946  26.810  1.00  0.00     0.229 C 
ATOM     17  O   UNL A   1      34.586  21.161  27.756  1.00  0.00    -0.275 OA
ATOM     18  H   UNL A   1      32.846  22.575  27.794  1.00  0.00     0.163 HD
BRANCH  16  19
ATOM     19  C   UNL A   1      35.411  21.876  25.632  1.00  0.00     0.142 C 
ATOM     20  C   UNL A   1      36.659  24.096  25.201  1.00  0.00     0.076 C 
ATOM     21  C   UNL A   1      36.720  22.667  25.728  1.00  0.00     0.192 C 
ATOM     22  N   UNL A   1      37.705  21.920  24.935  1.00  0.00    -0.343 N 
ATOM     23  C   UNL A   1      37.274  20.526  24.832  1.00  0.00     0.261 C 
ATOM     24  H   UNL A   1      38.616  21.964  25.393  1.00  0.00     0.346 HD
ATOM     25  H   UNL A   1      37.779  22.329  24.004  1.00  0.00     0.346 HD
ATOM     26  C   UNL A   1      35.800  20.466  25.201  1.00  0.00     0.081 C 
ENDBRANCH  16  19
ENDBRANCH  10  15
ENDBRANCH   7   9
ENDBRANCH   6   7
ENDBRANCH   5   6
ENDBRANCH   4   5
ENDBRANCH   3   4
ENDBRANCH   2   3
ENDBRANCH   1   2
BRANCH   1  27
ATOM     27  O   UNL A   1      31.357  28.638  25.069  1.00  0.00    -0.376 OA
BRANCH  27  28
ATOM     28  C   UNL A   1      32.297  29.672  25.295  1.00  0.00     0.202 C 
BRANCH  28  29
ATOM     29  C   UNL A   1      31.986  30.859  26.229  1.00  0.00     0.261 C 
BRANCH  29  30
ATOM     30  O   UNL A   1      32.732  30.949  27.456  1.00  0.00    -0.460 OA
BRANCH  30  31
ATOM     31  C   UNL A   1      33.539  32.039  27.582  1.00  0.00     0.338 C 
ATOM     32  O   UNL A   1      33.178  33.207  27.582  1.00  0.00    -0.246 OA
BRANCH  31  33
ATOM     33  C   UNL A   1      34.897  31.602  28.005  1.00  0.00     0.060 A 
ATOM     34  C   UNL A   1      35.105  30.249  28.333  1.00  0.00     0.016 A 
ATOM     35  C   UNL A   1      35.956  32.504  28.075  1.00  0.00     0.016 A 
ATOM     36  C   UNL A   1      36.361  29.802  28.750  1.00  0.00     0.010 A 
ATOM     37  C   UNL A   1      37.204  32.063  28.536  1.00  0.00     0.010 A 
ATOM     38  C   UNL A   1      37.406  30.719  28.906  1.00  0.00    -0.014 A 
BRANCH  38  39
ATOM     39  C   UNL A   1      38.612  30.342  29.690  1.00  0.00     0.031 A 
ATOM     40  C   UNL A   1      39.536  29.309  29.098  1.00  0.00     0.074 A 
ATOM     41  C   UNL A   1      38.899  30.890  30.884  1.00  0.00     0.049 A 
ATOM     42  N   UNL A   1      40.574  28.714  29.624  1.00  0.00    -0.248 NA
ATOM     43  C   UNL A   1      39.231  28.887  27.722  1.00  0.00     0.031 C 
ATOM     44  C   UNL A   1      38.132  31.946  31.540  1.00  0.00     0.029 A 
ATOM     45  N   UNL A   1      39.914  30.612  31.769  1.00  0.00    -0.354 N 
ATOM     46  C   UNL A   1      41.040  27.839  28.649  1.00  0.00     0.074 A 
ATOM     47  C   UNL A   1      40.144  27.955  27.518  1.00  0.00     0.031 C 
ATOM     48  C   UNL A   1      38.687  32.206  32.737  1.00  0.00     0.029 A 
ATOM     49  C   UNL A   1      39.820  31.305  32.953  1.00  0.00     0.049 A 
ATOM     50  H   UNL A   1      40.641  29.976  31.573  1.00  0.00     0.167 HD
ATOM     51  C   UNL A   1      42.122  27.020  28.687  1.00  0.00     0.034 A 
ATOM     52  C   UNL A   1      40.537  31.197  34.093  1.00  0.00     0.034 A 
ATOM     53  C   UNL A   1      42.993  26.896  29.829  1.00  0.00     0.049 A 
ATOM     54  C   UNL A   1      41.670  30.195  34.162  1.00  0.00     0.074 A 
ATOM     55  C   UNL A   1      44.109  26.092  29.978  1.00  0.00     0.029 A 
ATOM     56  N   UNL A   1      42.839  27.584  31.026  1.00  0.00    -0.354 N 
ATOM     57  N   UNL A   1      42.097  29.360  33.241  1.00  0.00    -0.248 NA
ATOM     58  C   UNL A   1      42.420  30.125  35.424  1.00  0.00     0.031 C 
ATOM     59  C   UNL A   1      44.581  26.234  31.288  1.00  0.00     0.029 A 
ATOM     60  C   UNL A   1      43.818  27.196  31.929  1.00  0.00     0.049 A 
ATOM     61  H   UNL A   1      42.136  28.250  31.209  1.00  0.00     0.167 HD
ATOM     62  C   UNL A   1      43.184  28.693  33.803  1.00  0.00     0.074 A 
ATOM     63  C   UNL A   1      43.354  29.230  35.138  1.00  0.00     0.031 C 
ATOM     64  C   UNL A   1      43.975  27.729  33.264  1.00  0.00     0.034 A 
BRANCH  51  65
ATOM     65  C   UNL A   1      42.371  26.156  27.473  1.00  0.00     0.023 A 
ATOM     66  C   UNL A   1      41.862  24.850  27.380  1.00  0.00     0.031 A 
ATOM     67  C   UNL A   1      43.177  26.624  26.420  1.00  0.00     0.131 A 
ATOM     68  C   UNL A   1      42.235  24.027  26.306  1.00  0.00     0.055 A 
ATOM     69  C   UNL A   1      43.468  25.832  25.307  1.00  0.00     0.041 A 
ATOM     70  F   UNL A   1      43.715  27.854  26.463  1.00  0.00    -0.206 F 
ATOM     71  C   UNL A   1      43.011  24.518  25.255  1.00  0.00     0.022 A 
BRANCH  68  72
ATOM     72  S   UNL A   1      41.837  22.259  26.393  1.00  0.00     0.124 S 
ATOM     73  O   UNL A   1      40.382  22.277  26.267  1.00  0.00    -0.237 OA
ATOM     74  O   UNL A   1      42.569  21.716  25.254  1.00  0.00    -0.237 OA
ATOM     75  O   UNL A   1      42.337  21.859  27.707  1.00  0.00    -0.744 OA
ENDBRANCH  68  72
ENDBRANCH  51  65
BRANCH  52  76
ATOM     76  C   UNL A   1      40.175  32.009  35.292  1.00  0.00     0.023 A 
ATOM     77  C   UNL A   1      39.219  31.565  36.219  1.00  0.00     0.031 A 
ATOM     78  C   UNL A   1      40.749  33.278  35.497  1.00  0.00     0.131 A 
ATOM     79  C   UNL A   1      38.837  32.396  37.284  1.00  0.00     0.055 A 
ATOM     80  C   UNL A   1      40.406  34.077  36.590  1.00  0.00     0.041 A 
ATOM     81  F   UNL A   1      41.661  33.758  34.636  1.00  0.00    -0.206 F 
ATOM     82  C   UNL A   1      39.435  33.642  37.485  1.00  0.00     0.022 A 
BRANCH  79  83
ATOM     83  S   UNL A   1      37.479  31.860  38.363  1.00  0.00     0.124 S 
ATOM     84  O   UNL A   1      36.449  32.845  38.055  1.00  0.00    -0.237 OA
ATOM     85  O   UNL A   1      37.232  30.503  37.888  1.00  0.00    -0.237 OA
ATOM     86  O   UNL A   1      38.053  31.954  39.704  1.00  0.00    -0.744 OA
ENDBRANCH  79  83
ENDBRANCH  52  76
BRANCH  64  87
ATOM     87  C   UNL A   1      45.135  27.230  34.097  1.00  0.00     0.023 A 
ATOM     88  C   UNL A   1      45.037  26.082  34.903  1.00  0.00     0.031 A 
ATOM     89  C   UNL A   1      46.362  27.920  34.080  1.00  0.00     0.131 A 
ATOM     90  C   UNL A   1      46.126  25.690  35.698  1.00  0.00     0.055 A 
ATOM     91  C   UNL A   1      47.461  27.487  34.823  1.00  0.00     0.041 A 
ATOM     92  F   UNL A   1      46.515  29.025  33.333  1.00  0.00    -0.206 F 
ATOM     93  C   UNL A   1      47.344  26.373  35.648  1.00  0.00     0.022 A 
BRANCH  90  94
ATOM     94  S   UNL A   1      45.901  24.330  36.878  1.00  0.00     0.124 S 
ATOM     95  O   UNL A   1      44.969  23.462  36.167  1.00  0.00    -0.237 OA
ATOM     96  O   UNL A   1      47.260  23.820  37.031  1.00  0.00    -0.237 OA
ATOM     97  O   UNL A   1      45.352  24.990  38.062  1.00  0.00    -0.744 OA
ENDBRANCH  90  94
ENDBRANCH  64  87
ENDBRANCH  38  39
ENDBRANCH  31  33
ENDBRANCH  30  31
ENDBRANCH  29  30
ENDBRANCH  28  29
ENDBRANCH  27  28
ENDBRANCH   1  27
TORSDOF 22
ENDMDL
