MODEL 1
REMARK VINA RESULT:      -7.8      0.000      0.000
REMARK SMILES C=CCN(CC(=O)OCCOCCOCCOC(=O)c1ccc(-c2c3nc(c(-c4cc(S(=O)(=O)[O-])ccc4F)c4ccc([nH]4)c(-c4cc(S(=O)(=O)[O-])ccc4F)c4nc(c(-c5cc(S(=O)(=O)[O-])ccc5F)c5ccc2[nH]5)C=C4)C=C3)cc1)C(=O)c1ccc(C[NH3+])cc1
REMARK SMILES IDX 12 1 11 2 10 3 9 4 8 5 6 6 7 7 5 8 4 9 3 10 2 11 1 12 83 13
REMARK SMILES IDX 84 14 85 15 86 16 92 17 87 18 91 19 88 20 89 21 90 22 13 26
REMARK SMILES IDX 14 27 15 28 16 29 17 30 18 31 19 32 20 33 21 34 82 35 22 36
REMARK SMILES IDX 81 37 23 38 24 39 25 40 75 41 26 42 80 43 74 44 76 45 27 46
REMARK SMILES IDX 79 47 73 48 72 49 28 51 60 52 40 53 59 54 41 55 44 56 58 57
REMARK SMILES IDX 77 58 42 59 43 60 57 62 78 63 45 64 29 65 30 66 38 67 31 68
REMARK SMILES IDX 37 69 39 70 36 71 32 72 33 73 34 74 35 75 61 76 62 77 70 78
REMARK SMILES IDX 63 79 69 80 71 81 68 82 64 83 65 84 66 85 67 86 46 87 47 88
REMARK SMILES IDX 55 89 48 90 54 91 56 92 53 93 49 94 50 95 51 96 52 97
REMARK H PARENT 90 23 90 24 90 25 76 50 44 61
REMARK Flexibility Score: inf
ROOT
ATOM      1  C   UNL A   1      40.285  20.979  26.804  1.00  0.00     0.188 C 
ENDROOT
BRANCH   1   2
ATOM      2  O   UNL A   1      38.932  21.361  26.684  1.00  0.00    -0.376 OA
BRANCH   2   3
ATOM      3  C   UNL A   1      38.592  21.954  25.441  1.00  0.00     0.202 C 
BRANCH   3   4
ATOM      4  C   UNL A   1      37.088  22.011  25.021  1.00  0.00     0.261 C 
BRANCH   4   5
ATOM      5  O   UNL A   1      36.094  22.539  25.975  1.00  0.00    -0.462 OA
BRANCH   5   6
ATOM      6  C   UNL A   1      34.958  21.825  26.232  1.00  0.00     0.325 C 
ATOM      7  O   UNL A   1      34.590  21.595  27.385  1.00  0.00    -0.250 OA
BRANCH   6   8
ATOM      8  C   UNL A   1      34.088  21.284  24.996  1.00  0.00     0.242 C 
BRANCH   8   9
ATOM      9  N   UNL A   1      32.739  21.692  24.456  1.00  0.00    -0.324 N 
BRANCH   9  10
ATOM     10  C   UNL A   1      31.633  21.541  25.409  1.00  0.00     0.147 C 
BRANCH  10  11
ATOM     11  C   UNL A   1      31.527  22.744  26.319  1.00  0.00    -0.014 C 
ATOM     12  C   UNL A   1      30.360  23.185  26.817  1.00  0.00     0.006 C 
ENDBRANCH  10  11
ENDBRANCH   9  10
BRANCH   9  13
ATOM     13  C   UNL A   1      32.354  22.344  23.236  1.00  0.00     0.254 C 
ATOM     14  O   UNL A   1      32.103  21.700  22.213  1.00  0.00    -0.269 OA
BRANCH  13  15
ATOM     15  C   UNL A   1      32.232  23.810  23.017  1.00  0.00     0.040 A 
ATOM     16  C   UNL A   1      33.655  24.763  22.500  1.00  0.00     0.014 A 
ATOM     17  C   UNL A   1      30.679  24.569  23.307  1.00  0.00     0.014 A 
ATOM     18  C   UNL A   1      33.457  26.568  22.293  1.00  0.00     0.010 A 
ATOM     19  C   UNL A   1      30.340  26.262  23.206  1.00  0.00     0.010 A 
ATOM     20  C   UNL A   1      31.650  27.372  22.701  1.00  0.00     0.006 A 
BRANCH  20  21
ATOM     21  C   UNL A   1      30.927  28.819  22.884  1.00  0.00     0.295 C 
BRANCH  21  22
ATOM     22  N   UNL A   1      31.159  29.800  21.808  1.00  0.00    -0.354 N 
ATOM     23  H   UNL A   1      30.335  29.849  21.210  1.00  0.00     0.344 HD
ATOM     24  H   UNL A   1      31.965  29.511  21.253  1.00  0.00     0.344 HD
ATOM     25  H   UNL A   1      31.338  30.717  22.217  1.00  0.00     0.344 HD
ENDBRANCH  21  22
ENDBRANCH  20  21
ENDBRANCH  13  15
ENDBRANCH   9  13
ENDBRANCH   8   9
ENDBRANCH   6   8
ENDBRANCH   5   6
ENDBRANCH   4   5
ENDBRANCH   3   4
ENDBRANCH   2   3
ENDBRANCH   1   2
BRANCH   1  26
ATOM     26  C   UNL A   1      41.105  21.669  27.913  1.00  0.00     0.188 C 
BRANCH  26  27
ATOM     27  O   UNL A   1      42.167  22.429  27.425  1.00  0.00    -0.376 OA
BRANCH  27  28
ATOM     28  C   UNL A   1      42.720  22.013  26.199  1.00  0.00     0.202 C 
BRANCH  28  29
ATOM     29  C   UNL A   1      42.978  23.007  25.043  1.00  0.00     0.261 C 
BRANCH  29  30
ATOM     30  O   UNL A   1      43.956  22.696  24.023  1.00  0.00    -0.460 OA
BRANCH  30  31
ATOM     31  C   UNL A   1      45.015  21.918  24.397  1.00  0.00     0.338 C 
ATOM     32  O   UNL A   1      45.092  20.723  24.176  1.00  0.00    -0.246 OA
BRANCH  31  33
ATOM     33  C   UNL A   1      45.977  22.792  25.249  1.00  0.00     0.060 A 
ATOM     34  C   UNL A   1      46.243  23.555  27.095  1.00  0.00     0.016 A 
ATOM     35  C   UNL A   1      46.781  23.688  23.886  1.00  0.00     0.016 A 
ATOM     36  C   UNL A   1      47.203  24.996  27.339  1.00  0.00     0.010 A 
ATOM     37  C   UNL A   1      47.745  25.115  24.282  1.00  0.00     0.010 A 
ATOM     38  C   UNL A   1      47.954  25.713  25.952  1.00  0.00    -0.014 A 
BRANCH  38  39
ATOM     39  C   UNL A   1      48.755  26.887  26.330  1.00  0.00     0.031 A 
ATOM     40  C   UNL A   1      48.012  28.090  26.771  1.00  0.00     0.074 A 
ATOM     41  C   UNL A   1      50.087  26.716  26.513  1.00  0.00     0.049 A 
ATOM     42  N   UNL A   1      48.472  29.176  27.317  1.00  0.00    -0.248 NA
ATOM     43  C   UNL A   1      46.555  28.075  26.585  1.00  0.00     0.031 C 
ATOM     44  C   UNL A   1      50.856  25.505  26.173  1.00  0.00     0.029 A 
ATOM     45  N   UNL A   1      51.018  27.498  27.140  1.00  0.00    -0.354 N 
ATOM     46  C   UNL A   1      47.357  29.974  27.522  1.00  0.00     0.074 A 
ATOM     47  C   UNL A   1      46.214  29.280  26.990  1.00  0.00     0.031 C 
ATOM     48  C   UNL A   1      52.070  25.562  26.735  1.00  0.00     0.029 A 
ATOM     49  C   UNL A   1      52.236  26.873  27.333  1.00  0.00     0.049 A 
ATOM     50  H   UNL A   1      50.838  28.422  27.429  1.00  0.00     0.167 HD
ATOM     51  C   UNL A   1      47.305  31.180  28.122  1.00  0.00     0.034 A 
ATOM     52  C   UNL A   1      53.366  27.326  27.908  1.00  0.00     0.034 A 
ATOM     53  C   UNL A   1      48.486  31.830  28.608  1.00  0.00     0.049 A 
ATOM     54  C   UNL A   1      53.310  28.738  28.425  1.00  0.00     0.074 A 
ATOM     55  C   UNL A   1      48.623  33.102  29.118  1.00  0.00     0.029 A 
ATOM     56  N   UNL A   1      49.750  31.243  28.627  1.00  0.00    -0.354 N 
ATOM     57  N   UNL A   1      52.269  29.539  28.508  1.00  0.00    -0.248 NA
ATOM     58  C   UNL A   1      54.567  29.318  28.894  1.00  0.00     0.031 C 
ATOM     59  C   UNL A   1      49.984  33.319  29.354  1.00  0.00     0.029 A 
ATOM     60  C   UNL A   1      50.679  32.141  29.111  1.00  0.00     0.049 A 
ATOM     61  H   UNL A   1      49.951  30.324  28.337  1.00  0.00     0.167 HD
ATOM     62  C   UNL A   1      52.743  30.718  29.065  1.00  0.00     0.074 A 
ATOM     63  C   UNL A   1      54.158  30.506  29.317  1.00  0.00     0.031 C 
ATOM     64  C   UNL A   1      52.081  31.871  29.341  1.00  0.00     0.034 A 
BRANCH  51  65
ATOM     65  C   UNL A   1      45.966  31.867  28.117  1.00  0.00     0.023 A 
ATOM     66  C   UNL A   1      45.528  32.640  27.024  1.00  0.00     0.031 A 
ATOM     67  C   UNL A   1      45.203  31.892  29.295  1.00  0.00     0.131 A 
ATOM     68  C   UNL A   1      44.421  33.487  27.176  1.00  0.00     0.055 A 
ATOM     69  C   UNL A   1      44.039  32.653  29.399  1.00  0.00     0.041 A 
ATOM     70  F   UNL A   1      45.611  31.226  30.387  1.00  0.00    -0.206 F 
ATOM     71  C   UNL A   1      43.653  33.474  28.343  1.00  0.00     0.022 A 
BRANCH  68  72
ATOM     72  S   UNL A   1      44.135  34.771  25.923  1.00  0.00     0.124 S 
ATOM     73  O   UNL A   1      43.614  33.978  24.811  1.00  0.00    -0.237 OA
ATOM     74  O   UNL A   1      43.179  35.651  26.583  1.00  0.00    -0.237 OA
ATOM     75  O   UNL A   1      45.463  35.339  25.706  1.00  0.00    -0.744 OA
ENDBRANCH  68  72
ENDBRANCH  51  65
BRANCH  52  76
ATOM     76  C   UNL A   1      54.627  26.517  27.940  1.00  0.00     0.023 A 
ATOM     77  C   UNL A   1      55.431  26.354  26.798  1.00  0.00     0.031 A 
ATOM     78  C   UNL A   1      55.013  25.822  29.104  1.00  0.00     0.131 A 
ATOM     79  C   UNL A   1      56.535  25.481  26.831  1.00  0.00     0.055 A 
ATOM     80  C   UNL A   1      56.153  25.017  29.153  1.00  0.00     0.041 A 
ATOM     81  F   UNL A   1      54.281  25.912  30.226  1.00  0.00    -0.206 F 
ATOM     82  C   UNL A   1      56.913  24.828  28.006  1.00  0.00     0.022 A 
BRANCH  79  83
ATOM     83  S   UNL A   1      57.400  25.104  25.279  1.00  0.00     0.124 S 
ATOM     84  O   UNL A   1      56.729  25.998  24.343  1.00  0.00    -0.237 OA
ATOM     85  O   UNL A   1      58.780  25.439  25.613  1.00  0.00    -0.237 OA
ATOM     86  O   UNL A   1      57.137  23.680  25.079  1.00  0.00    -0.744 OA
ENDBRANCH  79  83
ENDBRANCH  52  76
BRANCH  64  87
ATOM     87  C   UNL A   1      52.876  32.948  30.022  1.00  0.00     0.023 A 
ATOM     88  C   UNL A   1      53.555  33.937  29.298  1.00  0.00     0.031 A 
ATOM     89  C   UNL A   1      52.956  32.967  31.426  1.00  0.00     0.131 A 
ATOM     90  C   UNL A   1      54.361  34.855  29.979  1.00  0.00     0.055 A 
ATOM     91  C   UNL A   1      53.678  33.945  32.102  1.00  0.00     0.041 A 
ATOM     92  F   UNL A   1      52.327  32.035  32.161  1.00  0.00    -0.206 F 
ATOM     93  C   UNL A   1      54.404  34.885  31.376  1.00  0.00     0.022 A 
BRANCH  90  94
ATOM     94  S   UNL A   1      55.477  35.900  29.008  1.00  0.00     0.124 S 
ATOM     95  O   UNL A   1      56.759  35.656  29.659  1.00  0.00    -0.237 OA
ATOM     96  O   UNL A   1      55.329  35.349  27.664  1.00  0.00    -0.237 OA
ATOM     97  O   UNL A   1      54.931  37.243  29.193  1.00  0.00    -0.744 OA
ENDBRANCH  90  94
ENDBRANCH  64  87
ENDBRANCH  38  39
ENDBRANCH  31  33
ENDBRANCH  30  31
ENDBRANCH  29  30
ENDBRANCH  28  29
ENDBRANCH  27  28
ENDBRANCH  26  27
ENDBRANCH   1  26
TORSDOF 27
ENDMDL
MODEL 2
REMARK VINA RESULT:      -7.6      5.747      7.464
REMARK SMILES C=CCN(CC(=O)OCCOCCOCCOC(=O)c1ccc(-c2c3nc(c(-c4cc(S(=O)(=O)[O-])ccc4F)c4ccc([nH]4)c(-c4cc(S(=O)(=O)[O-])ccc4F)c4nc(c(-c5cc(S(=O)(=O)[O-])ccc5F)c5ccc2[nH]5)C=C4)C=C3)cc1)C(=O)c1ccc(C[NH3+])cc1
REMARK SMILES IDX 12 1 11 2 10 3 9 4 8 5 6 6 7 7 5 8 4 9 3 10 2 11 1 12 83 13
REMARK SMILES IDX 84 14 85 15 86 16 92 17 87 18 91 19 88 20 89 21 90 22 13 26
REMARK SMILES IDX 14 27 15 28 16 29 17 30 18 31 19 32 20 33 21 34 82 35 22 36
REMARK SMILES IDX 81 37 23 38 24 39 25 40 75 41 26 42 80 43 74 44 76 45 27 46
REMARK SMILES IDX 79 47 73 48 72 49 28 51 60 52 40 53 59 54 41 55 44 56 58 57
REMARK SMILES IDX 77 58 42 59 43 60 57 62 78 63 45 64 29 65 30 66 38 67 31 68
REMARK SMILES IDX 37 69 39 70 36 71 32 72 33 73 34 74 35 75 61 76 62 77 70 78
REMARK SMILES IDX 63 79 69 80 71 81 68 82 64 83 65 84 66 85 67 86 46 87 47 88
REMARK SMILES IDX 55 89 48 90 54 91 56 92 53 93 49 94 50 95 51 96 52 97
REMARK H PARENT 90 23 90 24 90 25 76 50 44 61
REMARK Flexibility Score: inf
ROOT
ATOM      1  C   UNL A   1      41.310  21.054  26.253  1.00  0.00     0.188 C 
ENDROOT
BRANCH   1   2
ATOM      2  O   UNL A   1      39.909  20.908  26.340  1.00  0.00    -0.376 OA
BRANCH   2   3
ATOM      3  C   UNL A   1      39.397  19.735  25.726  1.00  0.00     0.202 C 
BRANCH   3   4
ATOM      4  C   UNL A   1      38.056  19.828  24.930  1.00  0.00     0.261 C 
BRANCH   4   5
ATOM      5  O   UNL A   1      37.444  21.152  24.703  1.00  0.00    -0.462 OA
BRANCH   5   6
ATOM      6  C   UNL A   1      36.226  21.438  25.252  1.00  0.00     0.325 C 
ATOM      7  O   UNL A   1      36.081  22.369  26.044  1.00  0.00    -0.250 OA
BRANCH   6   8
ATOM      8  C   UNL A   1      34.963  20.535  24.844  1.00  0.00     0.242 C 
BRANCH   8   9
ATOM      9  N   UNL A   1      33.567  20.895  24.398  1.00  0.00    -0.324 N 
BRANCH   9  10
ATOM     10  C   UNL A   1      32.527  19.960  24.846  1.00  0.00     0.147 C 
BRANCH  10  11
ATOM     11  C   UNL A   1      32.363  18.817  23.869  1.00  0.00    -0.014 C 
ATOM     12  C   UNL A   1      32.866  17.590  24.087  1.00  0.00     0.006 C 
ENDBRANCH  10  11
ENDBRANCH   9  10
BRANCH   9  13
ATOM     13  C   UNL A   1      33.040  22.062  23.747  1.00  0.00     0.254 C 
ATOM     14  O   UNL A   1      32.673  22.031  22.569  1.00  0.00    -0.269 OA
BRANCH  13  15
ATOM     15  C   UNL A   1      32.893  23.416  24.343  1.00  0.00     0.040 A 
ATOM     16  C   UNL A   1      34.184  24.638  24.132  1.00  0.00     0.014 A 
ATOM     17  C   UNL A   1      31.449  23.764  25.274  1.00  0.00     0.014 A 
ATOM     18  C   UNL A   1      33.968  26.268  24.927  1.00  0.00     0.010 A 
ATOM     19  C   UNL A   1      31.117  25.232  26.126  1.00  0.00     0.010 A 
ATOM     20  C   UNL A   1      32.302  26.570  26.027  1.00  0.00     0.006 A 
BRANCH  20  21
ATOM     21  C   UNL A   1      31.654  27.644  27.064  1.00  0.00     0.295 C 
BRANCH  21  22
ATOM     22  N   UNL A   1      32.611  28.443  27.851  1.00  0.00    -0.354 N 
ATOM     23  H   UNL A   1      32.405  29.434  27.732  1.00  0.00     0.344 HD
ATOM     24  H   UNL A   1      33.559  28.252  27.527  1.00  0.00     0.344 HD
ATOM     25  H   UNL A   1      32.531  28.195  28.837  1.00  0.00     0.344 HD
ENDBRANCH  21  22
ENDBRANCH  20  21
ENDBRANCH  13  15
ENDBRANCH   9  13
ENDBRANCH   8   9
ENDBRANCH   6   8
ENDBRANCH   5   6
ENDBRANCH   4   5
ENDBRANCH   3   4
ENDBRANCH   2   3
ENDBRANCH   1   2
BRANCH   1  26
ATOM     26  C   UNL A   1      42.050  21.434  27.552  1.00  0.00     0.188 C 
BRANCH  26  27
ATOM     27  O   UNL A   1      41.385  22.400  28.305  1.00  0.00    -0.376 OA
BRANCH  27  28
ATOM     28  C   UNL A   1      41.011  23.575  27.625  1.00  0.00     0.202 C 
BRANCH  28  29
ATOM     29  C   UNL A   1      41.197  24.974  28.254  1.00  0.00     0.261 C 
BRANCH  29  30
ATOM     30  O   UNL A   1      41.034  26.162  27.444  1.00  0.00    -0.460 OA
BRANCH  30  31
ATOM     31  C   UNL A   1      41.883  26.310  26.383  1.00  0.00     0.338 C 
ATOM     32  O   UNL A   1      41.514  26.461  25.234  1.00  0.00    -0.246 OA
BRANCH  31  33
ATOM     33  C   UNL A   1      43.335  26.103  26.897  1.00  0.00     0.060 A 
ATOM     34  C   UNL A   1      44.693  24.682  27.347  1.00  0.00     0.016 A 
ATOM     35  C   UNL A   1      43.538  27.703  27.738  1.00  0.00     0.016 A 
ATOM     36  C   UNL A   1      45.983  25.005  28.482  1.00  0.00     0.010 A 
ATOM     37  C   UNL A   1      44.906  27.897  28.839  1.00  0.00     0.010 A 
ATOM     38  C   UNL A   1      46.083  26.594  29.165  1.00  0.00    -0.014 A 
BRANCH  38  39
ATOM     39  C   UNL A   1      47.241  26.713  30.064  1.00  0.00     0.031 A 
ATOM     40  C   UNL A   1      47.089  26.159  31.429  1.00  0.00     0.074 A 
ATOM     41  C   UNL A   1      48.434  27.061  29.522  1.00  0.00     0.049 A 
ATOM     42  N   UNL A   1      47.998  25.978  32.340  1.00  0.00    -0.248 NA
ATOM     43  C   UNL A   1      45.739  25.741  31.828  1.00  0.00     0.031 C 
ATOM     44  C   UNL A   1      48.649  27.534  28.141  1.00  0.00     0.029 A 
ATOM     45  N   UNL A   1      49.708  26.960  30.008  1.00  0.00    -0.354 N 
ATOM     46  C   UNL A   1      47.319  25.440  33.423  1.00  0.00     0.074 A 
ATOM     47  C   UNL A   1      45.922  25.381  33.081  1.00  0.00     0.031 C 
ATOM     48  C   UNL A   1      49.956  27.518  27.852  1.00  0.00     0.029 A 
ATOM     49  C   UNL A   1      50.689  27.199  29.062  1.00  0.00     0.049 A 
ATOM     50  H   UNL A   1      49.911  26.736  30.944  1.00  0.00     0.167 HD
ATOM     51  C   UNL A   1      47.836  25.020  34.594  1.00  0.00     0.034 A 
ATOM     52  C   UNL A   1      52.030  27.185  29.176  1.00  0.00     0.034 A 
ATOM     53  C   UNL A   1      49.235  25.131  34.882  1.00  0.00     0.049 A 
ATOM     54  C   UNL A   1      52.562  26.863  30.546  1.00  0.00     0.074 A 
ATOM     55  C   UNL A   1      49.896  24.876  36.064  1.00  0.00     0.029 A 
ATOM     56  N   UNL A   1      50.193  25.550  33.960  1.00  0.00    -0.354 N 
ATOM     57  N   UNL A   1      51.896  26.466  31.611  1.00  0.00    -0.248 NA
ATOM     58  C   UNL A   1      54.002  27.010  30.746  1.00  0.00     0.031 C 
ATOM     59  C   UNL A   1      51.235  25.233  35.885  1.00  0.00     0.029 A 
ATOM     60  C   UNL A   1      51.436  25.592  34.558  1.00  0.00     0.049 A 
ATOM     61  H   UNL A   1      50.008  25.784  33.021  1.00  0.00     0.167 HD
ATOM     62  C   UNL A   1      52.847  26.292  32.607  1.00  0.00     0.074 A 
ATOM     63  C   UNL A   1      54.129  26.605  32.001  1.00  0.00     0.031 C 
ATOM     64  C   UNL A   1      52.683  25.913  33.901  1.00  0.00     0.034 A 
BRANCH  51  65
ATOM     65  C   UNL A   1      46.845  24.570  35.633  1.00  0.00     0.023 A 
ATOM     66  C   UNL A   1      46.292  25.461  36.573  1.00  0.00     0.031 A 
ATOM     67  C   UNL A   1      46.594  23.198  35.793  1.00  0.00     0.131 A 
ATOM     68  C   UNL A   1      45.609  24.954  37.688  1.00  0.00     0.055 A 
ATOM     69  C   UNL A   1      45.819  22.712  36.846  1.00  0.00     0.041 A 
ATOM     70  F   UNL A   1      47.151  22.300  34.965  1.00  0.00    -0.206 F 
ATOM     71  C   UNL A   1      45.339  23.589  37.813  1.00  0.00     0.022 A 
BRANCH  68  72
ATOM     72  S   UNL A   1      45.282  26.070  39.084  1.00  0.00     0.124 S 
ATOM     73  O   UNL A   1      44.940  25.119  40.140  1.00  0.00    -0.237 OA
ATOM     74  O   UNL A   1      46.553  26.766  39.238  1.00  0.00    -0.237 OA
ATOM     75  O   UNL A   1      44.171  26.891  38.611  1.00  0.00    -0.744 OA
ENDBRANCH  68  72
ENDBRANCH  51  65
BRANCH  52  76
ATOM     76  C   UNL A   1      52.934  27.565  28.042  1.00  0.00     0.023 A 
ATOM     77  C   UNL A   1      53.495  26.600  27.189  1.00  0.00     0.031 A 
ATOM     78  C   UNL A   1      53.317  28.906  27.839  1.00  0.00     0.131 A 
ATOM     79  C   UNL A   1      54.442  26.980  26.219  1.00  0.00     0.055 A 
ATOM     80  C   UNL A   1      54.199  29.288  26.825  1.00  0.00     0.041 A 
ATOM     81  F   UNL A   1      52.840  29.880  28.631  1.00  0.00    -0.206 F 
ATOM     82  C   UNL A   1      54.782  28.320  26.019  1.00  0.00     0.022 A 
BRANCH  79  83
ATOM     83  S   UNL A   1      55.328  25.685  25.304  1.00  0.00     0.124 S 
ATOM     84  O   UNL A   1      56.706  25.923  25.719  1.00  0.00    -0.237 OA
ATOM     85  O   UNL A   1      54.702  24.471  25.814  1.00  0.00    -0.237 OA
ATOM     86  O   UNL A   1      55.035  25.995  23.906  1.00  0.00    -0.744 OA
ENDBRANCH  79  83
ENDBRANCH  52  76
BRANCH  64  87
ATOM     87  C   UNL A   1      53.938  25.744  34.708  1.00  0.00     0.023 A 
ATOM     88  C   UNL A   1      54.748  24.606  34.587  1.00  0.00     0.031 A 
ATOM     89  C   UNL A   1      54.314  26.744  35.622  1.00  0.00     0.131 A 
ATOM     90  C   UNL A   1      55.850  24.456  35.435  1.00  0.00     0.055 A 
ATOM     91  C   UNL A   1      55.468  26.634  36.389  1.00  0.00     0.041 A 
ATOM     92  F   UNL A   1      53.565  27.849  35.775  1.00  0.00    -0.206 F 
ATOM     93  C   UNL A   1      56.233  25.473  36.314  1.00  0.00     0.022 A 
BRANCH  90  94
ATOM     94  S   UNL A   1      56.676  22.845  35.487  1.00  0.00     0.124 S 
ATOM     95  O   UNL A   1      57.409  22.923  36.746  1.00  0.00    -0.237 OA
ATOM     96  O   UNL A   1      55.550  21.916  35.462  1.00  0.00    -0.237 OA
ATOM     97  O   UNL A   1      57.505  22.850  34.283  1.00  0.00    -0.744 OA
ENDBRANCH  90  94
ENDBRANCH  64  87
ENDBRANCH  38  39
ENDBRANCH  31  33
ENDBRANCH  30  31
ENDBRANCH  29  30
ENDBRANCH  28  29
ENDBRANCH  27  28
ENDBRANCH  26  27
ENDBRANCH   1  26
TORSDOF 27
ENDMDL
MODEL 3
REMARK VINA RESULT:      -7.4      5.086      8.005
REMARK SMILES C=CCN(CC(=O)OCCOCCOCCOC(=O)c1ccc(-c2c3nc(c(-c4cc(S(=O)(=O)[O-])ccc4F)c4ccc([nH]4)c(-c4cc(S(=O)(=O)[O-])ccc4F)c4nc(c(-c5cc(S(=O)(=O)[O-])ccc5F)c5ccc2[nH]5)C=C4)C=C3)cc1)C(=O)c1ccc(C[NH3+])cc1
REMARK SMILES IDX 12 1 11 2 10 3 9 4 8 5 6 6 7 7 5 8 4 9 3 10 2 11 1 12 83 13
REMARK SMILES IDX 84 14 85 15 86 16 92 17 87 18 91 19 88 20 89 21 90 22 13 26
REMARK SMILES IDX 14 27 15 28 16 29 17 30 18 31 19 32 20 33 21 34 82 35 22 36
REMARK SMILES IDX 81 37 23 38 24 39 25 40 75 41 26 42 80 43 74 44 76 45 27 46
REMARK SMILES IDX 79 47 73 48 72 49 28 51 60 52 40 53 59 54 41 55 44 56 58 57
REMARK SMILES IDX 77 58 42 59 43 60 57 62 78 63 45 64 29 65 30 66 38 67 31 68
REMARK SMILES IDX 37 69 39 70 36 71 32 72 33 73 34 74 35 75 61 76 62 77 70 78
REMARK SMILES IDX 63 79 69 80 71 81 68 82 64 83 65 84 66 85 67 86 46 87 47 88
REMARK SMILES IDX 55 89 48 90 54 91 56 92 53 93 49 94 50 95 51 96 52 97
REMARK H PARENT 90 23 90 24 90 25 76 50 44 61
REMARK Flexibility Score: inf
ROOT
ATOM      1  C   UNL A   1      40.683  22.335  26.298  1.00  0.00     0.188 C 
ENDROOT
BRANCH   1   2
ATOM      2  O   UNL A   1      39.272  22.345  26.282  1.00  0.00    -0.376 OA
BRANCH   2   3
ATOM      3  C   UNL A   1      38.678  21.197  25.696  1.00  0.00     0.202 C 
BRANCH   3   4
ATOM      4  C   UNL A   1      37.305  21.349  24.967  1.00  0.00     0.261 C 
BRANCH   4   5
ATOM      5  O   UNL A   1      36.249  22.174  25.586  1.00  0.00    -0.462 OA
BRANCH   5   6
ATOM      6  C   UNL A   1      35.045  21.609  25.897  1.00  0.00     0.325 C 
ATOM      7  O   UNL A   1      34.359  22.029  26.829  1.00  0.00    -0.250 OA
BRANCH   6   8
ATOM      8  C   UNL A   1      34.520  20.375  25.014  1.00  0.00     0.242 C 
BRANCH   8   9
ATOM      9  N   UNL A   1      33.248  20.164  24.230  1.00  0.00    -0.324 N 
BRANCH   9  10
ATOM     10  C   UNL A   1      32.512  18.943  24.585  1.00  0.00     0.147 C 
BRANCH  10  11
ATOM     11  C   UNL A   1      33.366  17.712  24.383  1.00  0.00    -0.014 C 
ATOM     12  C   UNL A   1      33.742  17.273  23.170  1.00  0.00     0.006 C 
ENDBRANCH  10  11
ENDBRANCH   9  10
BRANCH   9  13
ATOM     13  C   UNL A   1      32.540  21.007  23.308  1.00  0.00     0.254 C 
ATOM     14  O   UNL A   1      31.909  20.535  22.358  1.00  0.00    -0.269 OA
BRANCH  13  15
ATOM     15  C   UNL A   1      32.484  22.493  23.333  1.00  0.00     0.040 A 
ATOM     16  C   UNL A   1      33.921  23.455  22.873  1.00  0.00     0.014 A 
ATOM     17  C   UNL A   1      30.996  23.261  23.851  1.00  0.00     0.014 A 
ATOM     18  C   UNL A   1      33.807  25.276  22.968  1.00  0.00     0.010 A 
ATOM     19  C   UNL A   1      30.743  24.961  24.042  1.00  0.00     0.010 A 
ATOM     20  C   UNL A   1      32.076  26.081  23.627  1.00  0.00     0.006 A 
BRANCH  20  21
ATOM     21  C   UNL A   1      31.446  27.509  24.088  1.00  0.00     0.295 C 
BRANCH  21  22
ATOM     22  N   UNL A   1      31.956  28.063  25.355  1.00  0.00    -0.354 N 
ATOM     23  H   UNL A   1      32.850  27.629  25.580  1.00  0.00     0.344 HD
ATOM     24  H   UNL A   1      31.287  27.872  26.102  1.00  0.00     0.344 HD
ATOM     25  H   UNL A   1      32.080  29.071  25.260  1.00  0.00     0.344 HD
ENDBRANCH  21  22
ENDBRANCH  20  21
ENDBRANCH  13  15
ENDBRANCH   9  13
ENDBRANCH   8   9
ENDBRANCH   6   8
ENDBRANCH   5   6
ENDBRANCH   4   5
ENDBRANCH   3   4
ENDBRANCH   2   3
ENDBRANCH   1   2
BRANCH   1  26
ATOM     26  C   UNL A   1      41.366  22.916  27.552  1.00  0.00     0.188 C 
BRANCH  26  27
ATOM     27  O   UNL A   1      40.846  24.149  27.945  1.00  0.00    -0.376 OA
BRANCH  27  28
ATOM     28  C   UNL A   1      41.088  25.233  27.080  1.00  0.00     0.202 C 
BRANCH  28  29
ATOM     29  C   UNL A   1      41.749  26.539  27.576  1.00  0.00     0.261 C 
BRANCH  29  30
ATOM     30  O   UNL A   1      41.643  27.750  26.791  1.00  0.00    -0.460 OA
BRANCH  30  31
ATOM     31  C   UNL A   1      42.466  27.860  25.707  1.00  0.00     0.338 C 
ATOM     32  O   UNL A   1      42.131  28.352  24.646  1.00  0.00    -0.246 OA
BRANCH  31  33
ATOM     33  C   UNL A   1      43.797  27.129  26.038  1.00  0.00     0.060 A 
ATOM     34  C   UNL A   1      44.618  25.299  26.241  1.00  0.00     0.016 A 
ATOM     35  C   UNL A   1      44.609  28.479  26.948  1.00  0.00     0.016 A 
ATOM     36  C   UNL A   1      46.034  25.058  27.239  1.00  0.00     0.010 A 
ATOM     37  C   UNL A   1      46.050  28.095  27.896  1.00  0.00     0.010 A 
ATOM     38  C   UNL A   1      46.731  26.447  28.004  1.00  0.00    -0.014 A 
BRANCH  38  39
ATOM     39  C   UNL A   1      47.933  26.083  28.770  1.00  0.00     0.031 A 
ATOM     40  C   UNL A   1      49.240  26.305  28.110  1.00  0.00     0.074 A 
ATOM     41  C   UNL A   1      47.792  25.835  30.095  1.00  0.00     0.049 A 
ATOM     42  N   UNL A   1      50.432  26.238  28.622  1.00  0.00    -0.248 NA
ATOM     43  C   UNL A   1      49.211  26.661  26.685  1.00  0.00     0.031 C 
ATOM     44  C   UNL A   1      46.512  25.694  30.815  1.00  0.00     0.029 A 
ATOM     45  N   UNL A   1      48.714  25.779  31.104  1.00  0.00    -0.354 N 
ATOM     46  C   UNL A   1      51.290  26.528  27.572  1.00  0.00     0.074 A 
ATOM     47  C   UNL A   1      50.492  26.710  26.388  1.00  0.00     0.031 C 
ATOM     48  C   UNL A   1      46.725  25.736  32.137  1.00  0.00     0.029 A 
ATOM     49  C   UNL A   1      48.156  25.738  32.369  1.00  0.00     0.049 A 
ATOM     50  H   UNL A   1      49.685  25.770  30.946  1.00  0.00     0.167 HD
ATOM     51  C   UNL A   1      52.632  26.644  27.612  1.00  0.00     0.034 A 
ATOM     52  C   UNL A   1      48.745  25.682  33.579  1.00  0.00     0.034 A 
ATOM     53  C   UNL A   1      53.371  26.425  28.820  1.00  0.00     0.049 A 
ATOM     54  C   UNL A   1      50.250  25.657  33.567  1.00  0.00     0.074 A 
ATOM     55  C   UNL A   1      54.736  26.374  29.000  1.00  0.00     0.029 A 
ATOM     56  N   UNL A   1      52.786  26.204  30.066  1.00  0.00    -0.354 N 
ATOM     57  N   UNL A   1      51.064  25.813  32.544  1.00  0.00    -0.248 NA
ATOM     58  C   UNL A   1      50.915  25.421  34.847  1.00  0.00     0.031 C 
ATOM     59  C   UNL A   1      54.974  26.026  30.333  1.00  0.00     0.029 A 
ATOM     60  C   UNL A   1      53.764  25.984  31.014  1.00  0.00     0.049 A 
ATOM     61  H   UNL A   1      51.817  26.203  30.242  1.00  0.00     0.167 HD
ATOM     62  C   UNL A   1      52.347  25.718  33.065  1.00  0.00     0.074 A 
ATOM     63  C   UNL A   1      52.189  25.515  34.495  1.00  0.00     0.031 C 
ATOM     64  C   UNL A   1      53.545  25.787  32.429  1.00  0.00     0.034 A 
BRANCH  51  65
ATOM     65  C   UNL A   1      53.318  26.869  26.292  1.00  0.00     0.023 A 
ATOM     66  C   UNL A   1      53.671  28.157  25.844  1.00  0.00     0.031 A 
ATOM     67  C   UNL A   1      53.453  25.796  25.396  1.00  0.00     0.131 A 
ATOM     68  C   UNL A   1      54.038  28.347  24.504  1.00  0.00     0.055 A 
ATOM     69  C   UNL A   1      53.926  25.980  24.097  1.00  0.00     0.041 A 
ATOM     70  F   UNL A   1      53.069  24.559  25.749  1.00  0.00    -0.206 F 
ATOM     71  C   UNL A   1      54.201  27.264  23.637  1.00  0.00     0.022 A 
BRANCH  68  72
ATOM     72  S   UNL A   1      54.073  30.040  23.848  1.00  0.00     0.124 S 
ATOM     73  O   UNL A   1      55.385  30.073  23.203  1.00  0.00    -0.237 OA
ATOM     74  O   UNL A   1      52.921  30.059  22.955  1.00  0.00    -0.237 OA
ATOM     75  O   UNL A   1      53.954  30.872  25.043  1.00  0.00    -0.744 OA
ENDBRANCH  68  72
ENDBRANCH  51  65
BRANCH  52  76
ATOM     76  C   UNL A   1      47.958  25.551  34.847  1.00  0.00     0.023 A 
ATOM     77  C   UNL A   1      47.493  24.306  35.304  1.00  0.00     0.031 A 
ATOM     78  C   UNL A   1      47.586  26.690  35.590  1.00  0.00     0.131 A 
ATOM     79  C   UNL A   1      46.646  24.237  36.426  1.00  0.00     0.055 A 
ATOM     80  C   UNL A   1      46.808  26.609  36.748  1.00  0.00     0.041 A 
ATOM     81  F   UNL A   1      47.974  27.915  35.201  1.00  0.00    -0.206 F 
ATOM     82  C   UNL A   1      46.317  25.377  37.162  1.00  0.00     0.022 A 
BRANCH  79  83
ATOM     83  S   UNL A   1      45.867  22.649  36.840  1.00  0.00     0.124 S 
ATOM     84  O   UNL A   1      44.603  22.746  36.119  1.00  0.00    -0.237 OA
ATOM     85  O   UNL A   1      46.834  21.692  36.316  1.00  0.00    -0.237 OA
ATOM     86  O   UNL A   1      45.760  22.692  38.297  1.00  0.00    -0.744 OA
ENDBRANCH  79  83
ENDBRANCH  52  76
BRANCH  64  87
ATOM     87  C   UNL A   1      54.766  25.722  33.302  1.00  0.00     0.023 A 
ATOM     88  C   UNL A   1      55.342  26.873  33.855  1.00  0.00     0.031 A 
ATOM     89  C   UNL A   1      55.360  24.475  33.569  1.00  0.00     0.131 A 
ATOM     90  C   UNL A   1      56.536  26.764  34.576  1.00  0.00     0.055 A 
ATOM     91  C   UNL A   1      56.490  24.365  34.373  1.00  0.00     0.041 A 
ATOM     92  F   UNL A   1      54.845  23.346  33.055  1.00  0.00    -0.206 F 
ATOM     93  C   UNL A   1      57.097  25.517  34.865  1.00  0.00     0.022 A 
BRANCH  90  94
ATOM     94  S   UNL A   1      57.427  28.285  34.991  1.00  0.00     0.124 S 
ATOM     95  O   UNL A   1      58.447  28.328  33.949  1.00  0.00    -0.237 OA
ATOM     96  O   UNL A   1      56.378  29.296  34.898  1.00  0.00    -0.237 OA
ATOM     97  O   UNL A   1      57.927  28.029  36.340  1.00  0.00    -0.744 OA
ENDBRANCH  90  94
ENDBRANCH  64  87
ENDBRANCH  38  39
ENDBRANCH  31  33
ENDBRANCH  30  31
ENDBRANCH  29  30
ENDBRANCH  28  29
ENDBRANCH  27  28
ENDBRANCH  26  27
ENDBRANCH   1  26
TORSDOF 27
ENDMDL
