MODEL 1
REMARK VINA RESULT:     -10.1      0.000      0.000
REMARK SMILES O=C(C[NH+]1CCN(c2nccc(N3CCCCC3)n2)CC1)OCCOCCOCCOC(=O)c1ccc(-c2c3nc(c(-c4cc(S(=O)(=O)[O-])ccc4F)c4ccc([nH]4)c(-c4cc(S(=O)(=O)[O-])ccc4F)c4nc(c(-c5cc(S(=O)(=O)[O-])ccc5F)c5ccc2[nH]5)C=C4)C=C3)cc1
REMARK SMILES IDX 26 1 25 2 24 3 23 4 22 5 2 6 1 7 3 8 4 9 5 10 21 11 6 13
REMARK SMILES IDX 20 14 7 15 8 16 9 17 19 18 10 19 12 20 11 21 13 22 14 23
REMARK SMILES IDX 18 24 15 25 17 26 16 27 27 28 28 29 29 30 30 31 31 32 32 33
REMARK SMILES IDX 33 34 34 35 35 36 96 37 36 38 95 39 37 40 38 41 39 42 89 43
REMARK SMILES IDX 40 44 94 45 88 46 90 47 41 48 93 49 87 50 86 51 42 53 74 54
REMARK SMILES IDX 54 55 73 56 55 57 58 58 72 59 91 60 56 61 57 62 71 64 92 65
REMARK SMILES IDX 59 66 43 67 44 68 52 69 45 70 51 71 53 72 50 73 46 74 47 75
REMARK SMILES IDX 48 76 49 77 75 78 76 79 84 80 77 81 83 82 85 83 82 84 78 85
REMARK SMILES IDX 79 86 80 87 81 88 60 89 61 90 69 91 62 92 68 93 70 94 67 95
REMARK SMILES IDX 63 96 64 97 65 98 66 99
REMARK H PARENT 4 12 90 52 58 63
REMARK Flexibility Score: inf
ROOT
ATOM      1  C   UNL A   1      37.825  23.315  26.086  1.00  0.00     0.188 C 
ENDROOT
BRANCH   1   2
ATOM      2  O   UNL A   1      36.749  22.873  25.283  1.00  0.00    -0.376 OA
BRANCH   2   3
ATOM      3  C   UNL A   1      35.812  21.959  25.808  1.00  0.00     0.202 C 
BRANCH   3   4
ATOM      4  C   UNL A   1      35.600  20.668  25.036  1.00  0.00     0.261 C 
BRANCH   4   5
ATOM      5  O   UNL A   1      34.286  20.048  25.037  1.00  0.00    -0.459 OA
BRANCH   5   6
ATOM      6  C   UNL A   1      33.020  20.481  24.869  1.00  0.00     0.361 C 
ATOM      7  O   UNL A   1      32.102  19.705  25.137  1.00  0.00    -0.245 OA
BRANCH   6   8
ATOM      8  C   UNL A   1      32.725  21.852  24.285  1.00  0.00     0.386 C 
BRANCH   8   9
ATOM      9  N   UNL A   1      31.430  22.471  24.580  1.00  0.00    -0.323 N 
ATOM     10  C   UNL A   1      31.414  23.183  25.879  1.00  0.00     0.284 C 
ATOM     11  C   UNL A   1      30.861  23.316  23.524  1.00  0.00     0.284 C 
ATOM     12  H   UNL A   1      30.812  21.662  24.635  1.00  0.00     0.348 HD
ATOM     13  C   UNL A   1      32.011  24.611  25.876  1.00  0.00     0.181 C 
ATOM     14  C   UNL A   1      31.427  24.740  23.445  1.00  0.00     0.181 C 
ATOM     15  N   UNL A   1      31.435  25.343  24.766  1.00  0.00    -0.329 N 
BRANCH  15  16
ATOM     16  C   UNL A   1      31.325  26.700  24.773  1.00  0.00     0.227 A 
ATOM     17  N   UNL A   1      32.018  27.453  25.629  1.00  0.00    -0.221 NA
ATOM     18  N   UNL A   1      30.510  27.196  23.839  1.00  0.00    -0.196 NA
ATOM     19  C   UNL A   1      31.916  28.781  25.452  1.00  0.00     0.119 A 
ATOM     20  C   UNL A   1      30.388  28.511  23.702  1.00  0.00     0.134 A 
ATOM     21  C   UNL A   1      31.128  29.366  24.485  1.00  0.00     0.067 A 
BRANCH  20  22
ATOM     22  N   UNL A   1      29.472  28.956  22.775  1.00  0.00    -0.356 N 
ATOM     23  C   UNL A   1      29.920  29.986  21.836  1.00  0.00     0.118 C 
ATOM     24  C   UNL A   1      28.053  28.765  23.022  1.00  0.00     0.118 C 
ATOM     25  C   UNL A   1      29.182  31.306  22.033  1.00  0.00     0.022 C 
ATOM     26  C   UNL A   1      27.339  30.107  23.206  1.00  0.00     0.022 C 
ATOM     27  C   UNL A   1      27.676  31.080  22.080  1.00  0.00     0.004 C 
ENDBRANCH  20  22
ENDBRANCH  15  16
ENDBRANCH   8   9
ENDBRANCH   6   8
ENDBRANCH   5   6
ENDBRANCH   4   5
ENDBRANCH   3   4
ENDBRANCH   2   3
ENDBRANCH   1   2
BRANCH   1  28
ATOM     28  C   UNL A   1      38.982  22.320  26.276  1.00  0.00     0.188 C 
BRANCH  28  29
ATOM     29  O   UNL A   1      39.048  21.116  25.521  1.00  0.00    -0.376 OA
BRANCH  29  30
ATOM     30  C   UNL A   1      39.769  20.001  26.012  1.00  0.00     0.202 C 
BRANCH  30  31
ATOM     31  C   UNL A   1      40.894  20.241  27.033  1.00  0.00     0.261 C 
BRANCH  31  32
ATOM     32  O   UNL A   1      42.216  19.834  26.630  1.00  0.00    -0.460 OA
BRANCH  32  33
ATOM     33  C   UNL A   1      42.977  20.807  26.062  1.00  0.00     0.338 C 
ATOM     34  O   UNL A   1      43.673  20.685  25.070  1.00  0.00    -0.246 OA
BRANCH  33  35
ATOM     35  C   UNL A   1      42.721  22.129  26.694  1.00  0.00     0.060 A 
ATOM     36  C   UNL A   1      42.464  23.215  25.845  1.00  0.00     0.016 A 
ATOM     37  C   UNL A   1      42.776  22.331  28.076  1.00  0.00     0.016 A 
ATOM     38  C   UNL A   1      42.338  24.507  26.360  1.00  0.00     0.010 A 
ATOM     39  C   UNL A   1      42.669  23.635  28.592  1.00  0.00     0.010 A 
ATOM     40  C   UNL A   1      42.498  24.738  27.732  1.00  0.00    -0.014 A 
BRANCH  40  41
ATOM     41  C   UNL A   1      42.712  26.139  28.201  1.00  0.00     0.031 A 
ATOM     42  C   UNL A   1      44.116  26.698  28.177  1.00  0.00     0.074 A 
ATOM     43  C   UNL A   1      41.686  26.939  28.545  1.00  0.00     0.049 A 
ATOM     44  N   UNL A   1      44.545  27.894  28.494  1.00  0.00    -0.248 NA
ATOM     45  C   UNL A   1      45.175  25.780  27.733  1.00  0.00     0.031 C 
ATOM     46  C   UNL A   1      40.278  26.546  28.566  1.00  0.00     0.029 A 
ATOM     47  N   UNL A   1      41.670  28.258  28.939  1.00  0.00    -0.354 N 
ATOM     48  C   UNL A   1      45.919  27.877  28.274  1.00  0.00     0.074 A 
ATOM     49  C   UNL A   1      46.257  26.534  27.852  1.00  0.00     0.031 C 
ATOM     50  C   UNL A   1      39.537  27.598  28.958  1.00  0.00     0.029 A 
ATOM     51  C   UNL A   1      40.414  28.732  29.243  1.00  0.00     0.049 A 
ATOM     52  H   UNL A   1      42.483  28.809  28.998  1.00  0.00     0.167 HD
ATOM     53  C   UNL A   1      46.816  28.887  28.390  1.00  0.00     0.034 A 
ATOM     54  C   UNL A   1      40.019  29.936  29.712  1.00  0.00     0.034 A 
ATOM     55  C   UNL A   1      46.480  30.220  28.828  1.00  0.00     0.049 A 
ATOM     56  C   UNL A   1      41.052  31.022  29.921  1.00  0.00     0.074 A 
ATOM     57  C   UNL A   1      47.318  31.310  28.993  1.00  0.00     0.029 A 
ATOM     58  N   UNL A   1      45.206  30.646  29.180  1.00  0.00    -0.354 N 
ATOM     59  N   UNL A   1      42.348  30.989  29.705  1.00  0.00    -0.248 NA
ATOM     60  C   UNL A   1      40.562  32.316  30.418  1.00  0.00     0.031 C 
ATOM     61  C   UNL A   1      46.566  32.371  29.511  1.00  0.00     0.029 A 
ATOM     62  C   UNL A   1      45.242  31.973  29.588  1.00  0.00     0.049 A 
ATOM     63  H   UNL A   1      44.396  30.090  29.144  1.00  0.00     0.167 HD
ATOM     64  C   UNL A   1      42.818  32.264  30.016  1.00  0.00     0.074 A 
ATOM     65  C   UNL A   1      41.664  33.048  30.400  1.00  0.00     0.031 C 
ATOM     66  C   UNL A   1      44.089  32.745  29.991  1.00  0.00     0.034 A 
BRANCH  53  67
ATOM     67  C   UNL A   1      48.261  28.570  28.076  1.00  0.00     0.023 A 
ATOM     68  C   UNL A   1      48.727  28.485  26.752  1.00  0.00     0.031 A 
ATOM     69  C   UNL A   1      49.181  28.335  29.113  1.00  0.00     0.131 A 
ATOM     70  C   UNL A   1      50.057  28.111  26.500  1.00  0.00     0.055 A 
ATOM     71  C   UNL A   1      50.521  28.042  28.857  1.00  0.00     0.041 A 
ATOM     72  F   UNL A   1      48.789  28.378  30.397  1.00  0.00    -0.206 F 
ATOM     73  C   UNL A   1      50.964  27.916  27.544  1.00  0.00     0.022 A 
BRANCH  70  74
ATOM     74  S   UNL A   1      50.551  27.756  24.792  1.00  0.00     0.124 S 
ATOM     75  O   UNL A   1      49.340  28.110  24.055  1.00  0.00    -0.237 OA
ATOM     76  O   UNL A   1      51.695  28.641  24.603  1.00  0.00    -0.237 OA
ATOM     77  O   UNL A   1      50.864  26.328  24.815  1.00  0.00    -0.744 OA
ENDBRANCH  70  74
ENDBRANCH  53  67
BRANCH  54  78
ATOM     78  C   UNL A   1      38.589  30.181  30.074  1.00  0.00     0.023 A 
ATOM     79  C   UNL A   1      37.701  30.815  29.188  1.00  0.00     0.031 A 
ATOM     80  C   UNL A   1      38.114  29.861  31.359  1.00  0.00     0.131 A 
ATOM     81  C   UNL A   1      36.408  31.158  29.617  1.00  0.00     0.055 A 
ATOM     82  C   UNL A   1      36.808  30.147  31.760  1.00  0.00     0.041 A 
ATOM     83  F   UNL A   1      38.920  29.263  32.252  1.00  0.00    -0.206 F 
ATOM     84  C   UNL A   1      35.951  30.815  30.892  1.00  0.00     0.022 A 
BRANCH  81  85
ATOM     85  S   UNL A   1      35.364  32.165  28.525  1.00  0.00     0.124 S 
ATOM     86  O   UNL A   1      36.297  33.201  28.095  1.00  0.00    -0.237 OA
ATOM     87  O   UNL A   1      34.967  31.195  27.510  1.00  0.00    -0.237 OA
ATOM     88  O   UNL A   1      34.289  32.618  29.406  1.00  0.00    -0.744 OA
ENDBRANCH  81  85
ENDBRANCH  54  78
BRANCH  66  89
ATOM     89  C   UNL A   1      44.282  34.200  30.359  1.00  0.00     0.023 A 
ATOM     90  C   UNL A   1      44.572  34.597  31.677  1.00  0.00     0.031 A 
ATOM     91  C   UNL A   1      44.131  35.208  29.388  1.00  0.00     0.131 A 
ATOM     92  C   UNL A   1      44.616  35.961  32.006  1.00  0.00     0.055 A 
ATOM     93  C   UNL A   1      44.251  36.562  29.707  1.00  0.00     0.041 A 
ATOM     94  F   UNL A   1      43.854  34.893  28.113  1.00  0.00    -0.206 F 
ATOM     95  C   UNL A   1      44.475  36.946  31.025  1.00  0.00     0.022 A 
BRANCH  92  96
ATOM     96  S   UNL A   1      44.722  36.430  33.755  1.00  0.00     0.124 S 
ATOM     97  O   UNL A   1      46.137  36.221  34.040  1.00  0.00    -0.237 OA
ATOM     98  O   UNL A   1      44.275  37.819  33.732  1.00  0.00    -0.237 OA
ATOM     99  O   UNL A   1      43.810  35.497  34.416  1.00  0.00    -0.744 OA
ENDBRANCH  92  96
ENDBRANCH  66  89
ENDBRANCH  40  41
ENDBRANCH  33  35
ENDBRANCH  32  33
ENDBRANCH  31  32
ENDBRANCH  30  31
ENDBRANCH  29  30
ENDBRANCH  28  29
ENDBRANCH   1  28
TORSDOF 23
ENDMDL
MODEL 2
REMARK VINA RESULT:      -9.9      2.208      7.763
REMARK SMILES O=C(C[NH+]1CCN(c2nccc(N3CCCCC3)n2)CC1)OCCOCCOCCOC(=O)c1ccc(-c2c3nc(c(-c4cc(S(=O)(=O)[O-])ccc4F)c4ccc([nH]4)c(-c4cc(S(=O)(=O)[O-])ccc4F)c4nc(c(-c5cc(S(=O)(=O)[O-])ccc5F)c5ccc2[nH]5)C=C4)C=C3)cc1
REMARK SMILES IDX 26 1 25 2 24 3 23 4 22 5 2 6 1 7 3 8 4 9 5 10 21 11 6 13
REMARK SMILES IDX 20 14 7 15 8 16 9 17 19 18 10 19 12 20 11 21 13 22 14 23
REMARK SMILES IDX 18 24 15 25 17 26 16 27 27 28 28 29 29 30 30 31 31 32 32 33
REMARK SMILES IDX 33 34 34 35 35 36 96 37 36 38 95 39 37 40 38 41 39 42 89 43
REMARK SMILES IDX 40 44 94 45 88 46 90 47 41 48 93 49 87 50 86 51 42 53 74 54
REMARK SMILES IDX 54 55 73 56 55 57 58 58 72 59 91 60 56 61 57 62 71 64 92 65
REMARK SMILES IDX 59 66 43 67 44 68 52 69 45 70 51 71 53 72 50 73 46 74 47 75
REMARK SMILES IDX 48 76 49 77 75 78 76 79 84 80 77 81 83 82 85 83 82 84 78 85
REMARK SMILES IDX 79 86 80 87 81 88 60 89 61 90 69 91 62 92 68 93 70 94 67 95
REMARK SMILES IDX 63 96 64 97 65 98 66 99
REMARK H PARENT 4 12 90 52 58 63
REMARK Flexibility Score: inf
ROOT
ATOM      1  C   UNL A   1      36.293  23.756  25.884  1.00  0.00     0.188 C 
ENDROOT
BRANCH   1   2
ATOM      2  O   UNL A   1      35.571  22.718  25.252  1.00  0.00    -0.376 OA
BRANCH   2   3
ATOM      3  C   UNL A   1      35.417  21.475  25.902  1.00  0.00     0.202 C 
BRANCH   3   4
ATOM      4  C   UNL A   1      35.398  20.236  25.024  1.00  0.00     0.261 C 
BRANCH   4   5
ATOM      5  O   UNL A   1      34.179  19.889  24.315  1.00  0.00    -0.459 OA
BRANCH   5   6
ATOM      6  C   UNL A   1      32.904  20.329  24.322  1.00  0.00     0.361 C 
ATOM      7  O   UNL A   1      32.035  19.580  24.770  1.00  0.00    -0.245 OA
BRANCH   6   8
ATOM      8  C   UNL A   1      32.529  21.673  23.722  1.00  0.00     0.386 C 
BRANCH   8   9
ATOM      9  N   UNL A   1      31.470  22.453  24.367  1.00  0.00    -0.323 N 
ATOM     10  C   UNL A   1      31.954  23.230  25.531  1.00  0.00     0.284 C 
ATOM     11  C   UNL A   1      30.661  23.301  23.484  1.00  0.00     0.284 C 
ATOM     12  H   UNL A   1      30.833  21.726  24.692  1.00  0.00     0.348 HD
ATOM     13  C   UNL A   1      32.645  24.577  25.206  1.00  0.00     0.181 C 
ATOM     14  C   UNL A   1      31.297  24.643  23.098  1.00  0.00     0.181 C 
ATOM     15  N   UNL A   1      31.801  25.311  24.284  1.00  0.00    -0.329 N 
BRANCH  15  16
ATOM     16  C   UNL A   1      31.826  26.670  24.206  1.00  0.00     0.227 A 
ATOM     17  N   UNL A   1      31.579  27.309  23.061  1.00  0.00    -0.221 NA
ATOM     18  N   UNL A   1      32.075  27.288  25.363  1.00  0.00    -0.196 NA
ATOM     19  C   UNL A   1      31.512  28.649  23.144  1.00  0.00     0.119 A 
ATOM     20  C   UNL A   1      32.044  28.615  25.421  1.00  0.00     0.134 A 
ATOM     21  C   UNL A   1      31.716  29.354  24.309  1.00  0.00     0.067 A 
BRANCH  20  22
ATOM     22  N   UNL A   1      32.388  29.190  26.624  1.00  0.00    -0.356 N 
ATOM     23  C   UNL A   1      31.937  30.563  26.858  1.00  0.00     0.118 C 
ATOM     24  C   UNL A   1      33.505  28.652  27.382  1.00  0.00     0.118 C 
ATOM     25  C   UNL A   1      33.100  31.545  26.953  1.00  0.00     0.022 C 
ATOM     26  C   UNL A   1      34.652  29.664  27.468  1.00  0.00     0.022 C 
ATOM     27  C   UNL A   1      34.159  31.034  27.924  1.00  0.00     0.004 C 
ENDBRANCH  20  22
ENDBRANCH  15  16
ENDBRANCH   8   9
ENDBRANCH   6   8
ENDBRANCH   5   6
ENDBRANCH   4   5
ENDBRANCH   3   4
ENDBRANCH   2   3
ENDBRANCH   1   2
BRANCH   1  28
ATOM     28  C   UNL A   1      37.789  23.491  26.125  1.00  0.00     0.188 C 
BRANCH  28  29
ATOM     29  O   UNL A   1      38.533  22.641  25.261  1.00  0.00    -0.376 OA
BRANCH  29  30
ATOM     30  C   UNL A   1      39.018  21.394  25.726  1.00  0.00     0.202 C 
BRANCH  30  31
ATOM     31  C   UNL A   1      40.027  21.380  26.886  1.00  0.00     0.261 C 
BRANCH  31  32
ATOM     32  O   UNL A   1      40.838  20.197  27.010  1.00  0.00    -0.460 OA
BRANCH  32  33
ATOM     33  C   UNL A   1      41.919  20.143  26.187  1.00  0.00     0.338 C 
ATOM     34  O   UNL A   1      42.142  19.287  25.351  1.00  0.00    -0.246 OA
BRANCH  33  35
ATOM     35  C   UNL A   1      42.740  21.380  26.294  1.00  0.00     0.060 A 
ATOM     36  C   UNL A   1      43.192  21.749  27.569  1.00  0.00     0.016 A 
ATOM     37  C   UNL A   1      43.027  22.196  25.197  1.00  0.00     0.016 A 
ATOM     38  C   UNL A   1      43.860  22.960  27.765  1.00  0.00     0.010 A 
ATOM     39  C   UNL A   1      43.683  23.425  25.397  1.00  0.00     0.010 A 
ATOM     40  C   UNL A   1      44.059  23.836  26.691  1.00  0.00    -0.014 A 
BRANCH  40  41
ATOM     41  C   UNL A   1      44.444  25.248  26.983  1.00  0.00     0.031 A 
ATOM     42  C   UNL A   1      43.391  26.182  27.532  1.00  0.00     0.074 A 
ATOM     43  C   UNL A   1      45.715  25.679  26.866  1.00  0.00     0.049 A 
ATOM     44  N   UNL A   1      43.494  27.434  27.901  1.00  0.00    -0.248 NA
ATOM     45  C   UNL A   1      42.040  25.621  27.686  1.00  0.00     0.031 C 
ATOM     46  C   UNL A   1      46.840  24.872  26.396  1.00  0.00     0.029 A 
ATOM     47  N   UNL A   1      46.275  26.905  27.141  1.00  0.00    -0.354 N 
ATOM     48  C   UNL A   1      42.228  27.806  28.343  1.00  0.00     0.074 A 
ATOM     49  C   UNL A   1      41.363  26.663  28.143  1.00  0.00     0.031 C 
ATOM     50  C   UNL A   1      47.954  25.626  26.410  1.00  0.00     0.029 A 
ATOM     51  C   UNL A   1      47.621  26.977  26.862  1.00  0.00     0.049 A 
ATOM     52  H   UNL A   1      45.759  27.661  27.503  1.00  0.00     0.167 HD
ATOM     53  C   UNL A   1      41.823  28.982  28.887  1.00  0.00     0.034 A 
ATOM     54  C   UNL A   1      48.482  28.015  26.946  1.00  0.00     0.034 A 
ATOM     55  C   UNL A   1      42.682  30.126  29.069  1.00  0.00     0.049 A 
ATOM     56  C   UNL A   1      47.987  29.345  27.471  1.00  0.00     0.074 A 
ATOM     57  C   UNL A   1      42.365  31.367  29.597  1.00  0.00     0.029 A 
ATOM     58  N   UNL A   1      44.026  30.177  28.724  1.00  0.00    -0.354 N 
ATOM     59  N   UNL A   1      46.786  29.678  27.888  1.00  0.00    -0.248 NA
ATOM     60  C   UNL A   1      48.972  30.432  27.554  1.00  0.00     0.031 C 
ATOM     61  C   UNL A   1      43.495  32.188  29.504  1.00  0.00     0.029 A 
ATOM     62  C   UNL A   1      44.543  31.436  28.999  1.00  0.00     0.049 A 
ATOM     63  H   UNL A   1      44.538  29.430  28.340  1.00  0.00     0.167 HD
ATOM     64  C   UNL A   1      46.883  31.005  28.306  1.00  0.00     0.074 A 
ATOM     65  C   UNL A   1      48.264  31.396  28.122  1.00  0.00     0.031 C 
ATOM     66  C   UNL A   1      45.919  31.828  28.794  1.00  0.00     0.034 A 
BRANCH  53  67
ATOM     67  C   UNL A   1      40.369  29.096  29.284  1.00  0.00     0.023 A 
ATOM     68  C   UNL A   1      39.963  29.030  30.629  1.00  0.00     0.031 A 
ATOM     69  C   UNL A   1      39.373  29.259  28.304  1.00  0.00     0.131 A 
ATOM     70  C   UNL A   1      38.597  29.063  30.951  1.00  0.00     0.055 A 
ATOM     71  C   UNL A   1      38.022  29.371  28.637  1.00  0.00     0.041 A 
ATOM     72  F   UNL A   1      39.697  29.305  27.002  1.00  0.00    -0.206 F 
ATOM     73  C   UNL A   1      37.626  29.260  29.966  1.00  0.00     0.022 A 
BRANCH  70  74
ATOM     74  S   UNL A   1      38.098  28.713  32.659  1.00  0.00     0.124 S 
ATOM     75  O   UNL A   1      38.247  27.260  32.717  1.00  0.00    -0.237 OA
ATOM     76  O   UNL A   1      39.060  29.486  33.435  1.00  0.00    -0.237 OA
ATOM     77  O   UNL A   1      36.718  29.192  32.718  1.00  0.00    -0.744 OA
ENDBRANCH  70  74
ENDBRANCH  53  67
BRANCH  54  78
ATOM     78  C   UNL A   1      49.895  27.872  26.476  1.00  0.00     0.023 A 
ATOM     79  C   UNL A   1      50.278  28.218  25.169  1.00  0.00     0.031 A 
ATOM     80  C   UNL A   1      50.869  27.297  27.313  1.00  0.00     0.131 A 
ATOM     81  C   UNL A   1      51.579  27.933  24.721  1.00  0.00     0.055 A 
ATOM     82  C   UNL A   1      52.178  27.074  26.883  1.00  0.00     0.041 A 
ATOM     83  F   UNL A   1      50.559  26.936  28.569  1.00  0.00    -0.206 F 
ATOM     84  C   UNL A   1      52.535  27.378  25.574  1.00  0.00     0.022 A 
BRANCH  81  85
ATOM     85  S   UNL A   1      51.975  28.194  22.968  1.00  0.00     0.124 S 
ATOM     86  O   UNL A   1      53.433  28.182  22.988  1.00  0.00    -0.237 OA
ATOM     87  O   UNL A   1      51.331  27.045  22.340  1.00  0.00    -0.237 OA
ATOM     88  O   UNL A   1      51.364  29.488  22.671  1.00  0.00    -0.744 OA
ENDBRANCH  81  85
ENDBRANCH  54  78
BRANCH  66  89
ATOM     89  C   UNL A   1      46.343  33.224  29.195  1.00  0.00     0.023 A 
ATOM     90  C   UNL A   1      46.769  33.521  30.502  1.00  0.00     0.031 A 
ATOM     91  C   UNL A   1      46.280  34.282  28.270  1.00  0.00     0.131 A 
ATOM     92  C   UNL A   1      47.030  34.850  30.871  1.00  0.00     0.055 A 
ATOM     93  C   UNL A   1      46.614  35.592  28.623  1.00  0.00     0.041 A 
ATOM     94  F   UNL A   1      45.881  34.063  27.006  1.00  0.00    -0.206 F 
ATOM     95  C   UNL A   1      46.972  35.885  29.934  1.00  0.00     0.022 A 
BRANCH  92  96
ATOM     96  S   UNL A   1      47.311  35.227  32.624  1.00  0.00     0.124 S 
ATOM     97  O   UNL A   1      47.482  33.896  33.196  1.00  0.00    -0.237 OA
ATOM     98  O   UNL A   1      48.508  36.059  32.575  1.00  0.00    -0.237 OA
ATOM     99  O   UNL A   1      46.089  35.923  33.025  1.00  0.00    -0.744 OA
ENDBRANCH  92  96
ENDBRANCH  66  89
ENDBRANCH  40  41
ENDBRANCH  33  35
ENDBRANCH  32  33
ENDBRANCH  31  32
ENDBRANCH  30  31
ENDBRANCH  29  30
ENDBRANCH  28  29
ENDBRANCH   1  28
TORSDOF 23
ENDMDL
MODEL 3
REMARK VINA RESULT:      -9.8      2.657      7.932
REMARK SMILES O=C(C[NH+]1CCN(c2nccc(N3CCCCC3)n2)CC1)OCCOCCOCCOC(=O)c1ccc(-c2c3nc(c(-c4cc(S(=O)(=O)[O-])ccc4F)c4ccc([nH]4)c(-c4cc(S(=O)(=O)[O-])ccc4F)c4nc(c(-c5cc(S(=O)(=O)[O-])ccc5F)c5ccc2[nH]5)C=C4)C=C3)cc1
REMARK SMILES IDX 26 1 25 2 24 3 23 4 22 5 2 6 1 7 3 8 4 9 5 10 21 11 6 13
REMARK SMILES IDX 20 14 7 15 8 16 9 17 19 18 10 19 12 20 11 21 13 22 14 23
REMARK SMILES IDX 18 24 15 25 17 26 16 27 27 28 28 29 29 30 30 31 31 32 32 33
REMARK SMILES IDX 33 34 34 35 35 36 96 37 36 38 95 39 37 40 38 41 39 42 89 43
REMARK SMILES IDX 40 44 94 45 88 46 90 47 41 48 93 49 87 50 86 51 42 53 74 54
REMARK SMILES IDX 54 55 73 56 55 57 58 58 72 59 91 60 56 61 57 62 71 64 92 65
REMARK SMILES IDX 59 66 43 67 44 68 52 69 45 70 51 71 53 72 50 73 46 74 47 75
REMARK SMILES IDX 48 76 49 77 75 78 76 79 84 80 77 81 83 82 85 83 82 84 78 85
REMARK SMILES IDX 79 86 80 87 81 88 60 89 61 90 69 91 62 92 68 93 70 94 67 95
REMARK SMILES IDX 63 96 64 97 65 98 66 99
REMARK H PARENT 4 12 90 52 58 63
REMARK Flexibility Score: inf
ROOT
ATOM      1  C   UNL A   1      34.808  22.453  26.933  1.00  0.00     0.188 C 
ENDROOT
BRANCH   1   2
ATOM      2  O   UNL A   1      33.402  22.486  26.797  1.00  0.00    -0.376 OA
BRANCH   2   3
ATOM      3  C   UNL A   1      32.796  21.938  25.647  1.00  0.00     0.202 C 
BRANCH   3   4
ATOM      4  C   UNL A   1      32.105  22.907  24.704  1.00  0.00     0.261 C 
BRANCH   4   5
ATOM      5  O   UNL A   1      32.782  23.318  23.486  1.00  0.00    -0.459 OA
BRANCH   5   6
ATOM      6  C   UNL A   1      33.839  24.102  23.193  1.00  0.00     0.361 C 
ATOM      7  O   UNL A   1      34.578  23.758  22.270  1.00  0.00    -0.245 OA
BRANCH   6   8
ATOM      8  C   UNL A   1      34.167  25.330  24.026  1.00  0.00     0.386 C 
BRANCH   8   9
ATOM      9  N   UNL A   1      33.682  26.634  23.565  1.00  0.00    -0.323 N 
ATOM     10  C   UNL A   1      32.919  26.551  22.300  1.00  0.00     0.284 C 
ATOM     11  C   UNL A   1      32.954  27.439  24.552  1.00  0.00     0.284 C 
ATOM     12  H   UNL A   1      34.552  27.141  23.400  1.00  0.00     0.348 HD
ATOM     13  C   UNL A   1      31.435  26.130  22.429  1.00  0.00     0.181 C 
ATOM     14  C   UNL A   1      31.481  27.059  24.753  1.00  0.00     0.181 C 
ATOM     15  N   UNL A   1      30.822  26.936  23.466  1.00  0.00    -0.329 N 
BRANCH  15  16
ATOM     16  C   UNL A   1      29.487  27.200  23.482  1.00  0.00     0.227 A 
ATOM     17  N   UNL A   1      28.599  26.290  23.887  1.00  0.00    -0.221 NA
ATOM     18  N   UNL A   1      29.161  28.438  23.102  1.00  0.00    -0.196 NA
ATOM     19  C   UNL A   1      27.327  26.716  23.973  1.00  0.00     0.119 A 
ATOM     20  C   UNL A   1      27.894  28.832  23.155  1.00  0.00     0.134 A 
ATOM     21  C   UNL A   1      26.921  27.988  23.638  1.00  0.00     0.067 A 
BRANCH  20  22
ATOM     22  N   UNL A   1      27.615  30.092  22.674  1.00  0.00    -0.356 N 
ATOM     23  C   UNL A   1      27.989  30.372  21.286  1.00  0.00     0.118 C 
ATOM     24  C   UNL A   1      27.412  31.187  23.607  1.00  0.00     0.118 C 
ATOM     25  C   UNL A   1      29.081  31.431  21.185  1.00  0.00     0.022 C 
ATOM     26  C   UNL A   1      28.519  32.237  23.474  1.00  0.00     0.022 C 
ATOM     27  C   UNL A   1      28.725  32.654  22.021  1.00  0.00     0.004 C 
ENDBRANCH  20  22
ENDBRANCH  15  16
ENDBRANCH   8   9
ENDBRANCH   6   8
ENDBRANCH   5   6
ENDBRANCH   4   5
ENDBRANCH   3   4
ENDBRANCH   2   3
ENDBRANCH   1   2
BRANCH   1  28
ATOM     28  C   UNL A   1      35.554  21.468  26.016  1.00  0.00     0.188 C 
BRANCH  28  29
ATOM     29  O   UNL A   1      36.282  21.926  24.884  1.00  0.00    -0.376 OA
BRANCH  29  30
ATOM     30  C   UNL A   1      37.693  21.814  24.847  1.00  0.00     0.202 C 
BRANCH  30  31
ATOM     31  C   UNL A   1      38.407  21.089  26.000  1.00  0.00     0.261 C 
BRANCH  31  32
ATOM     32  O   UNL A   1      39.649  20.439  25.670  1.00  0.00    -0.460 OA
BRANCH  32  33
ATOM     33  C   UNL A   1      40.527  20.304  26.700  1.00  0.00     0.338 C 
ATOM     34  O   UNL A   1      40.655  19.323  27.409  1.00  0.00    -0.246 OA
BRANCH  33  35
ATOM     35  C   UNL A   1      41.472  21.453  26.756  1.00  0.00     0.060 A 
ATOM     36  C   UNL A   1      41.881  21.894  28.022  1.00  0.00     0.016 A 
ATOM     37  C   UNL A   1      41.917  22.124  25.613  1.00  0.00     0.016 A 
ATOM     38  C   UNL A   1      42.665  23.042  28.157  1.00  0.00     0.010 A 
ATOM     39  C   UNL A   1      42.691  23.291  25.750  1.00  0.00     0.010 A 
ATOM     40  C   UNL A   1      43.028  23.784  27.026  1.00  0.00    -0.014 A 
BRANCH  40  41
ATOM     41  C   UNL A   1      43.549  25.170  27.218  1.00  0.00     0.031 A 
ATOM     42  C   UNL A   1      42.601  26.230  27.729  1.00  0.00     0.074 A 
ATOM     43  C   UNL A   1      44.850  25.473  27.045  1.00  0.00     0.049 A 
ATOM     44  N   UNL A   1      42.828  27.488  28.014  1.00  0.00    -0.248 NA
ATOM     45  C   UNL A   1      41.210  25.808  27.949  1.00  0.00     0.031 C 
ATOM     46  C   UNL A   1      45.883  24.537  26.603  1.00  0.00     0.029 A 
ATOM     47  N   UNL A   1      45.527  26.656  27.227  1.00  0.00    -0.354 N 
ATOM     48  C   UNL A   1      41.615  28.003  28.459  1.00  0.00     0.074 A 
ATOM     49  C   UNL A   1      40.643  26.934  28.352  1.00  0.00     0.031 C 
ATOM     50  C   UNL A   1      47.061  25.184  26.543  1.00  0.00     0.029 A 
ATOM     51  C   UNL A   1      46.866  26.585  26.914  1.00  0.00     0.049 A 
ATOM     52  H   UNL A   1      45.093  27.478  27.551  1.00  0.00     0.167 HD
ATOM     53  C   UNL A   1      41.334  29.242  28.935  1.00  0.00     0.034 A 
ATOM     54  C   UNL A   1      47.820  27.542  26.912  1.00  0.00     0.034 A 
ATOM     55  C   UNL A   1      42.299  30.311  29.024  1.00  0.00     0.049 A 
ATOM     56  C   UNL A   1      47.463  28.942  27.361  1.00  0.00     0.074 A 
ATOM     57  C   UNL A   1      42.112  31.606  29.477  1.00  0.00     0.029 A 
ATOM     58  N   UNL A   1      43.632  30.215  28.646  1.00  0.00    -0.354 N 
ATOM     59  N   UNL A   1      46.310  29.411  27.782  1.00  0.00    -0.248 NA
ATOM     60  C   UNL A   1      48.545  29.937  27.352  1.00  0.00     0.031 C 
ATOM     61  C   UNL A   1      43.308  32.311  29.306  1.00  0.00     0.029 A 
ATOM     62  C   UNL A   1      44.269  31.435  28.828  1.00  0.00     0.049 A 
ATOM     63  H   UNL A   1      44.063  29.401  28.299  1.00  0.00     0.167 HD
ATOM     64  C   UNL A   1      46.539  30.746  28.112  1.00  0.00     0.074 A 
ATOM     65  C   UNL A   1      47.944  30.995  27.872  1.00  0.00     0.031 C 
ATOM     66  C   UNL A   1      45.668  31.684  28.567  1.00  0.00     0.034 A 
BRANCH  53  67
ATOM     67  C   UNL A   1      39.908  29.516  29.356  1.00  0.00     0.023 A 
ATOM     68  C   UNL A   1      39.524  29.514  30.709  1.00  0.00     0.031 A 
ATOM     69  C   UNL A   1      38.916  29.767  28.392  1.00  0.00     0.131 A 
ATOM     70  C   UNL A   1      38.176  29.695  31.055  1.00  0.00     0.055 A 
ATOM     71  C   UNL A   1      37.591  30.026  28.747  1.00  0.00     0.041 A 
ATOM     72  F   UNL A   1      39.217  29.757  27.083  1.00  0.00    -0.206 F 
ATOM     73  C   UNL A   1      37.212  29.979  30.085  1.00  0.00     0.022 A 
BRANCH  70  74
ATOM     74  S   UNL A   1      37.677  29.427  32.778  1.00  0.00     0.124 S 
ATOM     75  O   UNL A   1      37.766  27.972  32.887  1.00  0.00    -0.237 OA
ATOM     76  O   UNL A   1      38.677  30.186  33.519  1.00  0.00    -0.237 OA
ATOM     77  O   UNL A   1      36.319  29.966  32.830  1.00  0.00    -0.744 OA
ENDBRANCH  70  74
ENDBRANCH  53  67
BRANCH  54  78
ATOM     78  C   UNL A   1      49.200  27.240  26.421  1.00  0.00     0.023 A 
ATOM     79  C   UNL A   1      49.623  27.608  25.132  1.00  0.00     0.031 A 
ATOM     80  C   UNL A   1      50.090  26.491  27.213  1.00  0.00     0.131 A 
ATOM     81  C   UNL A   1      50.873  27.179  24.656  1.00  0.00     0.055 A 
ATOM     82  C   UNL A   1      51.357  26.122  26.758  1.00  0.00     0.041 A 
ATOM     83  F   UNL A   1      49.737  26.102  28.450  1.00  0.00    -0.206 F 
ATOM     84  C   UNL A   1      51.749  26.451  25.466  1.00  0.00     0.022 A 
BRANCH  81  85
ATOM     85  S   UNL A   1      51.297  27.486  22.917  1.00  0.00     0.124 S 
ATOM     86  O   UNL A   1      51.324  28.944  22.871  1.00  0.00    -0.237 OA
ATOM     87  O   UNL A   1      52.588  26.816  22.798  1.00  0.00    -0.237 OA
ATOM     88  O   UNL A   1      50.200  26.857  22.184  1.00  0.00    -0.744 OA
ENDBRANCH  81  85
ENDBRANCH  54  78
BRANCH  66  89
ATOM     89  C   UNL A   1      46.229  33.057  28.867  1.00  0.00     0.023 A 
ATOM     90  C   UNL A   1      46.189  34.096  27.920  1.00  0.00     0.031 A 
ATOM     91  C   UNL A   1      46.853  33.319  30.101  1.00  0.00     0.131 A 
ATOM     92  C   UNL A   1      46.834  35.314  28.185  1.00  0.00     0.055 A 
ATOM     93  C   UNL A   1      47.428  34.559  30.389  1.00  0.00     0.041 A 
ATOM     94  F   UNL A   1      46.925  32.368  31.047  1.00  0.00    -0.206 F 
ATOM     95  C   UNL A   1      47.438  35.558  29.421  1.00  0.00     0.022 A 
BRANCH  92  96
ATOM     96  S   UNL A   1      46.993  36.524  26.842  1.00  0.00     0.124 S 
ATOM     97  O   UNL A   1      48.332  37.054  27.070  1.00  0.00    -0.237 OA
ATOM     98  O   UNL A   1      46.829  35.693  25.654  1.00  0.00    -0.237 OA
ATOM     99  O   UNL A   1      45.901  37.463  27.096  1.00  0.00    -0.744 OA
ENDBRANCH  92  96
ENDBRANCH  66  89
ENDBRANCH  40  41
ENDBRANCH  33  35
ENDBRANCH  32  33
ENDBRANCH  31  32
ENDBRANCH  30  31
ENDBRANCH  29  30
ENDBRANCH  28  29
ENDBRANCH   1  28
TORSDOF 23
ENDMDL
