MODEL 1
REMARK VINA RESULT:     -10.1      0.000      0.000
REMARK SMILES O=C(OCCOCCOCCOC(=O)[C@H]1CC[C@@H](CNC(=O)[C@@H]2CCC[NH2+]C2)O1)c1ccc(-c2c3nc(c(-c4cc(S(=O)(=O)[O-])ccc4F)c4ccc([nH]4)c(-c4cc(S(=O)(=O)[O-])ccc4F)c4nc(c(-c5cc(S(=O)(=O)[O-])ccc5F)c5ccc2[nH]5)C=C4)C=C3)cc1
REMARK SMILES IDX 7 1 6 2 5 3 4 4 3 5 2 6 1 7 30 8 31 9 92 10 32 11 91 12
REMARK SMILES IDX 33 13 34 14 35 15 85 16 36 17 90 18 84 19 86 20 37 21 89 22
REMARK SMILES IDX 83 23 82 24 38 26 70 27 50 28 69 29 51 30 54 31 68 32 87 33
REMARK SMILES IDX 52 34 53 35 67 37 88 38 55 39 39 40 40 41 48 42 41 43 47 44
REMARK SMILES IDX 49 45 46 46 42 47 43 48 44 49 45 50 71 51 72 52 80 53 73 54
REMARK SMILES IDX 79 55 81 56 78 57 74 58 75 59 76 60 77 61 56 62 57 63 65 64
REMARK SMILES IDX 58 65 64 66 66 67 63 68 59 69 60 70 61 71 62 72 8 73 9 74
REMARK SMILES IDX 10 75 11 76 12 77 13 78 14 79 15 80 16 81 29 82 17 83 18 84
REMARK SMILES IDX 19 85 20 86 21 87 22 89 23 90 24 91 28 92 25 93 27 94 26 95
REMARK H PARENT 86 25 54 36 20 88 27 96 27 97
REMARK Flexibility Score: inf
ROOT
ATOM      1  C   UNL A   1      31.431  27.829  27.293  1.00  0.00     0.188 C 
ENDROOT
BRANCH   1   2
ATOM      2  O   UNL A   1      32.378  28.888  27.147  1.00  0.00    -0.376 OA
BRANCH   2   3
ATOM      3  C   UNL A   1      32.003  29.951  26.278  1.00  0.00     0.202 C 
BRANCH   3   4
ATOM      4  C   UNL A   1      32.034  31.353  26.890  1.00  0.00     0.261 C 
BRANCH   4   5
ATOM      5  O   UNL A   1      33.310  31.985  26.780  1.00  0.00    -0.460 OA
BRANCH   5   6
ATOM      6  C   UNL A   1      34.088  32.327  27.833  1.00  0.00     0.338 C 
ATOM      7  O   UNL A   1      33.685  33.171  28.632  1.00  0.00    -0.246 OA
BRANCH   6   8
ATOM      8  C   UNL A   1      35.382  31.647  28.099  1.00  0.00     0.060 A 
ATOM      9  C   UNL A   1      36.582  32.315  28.338  1.00  0.00     0.016 A 
ATOM     10  C   UNL A   1      35.328  30.279  28.339  1.00  0.00     0.016 A 
ATOM     11  C   UNL A   1      37.719  31.627  28.776  1.00  0.00     0.010 A 
ATOM     12  C   UNL A   1      36.407  29.638  28.953  1.00  0.00     0.010 A 
ATOM     13  C   UNL A   1      37.629  30.296  29.179  1.00  0.00    -0.014 A 
BRANCH  13  14
ATOM     14  C   UNL A   1      38.761  29.572  29.851  1.00  0.00     0.031 A 
ATOM     15  C   UNL A   1      39.182  30.006  31.238  1.00  0.00     0.074 A 
ATOM     16  C   UNL A   1      39.489  28.630  29.207  1.00  0.00     0.049 A 
ATOM     17  N   UNL A   1      40.296  29.787  31.886  1.00  0.00    -0.248 NA
ATOM     18  C   UNL A   1      38.239  30.877  31.958  1.00  0.00     0.031 C 
ATOM     19  C   UNL A   1      39.240  28.122  27.855  1.00  0.00     0.029 A 
ATOM     20  N   UNL A   1      40.619  27.945  29.594  1.00  0.00    -0.354 N 
ATOM     21  C   UNL A   1      40.238  30.601  33.016  1.00  0.00     0.074 A 
ATOM     22  C   UNL A   1      39.003  31.348  32.928  1.00  0.00     0.031 C 
ATOM     23  C   UNL A   1      40.171  27.213  27.532  1.00  0.00     0.029 A 
ATOM     24  C   UNL A   1      41.126  27.106  28.623  1.00  0.00     0.049 A 
ATOM     25  H   UNL A   1      41.028  28.046  30.483  1.00  0.00     0.167 HD
ATOM     26  C   UNL A   1      41.115  30.691  34.046  1.00  0.00     0.034 A 
ATOM     27  C   UNL A   1      42.246  26.357  28.598  1.00  0.00     0.034 A 
ATOM     28  C   UNL A   1      42.257  29.824  34.180  1.00  0.00     0.049 A 
ATOM     29  C   UNL A   1      43.148  26.379  29.805  1.00  0.00     0.074 A 
ATOM     30  C   UNL A   1      43.122  29.691  35.251  1.00  0.00     0.029 A 
ATOM     31  N   UNL A   1      42.673  28.916  33.213  1.00  0.00    -0.354 N 
ATOM     32  N   UNL A   1      43.046  27.104  30.895  1.00  0.00    -0.248 NA
ATOM     33  C   UNL A   1      44.305  25.475  29.790  1.00  0.00     0.031 C 
ATOM     34  C   UNL A   1      44.073  28.719  34.924  1.00  0.00     0.029 A 
ATOM     35  C   UNL A   1      43.777  28.216  33.666  1.00  0.00     0.049 A 
ATOM     36  H   UNL A   1      42.245  28.790  32.335  1.00  0.00     0.167 HD
ATOM     37  C   UNL A   1      44.107  26.720  31.706  1.00  0.00     0.074 A 
ATOM     38  C   UNL A   1      44.828  25.689  30.988  1.00  0.00     0.031 C 
ATOM     39  C   UNL A   1      44.459  27.177  32.934  1.00  0.00     0.034 A 
BRANCH  26  40
ATOM     40  C   UNL A   1      40.857  31.746  35.099  1.00  0.00     0.023 A 
ATOM     41  C   UNL A   1      39.963  31.532  36.161  1.00  0.00     0.031 A 
ATOM     42  C   UNL A   1      41.462  33.012  35.002  1.00  0.00     0.131 A 
ATOM     43  C   UNL A   1      39.594  32.595  36.997  1.00  0.00     0.055 A 
ATOM     44  C   UNL A   1      41.173  34.038  35.906  1.00  0.00     0.041 A 
ATOM     45  F   UNL A   1      42.325  33.286  34.011  1.00  0.00    -0.206 F 
ATOM     46  C   UNL A   1      40.213  33.842  36.896  1.00  0.00     0.022 A 
BRANCH  43  47
ATOM     47  S   UNL A   1      38.167  32.372  38.094  1.00  0.00     0.124 S 
ATOM     48  O   UNL A   1      38.816  32.267  39.400  1.00  0.00    -0.237 OA
ATOM     49  O   UNL A   1      37.395  33.590  37.866  1.00  0.00    -0.237 OA
ATOM     50  O   UNL A   1      37.550  31.141  37.609  1.00  0.00    -0.744 OA
ENDBRANCH  43  47
ENDBRANCH  26  40
BRANCH  27  51
ATOM     51  C   UNL A   1      42.591  25.529  27.404  1.00  0.00     0.023 A 
ATOM     52  C   UNL A   1      42.158  24.196  27.302  1.00  0.00     0.031 A 
ATOM     53  C   UNL A   1      43.392  26.037  26.367  1.00  0.00     0.131 A 
ATOM     54  C   UNL A   1      42.575  23.400  26.221  1.00  0.00     0.055 A 
ATOM     55  C   UNL A   1      43.765  25.257  25.268  1.00  0.00     0.041 A 
ATOM     56  F   UNL A   1      43.821  27.310  26.399  1.00  0.00    -0.206 F 
ATOM     57  C   UNL A   1      43.369  23.925  25.200  1.00  0.00     0.022 A 
BRANCH  54  58
ATOM     58  S   UNL A   1      42.146  21.638  26.223  1.00  0.00     0.124 S 
ATOM     59  O   UNL A   1      40.729  21.673  25.876  1.00  0.00    -0.237 OA
ATOM     60  O   UNL A   1      43.044  21.108  25.202  1.00  0.00    -0.237 OA
ATOM     61  O   UNL A   1      42.442  21.216  27.591  1.00  0.00    -0.744 OA
ENDBRANCH  54  58
ENDBRANCH  27  51
BRANCH  39  62
ATOM     62  C   UNL A   1      45.635  26.512  33.594  1.00  0.00     0.023 A 
ATOM     63  C   UNL A   1      45.484  25.337  34.348  1.00  0.00     0.031 A 
ATOM     64  C   UNL A   1      46.922  27.057  33.451  1.00  0.00     0.131 A 
ATOM     65  C   UNL A   1      46.602  24.762  34.966  1.00  0.00     0.055 A 
ATOM     66  C   UNL A   1      48.038  26.452  34.026  1.00  0.00     0.041 A 
ATOM     67  F   UNL A   1      47.114  28.180  32.740  1.00  0.00    -0.206 F 
ATOM     68  C   UNL A   1      47.880  25.302  34.795  1.00  0.00     0.022 A 
BRANCH  65  69
ATOM     69  S   UNL A   1      46.359  23.321  36.038  1.00  0.00     0.124 S 
ATOM     70  O   UNL A   1      47.674  22.691  36.001  1.00  0.00    -0.237 OA
ATOM     71  O   UNL A   1      45.979  23.933  37.308  1.00  0.00    -0.237 OA
ATOM     72  O   UNL A   1      45.293  22.574  35.371  1.00  0.00    -0.744 OA
ENDBRANCH  65  69
ENDBRANCH  39  62
ENDBRANCH  13  14
ENDBRANCH   6   8
ENDBRANCH   5   6
ENDBRANCH   4   5
ENDBRANCH   3   4
ENDBRANCH   2   3
ENDBRANCH   1   2
BRANCH   1  73
ATOM     73  C   UNL A   1      31.663  26.779  26.200  1.00  0.00     0.188 C 
BRANCH  73  74
ATOM     74  O   UNL A   1      30.503  26.392  25.453  1.00  0.00    -0.376 OA
BRANCH  74  75
ATOM     75  C   UNL A   1      30.178  27.182  24.313  1.00  0.00     0.202 C 
BRANCH  75  76
ATOM     76  C   UNL A   1      30.674  26.695  22.942  1.00  0.00     0.261 C 
BRANCH  76  77
ATOM     77  O   UNL A   1      32.035  27.028  22.621  1.00  0.00    -0.461 OA
BRANCH  77  78
ATOM     78  C   UNL A   1      32.765  26.004  22.101  1.00  0.00     0.335 C 
ATOM     79  O   UNL A   1      33.625  26.135  21.232  1.00  0.00    -0.249 OA
BRANCH  78  80
ATOM     80  C   UNL A   1      32.424  24.629  22.704  1.00  0.00     0.228 C 
ATOM     81  C   UNL A   1      33.166  23.543  21.908  1.00  0.00     0.047 C 
ATOM     82  O   UNL A   1      32.642  24.299  24.084  1.00  0.00    -0.361 OA
ATOM     83  C   UNL A   1      33.725  22.617  22.966  1.00  0.00     0.037 C 
ATOM     84  C   UNL A   1      32.771  22.858  24.117  1.00  0.00     0.138 C 
BRANCH  84  85
ATOM     85  C   UNL A   1      33.279  22.276  25.447  1.00  0.00     0.147 C 
BRANCH  85  86
ATOM     86  N   UNL A   1      34.287  21.245  25.241  1.00  0.00    -0.353 N 
ATOM     87  C   UNL A   1      34.222  19.922  24.971  1.00  0.00     0.228 C 
ATOM     88  H   UNL A   1      35.209  21.581  25.315  1.00  0.00     0.163 HD
ATOM     89  O   UNL A   1      35.308  19.361  24.773  1.00  0.00    -0.275 OA
BRANCH  87  90
ATOM     90  C   UNL A   1      32.952  19.084  24.810  1.00  0.00     0.133 C 
ATOM     91  C   UNL A   1      32.807  18.046  25.926  1.00  0.00     0.025 C 
ATOM     92  C   UNL A   1      32.568  18.533  23.437  1.00  0.00     0.274 C 
ATOM     93  C   UNL A   1      33.387  16.707  25.508  1.00  0.00     0.062 C 
ATOM     94  N   UNL A   1      33.041  17.179  23.126  1.00  0.00    -0.346 N 
ATOM     95  C   UNL A   1      32.790  16.223  24.199  1.00  0.00     0.260 C 
ATOM     96  H   UNL A   1      32.564  16.854  22.284  1.00  0.00     0.346 HD
ATOM     97  H   UNL A   1      34.051  17.232  22.996  1.00  0.00     0.346 HD
ENDBRANCH  87  90
ENDBRANCH  85  86
ENDBRANCH  84  85
ENDBRANCH  78  80
ENDBRANCH  77  78
ENDBRANCH  76  77
ENDBRANCH  75  76
ENDBRANCH  74  75
ENDBRANCH  73  74
ENDBRANCH   1  73
TORSDOF 23
ENDMDL
MODEL 2
REMARK VINA RESULT:     -10.1      1.648      2.057
REMARK SMILES O=C(OCCOCCOCCOC(=O)[C@H]1CC[C@@H](CNC(=O)[C@@H]2CCC[NH2+]C2)O1)c1ccc(-c2c3nc(c(-c4cc(S(=O)(=O)[O-])ccc4F)c4ccc([nH]4)c(-c4cc(S(=O)(=O)[O-])ccc4F)c4nc(c(-c5cc(S(=O)(=O)[O-])ccc5F)c5ccc2[nH]5)C=C4)C=C3)cc1
REMARK SMILES IDX 7 1 6 2 5 3 4 4 3 5 2 6 1 7 30 8 31 9 92 10 32 11 91 12
REMARK SMILES IDX 33 13 34 14 35 15 85 16 36 17 90 18 84 19 86 20 37 21 89 22
REMARK SMILES IDX 83 23 82 24 38 26 70 27 50 28 69 29 51 30 54 31 68 32 87 33
REMARK SMILES IDX 52 34 53 35 67 37 88 38 55 39 39 40 40 41 48 42 41 43 47 44
REMARK SMILES IDX 49 45 46 46 42 47 43 48 44 49 45 50 71 51 72 52 80 53 73 54
REMARK SMILES IDX 79 55 81 56 78 57 74 58 75 59 76 60 77 61 56 62 57 63 65 64
REMARK SMILES IDX 58 65 64 66 66 67 63 68 59 69 60 70 61 71 62 72 8 73 9 74
REMARK SMILES IDX 10 75 11 76 12 77 13 78 14 79 15 80 16 81 29 82 17 83 18 84
REMARK SMILES IDX 19 85 20 86 21 87 22 89 23 90 24 91 28 92 25 93 27 94 26 95
REMARK H PARENT 86 25 54 36 20 88 27 96 27 97
REMARK Flexibility Score: inf
ROOT
ATOM      1  C   UNL A   1      33.826  28.342  24.124  1.00  0.00     0.188 C 
ENDROOT
BRANCH   1   2
ATOM      2  O   UNL A   1      33.599  29.530  24.883  1.00  0.00    -0.376 OA
BRANCH   2   3
ATOM      3  C   UNL A   1      32.428  29.544  25.694  1.00  0.00     0.202 C 
BRANCH   3   4
ATOM      4  C   UNL A   1      32.067  30.894  26.317  1.00  0.00     0.261 C 
BRANCH   4   5
ATOM      5  O   UNL A   1      32.751  31.144  27.546  1.00  0.00    -0.460 OA
BRANCH   5   6
ATOM      6  C   UNL A   1      33.869  31.899  27.659  1.00  0.00     0.338 C 
ATOM      7  O   UNL A   1      33.783  33.122  27.581  1.00  0.00    -0.246 OA
BRANCH   6   8
ATOM      8  C   UNL A   1      35.190  31.289  27.963  1.00  0.00     0.060 A 
ATOM      9  C   UNL A   1      36.337  32.022  28.269  1.00  0.00     0.016 A 
ATOM     10  C   UNL A   1      35.211  29.915  28.167  1.00  0.00     0.016 A 
ATOM     11  C   UNL A   1      37.495  31.392  28.738  1.00  0.00     0.010 A 
ATOM     12  C   UNL A   1      36.300  29.324  28.810  1.00  0.00     0.010 A 
ATOM     13  C   UNL A   1      37.470  30.047  29.105  1.00  0.00    -0.014 A 
BRANCH  13  14
ATOM     14  C   UNL A   1      38.615  29.374  29.806  1.00  0.00     0.031 A 
ATOM     15  C   UNL A   1      38.995  29.842  31.194  1.00  0.00     0.074 A 
ATOM     16  C   UNL A   1      39.389  28.452  29.187  1.00  0.00     0.049 A 
ATOM     17  N   UNL A   1      40.104  29.673  31.864  1.00  0.00    -0.248 NA
ATOM     18  C   UNL A   1      38.008  30.686  31.885  1.00  0.00     0.031 C 
ATOM     19  C   UNL A   1      39.183  27.918  27.838  1.00  0.00     0.029 A 
ATOM     20  N   UNL A   1      40.536  27.814  29.603  1.00  0.00    -0.354 N 
ATOM     21  C   UNL A   1      39.996  30.499  32.981  1.00  0.00     0.074 A 
ATOM     22  C   UNL A   1      38.736  31.198  32.862  1.00  0.00     0.031 C 
ATOM     23  C   UNL A   1      40.152  27.039  27.544  1.00  0.00     0.029 A 
ATOM     24  C   UNL A   1      41.091  26.982  28.653  1.00  0.00     0.049 A 
ATOM     25  H   UNL A   1      40.926  27.941  30.498  1.00  0.00     0.167 HD
ATOM     26  C   UNL A   1      40.851  30.634  34.026  1.00  0.00     0.034 A 
ATOM     27  C   UNL A   1      42.239  26.274  28.658  1.00  0.00     0.034 A 
ATOM     28  C   UNL A   1      42.021  29.812  34.191  1.00  0.00     0.049 A 
ATOM     29  C   UNL A   1      43.117  26.345  29.880  1.00  0.00     0.074 A 
ATOM     30  C   UNL A   1      42.871  29.724  35.279  1.00  0.00     0.029 A 
ATOM     31  N   UNL A   1      42.487  28.908  33.244  1.00  0.00    -0.354 N 
ATOM     32  N   UNL A   1      42.969  27.081  30.959  1.00  0.00    -0.248 NA
ATOM     33  C   UNL A   1      44.307  25.485  29.898  1.00  0.00     0.031 C 
ATOM     34  C   UNL A   1      43.863  28.784  34.982  1.00  0.00     0.029 A 
ATOM     35  C   UNL A   1      43.608  28.254  33.726  1.00  0.00     0.049 A 
ATOM     36  H   UNL A   1      42.080  28.754  32.361  1.00  0.00     0.167 HD
ATOM     37  C   UNL A   1      44.029  26.747  31.793  1.00  0.00     0.074 A 
ATOM     38  C   UNL A   1      44.799  25.733  31.102  1.00  0.00     0.031 C 
ATOM     39  C   UNL A   1      44.341  27.232  33.020  1.00  0.00     0.034 A 
BRANCH  26  40
ATOM     40  C   UNL A   1      40.535  31.692  35.059  1.00  0.00     0.023 A 
ATOM     41  C   UNL A   1      39.531  31.511  36.025  1.00  0.00     0.031 A 
ATOM     42  C   UNL A   1      41.201  32.931  35.037  1.00  0.00     0.131 A 
ATOM     43  C   UNL A   1      39.127  32.584  36.832  1.00  0.00     0.055 A 
ATOM     44  C   UNL A   1      40.868  33.963  35.919  1.00  0.00     0.041 A 
ATOM     45  F   UNL A   1      42.169  33.174  34.140  1.00  0.00    -0.206 F 
ATOM     46  C   UNL A   1      39.807  33.803  36.807  1.00  0.00     0.022 A 
BRANCH  43  47
ATOM     47  S   UNL A   1      37.590  32.416  37.780  1.00  0.00     0.124 S 
ATOM     48  O   UNL A   1      36.645  33.143  36.936  1.00  0.00    -0.237 OA
ATOM     49  O   UNL A   1      37.408  30.969  37.838  1.00  0.00    -0.237 OA
ATOM     50  O   UNL A   1      37.901  33.058  39.055  1.00  0.00    -0.744 OA
ENDBRANCH  43  47
ENDBRANCH  26  40
BRANCH  27  51
ATOM     51  C   UNL A   1      42.635  25.444  27.481  1.00  0.00     0.023 A 
ATOM     52  C   UNL A   1      42.164  24.129  27.336  1.00  0.00     0.031 A 
ATOM     53  C   UNL A   1      43.523  25.932  26.506  1.00  0.00     0.131 A 
ATOM     54  C   UNL A   1      42.626  23.327  26.278  1.00  0.00     0.055 A 
ATOM     55  C   UNL A   1      43.942  25.148  25.428  1.00  0.00     0.041 A 
ATOM     56  F   UNL A   1      43.992  27.188  26.581  1.00  0.00    -0.206 F 
ATOM     57  C   UNL A   1      43.505  23.832  25.319  1.00  0.00     0.022 A 
BRANCH  54  58
ATOM     58  S   UNL A   1      42.135  21.581  26.233  1.00  0.00     0.124 S 
ATOM     59  O   UNL A   1      42.342  21.174  27.618  1.00  0.00    -0.237 OA
ATOM     60  O   UNL A   1      40.747  21.670  25.789  1.00  0.00    -0.237 OA
ATOM     61  O   UNL A   1      43.060  20.993  25.265  1.00  0.00    -0.744 OA
ENDBRANCH  54  58
ENDBRANCH  27  51
BRANCH  39  62
ATOM     62  C   UNL A   1      45.528  26.620  33.710  1.00  0.00     0.023 A 
ATOM     63  C   UNL A   1      46.811  27.177  33.593  1.00  0.00     0.031 A 
ATOM     64  C   UNL A   1      45.364  25.472  34.505  1.00  0.00     0.131 A 
ATOM     65  C   UNL A   1      47.895  26.561  34.234  1.00  0.00     0.055 A 
ATOM     66  C   UNL A   1      46.437  24.894  35.181  1.00  0.00     0.041 A 
ATOM     67  F   UNL A   1      44.155  24.905  34.645  1.00  0.00    -0.206 F 
ATOM     68  C   UNL A   1      47.713  25.434  35.041  1.00  0.00     0.022 A 
BRANCH  65  69
ATOM     69  S   UNL A   1      49.559  27.226  33.960  1.00  0.00     0.124 S 
ATOM     70  O   UNL A   1      49.443  27.789  32.619  1.00  0.00    -0.237 OA
ATOM     71  O   UNL A   1      49.697  28.190  35.047  1.00  0.00    -0.237 OA
ATOM     72  O   UNL A   1      50.420  26.048  34.067  1.00  0.00    -0.744 OA
ENDBRANCH  65  69
ENDBRANCH  39  62
ENDBRANCH  13  14
ENDBRANCH   6   8
ENDBRANCH   5   6
ENDBRANCH   4   5
ENDBRANCH   3   4
ENDBRANCH   2   3
ENDBRANCH   1   2
BRANCH   1  73
ATOM     73  C   UNL A   1      33.299  28.537  22.697  1.00  0.00     0.188 C 
BRANCH  73  74
ATOM     74  O   UNL A   1      31.881  28.702  22.576  1.00  0.00    -0.376 OA
BRANCH  74  75
ATOM     75  C   UNL A   1      31.133  27.561  22.163  1.00  0.00     0.202 C 
BRANCH  75  76
ATOM     76  C   UNL A   1      31.111  26.343  23.101  1.00  0.00     0.261 C 
BRANCH  76  77
ATOM     77  O   UNL A   1      31.524  25.100  22.510  1.00  0.00    -0.461 OA
BRANCH  77  78
ATOM     78  C   UNL A   1      32.835  25.048  22.150  1.00  0.00     0.335 C 
ATOM     79  O   UNL A   1      33.275  25.433  21.067  1.00  0.00    -0.249 OA
BRANCH  78  80
ATOM     80  C   UNL A   1      33.755  24.456  23.234  1.00  0.00     0.228 C 
ATOM     81  C   UNL A   1      33.055  24.581  24.597  1.00  0.00     0.047 C 
ATOM     82  O   UNL A   1      34.258  23.112  23.192  1.00  0.00    -0.361 OA
ATOM     83  C   UNL A   1      33.282  23.241  25.261  1.00  0.00     0.037 C 
ATOM     84  C   UNL A   1      34.541  22.767  24.569  1.00  0.00     0.138 C 
BRANCH  84  85
ATOM     85  C   UNL A   1      34.841  21.280  24.822  1.00  0.00     0.147 C 
BRANCH  85  86
ATOM     86  N   UNL A   1      33.633  20.526  25.132  1.00  0.00    -0.353 N 
ATOM     87  C   UNL A   1      33.239  19.258  24.879  1.00  0.00     0.228 C 
ATOM     88  H   UNL A   1      32.964  21.049  25.630  1.00  0.00     0.163 HD
ATOM     89  O   UNL A   1      32.155  18.924  25.378  1.00  0.00    -0.275 OA
BRANCH  87  90
ATOM     90  C   UNL A   1      34.028  18.191  24.117  1.00  0.00     0.133 C 
ATOM     91  C   UNL A   1      33.141  17.017  23.695  1.00  0.00     0.025 C 
ATOM     92  C   UNL A   1      35.397  17.742  24.627  1.00  0.00     0.274 C 
ATOM     93  C   UNL A   1      33.188  15.897  24.719  1.00  0.00     0.062 C 
ATOM     94  N   UNL A   1      35.409  16.572  25.513  1.00  0.00    -0.346 N 
ATOM     95  C   UNL A   1      34.613  15.460  25.004  1.00  0.00     0.260 C 
ATOM     96  H   UNL A   1      36.373  16.257  25.623  1.00  0.00     0.346 HD
ATOM     97  H   UNL A   1      34.997  16.858  26.402  1.00  0.00     0.346 HD
ENDBRANCH  87  90
ENDBRANCH  85  86
ENDBRANCH  84  85
ENDBRANCH  78  80
ENDBRANCH  77  78
ENDBRANCH  76  77
ENDBRANCH  75  76
ENDBRANCH  74  75
ENDBRANCH  73  74
ENDBRANCH   1  73
TORSDOF 23
ENDMDL
MODEL 3
REMARK VINA RESULT:     -10.0      2.854      9.059
REMARK SMILES O=C(OCCOCCOCCOC(=O)[C@H]1CC[C@@H](CNC(=O)[C@@H]2CCC[NH2+]C2)O1)c1ccc(-c2c3nc(c(-c4cc(S(=O)(=O)[O-])ccc4F)c4ccc([nH]4)c(-c4cc(S(=O)(=O)[O-])ccc4F)c4nc(c(-c5cc(S(=O)(=O)[O-])ccc5F)c5ccc2[nH]5)C=C4)C=C3)cc1
REMARK SMILES IDX 7 1 6 2 5 3 4 4 3 5 2 6 1 7 30 8 31 9 92 10 32 11 91 12
REMARK SMILES IDX 33 13 34 14 35 15 85 16 36 17 90 18 84 19 86 20 37 21 89 22
REMARK SMILES IDX 83 23 82 24 38 26 70 27 50 28 69 29 51 30 54 31 68 32 87 33
REMARK SMILES IDX 52 34 53 35 67 37 88 38 55 39 39 40 40 41 48 42 41 43 47 44
REMARK SMILES IDX 49 45 46 46 42 47 43 48 44 49 45 50 71 51 72 52 80 53 73 54
REMARK SMILES IDX 79 55 81 56 78 57 74 58 75 59 76 60 77 61 56 62 57 63 65 64
REMARK SMILES IDX 58 65 64 66 66 67 63 68 59 69 60 70 61 71 62 72 8 73 9 74
REMARK SMILES IDX 10 75 11 76 12 77 13 78 14 79 15 80 16 81 29 82 17 83 18 84
REMARK SMILES IDX 19 85 20 86 21 87 22 89 23 90 24 91 28 92 25 93 27 94 26 95
REMARK H PARENT 86 25 54 36 20 88 27 96 27 97
REMARK Flexibility Score: inf
ROOT
ATOM      1  C   UNL A   1      40.739  21.660  27.494  1.00  0.00     0.188 C 
ENDROOT
BRANCH   1   2
ATOM      2  O   UNL A   1      40.987  20.784  26.394  1.00  0.00    -0.376 OA
BRANCH   2   3
ATOM      3  C   UNL A   1      42.323  20.311  26.255  1.00  0.00     0.202 C 
BRANCH   3   4
ATOM      4  C   UNL A   1      43.247  21.172  25.392  1.00  0.00     0.261 C 
BRANCH   4   5
ATOM      5  O   UNL A   1      42.696  22.454  25.088  1.00  0.00    -0.460 OA
BRANCH   5   6
ATOM      6  C   UNL A   1      43.416  23.598  25.011  1.00  0.00     0.338 C 
ATOM      7  O   UNL A   1      44.119  23.804  24.024  1.00  0.00    -0.246 OA
BRANCH   6   8
ATOM      8  C   UNL A   1      43.311  24.653  26.052  1.00  0.00     0.060 A 
ATOM      9  C   UNL A   1      43.180  26.014  25.775  1.00  0.00     0.016 A 
ATOM     10  C   UNL A   1      43.110  24.223  27.358  1.00  0.00     0.016 A 
ATOM     11  C   UNL A   1      42.886  26.934  26.788  1.00  0.00     0.010 A 
ATOM     12  C   UNL A   1      42.635  25.117  28.320  1.00  0.00     0.010 A 
ATOM     13  C   UNL A   1      42.519  26.494  28.060  1.00  0.00    -0.014 A 
BRANCH  13  14
ATOM     14  C   UNL A   1      41.994  27.419  29.120  1.00  0.00     0.031 A 
ATOM     15  C   UNL A   1      42.673  27.437  30.472  1.00  0.00     0.074 A 
ATOM     16  C   UNL A   1      40.863  28.142  28.941  1.00  0.00     0.049 A 
ATOM     17  N   UNL A   1      42.239  27.873  31.626  1.00  0.00    -0.248 NA
ATOM     18  C   UNL A   1      43.997  26.798  30.540  1.00  0.00     0.031 C 
ATOM     19  C   UNL A   1      40.067  28.210  27.713  1.00  0.00     0.029 A 
ATOM     20  N   UNL A   1      40.161  28.944  29.812  1.00  0.00    -0.354 N 
ATOM     21  C   UNL A   1      43.171  27.437  32.565  1.00  0.00     0.074 A 
ATOM     22  C   UNL A   1      44.159  26.664  31.845  1.00  0.00     0.031 C 
ATOM     23  C   UNL A   1      39.005  29.005  27.902  1.00  0.00     0.029 A 
ATOM     24  C   UNL A   1      38.998  29.464  29.282  1.00  0.00     0.049 A 
ATOM     25  H   UNL A   1      40.461  29.129  30.732  1.00  0.00     0.167 HD
ATOM     26  C   UNL A   1      43.218  27.688  33.897  1.00  0.00     0.034 A 
ATOM     27  C   UNL A   1      38.021  30.202  29.846  1.00  0.00     0.034 A 
ATOM     28  C   UNL A   1      42.308  28.588  34.556  1.00  0.00     0.049 A 
ATOM     29  C   UNL A   1      38.153  30.572  31.301  1.00  0.00     0.074 A 
ATOM     30  C   UNL A   1      42.349  29.063  35.855  1.00  0.00     0.029 A 
ATOM     31  N   UNL A   1      41.202  29.172  33.951  1.00  0.00    -0.354 N 
ATOM     32  N   UNL A   1      39.076  30.208  32.161  1.00  0.00    -0.248 NA
ATOM     33  C   UNL A   1      37.127  31.462  31.859  1.00  0.00     0.031 C 
ATOM     34  C   UNL A   1      41.257  29.918  36.040  1.00  0.00     0.029 A 
ATOM     35  C   UNL A   1      40.558  30.008  34.846  1.00  0.00     0.049 A 
ATOM     36  H   UNL A   1      40.918  29.014  33.021  1.00  0.00     0.167 HD
ATOM     37  C   UNL A   1      38.756  30.849  33.352  1.00  0.00     0.074 A 
ATOM     38  C   UNL A   1      37.567  31.635  33.096  1.00  0.00     0.031 C 
ATOM     39  C   UNL A   1      39.386  30.795  34.552  1.00  0.00     0.034 A 
BRANCH  26  40
ATOM     40  C   UNL A   1      44.292  26.995  34.705  1.00  0.00     0.023 A 
ATOM     41  C   UNL A   1      45.625  27.439  34.705  1.00  0.00     0.031 A 
ATOM     42  C   UNL A   1      43.994  25.829  35.434  1.00  0.00     0.131 A 
ATOM     43  C   UNL A   1      46.628  26.658  35.297  1.00  0.00     0.055 A 
ATOM     44  C   UNL A   1      44.982  25.113  36.115  1.00  0.00     0.041 A 
ATOM     45  F   UNL A   1      42.742  25.347  35.476  1.00  0.00    -0.206 F 
ATOM     46  C   UNL A   1      46.314  25.511  36.028  1.00  0.00     0.022 A 
BRANCH  43  47
ATOM     47  S   UNL A   1      48.359  27.069  34.944  1.00  0.00     0.124 S 
ATOM     48  O   UNL A   1      48.987  26.830  36.241  1.00  0.00    -0.237 OA
ATOM     49  O   UNL A   1      48.702  26.121  33.887  1.00  0.00    -0.237 OA
ATOM     50  O   UNL A   1      48.303  28.469  34.532  1.00  0.00    -0.744 OA
ENDBRANCH  43  47
ENDBRANCH  26  40
BRANCH  27  51
ATOM     51  C   UNL A   1      36.833  30.640  29.053  1.00  0.00     0.023 A 
ATOM     52  C   UNL A   1      35.914  29.701  28.554  1.00  0.00     0.031 A 
ATOM     53  C   UNL A   1      36.619  31.994  28.741  1.00  0.00     0.131 A 
ATOM     54  C   UNL A   1      34.859  30.119  27.725  1.00  0.00     0.055 A 
ATOM     55  C   UNL A   1      35.540  32.411  27.956  1.00  0.00     0.041 A 
ATOM     56  F   UNL A   1      37.452  32.939  29.205  1.00  0.00    -0.206 F 
ATOM     57  C   UNL A   1      34.662  31.469  27.430  1.00  0.00     0.022 A 
BRANCH  54  58
ATOM     58  S   UNL A   1      33.806  28.858  26.956  1.00  0.00     0.124 S 
ATOM     59  O   UNL A   1      34.761  27.786  26.696  1.00  0.00    -0.237 OA
ATOM     60  O   UNL A   1      32.826  28.603  28.007  1.00  0.00    -0.237 OA
ATOM     61  O   UNL A   1      33.283  29.529  25.768  1.00  0.00    -0.744 OA
ENDBRANCH  54  58
ENDBRANCH  27  51
BRANCH  39  62
ATOM     62  C   UNL A   1      38.832  31.662  35.649  1.00  0.00     0.023 A 
ATOM     63  C   UNL A   1      38.158  31.110  36.749  1.00  0.00     0.031 A 
ATOM     64  C   UNL A   1      38.998  33.057  35.594  1.00  0.00     0.131 A 
ATOM     65  C   UNL A   1      37.637  31.955  37.738  1.00  0.00     0.055 A 
ATOM     66  C   UNL A   1      38.522  33.888  36.606  1.00  0.00     0.041 A 
ATOM     67  F   UNL A   1      39.636  33.629  34.560  1.00  0.00    -0.206 F 
ATOM     68  C   UNL A   1      37.830  33.339  37.682  1.00  0.00     0.022 A 
BRANCH  65  69
ATOM     69  S   UNL A   1      36.659  31.226  39.078  1.00  0.00     0.124 S 
ATOM     70  O   UNL A   1      37.605  31.246  40.189  1.00  0.00    -0.237 OA
ATOM     71  O   UNL A   1      35.532  32.147  39.184  1.00  0.00    -0.237 OA
ATOM     72  O   UNL A   1      36.323  29.896  38.573  1.00  0.00    -0.744 OA
ENDBRANCH  65  69
ENDBRANCH  39  62
ENDBRANCH  13  14
ENDBRANCH   6   8
ENDBRANCH   5   6
ENDBRANCH   4   5
ENDBRANCH   3   4
ENDBRANCH   2   3
ENDBRANCH   1   2
BRANCH   1  73
ATOM     73  C   UNL A   1      39.754  22.754  27.064  1.00  0.00     0.188 C 
BRANCH  73  74
ATOM     74  O   UNL A   1      38.715  22.339  26.169  1.00  0.00    -0.376 OA
BRANCH  74  75
ATOM     75  C   UNL A   1      37.686  23.285  25.893  1.00  0.00     0.202 C 
BRANCH  75  76
ATOM     76  C   UNL A   1      36.229  22.823  26.056  1.00  0.00     0.261 C 
BRANCH  76  77
ATOM     77  O   UNL A   1      35.457  22.770  24.845  1.00  0.00    -0.461 OA
BRANCH  77  78
ATOM     78  C   UNL A   1      34.604  21.714  24.759  1.00  0.00     0.335 C 
ATOM     79  O   UNL A   1      34.958  20.543  24.633  1.00  0.00    -0.249 OA
BRANCH  78  80
ATOM     80  C   UNL A   1      33.117  22.107  24.838  1.00  0.00     0.228 C 
ATOM     81  C   UNL A   1      32.931  23.108  25.990  1.00  0.00     0.047 C 
ATOM     82  O   UNL A   1      32.391  22.667  23.733  1.00  0.00    -0.361 OA
ATOM     83  C   UNL A   1      32.026  24.177  25.418  1.00  0.00     0.037 C 
ATOM     84  C   UNL A   1      31.304  23.414  24.329  1.00  0.00     0.138 C 
BRANCH  84  85
ATOM     85  C   UNL A   1      30.534  24.332  23.365  1.00  0.00     0.147 C 
BRANCH  85  86
ATOM     86  N   UNL A   1      31.410  24.933  22.368  1.00  0.00    -0.353 N 
ATOM     87  C   UNL A   1      31.935  26.169  22.216  1.00  0.00     0.228 C 
ATOM     88  H   UNL A   1      31.675  24.308  21.655  1.00  0.00     0.163 HD
ATOM     89  O   UNL A   1      32.725  26.304  21.272  1.00  0.00    -0.275 OA
BRANCH  87  90
ATOM     90  C   UNL A   1      31.711  27.375  23.132  1.00  0.00     0.133 C 
ATOM     91  C   UNL A   1      30.270  27.445  23.642  1.00  0.00     0.025 C 
ATOM     92  C   UNL A   1      32.267  28.744  22.743  1.00  0.00     0.274 C 
ATOM     93  C   UNL A   1      29.417  28.334  22.757  1.00  0.00     0.062 C 
ATOM     94  N   UNL A   1      31.360  29.625  21.998  1.00  0.00    -0.346 N 
ATOM     95  C   UNL A   1      30.030  29.713  22.592  1.00  0.00     0.260 C 
ATOM     96  H   UNL A   1      31.765  30.562  21.971  1.00  0.00     0.346 HD
ATOM     97  H   UNL A   1      31.250  29.230  21.064  1.00  0.00     0.346 HD
ENDBRANCH  87  90
ENDBRANCH  85  86
ENDBRANCH  84  85
ENDBRANCH  78  80
ENDBRANCH  77  78
ENDBRANCH  76  77
ENDBRANCH  75  76
ENDBRANCH  74  75
ENDBRANCH  73  74
ENDBRANCH   1  73
TORSDOF 23
ENDMDL
