MODEL 1
REMARK VINA RESULT:      -9.4      0.000      0.000
REMARK SMILES C[C@@]([NH2+]CCCO)(C(=O)OCCOCCOCCOC(=O)c1ccc(-c2c3nc(c(-c4cc(S(=O)(=O)[O-])ccc4F)c4ccc([nH]4)c(-c4cc(S(=O)(=O)[O-])ccc4F)c4nc(c(-c5cc(S(=O)(=O)[O-])ccc5F)c5ccc2[nH]5)C=C4)C=C3)cc1)C(F)(F)F
REMARK SMILES IDX 14 1 13 2 12 3 11 4 10 5 8 6 9 7 2 8 1 9 3 10 4 13 5 14 6 15
REMARK SMILES IDX 7 16 85 18 86 19 87 20 88 21 15 22 16 23 17 24 18 25 19 26
REMARK SMILES IDX 20 27 21 28 22 29 23 30 84 31 24 32 83 33 25 34 26 35 27 36
REMARK SMILES IDX 77 37 28 38 82 39 76 40 78 41 29 42 81 43 75 44 74 45 30 47
REMARK SMILES IDX 62 48 42 49 61 50 43 51 46 52 60 53 79 54 44 55 45 56 59 58
REMARK SMILES IDX 80 59 47 60 31 61 32 62 40 63 33 64 39 65 41 66 38 67 34 68
REMARK SMILES IDX 35 69 36 70 37 71 63 72 64 73 72 74 65 75 71 76 73 77 70 78
REMARK SMILES IDX 66 79 67 80 68 81 69 82 48 83 49 84 57 85 50 86 56 87 58 88
REMARK SMILES IDX 55 89 51 90 52 91 53 92 54 93
REMARK H PARENT 3 11 3 12 7 17 78 46 46 57
REMARK Flexibility Score: inf
ROOT
ATOM      1  C   UNL A   1      34.838  23.733  23.627  1.00  0.00     0.188 C 
ENDROOT
BRANCH   1   2
ATOM      2  O   UNL A   1      34.803  24.745  24.626  1.00  0.00    -0.376 OA
BRANCH   2   3
ATOM      3  C   UNL A   1      33.989  25.893  24.462  1.00  0.00     0.202 C 
BRANCH   3   4
ATOM      4  C   UNL A   1      33.477  26.255  23.059  1.00  0.00     0.261 C 
BRANCH   4   5
ATOM      5  O   UNL A   1      32.595  27.391  22.951  1.00  0.00    -0.458 OA
BRANCH   5   6
ATOM      6  C   UNL A   1      31.293  27.106  22.666  1.00  0.00     0.377 C 
ATOM      7  O   UNL A   1      30.952  26.560  21.621  1.00  0.00    -0.244 OA
BRANCH   6   8
ATOM      8  C   UNL A   1      30.283  27.578  23.736  1.00  0.00     0.287 C 
ATOM      9  C   UNL A   1      28.865  26.953  23.649  1.00  0.00     0.103 C 
BRANCH   8  10
ATOM     10  N   UNL A   1      30.720  27.123  25.116  1.00  0.00    -0.325 N 
ATOM     11  H   UNL A   1      30.472  27.865  25.770  1.00  0.00     0.347 HD
ATOM     12  H   UNL A   1      31.717  26.931  25.013  1.00  0.00     0.347 HD
BRANCH  10  13
ATOM     13  C   UNL A   1      30.168  25.879  25.646  1.00  0.00     0.264 C 
BRANCH  13  14
ATOM     14  C   UNL A   1      31.127  24.924  26.360  1.00  0.00     0.089 C 
BRANCH  14  15
ATOM     15  C   UNL A   1      30.744  23.452  26.266  1.00  0.00     0.162 C 
BRANCH  15  16
ATOM     16  O   UNL A   1      30.242  22.985  27.511  1.00  0.00    -0.396 OA
ATOM     17  H   UNL A   1      29.551  22.322  27.353  1.00  0.00     0.210 HD
ENDBRANCH  15  16
ENDBRANCH  14  15
ENDBRANCH  13  14
ENDBRANCH  10  13
ENDBRANCH   8  10
BRANCH   8  18
ATOM     18  C   UNL A   1      30.103  29.104  23.486  1.00  0.00     0.455 C 
ATOM     19  F   UNL A   1      28.800  29.436  23.312  1.00  0.00    -0.164 F 
ATOM     20  F   UNL A   1      30.533  29.796  24.574  1.00  0.00    -0.164 F 
ATOM     21  F   UNL A   1      30.773  29.590  22.427  1.00  0.00    -0.164 F 
ENDBRANCH   8  18
ENDBRANCH   6   8
ENDBRANCH   5   6
ENDBRANCH   4   5
ENDBRANCH   3   4
ENDBRANCH   2   3
ENDBRANCH   1   2
BRANCH   1  22
ATOM     22  C   UNL A   1      35.654  22.446  23.848  1.00  0.00     0.188 C 
BRANCH  22  23
ATOM     23  O   UNL A   1      35.298  21.720  25.003  1.00  0.00    -0.376 OA
BRANCH  23  24
ATOM     24  C   UNL A   1      35.591  20.337  25.013  1.00  0.00     0.202 C 
BRANCH  24  25
ATOM     25  C   UNL A   1      37.068  19.908  24.994  1.00  0.00     0.261 C 
BRANCH  25  26
ATOM     26  O   UNL A   1      38.054  20.938  25.185  1.00  0.00    -0.460 OA
BRANCH  26  27
ATOM     27  C   UNL A   1      39.115  20.642  25.976  1.00  0.00     0.338 C 
ATOM     28  O   UNL A   1      39.677  19.569  26.045  1.00  0.00    -0.246 OA
BRANCH  27  29
ATOM     29  C   UNL A   1      39.625  21.910  26.567  1.00  0.00     0.060 A 
ATOM     30  C   UNL A   1      39.048  23.123  26.167  1.00  0.00     0.016 A 
ATOM     31  C   UNL A   1      40.663  21.910  27.503  1.00  0.00     0.016 A 
ATOM     32  C   UNL A   1      39.539  24.337  26.657  1.00  0.00     0.010 A 
ATOM     33  C   UNL A   1      41.170  23.129  27.976  1.00  0.00     0.010 A 
ATOM     34  C   UNL A   1      40.640  24.352  27.524  1.00  0.00    -0.014 A 
BRANCH  34  35
ATOM     35  C   UNL A   1      41.381  25.625  27.752  1.00  0.00     0.031 A 
ATOM     36  C   UNL A   1      40.682  26.724  28.513  1.00  0.00     0.074 A 
ATOM     37  C   UNL A   1      42.650  25.805  27.339  1.00  0.00     0.049 A 
ATOM     38  N   UNL A   1      41.094  27.929  28.814  1.00  0.00    -0.248 NA
ATOM     39  C   UNL A   1      39.327  26.413  28.996  1.00  0.00     0.031 C 
ATOM     40  C   UNL A   1      43.467  24.809  26.652  1.00  0.00     0.029 A 
ATOM     41  N   UNL A   1      43.474  26.902  27.442  1.00  0.00    -0.354 N 
ATOM     42  C   UNL A   1      40.047  28.523  29.515  1.00  0.00     0.074 A 
ATOM     43  C   UNL A   1      38.969  27.558  29.554  1.00  0.00     0.031 C 
ATOM     44  C   UNL A   1      44.677  25.340  26.396  1.00  0.00     0.029 A 
ATOM     45  C   UNL A   1      44.709  26.726  26.861  1.00  0.00     0.049 A 
ATOM     46  H   UNL A   1      43.205  27.735  27.891  1.00  0.00     0.167 HD
ATOM     47  C   UNL A   1      39.989  29.755  30.078  1.00  0.00     0.034 A 
ATOM     48  C   UNL A   1      45.736  27.590  26.706  1.00  0.00     0.034 A 
ATOM     49  C   UNL A   1      41.063  30.717  30.020  1.00  0.00     0.049 A 
ATOM     50  C   UNL A   1      45.606  28.999  27.244  1.00  0.00     0.074 A 
ATOM     51  C   UNL A   1      41.110  31.988  30.570  1.00  0.00     0.029 A 
ATOM     52  N   UNL A   1      42.269  30.528  29.360  1.00  0.00    -0.354 N 
ATOM     53  N   UNL A   1      44.615  29.548  27.910  1.00  0.00    -0.248 NA
ATOM     54  C   UNL A   1      46.742  29.903  27.014  1.00  0.00     0.031 C 
ATOM     55  C   UNL A   1      42.303  32.597  30.163  1.00  0.00     0.029 A 
ATOM     56  C   UNL A   1      43.049  31.673  29.450  1.00  0.00     0.049 A 
ATOM     57  H   UNL A   1      42.534  29.701  28.894  1.00  0.00     0.167 HD
ATOM     58  C   UNL A   1      45.033  30.843  28.217  1.00  0.00     0.074 A 
ATOM     59  C   UNL A   1      46.365  30.988  27.672  1.00  0.00     0.031 C 
ATOM     60  C   UNL A   1      44.376  31.819  28.898  1.00  0.00     0.034 A 
BRANCH  47  61
ATOM     61  C   UNL A   1      38.690  30.149  30.744  1.00  0.00     0.023 A 
ATOM     62  C   UNL A   1      37.657  30.796  30.045  1.00  0.00     0.031 A 
ATOM     63  C   UNL A   1      38.504  29.914  32.119  1.00  0.00     0.131 A 
ATOM     64  C   UNL A   1      36.527  31.261  30.734  1.00  0.00     0.055 A 
ATOM     65  C   UNL A   1      37.336  30.297  32.781  1.00  0.00     0.041 A 
ATOM     66  F   UNL A   1      39.464  29.325  32.849  1.00  0.00    -0.206 F 
ATOM     67  C   UNL A   1      36.346  30.991  32.092  1.00  0.00     0.022 A 
BRANCH  64  68
ATOM     68  S   UNL A   1      35.382  32.374  29.872  1.00  0.00     0.124 S 
ATOM     69  O   UNL A   1      34.957  31.546  28.746  1.00  0.00    -0.237 OA
ATOM     70  O   UNL A   1      34.372  32.638  30.890  1.00  0.00    -0.237 OA
ATOM     71  O   UNL A   1      36.221  33.516  29.512  1.00  0.00    -0.744 OA
ENDBRANCH  64  68
ENDBRANCH  47  61
BRANCH  48  72
ATOM     72  C   UNL A   1      46.978  27.180  25.982  1.00  0.00     0.023 A 
ATOM     73  C   UNL A   1      48.024  26.521  26.650  1.00  0.00     0.031 A 
ATOM     74  C   UNL A   1      47.172  27.515  24.631  1.00  0.00     0.131 A 
ATOM     75  C   UNL A   1      49.234  26.268  25.983  1.00  0.00     0.055 A 
ATOM     76  C   UNL A   1      48.353  27.205  23.954  1.00  0.00     0.041 A 
ATOM     77  F   UNL A   1      46.213  28.158  23.946  1.00  0.00    -0.206 F 
ATOM     78  C   UNL A   1      49.399  26.591  24.635  1.00  0.00     0.022 A 
BRANCH  75  79
ATOM     79  S   UNL A   1      50.631  25.604  26.933  1.00  0.00     0.124 S 
ATOM     80  O   UNL A   1      50.056  24.383  27.487  1.00  0.00    -0.237 OA
ATOM     81  O   UNL A   1      51.644  25.427  25.900  1.00  0.00    -0.237 OA
ATOM     82  O   UNL A   1      50.912  26.658  27.906  1.00  0.00    -0.744 OA
ENDBRANCH  75  79
ENDBRANCH  48  72
BRANCH  60  83
ATOM     83  C   UNL A   1      45.120  33.113  29.151  1.00  0.00     0.023 A 
ATOM     84  C   UNL A   1      45.031  34.214  28.280  1.00  0.00     0.031 A 
ATOM     85  C   UNL A   1      45.950  33.239  30.281  1.00  0.00     0.131 A 
ATOM     86  C   UNL A   1      45.810  35.359  28.513  1.00  0.00     0.055 A 
ATOM     87  C   UNL A   1      46.664  34.408  30.549  1.00  0.00     0.041 A 
ATOM     88  F   UNL A   1      46.082  32.223  31.149  1.00  0.00    -0.206 F 
ATOM     89  C   UNL A   1      46.609  35.471  29.653  1.00  0.00     0.022 A 
BRANCH  86  90
ATOM     90  S   UNL A   1      45.859  36.656  27.244  1.00  0.00     0.124 S 
ATOM     91  O   UNL A   1      46.649  36.022  26.194  1.00  0.00    -0.237 OA
ATOM     92  O   UNL A   1      44.445  36.854  26.946  1.00  0.00    -0.237 OA
ATOM     93  O   UNL A   1      46.512  37.774  27.922  1.00  0.00    -0.744 OA
ENDBRANCH  86  90
ENDBRANCH  60  83
ENDBRANCH  34  35
ENDBRANCH  27  29
ENDBRANCH  26  27
ENDBRANCH  25  26
ENDBRANCH  24  25
ENDBRANCH  23  24
ENDBRANCH  22  23
ENDBRANCH   1  22
TORSDOF 26
ENDMDL
MODEL 2
REMARK VINA RESULT:      -9.3      1.922      2.647
REMARK SMILES C[C@@]([NH2+]CCCO)(C(=O)OCCOCCOCCOC(=O)c1ccc(-c2c3nc(c(-c4cc(S(=O)(=O)[O-])ccc4F)c4ccc([nH]4)c(-c4cc(S(=O)(=O)[O-])ccc4F)c4nc(c(-c5cc(S(=O)(=O)[O-])ccc5F)c5ccc2[nH]5)C=C4)C=C3)cc1)C(F)(F)F
REMARK SMILES IDX 14 1 13 2 12 3 11 4 10 5 8 6 9 7 2 8 1 9 3 10 4 13 5 14 6 15
REMARK SMILES IDX 7 16 85 18 86 19 87 20 88 21 15 22 16 23 17 24 18 25 19 26
REMARK SMILES IDX 20 27 21 28 22 29 23 30 84 31 24 32 83 33 25 34 26 35 27 36
REMARK SMILES IDX 77 37 28 38 82 39 76 40 78 41 29 42 81 43 75 44 74 45 30 47
REMARK SMILES IDX 62 48 42 49 61 50 43 51 46 52 60 53 79 54 44 55 45 56 59 58
REMARK SMILES IDX 80 59 47 60 31 61 32 62 40 63 33 64 39 65 41 66 38 67 34 68
REMARK SMILES IDX 35 69 36 70 37 71 63 72 64 73 72 74 65 75 71 76 73 77 70 78
REMARK SMILES IDX 66 79 67 80 68 81 69 82 48 83 49 84 57 85 50 86 56 87 58 88
REMARK SMILES IDX 55 89 51 90 52 91 53 92 54 93
REMARK H PARENT 3 11 3 12 7 17 78 46 46 57
REMARK Flexibility Score: inf
ROOT
ATOM      1  C   UNL A   1      32.898  21.597  24.738  1.00  0.00     0.188 C 
ENDROOT
BRANCH   1   2
ATOM      2  O   UNL A   1      32.497  22.490  25.769  1.00  0.00    -0.376 OA
BRANCH   2   3
ATOM      3  C   UNL A   1      32.905  23.846  25.748  1.00  0.00     0.202 C 
BRANCH   3   4
ATOM      4  C   UNL A   1      31.836  24.952  25.742  1.00  0.00     0.261 C 
BRANCH   4   5
ATOM      5  O   UNL A   1      31.616  25.651  24.500  1.00  0.00    -0.458 OA
BRANCH   5   6
ATOM      6  C   UNL A   1      32.577  26.552  24.149  1.00  0.00     0.377 C 
ATOM      7  O   UNL A   1      33.747  26.228  23.967  1.00  0.00    -0.244 OA
BRANCH   6   8
ATOM      8  C   UNL A   1      32.085  28.014  24.059  1.00  0.00     0.287 C 
ATOM      9  C   UNL A   1      32.821  28.912  23.029  1.00  0.00     0.103 C 
BRANCH   8  10
ATOM     10  N   UNL A   1      30.664  28.064  23.530  1.00  0.00    -0.325 N 
ATOM     11  H   UNL A   1      30.068  27.612  24.223  1.00  0.00     0.347 HD
ATOM     12  H   UNL A   1      30.718  27.606  22.620  1.00  0.00     0.347 HD
BRANCH  10  13
ATOM     13  C   UNL A   1      30.075  29.369  23.240  1.00  0.00     0.264 C 
BRANCH  13  14
ATOM     14  C   UNL A   1      28.834  29.405  22.346  1.00  0.00     0.089 C 
BRANCH  14  15
ATOM     15  C   UNL A   1      27.533  29.713  23.078  1.00  0.00     0.162 C 
BRANCH  15  16
ATOM     16  O   UNL A   1      26.548  28.732  22.782  1.00  0.00    -0.396 OA
ATOM     17  H   UNL A   1      25.692  29.014  23.142  1.00  0.00     0.210 HD
ENDBRANCH  15  16
ENDBRANCH  14  15
ENDBRANCH  13  14
ENDBRANCH  10  13
ENDBRANCH   8  10
BRANCH   8  18
ATOM     18  C   UNL A   1      32.372  28.631  25.460  1.00  0.00     0.455 C 
ATOM     19  F   UNL A   1      32.539  29.974  25.393  1.00  0.00    -0.164 F 
ATOM     20  F   UNL A   1      31.307  28.417  26.277  1.00  0.00    -0.164 F 
ATOM     21  F   UNL A   1      33.450  28.135  26.089  1.00  0.00    -0.164 F 
ENDBRANCH   8  18
ENDBRANCH   6   8
ENDBRANCH   5   6
ENDBRANCH   4   5
ENDBRANCH   3   4
ENDBRANCH   2   3
ENDBRANCH   1   2
BRANCH   1  22
ATOM     22  C   UNL A   1      33.390  20.178  25.081  1.00  0.00     0.188 C 
BRANCH  22  23
ATOM     23  O   UNL A   1      34.775  19.983  24.909  1.00  0.00    -0.376 OA
BRANCH  23  24
ATOM     24  C   UNL A   1      35.564  21.130  24.668  1.00  0.00     0.202 C 
BRANCH  24  25
ATOM     25  C   UNL A   1      36.590  21.544  25.737  1.00  0.00     0.261 C 
BRANCH  25  26
ATOM     26  O   UNL A   1      37.869  22.012  25.274  1.00  0.00    -0.460 OA
BRANCH  26  27
ATOM     27  C   UNL A   1      38.956  21.684  26.018  1.00  0.00     0.338 C 
ATOM     28  O   UNL A   1      39.544  20.623  25.993  1.00  0.00    -0.246 OA
BRANCH  27  29
ATOM     29  C   UNL A   1      39.450  22.917  26.690  1.00  0.00     0.060 A 
ATOM     30  C   UNL A   1      38.839  24.142  26.390  1.00  0.00     0.016 A 
ATOM     31  C   UNL A   1      40.507  22.872  27.603  1.00  0.00     0.016 A 
ATOM     32  C   UNL A   1      39.315  25.329  26.959  1.00  0.00     0.010 A 
ATOM     33  C   UNL A   1      40.997  24.065  28.155  1.00  0.00     0.010 A 
ATOM     34  C   UNL A   1      40.432  25.305  27.804  1.00  0.00    -0.014 A 
BRANCH  34  35
ATOM     35  C   UNL A   1      41.151  26.574  28.110  1.00  0.00     0.031 A 
ATOM     36  C   UNL A   1      40.386  27.667  28.816  1.00  0.00     0.074 A 
ATOM     37  C   UNL A   1      42.452  26.757  27.815  1.00  0.00     0.049 A 
ATOM     38  N   UNL A   1      40.770  28.868  29.165  1.00  0.00    -0.248 NA
ATOM     39  C   UNL A   1      38.993  27.353  29.172  1.00  0.00     0.031 C 
ATOM     40  C   UNL A   1      43.327  25.766  27.195  1.00  0.00     0.029 A 
ATOM     41  N   UNL A   1      43.264  27.852  28.003  1.00  0.00    -0.354 N 
ATOM     42  C   UNL A   1      39.665  29.457  29.775  1.00  0.00     0.074 A 
ATOM     43  C   UNL A   1      38.587  28.493  29.707  1.00  0.00     0.031 C 
ATOM     44  C   UNL A   1      44.555  26.298  27.054  1.00  0.00     0.029 A 
ATOM     45  C   UNL A   1      44.546  27.679  27.534  1.00  0.00     0.049 A 
ATOM     46  H   UNL A   1      42.956  28.681  28.434  1.00  0.00     0.167 HD
ATOM     47  C   UNL A   1      39.557  30.684  30.343  1.00  0.00     0.034 A 
ATOM     48  C   UNL A   1      45.583  28.543  27.480  1.00  0.00     0.034 A 
ATOM     49  C   UNL A   1      40.632  31.645  30.391  1.00  0.00     0.049 A 
ATOM     50  C   UNL A   1      45.406  29.948  28.019  1.00  0.00     0.074 A 
ATOM     51  C   UNL A   1      40.630  32.910  30.955  1.00  0.00     0.029 A 
ATOM     52  N   UNL A   1      41.893  31.460  29.841  1.00  0.00    -0.354 N 
ATOM     53  N   UNL A   1      44.359  30.491  28.598  1.00  0.00    -0.248 NA
ATOM     54  C   UNL A   1      46.559  30.852  27.901  1.00  0.00     0.031 C 
ATOM     55  C   UNL A   1      41.855  33.521  30.664  1.00  0.00     0.029 A 
ATOM     56  C   UNL A   1      42.662  32.603  30.011  1.00  0.00     0.049 A 
ATOM     57  H   UNL A   1      42.198  30.638  29.392  1.00  0.00     0.167 HD
ATOM     58  C   UNL A   1      44.748  31.783  28.955  1.00  0.00     0.074 A 
ATOM     59  C   UNL A   1      46.124  31.932  28.533  1.00  0.00     0.031 C 
ATOM     60  C   UNL A   1      44.034  32.753  29.584  1.00  0.00     0.034 A 
BRANCH  47  61
ATOM     61  C   UNL A   1      38.203  31.073  30.893  1.00  0.00     0.023 A 
ATOM     62  C   UNL A   1      37.206  31.649  30.087  1.00  0.00     0.031 A 
ATOM     63  C   UNL A   1      37.925  30.907  32.262  1.00  0.00     0.131 A 
ATOM     64  C   UNL A   1      36.018  32.116  30.669  1.00  0.00     0.055 A 
ATOM     65  C   UNL A   1      36.703  31.288  32.818  1.00  0.00     0.041 A 
ATOM     66  F   UNL A   1      38.846  30.388  33.089  1.00  0.00    -0.206 F 
ATOM     67  C   UNL A   1      35.747  31.914  32.024  1.00  0.00     0.022 A 
BRANCH  64  68
ATOM     68  S   UNL A   1      34.908  33.146  29.668  1.00  0.00     0.124 S 
ATOM     69  O   UNL A   1      34.289  32.151  28.796  1.00  0.00    -0.237 OA
ATOM     70  O   UNL A   1      34.040  33.744  30.674  1.00  0.00    -0.237 OA
ATOM     71  O   UNL A   1      35.817  34.072  28.994  1.00  0.00    -0.744 OA
ENDBRANCH  64  68
ENDBRANCH  47  61
BRANCH  48  72
ATOM     72  C   UNL A   1      46.885  28.139  26.868  1.00  0.00     0.023 A 
ATOM     73  C   UNL A   1      47.062  28.135  25.474  1.00  0.00     0.031 A 
ATOM     74  C   UNL A   1      47.945  27.672  27.664  1.00  0.00     0.131 A 
ATOM     75  C   UNL A   1      48.246  27.624  24.918  1.00  0.00     0.055 A 
ATOM     76  C   UNL A   1      49.146  27.223  27.109  1.00  0.00     0.041 A 
ATOM     77  F   UNL A   1      47.827  27.640  29.001  1.00  0.00    -0.206 F 
ATOM     78  C   UNL A   1      49.295  27.183  25.727  1.00  0.00     0.022 A 
BRANCH  75  79
ATOM     79  S   UNL A   1      48.356  27.444  23.115  1.00  0.00     0.124 S 
ATOM     80  O   UNL A   1      47.182  28.188  22.673  1.00  0.00    -0.237 OA
ATOM     81  O   UNL A   1      49.649  28.053  22.827  1.00  0.00    -0.237 OA
ATOM     82  O   UNL A   1      48.290  25.997  22.913  1.00  0.00    -0.744 OA
ENDBRANCH  75  79
ENDBRANCH  48  72
BRANCH  60  83
ATOM     83  C   UNL A   1      44.752  34.043  29.915  1.00  0.00     0.023 A 
ATOM     84  C   UNL A   1      44.761  35.145  29.041  1.00  0.00     0.031 A 
ATOM     85  C   UNL A   1      45.459  34.164  31.127  1.00  0.00     0.131 A 
ATOM     86  C   UNL A   1      45.516  36.286  29.357  1.00  0.00     0.055 A 
ATOM     87  C   UNL A   1      46.146  35.330  31.470  1.00  0.00     0.041 A 
ATOM     88  F   UNL A   1      45.494  33.147  32.003  1.00  0.00    -0.206 F 
ATOM     89  C   UNL A   1      46.191  36.394  30.575  1.00  0.00     0.022 A 
BRANCH  86  90
ATOM     90  S   UNL A   1      45.704  37.584  28.102  1.00  0.00     0.124 S 
ATOM     91  O   UNL A   1      47.120  37.918  28.221  1.00  0.00    -0.237 OA
ATOM     92  O   UNL A   1      45.312  36.895  26.878  1.00  0.00    -0.237 OA
ATOM     93  O   UNL A   1      44.781  38.628  28.547  1.00  0.00    -0.744 OA
ENDBRANCH  86  90
ENDBRANCH  60  83
ENDBRANCH  34  35
ENDBRANCH  27  29
ENDBRANCH  26  27
ENDBRANCH  25  26
ENDBRANCH  24  25
ENDBRANCH  23  24
ENDBRANCH  22  23
ENDBRANCH   1  22
TORSDOF 26
ENDMDL
MODEL 3
REMARK VINA RESULT:      -8.9      2.323      2.884
REMARK SMILES C[C@@]([NH2+]CCCO)(C(=O)OCCOCCOCCOC(=O)c1ccc(-c2c3nc(c(-c4cc(S(=O)(=O)[O-])ccc4F)c4ccc([nH]4)c(-c4cc(S(=O)(=O)[O-])ccc4F)c4nc(c(-c5cc(S(=O)(=O)[O-])ccc5F)c5ccc2[nH]5)C=C4)C=C3)cc1)C(F)(F)F
REMARK SMILES IDX 14 1 13 2 12 3 11 4 10 5 8 6 9 7 2 8 1 9 3 10 4 13 5 14 6 15
REMARK SMILES IDX 7 16 85 18 86 19 87 20 88 21 15 22 16 23 17 24 18 25 19 26
REMARK SMILES IDX 20 27 21 28 22 29 23 30 84 31 24 32 83 33 25 34 26 35 27 36
REMARK SMILES IDX 77 37 28 38 82 39 76 40 78 41 29 42 81 43 75 44 74 45 30 47
REMARK SMILES IDX 62 48 42 49 61 50 43 51 46 52 60 53 79 54 44 55 45 56 59 58
REMARK SMILES IDX 80 59 47 60 31 61 32 62 40 63 33 64 39 65 41 66 38 67 34 68
REMARK SMILES IDX 35 69 36 70 37 71 63 72 64 73 72 74 65 75 71 76 73 77 70 78
REMARK SMILES IDX 66 79 67 80 68 81 69 82 48 83 49 84 57 85 50 86 56 87 58 88
REMARK SMILES IDX 55 89 51 90 52 91 53 92 54 93
REMARK H PARENT 3 11 3 12 7 17 78 46 46 57
REMARK Flexibility Score: inf
ROOT
ATOM      1  C   UNL A   1      35.429  23.553  24.027  1.00  0.00     0.188 C 
ENDROOT
BRANCH   1   2
ATOM      2  O   UNL A   1      35.034  24.326  25.154  1.00  0.00    -0.376 OA
BRANCH   2   3
ATOM      3  C   UNL A   1      34.377  25.569  24.981  1.00  0.00     0.202 C 
BRANCH   3   4
ATOM      4  C   UNL A   1      33.890  25.973  23.580  1.00  0.00     0.261 C 
BRANCH   4   5
ATOM      5  O   UNL A   1      32.705  26.791  23.503  1.00  0.00    -0.458 OA
BRANCH   5   6
ATOM      6  C   UNL A   1      31.649  26.243  22.837  1.00  0.00     0.377 C 
ATOM      7  O   UNL A   1      31.514  26.345  21.621  1.00  0.00    -0.244 OA
BRANCH   6   8
ATOM      8  C   UNL A   1      30.613  25.540  23.743  1.00  0.00     0.287 C 
ATOM      9  C   UNL A   1      30.730  25.841  25.261  1.00  0.00     0.103 C 
BRANCH   8  10
ATOM     10  N   UNL A   1      29.216  26.051  23.449  1.00  0.00    -0.325 N 
ATOM     11  H   UNL A   1      28.567  25.482  23.992  1.00  0.00     0.347 HD
ATOM     12  H   UNL A   1      29.131  25.982  22.434  1.00  0.00     0.347 HD
BRANCH  10  13
ATOM     13  C   UNL A   1      28.911  27.450  23.740  1.00  0.00     0.264 C 
BRANCH  13  14
ATOM     14  C   UNL A   1      29.148  28.474  22.628  1.00  0.00     0.089 C 
BRANCH  14  15
ATOM     15  C   UNL A   1      30.224  29.508  22.937  1.00  0.00     0.162 C 
BRANCH  15  16
ATOM     16  O   UNL A   1      30.654  30.153  21.745  1.00  0.00    -0.396 OA
ATOM     17  H   UNL A   1      29.890  30.554  21.300  1.00  0.00     0.210 HD
ENDBRANCH  15  16
ENDBRANCH  14  15
ENDBRANCH  13  14
ENDBRANCH  10  13
ENDBRANCH   8  10
BRANCH   8  18
ATOM     18  C   UNL A   1      30.891  24.017  23.578  1.00  0.00     0.455 C 
ATOM     19  F   UNL A   1      29.876  23.386  22.937  1.00  0.00    -0.164 F 
ATOM     20  F   UNL A   1      31.998  23.838  22.810  1.00  0.00    -0.164 F 
ATOM     21  F   UNL A   1      31.101  23.349  24.725  1.00  0.00    -0.164 F 
ENDBRANCH   8  18
ENDBRANCH   6   8
ENDBRANCH   5   6
ENDBRANCH   4   5
ENDBRANCH   3   4
ENDBRANCH   2   3
ENDBRANCH   1   2
BRANCH   1  22
ATOM     22  C   UNL A   1      36.270  22.276  24.211  1.00  0.00     0.188 C 
BRANCH  22  23
ATOM     23  O   UNL A   1      35.665  21.290  25.017  1.00  0.00    -0.376 OA
BRANCH  23  24
ATOM     24  C   UNL A   1      36.163  19.972  24.907  1.00  0.00     0.202 C 
BRANCH  24  25
ATOM     25  C   UNL A   1      37.682  19.757  25.019  1.00  0.00     0.261 C 
BRANCH  25  26
ATOM     26  O   UNL A   1      38.483  20.901  25.368  1.00  0.00    -0.460 OA
BRANCH  26  27
ATOM     27  C   UNL A   1      39.550  20.687  26.177  1.00  0.00     0.338 C 
ATOM     28  O   UNL A   1      40.171  19.649  26.282  1.00  0.00    -0.246 OA
BRANCH  27  29
ATOM     29  C   UNL A   1      39.981  21.997  26.738  1.00  0.00     0.060 A 
ATOM     30  C   UNL A   1      39.378  23.169  26.259  1.00  0.00     0.016 A 
ATOM     31  C   UNL A   1      40.971  22.077  27.720  1.00  0.00     0.016 A 
ATOM     32  C   UNL A   1      39.799  24.421  26.719  1.00  0.00     0.010 A 
ATOM     33  C   UNL A   1      41.407  23.334  28.165  1.00  0.00     0.010 A 
ATOM     34  C   UNL A   1      40.853  24.515  27.637  1.00  0.00    -0.014 A 
BRANCH  34  35
ATOM     35  C   UNL A   1      41.534  25.825  27.845  1.00  0.00     0.031 A 
ATOM     36  C   UNL A   1      40.785  26.898  28.595  1.00  0.00     0.074 A 
ATOM     37  C   UNL A   1      42.791  26.061  27.424  1.00  0.00     0.049 A 
ATOM     38  N   UNL A   1      41.140  28.125  28.879  1.00  0.00    -0.248 NA
ATOM     39  C   UNL A   1      39.449  26.529  29.087  1.00  0.00     0.031 C 
ATOM     40  C   UNL A   1      43.652  25.096  26.747  1.00  0.00     0.029 A 
ATOM     41  N   UNL A   1      43.562  27.197  27.511  1.00  0.00    -0.354 N 
ATOM     42  C   UNL A   1      40.068  28.678  29.577  1.00  0.00     0.074 A 
ATOM     43  C   UNL A   1      39.038  27.663  29.632  1.00  0.00     0.031 C 
ATOM     44  C   UNL A   1      44.834  25.681  26.479  1.00  0.00     0.029 A 
ATOM     45  C   UNL A   1      44.802  27.072  26.927  1.00  0.00     0.049 A 
ATOM     46  H   UNL A   1      43.255  28.022  27.950  1.00  0.00     0.167 HD
ATOM     47  C   UNL A   1      39.953  29.913  30.124  1.00  0.00     0.034 A 
ATOM     48  C   UNL A   1      45.785  27.983  26.756  1.00  0.00     0.034 A 
ATOM     49  C   UNL A   1      40.979  30.925  30.050  1.00  0.00     0.049 A 
ATOM     50  C   UNL A   1      45.590  29.391  27.276  1.00  0.00     0.074 A 
ATOM     51  C   UNL A   1      40.967  32.203  30.582  1.00  0.00     0.029 A 
ATOM     52  N   UNL A   1      42.191  30.785  29.387  1.00  0.00    -0.354 N 
ATOM     53  N   UNL A   1      44.575  29.900  27.940  1.00  0.00    -0.248 NA
ATOM     54  C   UNL A   1      46.680  30.346  27.030  1.00  0.00     0.031 C 
ATOM     55  C   UNL A   1      42.127  32.863  30.163  1.00  0.00     0.029 A 
ATOM     56  C   UNL A   1      42.914  31.967  29.458  1.00  0.00     0.049 A 
ATOM     57  H   UNL A   1      42.494  29.966  28.930  1.00  0.00     0.167 HD
ATOM     58  C   UNL A   1      44.932  31.218  28.228  1.00  0.00     0.074 A 
ATOM     59  C   UNL A   1      46.253  31.420  27.676  1.00  0.00     0.031 C 
ATOM     60  C   UNL A   1      44.231  32.170  28.900  1.00  0.00     0.034 A 
BRANCH  47  61
ATOM     61  C   UNL A   1      38.639  30.253  30.791  1.00  0.00     0.023 A 
ATOM     62  C   UNL A   1      37.597  30.899  30.103  1.00  0.00     0.031 A 
ATOM     63  C   UNL A   1      38.446  29.966  32.155  1.00  0.00     0.131 A 
ATOM     64  C   UNL A   1      36.450  31.313  30.798  1.00  0.00     0.055 A 
ATOM     65  C   UNL A   1      37.263  30.297  32.818  1.00  0.00     0.041 A 
ATOM     66  F   UNL A   1      39.414  29.375  32.873  1.00  0.00    -0.206 F 
ATOM     67  C   UNL A   1      36.263  30.991  32.144  1.00  0.00     0.022 A 
BRANCH  64  68
ATOM     68  S   UNL A   1      35.287  32.428  29.963  1.00  0.00     0.124 S 
ATOM     69  O   UNL A   1      34.884  31.626  28.810  1.00  0.00    -0.237 OA
ATOM     70  O   UNL A   1      34.267  32.640  30.983  1.00  0.00    -0.237 OA
ATOM     71  O   UNL A   1      36.103  33.597  29.642  1.00  0.00    -0.744 OA
ENDBRANCH  64  68
ENDBRANCH  47  61
BRANCH  48  72
ATOM     72  C   UNL A   1      47.043  27.624  26.032  1.00  0.00     0.023 A 
ATOM     73  C   UNL A   1      47.194  27.890  24.661  1.00  0.00     0.031 A 
ATOM     74  C   UNL A   1      48.081  26.935  26.684  1.00  0.00     0.131 A 
ATOM     75  C   UNL A   1      48.327  27.424  23.975  1.00  0.00     0.055 A 
ATOM     76  C   UNL A   1      49.235  26.528  26.011  1.00  0.00     0.041 A 
ATOM     77  F   UNL A   1      47.985  26.640  27.990  1.00  0.00    -0.206 F 
ATOM     78  C   UNL A   1      49.356  26.759  24.645  1.00  0.00     0.022 A 
BRANCH  75  79
ATOM     79  S   UNL A   1      48.390  27.605  22.170  1.00  0.00     0.124 S 
ATOM     80  O   UNL A   1      48.595  26.226  21.743  1.00  0.00    -0.237 OA
ATOM     81  O   UNL A   1      47.083  28.181  21.877  1.00  0.00    -0.237 OA
ATOM     82  O   UNL A   1      49.526  28.500  21.958  1.00  0.00    -0.744 OA
ENDBRANCH  75  79
ENDBRANCH  48  72
BRANCH  60  83
ATOM     83  C   UNL A   1      44.913  33.501  29.133  1.00  0.00     0.023 A 
ATOM     84  C   UNL A   1      45.705  33.752  30.268  1.00  0.00     0.031 A 
ATOM     85  C   UNL A   1      44.749  34.548  28.205  1.00  0.00     0.131 A 
ATOM     86  C   UNL A   1      46.243  35.032  30.480  1.00  0.00     0.055 A 
ATOM     87  C   UNL A   1      45.349  35.796  28.385  1.00  0.00     0.041 A 
ATOM     88  F   UNL A   1      44.002  34.375  27.104  1.00  0.00    -0.206 F 
ATOM     89  C   UNL A   1      46.087  36.049  29.535  1.00  0.00     0.022 A 
BRANCH  86  90
ATOM     90  S   UNL A   1      47.050  35.387  32.067  1.00  0.00     0.124 S 
ATOM     91  O   UNL A   1      48.385  34.835  31.859  1.00  0.00    -0.237 OA
ATOM     92  O   UNL A   1      46.967  36.842  32.140  1.00  0.00    -0.237 OA
ATOM     93  O   UNL A   1      46.227  34.670  33.039  1.00  0.00    -0.744 OA
ENDBRANCH  86  90
ENDBRANCH  60  83
ENDBRANCH  34  35
ENDBRANCH  27  29
ENDBRANCH  26  27
ENDBRANCH  25  26
ENDBRANCH  24  25
ENDBRANCH  23  24
ENDBRANCH  22  23
ENDBRANCH   1  22
TORSDOF 26
ENDMDL
