MODEL 1
REMARK VINA RESULT:     -10.1      0.000      0.000
REMARK SMILES CN(C)S(=O)(=O)c1ccc(-n2c(CCC(=O)OCCOCCOCCOC(=O)c3ccc(-c4c5nc(c(-c6cc(S(=O)(=O)[O-])ccc6F)c6ccc([nH]6)c(-c6cc(S(=O)(=O)[O-])ccc6F)c6nc(c(-c7cc(S(=O)(=O)[O-])ccc7F)c7ccc4[nH]7)C=C6)C=C5)cc3)ccc2-c2ccc(F)cc2)cc1
REMARK SMILES IDX 21 1 20 2 19 3 18 4 17 5 15 6 16 7 14 8 13 9 12 10 11 11
REMARK SMILES IDX 94 12 92 13 93 14 10 15 7 16 8 17 103 18 9 19 102 20 4 21
REMARK SMILES IDX 5 22 6 23 2 24 1 25 3 26 95 27 96 28 101 29 97 30 100 31
REMARK SMILES IDX 98 32 99 33 22 34 23 35 24 36 25 37 26 38 27 39 28 40 29 41
REMARK SMILES IDX 30 42 91 43 31 44 90 45 32 46 33 47 34 48 84 49 35 50 89 51
REMARK SMILES IDX 83 52 85 53 36 54 88 55 82 56 81 57 37 59 69 60 49 61 68 62
REMARK SMILES IDX 50 63 53 64 67 65 86 66 51 67 52 68 66 70 87 71 54 72 38 73
REMARK SMILES IDX 39 74 47 75 40 76 46 77 48 78 45 79 41 80 42 81 43 82 44 83
REMARK SMILES IDX 70 84 71 85 79 86 72 87 78 88 80 89 77 90 73 91 74 92 75 93
REMARK SMILES IDX 76 94 55 95 56 96 64 97 57 98 63 99 65 100 62 101 58 102
REMARK SMILES IDX 59 103 60 104 61 105
REMARK H PARENT 85 58 53 69
REMARK Flexibility Score: inf
ROOT
ATOM      1  C   UNL A   1      30.667  31.661  25.668  1.00  0.00     0.188 C 
ENDROOT
BRANCH   1   2
ATOM      2  O   UNL A   1      30.140  30.761  24.548  1.00  0.00    -0.376 OA
BRANCH   2   3
ATOM      3  C   UNL A   1      30.087  29.001  23.621  1.00  0.00     0.202 C 
BRANCH   3   4
ATOM      4  C   UNL A   1      31.023  28.334  22.341  1.00  0.00     0.261 C 
BRANCH   4   5
ATOM      5  O   UNL A   1      32.128  27.433  22.622  1.00  0.00    -0.463 OA
BRANCH   5   6
ATOM      6  C   UNL A   1      31.915  26.109  22.388  1.00  0.00     0.306 C 
ATOM      7  O   UNL A   1      32.665  25.414  21.709  1.00  0.00    -0.252 OA
BRANCH   6   8
ATOM      8  C   UNL A   1      30.692  25.522  23.092  1.00  0.00     0.129 C 
BRANCH   8   9
ATOM      9  C   UNL A   1      30.821  24.857  24.470  1.00  0.00     0.066 C 
BRANCH   9  10
ATOM     10  C   UNL A   1      32.160  25.013  25.098  1.00  0.00     0.024 A 
ATOM     11  N   UNL A   1      33.142  24.025  25.181  1.00  0.00    -0.314 N 
ATOM     12  C   UNL A   1      34.323  24.669  25.617  1.00  0.00     0.053 A 
ATOM     13  C   UNL A   1      32.621  26.138  25.755  1.00  0.00     0.024 A 
ATOM     14  C   UNL A   1      33.967  25.923  26.080  1.00  0.00     0.029 A 
BRANCH  11  15
ATOM     15  C   UNL A   1      33.021  22.636  24.814  1.00  0.00     0.046 A 
ATOM     16  C   UNL A   1      32.824  19.081  24.142  1.00  0.00     0.082 A 
ATOM     17  C   UNL A   1      33.256  19.667  25.769  1.00  0.00     0.024 A 
ATOM     18  C   UNL A   1      32.521  20.241  22.794  1.00  0.00     0.024 A 
ATOM     19  C   UNL A   1      33.341  21.427  26.115  1.00  0.00     0.028 A 
ATOM     20  C   UNL A   1      32.574  22.032  23.132  1.00  0.00     0.028 A 
BRANCH  16  21
ATOM     21  S   UNL A   1      32.321  17.411  23.885  1.00  0.00     0.242 S 
ATOM     22  O   UNL A   1      31.941  17.301  22.491  1.00  0.00    -0.207 OA
ATOM     23  O   UNL A   1      31.386  17.105  24.947  1.00  0.00    -0.207 OA
BRANCH  21  24
ATOM     24  N   UNL A   1      33.714  16.426  24.114  1.00  0.00    -0.204 NA
ATOM     25  C   UNL A   1      34.975  17.214  24.008  1.00  0.00     0.124 C 
ATOM     26  C   UNL A   1      33.731  15.619  25.357  1.00  0.00     0.124 C 
ENDBRANCH  21  24
ENDBRANCH  16  21
ENDBRANCH  11  15
BRANCH  12  27
ATOM     27  C   UNL A   1      35.698  24.153  25.546  1.00  0.00    -0.001 A 
ATOM     28  C   UNL A   1      36.594  24.378  26.604  1.00  0.00     0.013 A 
ATOM     29  C   UNL A   1      36.127  23.404  24.438  1.00  0.00     0.013 A 
ATOM     30  C   UNL A   1      37.867  23.800  26.587  1.00  0.00     0.040 A 
ATOM     31  C   UNL A   1      37.394  22.815  24.428  1.00  0.00     0.040 A 
ATOM     32  C   UNL A   1      38.248  23.012  25.507  1.00  0.00     0.123 A 
ATOM     33  F   UNL A   1      39.453  22.427  25.506  1.00  0.00    -0.207 F 
ENDBRANCH  12  27
ENDBRANCH   9  10
ENDBRANCH   8   9
ENDBRANCH   6   8
ENDBRANCH   5   6
ENDBRANCH   4   5
ENDBRANCH   3   4
ENDBRANCH   2   3
ENDBRANCH   1   2
BRANCH   1  34
ATOM     34  C   UNL A   1      31.837  31.050  26.472  1.00  0.00     0.188 C 
BRANCH  34  35
ATOM     35  O   UNL A   1      32.618  31.892  27.327  1.00  0.00    -0.376 OA
BRANCH  35  36
ATOM     36  C   UNL A   1      32.368  33.295  27.353  1.00  0.00     0.202 C 
BRANCH  36  37
ATOM     37  C   UNL A   1      33.196  34.134  28.296  1.00  0.00     0.261 C 
BRANCH  37  38
ATOM     38  O   UNL A   1      34.029  33.264  29.031  1.00  0.00    -0.460 OA
BRANCH  38  39
ATOM     39  C   UNL A   1      35.311  33.298  28.597  1.00  0.00     0.338 C 
ATOM     40  O   UNL A   1      35.748  32.901  27.540  1.00  0.00    -0.246 OA
BRANCH  39  41
ATOM     41  C   UNL A   1      36.132  33.834  29.712  1.00  0.00     0.060 A 
ATOM     42  C   UNL A   1      37.350  34.274  29.198  1.00  0.00     0.016 A 
ATOM     43  C   UNL A   1      36.069  32.933  30.781  1.00  0.00     0.016 A 
ATOM     44  C   UNL A   1      38.419  33.429  29.364  1.00  0.00     0.010 A 
ATOM     45  C   UNL A   1      37.065  31.993  30.836  1.00  0.00     0.010 A 
ATOM     46  C   UNL A   1      38.239  32.262  30.130  1.00  0.00    -0.014 A 
BRANCH  46  47
ATOM     47  C   UNL A   1      39.461  31.586  30.545  1.00  0.00     0.031 A 
ATOM     48  C   UNL A   1      40.271  32.676  31.314  1.00  0.00     0.074 A 
ATOM     49  C   UNL A   1      39.636  30.313  30.066  1.00  0.00     0.049 A 
ATOM     50  N   UNL A   1      41.483  33.096  31.129  1.00  0.00    -0.248 NA
ATOM     51  C   UNL A   1      39.551  33.612  32.252  1.00  0.00     0.031 C 
ATOM     52  C   UNL A   1      38.625  29.485  29.349  1.00  0.00     0.029 A 
ATOM     53  N   UNL A   1      40.697  29.442  30.074  1.00  0.00    -0.354 N 
ATOM     54  C   UNL A   1      41.723  34.081  32.115  1.00  0.00     0.074 A 
ATOM     55  C   UNL A   1      40.453  34.547  32.542  1.00  0.00     0.031 C 
ATOM     56  C   UNL A   1      39.159  28.311  28.918  1.00  0.00     0.029 A 
ATOM     57  C   UNL A   1      40.557  28.243  29.302  1.00  0.00     0.049 A 
ATOM     58  H   UNL A   1      41.516  29.632  30.585  1.00  0.00     0.167 HD
ATOM     59  C   UNL A   1      42.929  34.234  32.734  1.00  0.00     0.034 A 
ATOM     60  C   UNL A   1      41.541  27.336  28.967  1.00  0.00     0.034 A 
ATOM     61  C   UNL A   1      43.845  33.294  32.172  1.00  0.00     0.049 A 
ATOM     62  C   UNL A   1      42.711  27.877  29.685  1.00  0.00     0.074 A 
ATOM     63  C   UNL A   1      44.403  33.192  30.926  1.00  0.00     0.029 A 
ATOM     64  N   UNL A   1      43.916  32.070  32.806  1.00  0.00    -0.354 N 
ATOM     65  N   UNL A   1      42.893  27.829  30.970  1.00  0.00    -0.248 NA
ATOM     66  C   UNL A   1      43.680  28.673  28.915  1.00  0.00     0.031 C 
ATOM     67  C   UNL A   1      44.276  31.816  30.654  1.00  0.00     0.029 A 
ATOM     68  C   UNL A   1      43.977  31.111  31.829  1.00  0.00     0.049 A 
ATOM     69  H   UNL A   1      43.922  31.915  33.779  1.00  0.00     0.167 HD
ATOM     70  C   UNL A   1      43.805  28.833  31.180  1.00  0.00     0.074 A 
ATOM     71  C   UNL A   1      44.469  29.058  29.912  1.00  0.00     0.031 C 
ATOM     72  C   UNL A   1      43.595  29.755  32.156  1.00  0.00     0.034 A 
BRANCH  59  73
ATOM     73  C   UNL A   1      43.326  34.877  34.038  1.00  0.00     0.023 A 
ATOM     74  C   UNL A   1      42.316  34.868  35.028  1.00  0.00     0.031 A 
ATOM     75  C   UNL A   1      44.401  35.750  34.259  1.00  0.00     0.131 A 
ATOM     76  C   UNL A   1      42.280  35.829  36.040  1.00  0.00     0.055 A 
ATOM     77  C   UNL A   1      44.412  36.649  35.336  1.00  0.00     0.041 A 
ATOM     78  F   UNL A   1      45.437  35.840  33.417  1.00  0.00    -0.206 F 
ATOM     79  C   UNL A   1      43.324  36.730  36.202  1.00  0.00     0.022 A 
BRANCH  76  80
ATOM     80  S   UNL A   1      40.737  35.994  36.976  1.00  0.00     0.124 S 
ATOM     81  O   UNL A   1      41.128  36.916  38.037  1.00  0.00    -0.237 OA
ATOM     82  O   UNL A   1      39.827  36.530  35.968  1.00  0.00    -0.237 OA
ATOM     83  O   UNL A   1      40.454  34.627  37.405  1.00  0.00    -0.744 OA
ENDBRANCH  76  80
ENDBRANCH  59  73
BRANCH  60  84
ATOM     84  C   UNL A   1      41.848  26.128  28.061  1.00  0.00     0.023 A 
ATOM     85  C   UNL A   1      41.832  24.756  28.383  1.00  0.00     0.031 A 
ATOM     86  C   UNL A   1      42.159  26.385  26.681  1.00  0.00     0.131 A 
ATOM     87  C   UNL A   1      42.014  23.769  27.353  1.00  0.00     0.055 A 
ATOM     88  C   UNL A   1      42.221  25.427  25.670  1.00  0.00     0.041 A 
ATOM     89  F   UNL A   1      42.442  27.613  26.224  1.00  0.00    -0.206 F 
ATOM     90  C   UNL A   1      42.131  24.103  26.001  1.00  0.00     0.022 A 
BRANCH  87  91
ATOM     91  S   UNL A   1      42.132  21.985  27.717  1.00  0.00     0.124 S 
ATOM     92  O   UNL A   1      40.793  21.688  28.216  1.00  0.00    -0.237 OA
ATOM     93  O   UNL A   1      42.482  21.408  26.424  1.00  0.00    -0.237 OA
ATOM     94  O   UNL A   1      43.192  21.914  28.726  1.00  0.00    -0.744 OA
ENDBRANCH  87  91
ENDBRANCH  60  84
BRANCH  72  95
ATOM     95  C   UNL A   1      42.683  29.302  33.293  1.00  0.00     0.023 A 
ATOM     96  C   UNL A   1      41.539  30.053  33.612  1.00  0.00     0.031 A 
ATOM     97  C   UNL A   1      42.955  28.215  34.146  1.00  0.00     0.131 A 
ATOM     98  C   UNL A   1      40.743  29.731  34.731  1.00  0.00     0.055 A 
ATOM     99  C   UNL A   1      42.173  27.895  35.267  1.00  0.00     0.041 A 
ATOM    100  F   UNL A   1      44.001  27.424  33.925  1.00  0.00    -0.206 F 
ATOM    101  C   UNL A   1      41.056  28.658  35.564  1.00  0.00     0.022 A 
BRANCH  98 102
ATOM    102  S   UNL A   1      39.259  30.716  35.069  1.00  0.00     0.124 S 
ATOM    103  O   UNL A   1      38.450  30.493  33.877  1.00  0.00    -0.237 OA
ATOM    104  O   UNL A   1      38.758  30.120  36.303  1.00  0.00    -0.237 OA
ATOM    105  O   UNL A   1      39.778  32.077  35.216  1.00  0.00    -0.744 OA
ENDBRANCH  98 102
ENDBRANCH  72  95
ENDBRANCH  46  47
ENDBRANCH  39  41
ENDBRANCH  38  39
ENDBRANCH  37  38
ENDBRANCH  36  37
ENDBRANCH  35  36
ENDBRANCH  34  35
ENDBRANCH   1  34
TORSDOF 26
ENDMDL
MODEL 2
REMARK VINA RESULT:      -9.1      6.372     10.623
REMARK SMILES CN(C)S(=O)(=O)c1ccc(-n2c(CCC(=O)OCCOCCOCCOC(=O)c3ccc(-c4c5nc(c(-c6cc(S(=O)(=O)[O-])ccc6F)c6ccc([nH]6)c(-c6cc(S(=O)(=O)[O-])ccc6F)c6nc(c(-c7cc(S(=O)(=O)[O-])ccc7F)c7ccc4[nH]7)C=C6)C=C5)cc3)ccc2-c2ccc(F)cc2)cc1
REMARK SMILES IDX 21 1 20 2 19 3 18 4 17 5 15 6 16 7 14 8 13 9 12 10 11 11
REMARK SMILES IDX 94 12 92 13 93 14 10 15 7 16 8 17 103 18 9 19 102 20 4 21
REMARK SMILES IDX 5 22 6 23 2 24 1 25 3 26 95 27 96 28 101 29 97 30 100 31
REMARK SMILES IDX 98 32 99 33 22 34 23 35 24 36 25 37 26 38 27 39 28 40 29 41
REMARK SMILES IDX 30 42 91 43 31 44 90 45 32 46 33 47 34 48 84 49 35 50 89 51
REMARK SMILES IDX 83 52 85 53 36 54 88 55 82 56 81 57 37 59 69 60 49 61 68 62
REMARK SMILES IDX 50 63 53 64 67 65 86 66 51 67 52 68 66 70 87 71 54 72 38 73
REMARK SMILES IDX 39 74 47 75 40 76 46 77 48 78 45 79 41 80 42 81 43 82 44 83
REMARK SMILES IDX 70 84 71 85 79 86 72 87 78 88 80 89 77 90 73 91 74 92 75 93
REMARK SMILES IDX 76 94 55 95 56 96 64 97 57 98 63 99 65 100 62 101 58 102
REMARK SMILES IDX 59 103 60 104 61 105
REMARK H PARENT 85 58 53 69
REMARK Flexibility Score: inf
ROOT
ATOM      1  C   UNL A   1      38.014  32.992  36.703  1.00  0.00     0.188 C 
ENDROOT
BRANCH   1   2
ATOM      2  O   UNL A   1      36.932  33.046  35.623  1.00  0.00    -0.376 OA
BRANCH   2   3
ATOM      3  C   UNL A   1      35.595  34.070  34.561  1.00  0.00     0.202 C 
BRANCH   3   4
ATOM      4  C   UNL A   1      35.554  34.567  32.915  1.00  0.00     0.261 C 
BRANCH   4   5
ATOM      5  O   UNL A   1      36.701  34.355  32.048  1.00  0.00    -0.463 OA
BRANCH   5   6
ATOM      6  C   UNL A   1      36.513  33.546  30.969  1.00  0.00     0.306 C 
ATOM      7  O   UNL A   1      36.181  33.960  29.862  1.00  0.00    -0.252 OA
BRANCH   6   8
ATOM      8  C   UNL A   1      36.810  32.067  31.218  1.00  0.00     0.129 C 
BRANCH   8   9
ATOM      9  C   UNL A   1      38.252  31.574  31.403  1.00  0.00     0.066 C 
BRANCH   9  10
ATOM     10  C   UNL A   1      38.740  30.695  30.307  1.00  0.00     0.024 A 
ATOM     11  N   UNL A   1      39.720  29.709  30.426  1.00  0.00    -0.314 N 
ATOM     12  C   UNL A   1      39.687  28.963  29.226  1.00  0.00     0.053 A 
ATOM     13  C   UNL A   1      38.350  30.758  28.982  1.00  0.00     0.024 A 
ATOM     14  C   UNL A   1      38.941  29.681  28.309  1.00  0.00     0.029 A 
BRANCH  11  15
ATOM     15  C   UNL A   1      40.551  29.432  31.573  1.00  0.00     0.046 A 
ATOM     16  C   UNL A   1      42.835  28.890  34.332  1.00  0.00     0.082 A 
ATOM     17  C   UNL A   1      43.242  30.051  33.041  1.00  0.00     0.024 A 
ATOM     18  C   UNL A   1      41.306  27.936  34.266  1.00  0.00     0.024 A 
ATOM     19  C   UNL A   1      42.108  30.337  31.678  1.00  0.00     0.028 A 
ATOM     20  C   UNL A   1      40.128  28.233  32.907  1.00  0.00     0.028 A 
BRANCH  16  21
ATOM     21  S   UNL A   1      43.702  28.903  35.867  1.00  0.00     0.242 S 
ATOM     22  O   UNL A   1      42.747  29.304  36.880  1.00  0.00    -0.207 OA
ATOM     23  O   UNL A   1      44.916  29.659  35.636  1.00  0.00    -0.207 OA
BRANCH  21  24
ATOM     24  N   UNL A   1      44.153  27.277  36.203  1.00  0.00    -0.204 NA
ATOM     25  C   UNL A   1      43.118  26.569  37.008  1.00  0.00     0.124 C 
ATOM     26  C   UNL A   1      44.519  26.456  35.024  1.00  0.00     0.124 C 
ENDBRANCH  21  24
ENDBRANCH  16  21
ENDBRANCH  11  15
BRANCH  12  27
ATOM     27  C   UNL A   1      40.274  27.637  28.984  1.00  0.00    -0.001 A 
ATOM     28  C   UNL A   1      39.448  26.540  28.686  1.00  0.00     0.013 A 
ATOM     29  C   UNL A   1      41.666  27.452  29.016  1.00  0.00     0.013 A 
ATOM     30  C   UNL A   1      40.009  25.303  28.352  1.00  0.00     0.040 A 
ATOM     31  C   UNL A   1      42.225  26.219  28.668  1.00  0.00     0.040 A 
ATOM     32  C   UNL A   1      41.391  25.160  28.331  1.00  0.00     0.123 A 
ATOM     33  F   UNL A   1      41.930  23.986  27.975  1.00  0.00    -0.207 F 
ENDBRANCH  12  27
ENDBRANCH   9  10
ENDBRANCH   8   9
ENDBRANCH   6   8
ENDBRANCH   5   6
ENDBRANCH   4   5
ENDBRANCH   3   4
ENDBRANCH   2   3
ENDBRANCH   1   2
BRANCH   1  34
ATOM     34  C   UNL A   1      39.383  33.555  36.256  1.00  0.00     0.188 C 
BRANCH  34  35
ATOM     35  O   UNL A   1      39.862  34.776  36.831  1.00  0.00    -0.376 OA
BRANCH  35  36
ATOM     36  C   UNL A   1      40.881  34.733  37.826  1.00  0.00     0.202 C 
BRANCH  36  37
ATOM     37  C   UNL A   1      42.201  35.390  37.502  1.00  0.00     0.261 C 
BRANCH  37  38
ATOM     38  O   UNL A   1      42.969  34.474  36.754  1.00  0.00    -0.460 OA
BRANCH  38  39
ATOM     39  C   UNL A   1      43.239  34.932  35.508  1.00  0.00     0.338 C 
ATOM     40  O   UNL A   1      43.146  36.068  35.098  1.00  0.00    -0.246 OA
BRANCH  39  41
ATOM     41  C   UNL A   1      43.589  33.752  34.679  1.00  0.00     0.060 A 
ATOM     42  C   UNL A   1      44.947  33.813  34.367  1.00  0.00     0.016 A 
ATOM     43  C   UNL A   1      42.615  33.604  33.686  1.00  0.00     0.016 A 
ATOM     44  C   UNL A   1      45.260  34.273  33.112  1.00  0.00     0.010 A 
ATOM     45  C   UNL A   1      42.880  34.209  32.485  1.00  0.00     0.010 A 
ATOM     46  C   UNL A   1      44.212  34.527  32.209  1.00  0.00    -0.014 A 
BRANCH  46  47
ATOM     47  C   UNL A   1      44.605  34.689  30.816  1.00  0.00     0.031 A 
ATOM     48  C   UNL A   1      44.246  36.169  30.476  1.00  0.00     0.074 A 
ATOM     49  C   UNL A   1      45.017  33.551  30.171  1.00  0.00     0.049 A 
ATOM     50  N   UNL A   1      43.513  36.648  29.521  1.00  0.00    -0.248 NA
ATOM     51  C   UNL A   1      44.528  37.252  31.487  1.00  0.00     0.031 C 
ATOM     52  C   UNL A   1      45.302  32.227  30.797  1.00  0.00     0.029 A 
ATOM     53  N   UNL A   1      45.283  33.256  28.857  1.00  0.00    -0.354 N 
ATOM     54  C   UNL A   1      43.534  38.056  29.664  1.00  0.00     0.074 A 
ATOM     55  C   UNL A   1      43.897  38.322  31.010  1.00  0.00     0.031 C 
ATOM     56  C   UNL A   1      45.589  31.285  29.859  1.00  0.00     0.029 A 
ATOM     57  C   UNL A   1      45.524  31.881  28.537  1.00  0.00     0.049 A 
ATOM     58  H   UNL A   1      45.307  33.958  28.167  1.00  0.00     0.167 HD
ATOM     59  C   UNL A   1      43.554  38.910  28.601  1.00  0.00     0.034 A 
ATOM     60  C   UNL A   1      45.586  31.306  27.285  1.00  0.00     0.034 A 
ATOM     61  C   UNL A   1      43.492  38.137  27.403  1.00  0.00     0.049 A 
ATOM     62  C   UNL A   1      45.440  32.479  26.402  1.00  0.00     0.074 A 
ATOM     63  C   UNL A   1      42.502  37.358  26.866  1.00  0.00     0.029 A 
ATOM     64  N   UNL A   1      44.706  37.773  26.857  1.00  0.00    -0.354 N 
ATOM     65  N   UNL A   1      46.349  33.384  26.198  1.00  0.00    -0.248 NA
ATOM     66  C   UNL A   1      44.113  32.742  25.825  1.00  0.00     0.031 C 
ATOM     67  C   UNL A   1      43.213  36.212  26.457  1.00  0.00     0.029 A 
ATOM     68  C   UNL A   1      44.591  36.471  26.446  1.00  0.00     0.049 A 
ATOM     69  H   UNL A   1      45.505  38.343  26.779  1.00  0.00     0.167 HD
ATOM     70  C   UNL A   1      45.614  34.447  25.739  1.00  0.00     0.074 A 
ATOM     71  C   UNL A   1      44.372  33.902  25.230  1.00  0.00     0.031 C 
ATOM     72  C   UNL A   1      45.792  35.685  26.273  1.00  0.00     0.034 A 
BRANCH  59  73
ATOM     73  C   UNL A   1      43.978  40.349  28.464  1.00  0.00     0.023 A 
ATOM     74  C   UNL A   1      45.055  40.560  27.571  1.00  0.00     0.031 A 
ATOM     75  C   UNL A   1      43.680  41.408  29.333  1.00  0.00     0.131 A 
ATOM     76  C   UNL A   1      45.907  41.658  27.704  1.00  0.00     0.055 A 
ATOM     77  C   UNL A   1      44.481  42.558  29.398  1.00  0.00     0.041 A 
ATOM     78  F   UNL A   1      42.671  41.353  30.211  1.00  0.00    -0.206 F 
ATOM     79  C   UNL A   1      45.631  42.665  28.619  1.00  0.00     0.022 A 
BRANCH  76  80
ATOM     80  S   UNL A   1      47.480  41.604  26.806  1.00  0.00     0.124 S 
ATOM     81  O   UNL A   1      47.983  40.282  27.163  1.00  0.00    -0.237 OA
ATOM     82  O   UNL A   1      47.045  41.768  25.421  1.00  0.00    -0.237 OA
ATOM     83  O   UNL A   1      48.224  42.731  27.361  1.00  0.00    -0.744 OA
ENDBRANCH  76  80
ENDBRANCH  59  73
BRANCH  60  84
ATOM     84  C   UNL A   1      45.613  29.952  26.549  1.00  0.00     0.023 A 
ATOM     85  C   UNL A   1      46.661  29.371  25.805  1.00  0.00     0.031 A 
ATOM     86  C   UNL A   1      44.448  29.114  26.641  1.00  0.00     0.131 A 
ATOM     87  C   UNL A   1      46.537  28.028  25.309  1.00  0.00     0.055 A 
ATOM     88  C   UNL A   1      44.378  27.776  26.258  1.00  0.00     0.041 A 
ATOM     89  F   UNL A   1      43.275  29.563  27.108  1.00  0.00    -0.206 F 
ATOM     90  C   UNL A   1      45.437  27.215  25.599  1.00  0.00     0.022 A 
BRANCH  87  91
ATOM     91  S   UNL A   1      47.796  27.261  24.233  1.00  0.00     0.124 S 
ATOM     92  O   UNL A   1      47.272  27.549  22.902  1.00  0.00    -0.237 OA
ATOM     93  O   UNL A   1      49.019  27.958  24.610  1.00  0.00    -0.237 OA
ATOM     94  O   UNL A   1      47.754  25.847  24.616  1.00  0.00    -0.744 OA
ENDBRANCH  87  91
ENDBRANCH  60  84
BRANCH  72  95
ATOM     95  C   UNL A   1      47.152  35.921  26.924  1.00  0.00     0.023 A 
ATOM     96  C   UNL A   1      47.395  35.448  28.225  1.00  0.00     0.031 A 
ATOM     97  C   UNL A   1      48.185  36.688  26.353  1.00  0.00     0.131 A 
ATOM     98  C   UNL A   1      48.594  35.753  28.901  1.00  0.00     0.055 A 
ATOM     99  C   UNL A   1      49.377  37.004  27.024  1.00  0.00     0.041 A 
ATOM    100  F   UNL A   1      48.072  37.168  25.119  1.00  0.00    -0.206 F 
ATOM    101  C   UNL A   1      49.587  36.533  28.309  1.00  0.00     0.022 A 
BRANCH  98 102
ATOM    102  S   UNL A   1      48.863  35.084  30.565  1.00  0.00     0.124 S 
ATOM    103  O   UNL A   1      48.341  33.727  30.450  1.00  0.00    -0.237 OA
ATOM    104  O   UNL A   1      50.308  35.201  30.723  1.00  0.00    -0.237 OA
ATOM    105  O   UNL A   1      48.080  35.974  31.422  1.00  0.00    -0.744 OA
ENDBRANCH  98 102
ENDBRANCH  72  95
ENDBRANCH  46  47
ENDBRANCH  39  41
ENDBRANCH  38  39
ENDBRANCH  37  38
ENDBRANCH  36  37
ENDBRANCH  35  36
ENDBRANCH  34  35
ENDBRANCH   1  34
TORSDOF 26
ENDMDL
MODEL 3
REMARK VINA RESULT:      -9.1      4.049      7.595
REMARK SMILES CN(C)S(=O)(=O)c1ccc(-n2c(CCC(=O)OCCOCCOCCOC(=O)c3ccc(-c4c5nc(c(-c6cc(S(=O)(=O)[O-])ccc6F)c6ccc([nH]6)c(-c6cc(S(=O)(=O)[O-])ccc6F)c6nc(c(-c7cc(S(=O)(=O)[O-])ccc7F)c7ccc4[nH]7)C=C6)C=C5)cc3)ccc2-c2ccc(F)cc2)cc1
REMARK SMILES IDX 21 1 20 2 19 3 18 4 17 5 15 6 16 7 14 8 13 9 12 10 11 11
REMARK SMILES IDX 94 12 92 13 93 14 10 15 7 16 8 17 103 18 9 19 102 20 4 21
REMARK SMILES IDX 5 22 6 23 2 24 1 25 3 26 95 27 96 28 101 29 97 30 100 31
REMARK SMILES IDX 98 32 99 33 22 34 23 35 24 36 25 37 26 38 27 39 28 40 29 41
REMARK SMILES IDX 30 42 91 43 31 44 90 45 32 46 33 47 34 48 84 49 35 50 89 51
REMARK SMILES IDX 83 52 85 53 36 54 88 55 82 56 81 57 37 59 69 60 49 61 68 62
REMARK SMILES IDX 50 63 53 64 67 65 86 66 51 67 52 68 66 70 87 71 54 72 38 73
REMARK SMILES IDX 39 74 47 75 40 76 46 77 48 78 45 79 41 80 42 81 43 82 44 83
REMARK SMILES IDX 70 84 71 85 79 86 72 87 78 88 80 89 77 90 73 91 74 92 75 93
REMARK SMILES IDX 76 94 55 95 56 96 64 97 57 98 63 99 65 100 62 101 58 102
REMARK SMILES IDX 59 103 60 104 61 105
REMARK H PARENT 85 58 53 69
REMARK Flexibility Score: inf
ROOT
ATOM      1  C   UNL A   1      31.609  29.184  25.576  1.00  0.00     0.188 C 
ENDROOT
BRANCH   1   2
ATOM      2  O   UNL A   1      32.465  28.016  25.080  1.00  0.00    -0.376 OA
BRANCH   2   3
ATOM      3  C   UNL A   1      32.791  26.061  24.905  1.00  0.00     0.202 C 
BRANCH   3   4
ATOM      4  C   UNL A   1      32.299  24.712  25.851  1.00  0.00     0.261 C 
BRANCH   4   5
ATOM      5  O   UNL A   1      32.622  23.357  25.435  1.00  0.00    -0.463 OA
BRANCH   5   6
ATOM      6  C   UNL A   1      33.601  22.719  26.132  1.00  0.00     0.306 C 
ATOM      7  O   UNL A   1      33.614  21.506  26.325  1.00  0.00    -0.252 OA
BRANCH   6   8
ATOM      8  C   UNL A   1      34.738  23.621  26.613  1.00  0.00     0.129 C 
BRANCH   8   9
ATOM      9  C   UNL A   1      35.886  24.011  25.671  1.00  0.00     0.066 C 
BRANCH   9  10
ATOM     10  C   UNL A   1      36.869  22.922  25.426  1.00  0.00     0.024 A 
ATOM     11  N   UNL A   1      38.186  22.893  25.886  1.00  0.00    -0.314 N 
ATOM     12  C   UNL A   1      38.667  21.586  25.645  1.00  0.00     0.053 A 
ATOM     13  C   UNL A   1      36.656  21.797  24.651  1.00  0.00     0.024 A 
ATOM     14  C   UNL A   1      37.776  20.966  24.786  1.00  0.00     0.029 A 
BRANCH  11  15
ATOM     15  C   UNL A   1      38.903  23.948  26.558  1.00  0.00     0.046 A 
ATOM     16  C   UNL A   1      40.901  26.577  28.050  1.00  0.00     0.082 A 
ATOM     17  C   UNL A   1      41.337  25.909  26.455  1.00  0.00     0.024 A 
ATOM     18  C   UNL A   1      39.489  25.929  28.966  1.00  0.00     0.024 A 
ATOM     19  C   UNL A   1      40.344  24.617  25.702  1.00  0.00     0.028 A 
ATOM     20  C   UNL A   1      38.450  24.638  28.206  1.00  0.00     0.028 A 
BRANCH  16  21
ATOM     21  S   UNL A   1      41.582  28.104  28.609  1.00  0.00     0.242 S 
ATOM     22  O   UNL A   1      42.729  28.381  27.768  1.00  0.00    -0.207 OA
ATOM     23  O   UNL A   1      41.714  27.983  30.046  1.00  0.00    -0.207 OA
BRANCH  21  24
ATOM     24  N   UNL A   1      40.410  29.323  28.292  1.00  0.00    -0.204 NA
ATOM     25  C   UNL A   1      39.641  29.044  27.046  1.00  0.00     0.124 C 
ATOM     26  C   UNL A   1      39.472  29.616  29.403  1.00  0.00     0.124 C 
ENDBRANCH  21  24
ENDBRANCH  16  21
ENDBRANCH  11  15
BRANCH  12  27
ATOM     27  C   UNL A   1      39.855  20.950  26.233  1.00  0.00    -0.001 A 
ATOM     28  C   UNL A   1      40.560  21.586  27.268  1.00  0.00     0.013 A 
ATOM     29  C   UNL A   1      40.284  19.687  25.792  1.00  0.00     0.013 A 
ATOM     30  C   UNL A   1      41.626  20.937  27.900  1.00  0.00     0.040 A 
ATOM     31  C   UNL A   1      41.341  19.034  26.433  1.00  0.00     0.040 A 
ATOM     32  C   UNL A   1      41.995  19.663  27.486  1.00  0.00     0.123 A 
ATOM     33  F   UNL A   1      42.991  19.025  28.115  1.00  0.00    -0.207 F 
ENDBRANCH  12  27
ENDBRANCH   9  10
ENDBRANCH   8   9
ENDBRANCH   6   8
ENDBRANCH   5   6
ENDBRANCH   4   5
ENDBRANCH   3   4
ENDBRANCH   2   3
ENDBRANCH   1   2
BRANCH   1  34
ATOM     34  C   UNL A   1      32.050  29.756  26.943  1.00  0.00     0.188 C 
BRANCH  34  35
ATOM     35  O   UNL A   1      32.770  30.994  26.988  1.00  0.00    -0.376 OA
BRANCH  35  36
ATOM     36  C   UNL A   1      34.116  31.009  27.455  1.00  0.00     0.202 C 
BRANCH  36  37
ATOM     37  C   UNL A   1      34.594  32.253  28.163  1.00  0.00     0.261 C 
BRANCH  37  38
ATOM     38  O   UNL A   1      34.793  31.930  29.521  1.00  0.00    -0.460 OA
BRANCH  38  39
ATOM     39  C   UNL A   1      36.052  32.211  29.934  1.00  0.00     0.338 C 
ATOM     40  O   UNL A   1      37.069  32.203  29.276  1.00  0.00    -0.246 OA
BRANCH  39  41
ATOM     41  C   UNL A   1      35.985  32.449  31.398  1.00  0.00     0.060 A 
ATOM     42  C   UNL A   1      36.340  33.773  31.652  1.00  0.00     0.016 A 
ATOM     43  C   UNL A   1      36.617  31.383  32.048  1.00  0.00     0.016 A 
ATOM     44  C   UNL A   1      37.623  33.983  32.092  1.00  0.00     0.010 A 
ATOM     45  C   UNL A   1      37.945  31.555  32.336  1.00  0.00     0.010 A 
ATOM     46  C   UNL A   1      38.431  32.864  32.365  1.00  0.00    -0.014 A 
BRANCH  46  47
ATOM     47  C   UNL A   1      39.641  33.132  33.130  1.00  0.00     0.031 A 
ATOM     48  C   UNL A   1      39.129  33.507  34.556  1.00  0.00     0.074 A 
ATOM     49  C   UNL A   1      40.814  33.129  32.420  1.00  0.00     0.049 A 
ATOM     50  N   UNL A   1      39.367  34.559  35.274  1.00  0.00    -0.248 NA
ATOM     51  C   UNL A   1      37.989  32.730  35.164  1.00  0.00     0.031 C 
ATOM     52  C   UNL A   1      41.000  32.680  31.011  1.00  0.00     0.029 A 
ATOM     53  N   UNL A   1      42.099  33.504  32.724  1.00  0.00    -0.354 N 
ATOM     54  C   UNL A   1      38.668  34.384  36.491  1.00  0.00     0.074 A 
ATOM     55  C   UNL A   1      37.642  33.437  36.237  1.00  0.00     0.031 C 
ATOM     56  C   UNL A   1      42.269  32.909  30.579  1.00  0.00     0.029 A 
ATOM     57  C   UNL A   1      43.041  33.524  31.644  1.00  0.00     0.049 A 
ATOM     58  H   UNL A   1      42.362  33.748  33.640  1.00  0.00     0.167 HD
ATOM     59  C   UNL A   1      39.160  34.790  37.696  1.00  0.00     0.034 A 
ATOM     60  C   UNL A   1      44.307  34.070  31.640  1.00  0.00     0.034 A 
ATOM     61  C   UNL A   1      40.414  35.436  37.475  1.00  0.00     0.049 A 
ATOM     62  C   UNL A   1      44.449  34.521  33.038  1.00  0.00     0.074 A 
ATOM     63  C   UNL A   1      40.741  36.610  36.851  1.00  0.00     0.029 A 
ATOM     64  N   UNL A   1      41.528  34.624  37.535  1.00  0.00    -0.354 N 
ATOM     65  N   UNL A   1      44.623  33.745  34.064  1.00  0.00    -0.248 NA
ATOM     66  C   UNL A   1      44.222  35.946  33.324  1.00  0.00     0.031 C 
ATOM     67  C   UNL A   1      41.859  36.236  36.079  1.00  0.00     0.029 A 
ATOM     68  C   UNL A   1      42.356  34.996  36.510  1.00  0.00     0.049 A 
ATOM     69  H   UNL A   1      41.696  33.911  38.193  1.00  0.00     0.167 HD
ATOM     70  C   UNL A   1      44.219  34.537  35.109  1.00  0.00     0.074 A 
ATOM     71  C   UNL A   1      44.317  35.908  34.650  1.00  0.00     0.031 C 
ATOM     72  C   UNL A   1      43.348  34.057  36.035  1.00  0.00     0.034 A 
BRANCH  59  73
ATOM     73  C   UNL A   1      38.845  34.380  39.112  1.00  0.00     0.023 A 
ATOM     74  C   UNL A   1      38.431  33.035  39.254  1.00  0.00     0.031 A 
ATOM     75  C   UNL A   1      38.590  35.224  40.202  1.00  0.00     0.131 A 
ATOM     76  C   UNL A   1      37.618  32.631  40.315  1.00  0.00     0.055 A 
ATOM     77  C   UNL A   1      37.855  34.789  41.316  1.00  0.00     0.041 A 
ATOM     78  F   UNL A   1      38.951  36.512  40.211  1.00  0.00    -0.206 F 
ATOM     79  C   UNL A   1      37.320  33.504  41.354  1.00  0.00     0.022 A 
BRANCH  76  80
ATOM     80  S   UNL A   1      36.798  31.022  40.170  1.00  0.00     0.124 S 
ATOM     81  O   UNL A   1      36.682  30.875  38.723  1.00  0.00    -0.237 OA
ATOM     82  O   UNL A   1      37.755  30.134  40.826  1.00  0.00    -0.237 OA
ATOM     83  O   UNL A   1      35.540  31.218  40.885  1.00  0.00    -0.744 OA
ENDBRANCH  76  80
ENDBRANCH  59  73
BRANCH  60  84
ATOM     84  C   UNL A   1      45.477  34.466  30.718  1.00  0.00     0.023 A 
ATOM     85  C   UNL A   1      46.792  33.958  30.692  1.00  0.00     0.031 A 
ATOM     86  C   UNL A   1      45.228  35.454  29.704  1.00  0.00     0.131 A 
ATOM     87  C   UNL A   1      47.703  34.363  29.656  1.00  0.00     0.055 A 
ATOM     88  C   UNL A   1      46.075  35.756  28.638  1.00  0.00     0.041 A 
ATOM     89  F   UNL A   1      44.125  36.215  29.696  1.00  0.00    -0.206 F 
ATOM     90  C   UNL A   1      47.321  35.194  28.598  1.00  0.00     0.022 A 
BRANCH  87  91
ATOM     91  S   UNL A   1      49.453  33.847  29.634  1.00  0.00     0.124 S 
ATOM     92  O   UNL A   1      49.990  34.646  28.537  1.00  0.00    -0.237 OA
ATOM     93  O   UNL A   1      49.915  34.195  30.973  1.00  0.00    -0.237 OA
ATOM     94  O   UNL A   1      49.379  32.409  29.367  1.00  0.00    -0.744 OA
ENDBRANCH  87  91
ENDBRANCH  60  84
BRANCH  72  95
ATOM     95  C   UNL A   1      43.320  32.537  36.174  1.00  0.00     0.023 A 
ATOM     96  C   UNL A   1      42.217  31.812  35.690  1.00  0.00     0.031 A 
ATOM     97  C   UNL A   1      44.290  31.783  36.860  1.00  0.00     0.131 A 
ATOM     98  C   UNL A   1      42.103  30.424  35.909  1.00  0.00     0.055 A 
ATOM     99  C   UNL A   1      44.178  30.402  37.091  1.00  0.00     0.041 A 
ATOM    100  F   UNL A   1      45.385  32.362  37.342  1.00  0.00    -0.206 F 
ATOM    101  C   UNL A   1      43.076  29.714  36.612  1.00  0.00     0.022 A 
BRANCH  98 102
ATOM    102  S   UNL A   1      40.674  29.539  35.229  1.00  0.00     0.124 S 
ATOM    103  O   UNL A   1      39.588  29.972  36.101  1.00  0.00    -0.237 OA
ATOM    104  O   UNL A   1      40.624  30.027  33.855  1.00  0.00    -0.237 OA
ATOM    105  O   UNL A   1      41.048  28.131  35.364  1.00  0.00    -0.744 OA
ENDBRANCH  98 102
ENDBRANCH  72  95
ENDBRANCH  46  47
ENDBRANCH  39  41
ENDBRANCH  38  39
ENDBRANCH  37  38
ENDBRANCH  36  37
ENDBRANCH  35  36
ENDBRANCH  34  35
ENDBRANCH   1  34
TORSDOF 26
ENDMDL
