MODEL 1
REMARK VINA RESULT:     -11.3      0.000      0.000
REMARK SMILES CC(C)(C)c1cc2c(cc1Cl)C=C(C(=O)OCCOCCOCCOC(=O)c1ccc(-c3c4nc(c(-c5cc(S(=O)(=O)[O-])ccc5F)c5ccc([nH]5)c(-c5cc(S(=O)(=O)[O-])ccc5F)c5nc(c(-c6cc(S(=O)(=O)[O-])ccc6F)c6ccc3[nH]6)C=C5)C=C4)cc1)[C@H](C(F)(F)F)O2
REMARK SMILES IDX 21 1 20 2 19 3 18 4 17 5 16 6 14 7 15 8 13 9 5 10 6 11 10 12
REMARK SMILES IDX 7 13 9 14 11 15 8 16 96 17 12 18 91 19 2 20 1 21 3 22 4 23
REMARK SMILES IDX 92 24 93 25 94 26 95 27 22 28 23 29 24 30 25 31 26 32 27 33
REMARK SMILES IDX 28 34 29 35 90 36 30 37 89 38 31 39 32 40 33 41 83 42 34 43
REMARK SMILES IDX 88 44 82 45 84 46 35 47 87 48 81 49 80 50 36 52 68 53 48 54
REMARK SMILES IDX 67 55 49 56 52 57 66 58 85 59 50 60 51 61 65 63 86 64 53 65
REMARK SMILES IDX 37 66 38 67 46 68 39 69 45 70 47 71 44 72 40 73 41 74 42 75
REMARK SMILES IDX 43 76 69 77 70 78 78 79 71 80 77 81 79 82 76 83 72 84 73 85
REMARK SMILES IDX 74 86 75 87 54 88 55 89 63 90 56 91 62 92 64 93 61 94 57 95
REMARK SMILES IDX 58 96 59 97 60 98
REMARK H PARENT 84 51 52 62
REMARK Flexibility Score: inf
ROOT
ATOM      1  C   UNL A   1      30.045  27.440  23.894  1.00  0.00     0.188 C 
ENDROOT
BRANCH   1   2
ATOM      2  C   UNL A   1      30.575  27.485  22.447  1.00  0.00     0.188 C 
BRANCH   2   3
ATOM      3  O   UNL A   1      31.267  26.305  22.086  1.00  0.00    -0.376 OA
BRANCH   3   4
ATOM      4  C   UNL A   1      32.669  26.384  21.908  1.00  0.00     0.202 C 
BRANCH   4   5
ATOM      5  C   UNL A   1      33.544  27.083  22.964  1.00  0.00     0.261 C 
BRANCH   5   6
ATOM      6  O   UNL A   1      34.255  26.217  23.860  1.00  0.00    -0.460 OA
BRANCH   6   7
ATOM      7  C   UNL A   1      33.681  25.926  25.042  1.00  0.00     0.338 C 
ATOM      8  O   UNL A   1      33.353  26.721  25.904  1.00  0.00    -0.246 OA
BRANCH   7   9
ATOM      9  C   UNL A   1      33.415  24.476  25.115  1.00  0.00     0.087 C 
ATOM     10  C   UNL A   1      33.800  19.445  24.606  1.00  0.00    -0.020 A 
ATOM     11  C   UNL A   1      32.755  20.400  24.552  1.00  0.00     0.053 A 
ATOM     12  C   UNL A   1      35.089  19.956  24.895  1.00  0.00     0.045 A 
ATOM     13  C   UNL A   1      32.976  21.769  24.745  1.00  0.00     0.128 A 
ATOM     14  C   UNL A   1      35.304  21.332  25.097  1.00  0.00     0.032 A 
ATOM     15  Cl  UNL A   1      36.521  18.992  24.994  1.00  0.00    -0.084 Cl
ATOM     16  C   UNL A   1      34.254  22.243  25.012  1.00  0.00     0.019 A 
ATOM     17  O   UNL A   1      31.893  22.590  24.569  1.00  0.00    -0.475 OA
ATOM     18  C   UNL A   1      34.489  23.676  25.098  1.00  0.00     0.027 C 
ATOM     19  C   UNL A   1      31.998  23.963  25.055  1.00  0.00     0.316 C 
BRANCH  10  20
ATOM     20  C   UNL A   1      33.498  17.955  24.300  1.00  0.00    -0.012 C 
ATOM     21  C   UNL A   1      32.656  17.332  25.437  1.00  0.00     0.016 C 
ATOM     22  C   UNL A   1      34.774  17.071  24.199  1.00  0.00     0.016 C 
ATOM     23  C   UNL A   1      32.779  17.780  22.942  1.00  0.00     0.016 C 
ENDBRANCH  10  20
BRANCH  19  24
ATOM     24  C   UNL A   1      31.173  24.076  26.349  1.00  0.00     0.430 C 
ATOM     25  F   UNL A   1      30.510  25.250  26.431  1.00  0.00    -0.167 F 
ATOM     26  F   UNL A   1      30.218  23.108  26.389  1.00  0.00    -0.167 F 
ATOM     27  F   UNL A   1      31.928  23.930  27.459  1.00  0.00    -0.167 F 
ENDBRANCH  19  24
ENDBRANCH   7   9
ENDBRANCH   6   7
ENDBRANCH   5   6
ENDBRANCH   4   5
ENDBRANCH   3   4
ENDBRANCH   2   3
ENDBRANCH   1   2
BRANCH   1  28
ATOM     28  O   UNL A   1      30.714  28.181  24.909  1.00  0.00    -0.376 OA
BRANCH  28  29
ATOM     29  C   UNL A   1      31.196  29.485  24.602  1.00  0.00     0.202 C 
BRANCH  29  30
ATOM     30  C   UNL A   1      31.481  30.456  25.755  1.00  0.00     0.261 C 
BRANCH  30  31
ATOM     31  O   UNL A   1      32.866  30.543  26.124  1.00  0.00    -0.460 OA
BRANCH  31  32
ATOM     32  C   UNL A   1      33.181  31.548  26.980  1.00  0.00     0.338 C 
ATOM     33  O   UNL A   1      32.487  32.503  27.289  1.00  0.00    -0.246 OA
BRANCH  32  34
ATOM     34  C   UNL A   1      34.446  31.206  27.660  1.00  0.00     0.060 A 
ATOM     35  C   UNL A   1      35.376  32.196  27.980  1.00  0.00     0.016 A 
ATOM     36  C   UNL A   1      34.700  29.862  27.968  1.00  0.00     0.016 A 
ATOM     37  C   UNL A   1      36.566  31.837  28.616  1.00  0.00     0.010 A 
ATOM     38  C   UNL A   1      35.900  29.503  28.581  1.00  0.00     0.010 A 
ATOM     39  C   UNL A   1      36.835  30.490  28.919  1.00  0.00    -0.014 A 
BRANCH  39  40
ATOM     40  C   UNL A   1      38.031  30.130  29.717  1.00  0.00     0.031 A 
ATOM     41  C   UNL A   1      38.254  30.687  31.089  1.00  0.00     0.074 A 
ATOM     42  C   UNL A   1      38.934  29.300  29.162  1.00  0.00     0.049 A 
ATOM     43  N   UNL A   1      39.216  30.423  31.931  1.00  0.00    -0.248 NA
ATOM     44  C   UNL A   1      37.275  31.669  31.579  1.00  0.00     0.031 C 
ATOM     45  C   UNL A   1      38.816  28.726  27.822  1.00  0.00     0.029 A 
ATOM     46  N   UNL A   1      40.117  28.800  29.641  1.00  0.00    -0.354 N 
ATOM     47  C   UNL A   1      38.953  31.181  33.064  1.00  0.00     0.074 A 
ATOM     48  C   UNL A   1      37.763  31.957  32.780  1.00  0.00     0.031 C 
ATOM     49  C   UNL A   1      39.883  27.948  27.587  1.00  0.00     0.029 A 
ATOM     50  C   UNL A   1      40.773  27.988  28.746  1.00  0.00     0.049 A 
ATOM     51  H   UNL A   1      40.465  29.004  30.540  1.00  0.00     0.167 HD
ATOM     52  C   UNL A   1      39.635  31.204  34.234  1.00  0.00     0.034 A 
ATOM     53  C   UNL A   1      41.955  27.347  28.843  1.00  0.00     0.034 A 
ATOM     54  C   UNL A   1      40.828  30.431  34.481  1.00  0.00     0.049 A 
ATOM     55  C   UNL A   1      42.723  27.432  30.137  1.00  0.00     0.074 A 
ATOM     56  C   UNL A   1      41.555  30.341  35.656  1.00  0.00     0.029 A 
ATOM     57  N   UNL A   1      41.478  29.635  33.549  1.00  0.00    -0.354 N 
ATOM     58  N   UNL A   1      42.397  28.054  31.245  1.00  0.00    -0.248 NA
ATOM     59  C   UNL A   1      44.008  26.722  30.206  1.00  0.00     0.031 C 
ATOM     60  C   UNL A   1      42.682  29.556  35.412  1.00  0.00     0.029 A 
ATOM     61  C   UNL A   1      42.621  29.087  34.110  1.00  0.00     0.049 A 
ATOM     62  H   UNL A   1      41.173  29.482  32.625  1.00  0.00     0.167 HD
ATOM     63  C   UNL A   1      43.421  27.790  32.151  1.00  0.00     0.074 A 
ATOM     64  C   UNL A   1      44.369  26.937  31.466  1.00  0.00     0.031 C 
ATOM     65  C   UNL A   1      43.558  28.220  33.431  1.00  0.00     0.034 A 
BRANCH  52  66
ATOM     66  C   UNL A   1      39.118  32.057  35.366  1.00  0.00     0.023 A 
ATOM     67  C   UNL A   1      39.612  33.362  35.554  1.00  0.00     0.031 A 
ATOM     68  C   UNL A   1      38.272  31.519  36.351  1.00  0.00     0.131 A 
ATOM     69  C   UNL A   1      39.289  34.068  36.720  1.00  0.00     0.055 A 
ATOM     70  C   UNL A   1      37.922  32.241  37.493  1.00  0.00     0.041 A 
ATOM     71  F   UNL A   1      37.781  30.275  36.223  1.00  0.00    -0.206 F 
ATOM     72  C   UNL A   1      38.443  33.517  37.688  1.00  0.00     0.022 A 
BRANCH  69  73
ATOM     73  S   UNL A   1      40.012  35.696  37.065  1.00  0.00     0.124 S 
ATOM     74  O   UNL A   1      39.652  36.444  35.862  1.00  0.00    -0.237 OA
ATOM     75  O   UNL A   1      39.307  36.093  38.280  1.00  0.00    -0.237 OA
ATOM     76  O   UNL A   1      41.436  35.421  37.221  1.00  0.00    -0.744 OA
ENDBRANCH  69  73
ENDBRANCH  52  66
BRANCH  53  77
ATOM     77  C   UNL A   1      42.425  26.524  27.691  1.00  0.00     0.023 A 
ATOM     78  C   UNL A   1      42.157  25.143  27.636  1.00  0.00     0.031 A 
ATOM     79  C   UNL A   1      43.252  27.078  26.702  1.00  0.00     0.131 A 
ATOM     80  C   UNL A   1      42.772  24.353  26.657  1.00  0.00     0.055 A 
ATOM     81  C   UNL A   1      43.806  26.299  25.685  1.00  0.00     0.041 A 
ATOM     82  F   UNL A   1      43.547  28.387  26.722  1.00  0.00    -0.206 F 
ATOM     83  C   UNL A   1      43.582  24.924  25.670  1.00  0.00     0.022 A 
BRANCH  80  84
ATOM     84  S   UNL A   1      42.657  22.543  26.714  1.00  0.00     0.124 S 
ATOM     85  O   UNL A   1      41.910  22.247  25.495  1.00  0.00    -0.237 OA
ATOM     86  O   UNL A   1      44.066  22.154  26.700  1.00  0.00    -0.237 OA
ATOM     87  O   UNL A   1      41.955  22.281  27.966  1.00  0.00    -0.744 OA
ENDBRANCH  80  84
ENDBRANCH  53  77
BRANCH  65  88
ATOM     88  C   UNL A   1      44.774  27.794  34.220  1.00  0.00     0.023 A 
ATOM     89  C   UNL A   1      44.726  26.626  35.007  1.00  0.00     0.031 A 
ATOM     90  C   UNL A   1      45.892  28.636  34.346  1.00  0.00     0.131 A 
ATOM     91  C   UNL A   1      45.744  26.368  35.932  1.00  0.00     0.055 A 
ATOM     92  C   UNL A   1      46.930  28.345  35.232  1.00  0.00     0.041 A 
ATOM     93  F   UNL A   1      45.981  29.764  33.623  1.00  0.00    -0.206 F 
ATOM     94  C   UNL A   1      46.850  27.216  36.044  1.00  0.00     0.022 A 
BRANCH  91  95
ATOM     95  S   UNL A   1      45.623  24.978  37.094  1.00  0.00     0.124 S 
ATOM     96  O   UNL A   1      46.873  25.095  37.840  1.00  0.00    -0.237 OA
ATOM     97  O   UNL A   1      44.414  25.311  37.843  1.00  0.00    -0.237 OA
ATOM     98  O   UNL A   1      45.525  23.806  36.230  1.00  0.00    -0.744 OA
ENDBRANCH  91  95
ENDBRANCH  65  88
ENDBRANCH  39  40
ENDBRANCH  32  34
ENDBRANCH  31  32
ENDBRANCH  30  31
ENDBRANCH  29  30
ENDBRANCH  28  29
ENDBRANCH   1  28
TORSDOF 22
ENDMDL
MODEL 2
REMARK VINA RESULT:     -10.8      2.634      7.783
REMARK SMILES CC(C)(C)c1cc2c(cc1Cl)C=C(C(=O)OCCOCCOCCOC(=O)c1ccc(-c3c4nc(c(-c5cc(S(=O)(=O)[O-])ccc5F)c5ccc([nH]5)c(-c5cc(S(=O)(=O)[O-])ccc5F)c5nc(c(-c6cc(S(=O)(=O)[O-])ccc6F)c6ccc3[nH]6)C=C5)C=C4)cc1)[C@H](C(F)(F)F)O2
REMARK SMILES IDX 21 1 20 2 19 3 18 4 17 5 16 6 14 7 15 8 13 9 5 10 6 11 10 12
REMARK SMILES IDX 7 13 9 14 11 15 8 16 96 17 12 18 91 19 2 20 1 21 3 22 4 23
REMARK SMILES IDX 92 24 93 25 94 26 95 27 22 28 23 29 24 30 25 31 26 32 27 33
REMARK SMILES IDX 28 34 29 35 90 36 30 37 89 38 31 39 32 40 33 41 83 42 34 43
REMARK SMILES IDX 88 44 82 45 84 46 35 47 87 48 81 49 80 50 36 52 68 53 48 54
REMARK SMILES IDX 67 55 49 56 52 57 66 58 85 59 50 60 51 61 65 63 86 64 53 65
REMARK SMILES IDX 37 66 38 67 46 68 39 69 45 70 47 71 44 72 40 73 41 74 42 75
REMARK SMILES IDX 43 76 69 77 70 78 78 79 71 80 77 81 79 82 76 83 72 84 73 85
REMARK SMILES IDX 74 86 75 87 54 88 55 89 63 90 56 91 62 92 64 93 61 94 57 95
REMARK SMILES IDX 58 96 59 97 60 98
REMARK H PARENT 84 51 52 62
REMARK Flexibility Score: inf
ROOT
ATOM      1  C   UNL A   1      31.126  27.038  24.867  1.00  0.00     0.188 C 
ENDROOT
BRANCH   1   2
ATOM      2  C   UNL A   1      31.132  27.438  23.378  1.00  0.00     0.188 C 
BRANCH   2   3
ATOM      3  O   UNL A   1      31.200  26.318  22.516  1.00  0.00    -0.376 OA
BRANCH   3   4
ATOM      4  C   UNL A   1      32.355  26.166  21.713  1.00  0.00     0.202 C 
BRANCH   4   5
ATOM      5  C   UNL A   1      33.271  24.943  21.899  1.00  0.00     0.261 C 
BRANCH   5   6
ATOM      6  O   UNL A   1      34.020  24.903  23.122  1.00  0.00    -0.460 OA
BRANCH   6   7
ATOM      7  C   UNL A   1      33.618  24.044  24.078  1.00  0.00     0.338 C 
ATOM      8  O   UNL A   1      32.469  23.824  24.418  1.00  0.00    -0.246 OA
BRANCH   7   9
ATOM      9  C   UNL A   1      34.788  23.322  24.613  1.00  0.00     0.087 C 
ATOM     10  C   UNL A   1      39.441  22.196  26.290  1.00  0.00    -0.020 A 
ATOM     11  C   UNL A   1      38.457  21.554  25.497  1.00  0.00     0.053 A 
ATOM     12  C   UNL A   1      39.089  23.471  26.795  1.00  0.00     0.045 A 
ATOM     13  C   UNL A   1      37.223  22.146  25.203  1.00  0.00     0.128 A 
ATOM     14  C   UNL A   1      37.844  24.058  26.503  1.00  0.00     0.032 A 
ATOM     15  Cl  UNL A   1      40.127  24.455  27.768  1.00  0.00    -0.084 Cl
ATOM     16  C   UNL A   1      36.913  23.406  25.700  1.00  0.00     0.019 A 
ATOM     17  O   UNL A   1      36.406  21.457  24.346  1.00  0.00    -0.475 OA
ATOM     18  C   UNL A   1      35.677  24.057  25.296  1.00  0.00     0.027 C 
ATOM     19  C   UNL A   1      35.011  21.873  24.257  1.00  0.00     0.316 C 
BRANCH  10  20
ATOM     20  C   UNL A   1      40.818  21.517  26.506  1.00  0.00    -0.012 C 
ATOM     21  C   UNL A   1      40.754  20.027  26.101  1.00  0.00     0.016 C 
ATOM     22  C   UNL A   1      41.286  21.522  27.989  1.00  0.00     0.016 C 
ATOM     23  C   UNL A   1      41.943  22.237  25.728  1.00  0.00     0.016 C 
ENDBRANCH  10  20
BRANCH  19  24
ATOM     24  C   UNL A   1      34.155  20.843  25.015  1.00  0.00     0.430 C 
ATOM     25  F   UNL A   1      33.865  21.244  26.272  1.00  0.00    -0.167 F 
ATOM     26  F   UNL A   1      32.956  20.674  24.395  1.00  0.00    -0.167 F 
ATOM     27  F   UNL A   1      34.740  19.627  25.076  1.00  0.00    -0.167 F 
ENDBRANCH  19  24
ENDBRANCH   7   9
ENDBRANCH   6   7
ENDBRANCH   5   6
ENDBRANCH   4   5
ENDBRANCH   3   4
ENDBRANCH   2   3
ENDBRANCH   1   2
BRANCH   1  28
ATOM     28  O   UNL A   1      31.963  27.734  25.784  1.00  0.00    -0.376 OA
BRANCH  28  29
ATOM     29  C   UNL A   1      32.356  29.067  25.478  1.00  0.00     0.202 C 
BRANCH  29  30
ATOM     30  C   UNL A   1      32.694  30.020  26.631  1.00  0.00     0.261 C 
BRANCH  30  31
ATOM     31  O   UNL A   1      34.100  30.246  26.817  1.00  0.00    -0.460 OA
BRANCH  31  32
ATOM     32  C   UNL A   1      34.424  31.312  27.593  1.00  0.00     0.338 C 
ATOM     33  O   UNL A   1      33.764  32.322  27.777  1.00  0.00    -0.246 OA
BRANCH  32  34
ATOM     34  C   UNL A   1      35.636  30.979  28.366  1.00  0.00     0.060 A 
ATOM     35  C   UNL A   1      36.720  31.858  28.410  1.00  0.00     0.016 A 
ATOM     36  C   UNL A   1      35.682  29.754  29.046  1.00  0.00     0.016 A 
ATOM     37  C   UNL A   1      37.855  31.507  29.145  1.00  0.00     0.010 A 
ATOM     38  C   UNL A   1      36.827  29.396  29.759  1.00  0.00     0.010 A 
ATOM     39  C   UNL A   1      37.915  30.276  29.822  1.00  0.00    -0.014 A 
BRANCH  39  40
ATOM     40  C   UNL A   1      39.060  29.970  30.712  1.00  0.00     0.031 A 
ATOM     41  C   UNL A   1      40.155  29.041  30.287  1.00  0.00     0.074 A 
ATOM     42  C   UNL A   1      39.078  30.533  31.934  1.00  0.00     0.049 A 
ATOM     43  N   UNL A   1      41.247  28.721  30.927  1.00  0.00    -0.248 NA
ATOM     44  C   UNL A   1      40.005  28.385  28.979  1.00  0.00     0.031 C 
ATOM     45  C   UNL A   1      38.044  31.431  32.447  1.00  0.00     0.029 A 
ATOM     46  N   UNL A   1      39.982  30.438  32.961  1.00  0.00    -0.354 N 
ATOM     47  C   UNL A   1      41.935  27.846  30.096  1.00  0.00     0.074 A 
ATOM     48  C   UNL A   1      41.108  27.647  28.923  1.00  0.00     0.031 C 
ATOM     49  C   UNL A   1      38.373  31.808  33.691  1.00  0.00     0.029 A 
ATOM     50  C   UNL A   1      39.626  31.161  34.075  1.00  0.00     0.049 A 
ATOM     51  H   UNL A   1      40.807  29.903  32.905  1.00  0.00     0.167 HD
ATOM     52  C   UNL A   1      43.152  27.285  30.293  1.00  0.00     0.034 A 
ATOM     53  C   UNL A   1      40.235  31.289  35.271  1.00  0.00     0.034 A 
ATOM     54  C   UNL A   1      43.946  27.490  31.480  1.00  0.00     0.049 A 
ATOM     55  C   UNL A   1      41.563  30.609  35.487  1.00  0.00     0.074 A 
ATOM     56  C   UNL A   1      45.218  27.012  31.746  1.00  0.00     0.029 A 
ATOM     57  N   UNL A   1      43.549  28.210  32.599  1.00  0.00    -0.354 N 
ATOM     58  N   UNL A   1      42.261  29.885  34.643  1.00  0.00    -0.248 NA
ATOM     59  C   UNL A   1      42.197  30.770  36.803  1.00  0.00     0.031 C 
ATOM     60  C   UNL A   1      45.557  27.377  33.049  1.00  0.00     0.029 A 
ATOM     61  C   UNL A   1      44.533  28.151  33.573  1.00  0.00     0.049 A 
ATOM     62  H   UNL A   1      42.694  28.690  32.687  1.00  0.00     0.167 HD
ATOM     63  C   UNL A   1      43.426  29.526  35.315  1.00  0.00     0.074 A 
ATOM     64  C   UNL A   1      43.347  30.128  36.630  1.00  0.00     0.031 C 
ATOM     65  C   UNL A   1      44.462  28.766  34.878  1.00  0.00     0.034 A 
BRANCH  52  66
ATOM     66  C   UNL A   1      43.741  26.416  29.210  1.00  0.00     0.023 A 
ATOM     67  C   UNL A   1      44.354  27.002  28.085  1.00  0.00     0.031 A 
ATOM     68  C   UNL A   1      43.543  25.024  29.208  1.00  0.00     0.131 A 
ATOM     69  C   UNL A   1      44.709  26.204  26.990  1.00  0.00     0.055 A 
ATOM     70  C   UNL A   1      43.934  24.228  28.131  1.00  0.00     0.041 A 
ATOM     71  F   UNL A   1      42.955  24.418  30.253  1.00  0.00    -0.206 F 
ATOM     72  C   UNL A   1      44.506  24.819  27.008  1.00  0.00     0.022 A 
BRANCH  69  73
ATOM     73  S   UNL A   1      45.375  26.935  25.469  1.00  0.00     0.124 S 
ATOM     74  O   UNL A   1      44.259  27.767  25.025  1.00  0.00    -0.237 OA
ATOM     75  O   UNL A   1      46.538  27.665  25.964  1.00  0.00    -0.237 OA
ATOM     76  O   UNL A   1      45.665  25.782  24.624  1.00  0.00    -0.744 OA
ENDBRANCH  69  73
ENDBRANCH  52  66
BRANCH  53  77
ATOM     77  C   UNL A   1      39.605  32.153  36.311  1.00  0.00     0.023 A 
ATOM     78  C   UNL A   1      38.723  31.608  37.263  1.00  0.00     0.031 A 
ATOM     79  C   UNL A   1      39.775  33.546  36.287  1.00  0.00     0.131 A 
ATOM     80  C   UNL A   1      37.989  32.459  38.100  1.00  0.00     0.055 A 
ATOM     81  C   UNL A   1      39.095  34.385  37.171  1.00  0.00     0.041 A 
ATOM     82  F   UNL A   1      40.594  34.112  35.387  1.00  0.00    -0.206 F 
ATOM     83  C   UNL A   1      38.182  33.843  38.072  1.00  0.00     0.022 A 
BRANCH  80  84
ATOM     84  S   UNL A   1      36.661  31.810  39.152  1.00  0.00     0.124 S 
ATOM     85  O   UNL A   1      36.526  30.442  38.663  1.00  0.00    -0.237 OA
ATOM     86  O   UNL A   1      37.242  31.950  40.486  1.00  0.00    -0.237 OA
ATOM     87  O   UNL A   1      35.536  32.696  38.871  1.00  0.00    -0.744 OA
ENDBRANCH  80  84
ENDBRANCH  53  77
BRANCH  65  88
ATOM     88  C   UNL A   1      45.627  28.514  35.806  1.00  0.00     0.023 A 
ATOM     89  C   UNL A   1      45.608  27.400  36.669  1.00  0.00     0.031 A 
ATOM     90  C   UNL A   1      46.644  29.468  35.974  1.00  0.00     0.131 A 
ATOM     91  C   UNL A   1      46.548  27.303  37.702  1.00  0.00     0.055 A 
ATOM     92  C   UNL A   1      47.612  29.338  36.972  1.00  0.00     0.041 A 
ATOM     93  F   UNL A   1      46.701  30.550  35.181  1.00  0.00    -0.206 F 
ATOM     94  C   UNL A   1      47.554  28.262  37.853  1.00  0.00     0.022 A 
BRANCH  91  95
ATOM     95  S   UNL A   1      46.439  25.987  38.947  1.00  0.00     0.124 S 
ATOM     96  O   UNL A   1      46.636  26.726  40.191  1.00  0.00    -0.237 OA
ATOM     97  O   UNL A   1      45.088  25.474  38.732  1.00  0.00    -0.237 OA
ATOM     98  O   UNL A   1      47.522  25.076  38.590  1.00  0.00    -0.744 OA
ENDBRANCH  91  95
ENDBRANCH  65  88
ENDBRANCH  39  40
ENDBRANCH  32  34
ENDBRANCH  31  32
ENDBRANCH  30  31
ENDBRANCH  29  30
ENDBRANCH  28  29
ENDBRANCH   1  28
TORSDOF 22
ENDMDL
MODEL 3
REMARK VINA RESULT:     -10.6      5.163      8.627
REMARK SMILES CC(C)(C)c1cc2c(cc1Cl)C=C(C(=O)OCCOCCOCCOC(=O)c1ccc(-c3c4nc(c(-c5cc(S(=O)(=O)[O-])ccc5F)c5ccc([nH]5)c(-c5cc(S(=O)(=O)[O-])ccc5F)c5nc(c(-c6cc(S(=O)(=O)[O-])ccc6F)c6ccc3[nH]6)C=C5)C=C4)cc1)[C@H](C(F)(F)F)O2
REMARK SMILES IDX 21 1 20 2 19 3 18 4 17 5 16 6 14 7 15 8 13 9 5 10 6 11 10 12
REMARK SMILES IDX 7 13 9 14 11 15 8 16 96 17 12 18 91 19 2 20 1 21 3 22 4 23
REMARK SMILES IDX 92 24 93 25 94 26 95 27 22 28 23 29 24 30 25 31 26 32 27 33
REMARK SMILES IDX 28 34 29 35 90 36 30 37 89 38 31 39 32 40 33 41 83 42 34 43
REMARK SMILES IDX 88 44 82 45 84 46 35 47 87 48 81 49 80 50 36 52 68 53 48 54
REMARK SMILES IDX 67 55 49 56 52 57 66 58 85 59 50 60 51 61 65 63 86 64 53 65
REMARK SMILES IDX 37 66 38 67 46 68 39 69 45 70 47 71 44 72 40 73 41 74 42 75
REMARK SMILES IDX 43 76 69 77 70 78 78 79 71 80 77 81 79 82 76 83 72 84 73 85
REMARK SMILES IDX 74 86 75 87 54 88 55 89 63 90 56 91 62 92 64 93 61 94 57 95
REMARK SMILES IDX 58 96 59 97 60 98
REMARK H PARENT 84 51 52 62
REMARK Flexibility Score: inf
ROOT
ATOM      1  C   UNL A   1      32.620  35.801  30.076  1.00  0.00     0.188 C 
ENDROOT
BRANCH   1   2
ATOM      2  C   UNL A   1      33.309  37.138  30.414  1.00  0.00     0.188 C 
BRANCH   2   3
ATOM      3  O   UNL A   1      33.568  37.280  31.797  1.00  0.00    -0.376 OA
BRANCH   3   4
ATOM      4  C   UNL A   1      33.445  36.134  32.618  1.00  0.00     0.202 C 
BRANCH   4   5
ATOM      5  C   UNL A   1      34.471  35.867  33.733  1.00  0.00     0.261 C 
BRANCH   5   6
ATOM      6  O   UNL A   1      34.645  34.492  34.107  1.00  0.00    -0.460 OA
BRANCH   6   7
ATOM      7  C   UNL A   1      35.804  34.141  34.694  1.00  0.00     0.338 C 
ATOM      8  O   UNL A   1      35.973  33.897  35.875  1.00  0.00    -0.246 OA
BRANCH   7   9
ATOM      9  C   UNL A   1      36.854  34.006  33.667  1.00  0.00     0.087 C 
ATOM     10  C   UNL A   1      41.127  34.586  30.996  1.00  0.00    -0.020 A 
ATOM     11  C   UNL A   1      39.755  34.393  30.700  1.00  0.00     0.053 A 
ATOM     12  C   UNL A   1      41.463  34.608  32.371  1.00  0.00     0.045 A 
ATOM     13  C   UNL A   1      38.781  34.259  31.696  1.00  0.00     0.128 A 
ATOM     14  C   UNL A   1      40.482  34.464  33.369  1.00  0.00     0.032 A 
ATOM     15  Cl  UNL A   1      43.065  34.848  32.980  1.00  0.00    -0.084 Cl
ATOM     16  C   UNL A   1      39.140  34.301  33.037  1.00  0.00     0.019 A 
ATOM     17  O   UNL A   1      37.482  34.177  31.269  1.00  0.00    -0.475 OA
ATOM     18  C   UNL A   1      38.107  34.274  34.061  1.00  0.00     0.027 C 
ATOM     19  C   UNL A   1      36.480  33.731  32.232  1.00  0.00     0.316 C 
BRANCH  10  20
ATOM     20  C   UNL A   1      42.140  34.810  29.843  1.00  0.00    -0.012 C 
ATOM     21  C   UNL A   1      43.137  35.933  30.212  1.00  0.00     0.016 C 
ATOM     22  C   UNL A   1      41.475  35.271  28.514  1.00  0.00     0.016 C 
ATOM     23  C   UNL A   1      42.901  33.513  29.484  1.00  0.00     0.016 C 
ENDBRANCH  10  20
BRANCH  19  24
ATOM     24  C   UNL A   1      36.100  32.279  31.890  1.00  0.00     0.430 C 
ATOM     25  F   UNL A   1      37.185  31.503  31.677  1.00  0.00    -0.167 F 
ATOM     26  F   UNL A   1      35.434  31.706  32.929  1.00  0.00    -0.167 F 
ATOM     27  F   UNL A   1      35.292  32.195  30.811  1.00  0.00    -0.167 F 
ENDBRANCH  19  24
ENDBRANCH   7   9
ENDBRANCH   6   7
ENDBRANCH   5   6
ENDBRANCH   4   5
ENDBRANCH   3   4
ENDBRANCH   2   3
ENDBRANCH   1   2
BRANCH   1  28
ATOM     28  O   UNL A   1      32.692  35.291  28.750  1.00  0.00    -0.376 OA
BRANCH  28  29
ATOM     29  C   UNL A   1      33.885  34.636  28.330  1.00  0.00     0.202 C 
BRANCH  29  30
ATOM     30  C   UNL A   1      33.990  33.115  28.496  1.00  0.00     0.261 C 
BRANCH  30  31
ATOM     31  O   UNL A   1      34.984  32.498  27.663  1.00  0.00    -0.460 OA
BRANCH  31  32
ATOM     32  C   UNL A   1      34.940  31.142  27.606  1.00  0.00     0.338 C 
ATOM     33  O   UNL A   1      34.133  30.453  27.004  1.00  0.00    -0.246 OA
BRANCH  32  34
ATOM     34  C   UNL A   1      36.165  30.607  28.232  1.00  0.00     0.060 A 
ATOM     35  C   UNL A   1      36.117  29.464  29.032  1.00  0.00     0.016 A 
ATOM     36  C   UNL A   1      37.376  31.277  28.017  1.00  0.00     0.016 A 
ATOM     37  C   UNL A   1      37.293  28.988  29.616  1.00  0.00     0.010 A 
ATOM     38  C   UNL A   1      38.545  30.814  28.621  1.00  0.00     0.010 A 
ATOM     39  C   UNL A   1      38.512  29.660  29.415  1.00  0.00    -0.014 A 
BRANCH  39  40
ATOM     40  C   UNL A   1      39.777  29.076  29.918  1.00  0.00     0.031 A 
ATOM     41  C   UNL A   1      40.455  29.612  31.141  1.00  0.00     0.074 A 
ATOM     42  C   UNL A   1      40.322  28.056  29.229  1.00  0.00     0.049 A 
ATOM     43  N   UNL A   1      41.530  29.173  31.738  1.00  0.00    -0.248 NA
ATOM     44  C   UNL A   1      39.852  30.795  31.775  1.00  0.00     0.031 C 
ATOM     45  C   UNL A   1      39.748  27.482  28.011  1.00  0.00     0.029 A 
ATOM     46  N   UNL A   1      41.465  27.328  29.440  1.00  0.00    -0.354 N 
ATOM     47  C   UNL A   1      41.726  30.003  32.833  1.00  0.00     0.074 A 
ATOM     48  C   UNL A   1      40.683  31.006  32.790  1.00  0.00     0.031 C 
ATOM     49  C   UNL A   1      40.540  26.487  27.585  1.00  0.00     0.029 A 
ATOM     50  C   UNL A   1      41.690  26.369  28.481  1.00  0.00     0.049 A 
ATOM     51  H   UNL A   1      42.066  27.479  30.204  1.00  0.00     0.167 HD
ATOM     52  C   UNL A   1      42.679  29.913  33.793  1.00  0.00     0.034 A 
ATOM     53  C   UNL A   1      42.705  25.493  28.335  1.00  0.00     0.034 A 
ATOM     54  C   UNL A   1      43.717  28.911  33.800  1.00  0.00     0.049 A 
ATOM     55  C   UNL A   1      43.783  25.450  29.387  1.00  0.00     0.074 A 
ATOM     56  C   UNL A   1      44.691  28.702  34.762  1.00  0.00     0.029 A 
ATOM     57  N   UNL A   1      43.931  27.967  32.805  1.00  0.00    -0.354 N 
ATOM     58  N   UNL A   1      43.887  26.160  30.486  1.00  0.00    -0.248 NA
ATOM     59  C   UNL A   1      44.874  24.484  29.195  1.00  0.00     0.031 C 
ATOM     60  C   UNL A   1      45.536  27.687  34.313  1.00  0.00     0.029 A 
ATOM     61  C   UNL A   1      45.047  27.204  33.110  1.00  0.00     0.049 A 
ATOM     62  H   UNL A   1      43.372  27.856  32.002  1.00  0.00     0.167 HD
ATOM     63  C   UNL A   1      45.037  25.710  31.129  1.00  0.00     0.074 A 
ATOM     64  C   UNL A   1      45.584  24.653  30.304  1.00  0.00     0.031 C 
ATOM     65  C   UNL A   1      45.584  26.138  32.295  1.00  0.00     0.034 A 
BRANCH  52  66
ATOM     66  C   UNL A   1      42.654  30.890  34.942  1.00  0.00     0.023 A 
ATOM     67  C   UNL A   1      43.553  31.974  34.972  1.00  0.00     0.031 A 
ATOM     68  C   UNL A   1      41.866  30.649  36.081  1.00  0.00     0.131 A 
ATOM     69  C   UNL A   1      43.669  32.750  36.132  1.00  0.00     0.055 A 
ATOM     70  C   UNL A   1      41.959  31.449  37.221  1.00  0.00     0.041 A 
ATOM     71  F   UNL A   1      41.000  29.622  36.106  1.00  0.00    -0.206 F 
ATOM     72  C   UNL A   1      42.874  32.497  37.255  1.00  0.00     0.022 A 
BRANCH  69  73
ATOM     73  S   UNL A   1      44.909  34.070  36.261  1.00  0.00     0.124 S 
ATOM     74  O   UNL A   1      45.745  33.808  35.092  1.00  0.00    -0.237 OA
ATOM     75  O   UNL A   1      44.085  35.272  36.182  1.00  0.00    -0.237 OA
ATOM     76  O   UNL A   1      45.548  33.825  37.549  1.00  0.00    -0.744 OA
ENDBRANCH  69  73
ENDBRANCH  52  66
BRANCH  53  77
ATOM     77  C   UNL A   1      42.686  24.556  27.176  1.00  0.00     0.023 A 
ATOM     78  C   UNL A   1      42.046  23.305  27.271  1.00  0.00     0.031 A 
ATOM     79  C   UNL A   1      43.411  24.841  26.008  1.00  0.00     0.131 A 
ATOM     80  C   UNL A   1      42.208  22.360  26.249  1.00  0.00     0.055 A 
ATOM     81  C   UNL A   1      43.511  23.923  24.961  1.00  0.00     0.041 A 
ATOM     82  F   UNL A   1      44.050  26.014  25.878  1.00  0.00    -0.206 F 
ATOM     83  C   UNL A   1      42.923  22.667  25.088  1.00  0.00     0.022 A 
BRANCH  80  84
ATOM     84  S   UNL A   1      41.619  20.657  26.455  1.00  0.00     0.124 S 
ATOM     85  O   UNL A   1      42.004  20.365  27.833  1.00  0.00    -0.237 OA
ATOM     86  O   UNL A   1      40.185  20.807  26.219  1.00  0.00    -0.237 OA
ATOM     87  O   UNL A   1      42.342  19.915  25.427  1.00  0.00    -0.744 OA
ENDBRANCH  80  84
ENDBRANCH  53  77
BRANCH  65  88
ATOM     88  C   UNL A   1      46.853  25.485  32.791  1.00  0.00     0.023 A 
ATOM     89  C   UNL A   1      46.788  24.497  33.793  1.00  0.00     0.031 A 
ATOM     90  C   UNL A   1      48.116  25.973  32.419  1.00  0.00     0.131 A 
ATOM     91  C   UNL A   1      47.959  24.078  34.435  1.00  0.00     0.055 A 
ATOM     92  C   UNL A   1      49.286  25.512  33.026  1.00  0.00     0.041 A 
ATOM     93  F   UNL A   1      48.230  26.919  31.473  1.00  0.00    -0.206 F 
ATOM     94  C   UNL A   1      49.208  24.575  34.052  1.00  0.00     0.022 A 
BRANCH  91  95
ATOM     95  S   UNL A   1      47.896  22.952  35.858  1.00  0.00     0.124 S 
ATOM     96  O   UNL A   1      47.690  23.877  36.969  1.00  0.00    -0.237 OA
ATOM     97  O   UNL A   1      46.751  22.107  35.528  1.00  0.00    -0.237 OA
ATOM     98  O   UNL A   1      49.195  22.288  35.838  1.00  0.00    -0.744 OA
ENDBRANCH  91  95
ENDBRANCH  65  88
ENDBRANCH  39  40
ENDBRANCH  32  34
ENDBRANCH  31  32
ENDBRANCH  30  31
ENDBRANCH  29  30
ENDBRANCH  28  29
ENDBRANCH   1  28
TORSDOF 22
ENDMDL
