MODEL 1
REMARK VINA RESULT:     -11.0      0.000      0.000
REMARK SMILES C[C@H]1CCC[C@H](C)N1C(=O)[C@H]1[C@@H](C(=O)OCCOCCOCCOC(=O)c2ccc(-c3c4nc(c(-c5cc(S(=O)(=O)[O-])ccc5F)c5ccc([nH]5)c(-c5cc(S(=O)(=O)[O-])ccc5F)c5nc(c(-c6cc(S(=O)(=O)[O-])ccc6F)c6ccc3[nH]6)C=C5)C=C4)cc2)[C@H]2CC[C@@H]1O2
REMARK SMILES IDX 20 1 19 2 18 3 17 4 16 5 15 6 13 7 14 8 12 9 11 10 93 11
REMARK SMILES IDX 90 12 92 13 94 14 91 15 9 16 1 17 2 18 3 19 8 20 4 21 6 22
REMARK SMILES IDX 5 23 7 24 10 25 21 26 22 27 23 28 24 29 25 30 26 31 27 32
REMARK SMILES IDX 28 33 89 34 29 35 88 36 30 37 31 38 32 39 82 40 33 41 87 42
REMARK SMILES IDX 81 43 83 44 34 45 86 46 80 47 79 48 35 50 67 51 47 52 66 53
REMARK SMILES IDX 48 54 51 55 65 56 84 57 49 58 50 59 64 61 85 62 52 63 36 64
REMARK SMILES IDX 37 65 45 66 38 67 44 68 46 69 43 70 39 71 40 72 41 73 42 74
REMARK SMILES IDX 68 75 69 76 77 77 70 78 76 79 78 80 75 81 71 82 72 83 73 84
REMARK SMILES IDX 74 85 53 86 54 87 62 88 55 89 61 90 63 91 60 92 56 93 57 94
REMARK SMILES IDX 58 95 59 96
REMARK H PARENT 83 49 51 60
REMARK Flexibility Score: inf
ROOT
ATOM      1  C   UNL A   1      39.261  21.827  25.861  1.00  0.00     0.188 C 
ENDROOT
BRANCH   1   2
ATOM      2  C   UNL A   1      37.920  21.326  25.313  1.00  0.00     0.188 C 
BRANCH   2   3
ATOM      3  O   UNL A   1      36.815  22.155  25.640  1.00  0.00    -0.376 OA
BRANCH   3   4
ATOM      4  C   UNL A   1      37.016  23.541  25.417  1.00  0.00     0.202 C 
BRANCH   4   5
ATOM      5  C   UNL A   1      35.794  24.421  25.713  1.00  0.00     0.261 C 
BRANCH   5   6
ATOM      6  O   UNL A   1      34.522  24.123  25.085  1.00  0.00    -0.463 OA
BRANCH   6   7
ATOM      7  C   UNL A   1      33.736  25.124  24.640  1.00  0.00     0.312 C 
ATOM      8  O   UNL A   1      33.891  25.657  23.547  1.00  0.00    -0.252 OA
BRANCH   7   9
ATOM      9  C   UNL A   1      32.550  25.488  25.547  1.00  0.00     0.143 C 
ATOM     10  C   UNL A   1      31.401  24.483  25.664  1.00  0.00     0.124 C 
ATOM     11  C   UNL A   1      30.229  25.426  25.943  1.00  0.00     0.132 C 
ATOM     12  C   UNL A   1      31.845  26.914  25.415  1.00  0.00     0.133 C 
ATOM     13  C   UNL A   1      29.558  26.225  24.849  1.00  0.00     0.035 C 
ATOM     14  O   UNL A   1      30.989  26.520  26.528  1.00  0.00    -0.373 OA
ATOM     15  C   UNL A   1      30.514  27.395  24.713  1.00  0.00     0.036 C 
BRANCH  10  16
ATOM     16  C   UNL A   1      31.293  23.492  24.526  1.00  0.00     0.229 C 
ATOM     17  C   UNL A   1      32.581  22.032  27.093  1.00  0.00     0.031 C 
ATOM     18  C   UNL A   1      32.849  21.664  25.631  1.00  0.00     0.082 C 
ATOM     19  C   UNL A   1      32.858  20.123  25.577  1.00  0.00     0.025 C 
ATOM     20  N   UNL A   1      31.975  22.258  24.553  1.00  0.00    -0.337 N 
ATOM     21  C   UNL A   1      33.263  19.625  24.205  1.00  0.00     0.004 C 
ATOM     22  C   UNL A   1      32.101  21.636  23.204  1.00  0.00     0.082 C 
ATOM     23  C   UNL A   1      32.239  20.112  23.204  1.00  0.00     0.025 C 
ATOM     24  C   UNL A   1      33.254  22.280  22.426  1.00  0.00     0.031 C 
ATOM     25  O   UNL A   1      30.635  23.816  23.530  1.00  0.00    -0.274 OA
ENDBRANCH  10  16
ENDBRANCH   7   9
ENDBRANCH   6   7
ENDBRANCH   5   6
ENDBRANCH   4   5
ENDBRANCH   3   4
ENDBRANCH   2   3
ENDBRANCH   1   2
BRANCH   1  26
ATOM     26  O   UNL A   1      39.888  21.183  26.956  1.00  0.00    -0.376 OA
BRANCH  26  27
ATOM     27  C   UNL A   1      40.968  20.305  26.673  1.00  0.00     0.202 C 
BRANCH  27  28
ATOM     28  C   UNL A   1      42.238  20.879  26.021  1.00  0.00     0.261 C 
BRANCH  28  29
ATOM     29  O   UNL A   1      42.944  21.848  26.816  1.00  0.00    -0.460 OA
BRANCH  29  30
ATOM     30  C   UNL A   1      43.319  22.982  26.164  1.00  0.00     0.338 C 
ATOM     31  O   UNL A   1      43.891  23.044  25.087  1.00  0.00    -0.246 OA
BRANCH  30  32
ATOM     32  C   UNL A   1      42.687  24.157  26.819  1.00  0.00     0.060 A 
ATOM     33  C   UNL A   1      43.256  25.425  26.598  1.00  0.00     0.016 A 
ATOM     34  C   UNL A   1      41.537  24.036  27.599  1.00  0.00     0.016 A 
ATOM     35  C   UNL A   1      42.698  26.568  27.171  1.00  0.00     0.010 A 
ATOM     36  C   UNL A   1      41.008  25.174  28.219  1.00  0.00     0.010 A 
ATOM     37  C   UNL A   1      41.608  26.436  28.040  1.00  0.00    -0.014 A 
BRANCH  37  38
ATOM     38  C   UNL A   1      41.316  27.514  29.019  1.00  0.00     0.031 A 
ATOM     39  C   UNL A   1      42.146  27.524  30.277  1.00  0.00     0.074 A 
ATOM     40  C   UNL A   1      40.349  28.430  28.836  1.00  0.00     0.049 A 
ATOM     41  N   UNL A   1      41.984  28.205  31.380  1.00  0.00    -0.248 NA
ATOM     42  C   UNL A   1      43.312  26.625  30.286  1.00  0.00     0.031 C 
ATOM     43  C   UNL A   1      39.542  28.586  27.628  1.00  0.00     0.029 A 
ATOM     44  N   UNL A   1      39.868  29.394  29.690  1.00  0.00    -0.354 N 
ATOM     45  C   UNL A   1      43.015  27.798  32.222  1.00  0.00     0.074 A 
ATOM     46  C   UNL A   1      43.783  26.805  31.507  1.00  0.00     0.031 C 
ATOM     47  C   UNL A   1      38.643  29.568  27.832  1.00  0.00     0.029 A 
ATOM     48  C   UNL A   1      38.773  30.069  29.201  1.00  0.00     0.049 A 
ATOM     49  H   UNL A   1      40.271  29.584  30.568  1.00  0.00     0.167 HD
ATOM     50  C   UNL A   1      43.290  28.209  33.482  1.00  0.00     0.034 A 
ATOM     51  C   UNL A   1      37.947  30.947  29.810  1.00  0.00     0.034 A 
ATOM     52  C   UNL A   1      42.500  29.181  34.189  1.00  0.00     0.049 A 
ATOM     53  C   UNL A   1      38.197  31.307  31.260  1.00  0.00     0.074 A 
ATOM     54  C   UNL A   1      42.672  29.663  35.474  1.00  0.00     0.029 A 
ATOM     55  N   UNL A   1      41.375  29.811  33.673  1.00  0.00    -0.354 N 
ATOM     56  N   UNL A   1      39.151  30.893  32.063  1.00  0.00    -0.248 NA
ATOM     57  C   UNL A   1      37.255  32.246  31.888  1.00  0.00     0.031 C 
ATOM     58  C   UNL A   1      41.613  30.530  35.759  1.00  0.00     0.029 A 
ATOM     59  C   UNL A   1      40.826  30.654  34.623  1.00  0.00     0.049 A 
ATOM     60  H   UNL A   1      41.021  29.678  32.764  1.00  0.00     0.167 HD
ATOM     61  C   UNL A   1      38.945  31.553  33.274  1.00  0.00     0.074 A 
ATOM     62  C   UNL A   1      37.775  32.386  33.100  1.00  0.00     0.031 C 
ATOM     63  C   UNL A   1      39.663  31.485  34.425  1.00  0.00     0.034 A 
BRANCH  50  64
ATOM     64  C   UNL A   1      44.443  27.540  34.186  1.00  0.00     0.023 A 
ATOM     65  C   UNL A   1      44.295  26.306  34.844  1.00  0.00     0.031 A 
ATOM     66  C   UNL A   1      45.694  28.178  34.250  1.00  0.00     0.131 A 
ATOM     67  C   UNL A   1      45.358  25.786  35.597  1.00  0.00     0.055 A 
ATOM     68  C   UNL A   1      46.772  27.615  34.934  1.00  0.00     0.041 A 
ATOM     69  F   UNL A   1      45.883  29.373  33.668  1.00  0.00    -0.206 F 
ATOM     70  C   UNL A   1      46.603  26.419  35.626  1.00  0.00     0.022 A 
BRANCH  67  71
ATOM     71  S   UNL A   1      45.044  24.352  36.663  1.00  0.00     0.124 S 
ATOM     72  O   UNL A   1      46.376  24.089  37.203  1.00  0.00    -0.237 OA
ATOM     73  O   UNL A   1      44.063  24.871  37.609  1.00  0.00    -0.237 OA
ATOM     74  O   UNL A   1      44.543  23.340  35.736  1.00  0.00    -0.744 OA
ENDBRANCH  67  71
ENDBRANCH  50  64
BRANCH  51  75
ATOM     75  C   UNL A   1      36.755  31.495  29.095  1.00  0.00     0.023 A 
ATOM     76  C   UNL A   1      35.723  30.654  28.646  1.00  0.00     0.031 A 
ATOM     77  C   UNL A   1      36.667  32.865  28.785  1.00  0.00     0.131 A 
ATOM     78  C   UNL A   1      34.673  31.182  27.876  1.00  0.00     0.055 A 
ATOM     79  C   UNL A   1      35.594  33.394  28.065  1.00  0.00     0.041 A 
ATOM     80  F   UNL A   1      37.629  33.714  29.179  1.00  0.00    -0.206 F 
ATOM     81  C   UNL A   1      34.594  32.548  27.594  1.00  0.00     0.022 A 
BRANCH  78  82
ATOM     82  S   UNL A   1      33.452  30.042  27.169  1.00  0.00     0.124 S 
ATOM     83  O   UNL A   1      32.198  30.710  27.495  1.00  0.00    -0.237 OA
ATOM     84  O   UNL A   1      33.828  30.034  25.758  1.00  0.00    -0.237 OA
ATOM     85  O   UNL A   1      33.698  28.792  27.884  1.00  0.00    -0.744 OA
ENDBRANCH  78  82
ENDBRANCH  51  75
BRANCH  63  86
ATOM     86  C   UNL A   1      39.255  32.388  35.562  1.00  0.00     0.023 A 
ATOM     87  C   UNL A   1      39.760  33.692  35.699  1.00  0.00     0.031 A 
ATOM     88  C   UNL A   1      38.303  31.941  36.497  1.00  0.00     0.131 A 
ATOM     89  C   UNL A   1      39.327  34.496  36.766  1.00  0.00     0.055 A 
ATOM     90  C   UNL A   1      37.841  32.763  37.525  1.00  0.00     0.041 A 
ATOM     91  F   UNL A   1      37.788  30.704  36.408  1.00  0.00    -0.206 F 
ATOM     92  C   UNL A   1      38.358  34.046  37.667  1.00  0.00     0.022 A 
BRANCH  89  93
ATOM     93  S   UNL A   1      40.080  36.131  36.990  1.00  0.00     0.124 S 
ATOM     94  O   UNL A   1      39.970  36.703  35.652  1.00  0.00    -0.237 OA
ATOM     95  O   UNL A   1      39.229  36.732  38.012  1.00  0.00    -0.237 OA
ATOM     96  O   UNL A   1      41.442  35.826  37.423  1.00  0.00    -0.744 OA
ENDBRANCH  89  93
ENDBRANCH  63  86
ENDBRANCH  37  38
ENDBRANCH  30  32
ENDBRANCH  29  30
ENDBRANCH  28  29
ENDBRANCH  27  28
ENDBRANCH  26  27
ENDBRANCH   1  26
TORSDOF 21
ENDMDL
MODEL 2
REMARK VINA RESULT:     -10.8      4.668      7.116
REMARK SMILES C[C@H]1CCC[C@H](C)N1C(=O)[C@H]1[C@@H](C(=O)OCCOCCOCCOC(=O)c2ccc(-c3c4nc(c(-c5cc(S(=O)(=O)[O-])ccc5F)c5ccc([nH]5)c(-c5cc(S(=O)(=O)[O-])ccc5F)c5nc(c(-c6cc(S(=O)(=O)[O-])ccc6F)c6ccc3[nH]6)C=C5)C=C4)cc2)[C@H]2CC[C@@H]1O2
REMARK SMILES IDX 20 1 19 2 18 3 17 4 16 5 15 6 13 7 14 8 12 9 11 10 93 11
REMARK SMILES IDX 90 12 92 13 94 14 91 15 9 16 1 17 2 18 3 19 8 20 4 21 6 22
REMARK SMILES IDX 5 23 7 24 10 25 21 26 22 27 23 28 24 29 25 30 26 31 27 32
REMARK SMILES IDX 28 33 89 34 29 35 88 36 30 37 31 38 32 39 82 40 33 41 87 42
REMARK SMILES IDX 81 43 83 44 34 45 86 46 80 47 79 48 35 50 67 51 47 52 66 53
REMARK SMILES IDX 48 54 51 55 65 56 84 57 49 58 50 59 64 61 85 62 52 63 36 64
REMARK SMILES IDX 37 65 45 66 38 67 44 68 46 69 43 70 39 71 40 72 41 73 42 74
REMARK SMILES IDX 68 75 69 76 77 77 70 78 76 79 78 80 75 81 71 82 72 83 73 84
REMARK SMILES IDX 74 85 53 86 54 87 62 88 55 89 61 90 63 91 60 92 56 93 57 94
REMARK SMILES IDX 58 95 59 96
REMARK H PARENT 83 49 51 60
REMARK Flexibility Score: inf
ROOT
ATOM      1  C   UNL A   1      37.410  21.530  25.616  1.00  0.00     0.188 C 
ENDROOT
BRANCH   1   2
ATOM      2  C   UNL A   1      36.209  20.710  25.129  1.00  0.00     0.188 C 
BRANCH   2   3
ATOM      3  O   UNL A   1      35.285  21.448  24.344  1.00  0.00    -0.376 OA
BRANCH   3   4
ATOM      4  C   UNL A   1      35.708  22.753  23.984  1.00  0.00     0.202 C 
BRANCH   4   5
ATOM      5  C   UNL A   1      34.589  23.670  23.472  1.00  0.00     0.261 C 
BRANCH   5   6
ATOM      6  O   UNL A   1      33.410  23.093  22.857  1.00  0.00    -0.463 OA
BRANCH   6   7
ATOM      7  C   UNL A   1      32.210  23.692  23.000  1.00  0.00     0.312 C 
ATOM      8  O   UNL A   1      31.748  24.463  22.168  1.00  0.00    -0.252 OA
BRANCH   7   9
ATOM      9  C   UNL A   1      31.398  23.259  24.230  1.00  0.00     0.143 C 
ATOM     10  C   UNL A   1      31.017  24.333  25.253  1.00  0.00     0.124 C 
ATOM     11  C   UNL A   1      30.955  23.495  26.531  1.00  0.00     0.132 C 
ATOM     12  C   UNL A   1      31.862  22.003  25.098  1.00  0.00     0.133 C 
ATOM     13  C   UNL A   1      32.199  23.074  27.281  1.00  0.00     0.035 C 
ATOM     14  O   UNL A   1      30.671  22.209  25.914  1.00  0.00    -0.373 OA
ATOM     15  C   UNL A   1      32.635  21.869  26.469  1.00  0.00     0.036 C 
BRANCH  10  16
ATOM     16  C   UNL A   1      31.875  25.578  25.230  1.00  0.00     0.229 C 
ATOM     17  C   UNL A   1      28.961  26.269  24.043  1.00  0.00     0.031 C 
ATOM     18  C   UNL A   1      30.267  26.967  23.656  1.00  0.00     0.082 C 
ATOM     19  C   UNL A   1      29.934  28.468  23.561  1.00  0.00     0.025 C 
ATOM     20  N   UNL A   1      31.504  26.717  24.486  1.00  0.00    -0.337 N 
ATOM     21  C   UNL A   1      31.115  29.260  23.038  1.00  0.00     0.004 C 
ATOM     22  C   UNL A   1      32.646  27.642  24.235  1.00  0.00     0.082 C 
ATOM     23  C   UNL A   1      32.258  29.106  24.016  1.00  0.00     0.025 C 
ATOM     24  C   UNL A   1      33.498  27.132  23.068  1.00  0.00     0.031 C 
ATOM     25  O   UNL A   1      32.953  25.556  25.835  1.00  0.00    -0.274 OA
ENDBRANCH  10  16
ENDBRANCH   7   9
ENDBRANCH   6   7
ENDBRANCH   5   6
ENDBRANCH   4   5
ENDBRANCH   3   4
ENDBRANCH   2   3
ENDBRANCH   1   2
BRANCH   1  26
ATOM     26  O   UNL A   1      38.737  21.097  25.371  1.00  0.00    -0.376 OA
BRANCH  26  27
ATOM     27  C   UNL A   1      39.000  19.704  25.451  1.00  0.00     0.202 C 
BRANCH  27  28
ATOM     28  C   UNL A   1      40.255  19.227  26.202  1.00  0.00     0.261 C 
BRANCH  28  29
ATOM     29  O   UNL A   1      41.492  19.409  25.494  1.00  0.00    -0.460 OA
BRANCH  29  30
ATOM     30  C   UNL A   1      42.541  19.849  26.243  1.00  0.00     0.338 C 
ATOM     31  O   UNL A   1      43.598  19.266  26.423  1.00  0.00    -0.246 OA
BRANCH  30  32
ATOM     32  C   UNL A   1      42.329  21.278  26.592  1.00  0.00     0.060 A 
ATOM     33  C   UNL A   1      41.848  22.141  25.590  1.00  0.00     0.016 A 
ATOM     34  C   UNL A   1      42.553  21.763  27.880  1.00  0.00     0.016 A 
ATOM     35  C   UNL A   1      41.613  23.489  25.862  1.00  0.00     0.010 A 
ATOM     36  C   UNL A   1      42.371  23.127  28.139  1.00  0.00     0.010 A 
ATOM     37  C   UNL A   1      41.938  24.001  27.123  1.00  0.00    -0.014 A 
BRANCH  37  38
ATOM     38  C   UNL A   1      42.169  25.459  27.287  1.00  0.00     0.031 A 
ATOM     39  C   UNL A   1      43.463  26.002  26.740  1.00  0.00     0.074 A 
ATOM     40  C   UNL A   1      41.299  26.274  27.910  1.00  0.00     0.049 A 
ATOM     41  N   UNL A   1      44.020  27.171  26.914  1.00  0.00    -0.248 NA
ATOM     42  C   UNL A   1      44.240  25.083  25.891  1.00  0.00     0.031 C 
ATOM     43  C   UNL A   1      39.976  25.895  28.398  1.00  0.00     0.029 A 
ATOM     44  N   UNL A   1      41.421  27.599  28.259  1.00  0.00    -0.354 N 
ATOM     45  C   UNL A   1      45.222  27.118  26.215  1.00  0.00     0.074 A 
ATOM     46  C   UNL A   1      45.318  25.800  25.629  1.00  0.00     0.031 C 
ATOM     47  C   UNL A   1      39.420  26.956  29.013  1.00  0.00     0.029 A 
ATOM     48  C   UNL A   1      40.369  28.070  29.011  1.00  0.00     0.049 A 
ATOM     49  H   UNL A   1      42.187  28.157  27.994  1.00  0.00     0.167 HD
ATOM     50  C   UNL A   1      46.166  28.079  26.081  1.00  0.00     0.034 A 
ATOM     51  C   UNL A   1      40.222  29.243  29.663  1.00  0.00     0.034 A 
ATOM     52  C   UNL A   1      46.067  29.378  26.691  1.00  0.00     0.049 A 
ATOM     53  C   UNL A   1      41.340  30.264  29.602  1.00  0.00     0.074 A 
ATOM     54  C   UNL A   1      46.968  30.426  26.640  1.00  0.00     0.029 A 
ATOM     55  N   UNL A   1      45.005  29.801  27.480  1.00  0.00    -0.354 N 
ATOM     56  N   UNL A   1      42.489  30.196  28.970  1.00  0.00    -0.248 NA
ATOM     57  C   UNL A   1      41.144  31.516  30.350  1.00  0.00     0.031 C 
ATOM     58  C   UNL A   1      46.485  31.456  27.452  1.00  0.00     0.029 A 
ATOM     59  C   UNL A   1      45.242  31.083  27.944  1.00  0.00     0.049 A 
ATOM     60  H   UNL A   1      44.202  29.268  27.677  1.00  0.00     0.167 HD
ATOM     61  C   UNL A   1      43.133  31.409  29.212  1.00  0.00     0.074 A 
ATOM     62  C   UNL A   1      42.247  32.188  30.051  1.00  0.00     0.031 C 
ATOM     63  C   UNL A   1      44.340  31.846  28.773  1.00  0.00     0.034 A 
BRANCH  50  64
ATOM     64  C   UNL A   1      47.411  27.716  25.312  1.00  0.00     0.023 A 
ATOM     65  C   UNL A   1      47.497  27.881  23.919  1.00  0.00     0.031 A 
ATOM     66  C   UNL A   1      48.506  27.139  25.979  1.00  0.00     0.131 A 
ATOM     67  C   UNL A   1      48.622  27.405  23.229  1.00  0.00     0.055 A 
ATOM     68  C   UNL A   1      49.656  26.743  25.295  1.00  0.00     0.041 A 
ATOM     69  F   UNL A   1      48.466  26.928  27.304  1.00  0.00    -0.206 F 
ATOM     70  C   UNL A   1      49.713  26.860  23.910  1.00  0.00     0.022 A 
BRANCH  67  71
ATOM     71  S   UNL A   1      48.574  27.369  21.416  1.00  0.00     0.124 S 
ATOM     72  O   UNL A   1      49.724  28.203  21.074  1.00  0.00    -0.237 OA
ATOM     73  O   UNL A   1      48.708  25.946  21.125  1.00  0.00    -0.237 OA
ATOM     74  O   UNL A   1      47.273  27.951  21.095  1.00  0.00    -0.744 OA
ENDBRANCH  67  71
ENDBRANCH  50  64
BRANCH  51  75
ATOM     75  C   UNL A   1      39.011  29.505  30.499  1.00  0.00     0.023 A 
ATOM     76  C   UNL A   1      38.013  30.400  30.078  1.00  0.00     0.031 A 
ATOM     77  C   UNL A   1      38.871  28.915  31.769  1.00  0.00     0.131 A 
ATOM     78  C   UNL A   1      36.945  30.713  30.936  1.00  0.00     0.055 A 
ATOM     79  C   UNL A   1      37.780  29.189  32.597  1.00  0.00     0.041 A 
ATOM     80  F   UNL A   1      39.799  28.061  32.228  1.00  0.00    -0.206 F 
ATOM     81  C   UNL A   1      36.815  30.104  32.186  1.00  0.00     0.022 A 
BRANCH  78  82
ATOM     82  S   UNL A   1      35.770  32.000  30.431  1.00  0.00     0.124 S 
ATOM     83  O   UNL A   1      35.193  31.419  29.225  1.00  0.00    -0.237 OA
ATOM     84  O   UNL A   1      34.890  32.078  31.593  1.00  0.00    -0.237 OA
ATOM     85  O   UNL A   1      36.619  33.170  30.217  1.00  0.00    -0.744 OA
ENDBRANCH  78  82
ENDBRANCH  51  75
BRANCH  63  86
ATOM     86  C   UNL A   1      44.747  33.256  29.123  1.00  0.00     0.023 A 
ATOM     87  C   UNL A   1      44.374  34.359  28.338  1.00  0.00     0.031 A 
ATOM     88  C   UNL A   1      45.485  33.494  30.298  1.00  0.00     0.131 A 
ATOM     89  C   UNL A   1      44.763  35.652  28.725  1.00  0.00     0.055 A 
ATOM     90  C   UNL A   1      45.825  34.784  30.703  1.00  0.00     0.041 A 
ATOM     91  F   UNL A   1      45.863  32.473  31.084  1.00  0.00    -0.206 F 
ATOM     92  C   UNL A   1      45.470  35.871  29.911  1.00  0.00     0.022 A 
BRANCH  89  93
ATOM     93  S   UNL A   1      44.372  37.047  27.635  1.00  0.00     0.124 S 
ATOM     94  O   UNL A   1      45.673  37.346  27.046  1.00  0.00    -0.237 OA
ATOM     95  O   UNL A   1      43.380  36.473  26.732  1.00  0.00    -0.237 OA
ATOM     96  O   UNL A   1      43.858  38.065  28.550  1.00  0.00    -0.744 OA
ENDBRANCH  89  93
ENDBRANCH  63  86
ENDBRANCH  37  38
ENDBRANCH  30  32
ENDBRANCH  29  30
ENDBRANCH  28  29
ENDBRANCH  27  28
ENDBRANCH  26  27
ENDBRANCH   1  26
TORSDOF 21
ENDMDL
MODEL 3
REMARK VINA RESULT:     -10.6      1.953      7.921
REMARK SMILES C[C@H]1CCC[C@H](C)N1C(=O)[C@H]1[C@@H](C(=O)OCCOCCOCCOC(=O)c2ccc(-c3c4nc(c(-c5cc(S(=O)(=O)[O-])ccc5F)c5ccc([nH]5)c(-c5cc(S(=O)(=O)[O-])ccc5F)c5nc(c(-c6cc(S(=O)(=O)[O-])ccc6F)c6ccc3[nH]6)C=C5)C=C4)cc2)[C@H]2CC[C@@H]1O2
REMARK SMILES IDX 20 1 19 2 18 3 17 4 16 5 15 6 13 7 14 8 12 9 11 10 93 11
REMARK SMILES IDX 90 12 92 13 94 14 91 15 9 16 1 17 2 18 3 19 8 20 4 21 6 22
REMARK SMILES IDX 5 23 7 24 10 25 21 26 22 27 23 28 24 29 25 30 26 31 27 32
REMARK SMILES IDX 28 33 89 34 29 35 88 36 30 37 31 38 32 39 82 40 33 41 87 42
REMARK SMILES IDX 81 43 83 44 34 45 86 46 80 47 79 48 35 50 67 51 47 52 66 53
REMARK SMILES IDX 48 54 51 55 65 56 84 57 49 58 50 59 64 61 85 62 52 63 36 64
REMARK SMILES IDX 37 65 45 66 38 67 44 68 46 69 43 70 39 71 40 72 41 73 42 74
REMARK SMILES IDX 68 75 69 76 77 77 70 78 76 79 78 80 75 81 71 82 72 83 73 84
REMARK SMILES IDX 74 85 53 86 54 87 62 88 55 89 61 90 63 91 60 92 56 93 57 94
REMARK SMILES IDX 58 95 59 96
REMARK H PARENT 83 49 51 60
REMARK Flexibility Score: inf
ROOT
ATOM      1  C   UNL A   1      41.946  21.231  26.268  1.00  0.00     0.188 C 
ENDROOT
BRANCH   1   2
ATOM      2  C   UNL A   1      40.588  21.239  26.980  1.00  0.00     0.188 C 
BRANCH   2   3
ATOM      3  O   UNL A   1      39.474  21.212  26.101  1.00  0.00    -0.376 OA
BRANCH   3   4
ATOM      4  C   UNL A   1      38.736  22.421  26.028  1.00  0.00     0.202 C 
BRANCH   4   5
ATOM      5  C   UNL A   1      37.685  22.464  24.911  1.00  0.00     0.261 C 
BRANCH   5   6
ATOM      6  O   UNL A   1      36.535  23.336  25.038  1.00  0.00    -0.463 OA
BRANCH   6   7
ATOM      7  C   UNL A   1      35.483  23.196  24.205  1.00  0.00     0.312 C 
ATOM      8  O   UNL A   1      35.496  23.592  23.045  1.00  0.00    -0.252 OA
BRANCH   7   9
ATOM      9  C   UNL A   1      34.295  22.401  24.768  1.00  0.00     0.143 C 
ATOM     10  C   UNL A   1      32.970  23.140  24.974  1.00  0.00     0.124 C 
ATOM     11  C   UNL A   1      32.384  22.347  26.143  1.00  0.00     0.132 C 
ATOM     12  C   UNL A   1      34.476  21.500  26.073  1.00  0.00     0.133 C 
ATOM     13  C   UNL A   1      32.841  22.555  27.569  1.00  0.00     0.035 C 
ATOM     14  O   UNL A   1      33.085  21.095  25.907  1.00  0.00    -0.373 OA
ATOM     15  C   UNL A   1      34.109  21.722  27.593  1.00  0.00     0.036 C 
BRANCH  10  16
ATOM     16  C   UNL A   1      33.082  24.644  25.088  1.00  0.00     0.229 C 
ATOM     17  C   UNL A   1      30.437  23.897  23.407  1.00  0.00     0.031 C 
ATOM     18  C   UNL A   1      31.262  25.177  23.246  1.00  0.00     0.082 C 
ATOM     19  C   UNL A   1      30.242  26.320  23.080  1.00  0.00     0.025 C 
ATOM     20  N   UNL A   1      32.312  25.506  24.280  1.00  0.00    -0.337 N 
ATOM     21  C   UNL A   1      30.933  27.630  22.762  1.00  0.00     0.004 C 
ATOM     22  C   UNL A   1      32.862  26.891  24.222  1.00  0.00     0.082 C 
ATOM     23  C   UNL A   1      31.833  27.984  23.925  1.00  0.00     0.025 C 
ATOM     24  C   UNL A   1      34.024  26.961  23.225  1.00  0.00     0.031 C 
ATOM     25  O   UNL A   1      33.918  25.110  25.870  1.00  0.00    -0.274 OA
ENDBRANCH  10  16
ENDBRANCH   7   9
ENDBRANCH   6   7
ENDBRANCH   5   6
ENDBRANCH   4   5
ENDBRANCH   3   4
ENDBRANCH   2   3
ENDBRANCH   1   2
BRANCH   1  26
ATOM     26  O   UNL A   1      42.320  22.286  25.399  1.00  0.00    -0.376 OA
BRANCH  26  27
ATOM     27  C   UNL A   1      43.593  22.203  24.774  1.00  0.00     0.202 C 
BRANCH  27  28
ATOM     28  C   UNL A   1      44.610  23.334  25.009  1.00  0.00     0.261 C 
BRANCH  28  29
ATOM     29  O   UNL A   1      44.180  24.636  24.578  1.00  0.00    -0.460 OA
BRANCH  29  30
ATOM     30  C   UNL A   1      44.808  25.689  25.169  1.00  0.00     0.338 C 
ATOM     31  O   UNL A   1      45.845  26.216  24.798  1.00  0.00    -0.246 OA
BRANCH  30  32
ATOM     32  C   UNL A   1      43.904  26.295  26.181  1.00  0.00     0.060 A 
ATOM     33  C   UNL A   1      44.083  27.654  26.501  1.00  0.00     0.016 A 
ATOM     34  C   UNL A   1      42.873  25.569  26.777  1.00  0.00     0.016 A 
ATOM     35  C   UNL A   1      43.255  28.283  27.431  1.00  0.00     0.010 A 
ATOM     36  C   UNL A   1      42.077  26.185  27.750  1.00  0.00     0.010 A 
ATOM     37  C   UNL A   1      42.289  27.531  28.109  1.00  0.00    -0.014 A 
BRANCH  37  38
ATOM     38  C   UNL A   1      41.754  28.019  29.405  1.00  0.00     0.031 A 
ATOM     39  C   UNL A   1      40.453  28.777  29.354  1.00  0.00     0.074 A 
ATOM     40  C   UNL A   1      42.388  27.837  30.577  1.00  0.00     0.049 A 
ATOM     41  N   UNL A   1      39.860  29.485  30.277  1.00  0.00    -0.248 NA
ATOM     42  C   UNL A   1      39.733  28.735  28.069  1.00  0.00     0.031 C 
ATOM     43  C   UNL A   1      43.599  27.046  30.775  1.00  0.00     0.029 A 
ATOM     44  N   UNL A   1      42.101  28.334  31.826  1.00  0.00    -0.354 N 
ATOM     45  C   UNL A   1      38.710  29.991  29.678  1.00  0.00     0.074 A 
ATOM     46  C   UNL A   1      38.699  29.521  28.311  1.00  0.00     0.031 C 
ATOM     47  C   UNL A   1      43.971  27.138  32.066  1.00  0.00     0.029 A 
ATOM     48  C   UNL A   1      43.058  28.038  32.771  1.00  0.00     0.049 A 
ATOM     49  H   UNL A   1      41.288  28.852  32.026  1.00  0.00     0.167 HD
ATOM     50  C   UNL A   1      37.755  30.785  30.216  1.00  0.00     0.034 A 
ATOM     51  C   UNL A   1      43.200  28.488  34.036  1.00  0.00     0.034 A 
ATOM     52  C   UNL A   1      37.794  31.266  31.571  1.00  0.00     0.049 A 
ATOM     53  C   UNL A   1      42.187  29.471  34.586  1.00  0.00     0.074 A 
ATOM     54  C   UNL A   1      36.892  32.089  32.220  1.00  0.00     0.029 A 
ATOM     55  N   UNL A   1      38.801  30.976  32.483  1.00  0.00    -0.354 N 
ATOM     56  N   UNL A   1      41.122  29.975  34.004  1.00  0.00    -0.248 NA
ATOM     57  C   UNL A   1      42.399  29.953  35.959  1.00  0.00     0.031 C 
ATOM     58  C   UNL A   1      37.388  32.353  33.500  1.00  0.00     0.029 A 
ATOM     59  C   UNL A   1      38.557  31.628  33.678  1.00  0.00     0.049 A 
ATOM     60  H   UNL A   1      39.573  30.393  32.305  1.00  0.00     0.167 HD
ATOM     61  C   UNL A   1      40.520  30.799  34.954  1.00  0.00     0.074 A 
ATOM     62  C   UNL A   1      41.340  30.730  36.144  1.00  0.00     0.031 C 
ATOM     63  C   UNL A   1      39.385  31.538  34.858  1.00  0.00     0.034 A 
BRANCH  50  64
ATOM     64  C   UNL A   1      36.645  31.238  29.302  1.00  0.00     0.023 A 
ATOM     65  C   UNL A   1      35.694  30.339  28.788  1.00  0.00     0.031 A 
ATOM     66  C   UNL A   1      36.575  32.581  28.891  1.00  0.00     0.131 A 
ATOM     67  C   UNL A   1      34.761  30.779  27.837  1.00  0.00     0.055 A 
ATOM     68  C   UNL A   1      35.593  33.028  28.006  1.00  0.00     0.041 A 
ATOM     69  F   UNL A   1      37.477  33.475  29.323  1.00  0.00    -0.206 F 
ATOM     70  C   UNL A   1      34.688  32.122  27.462  1.00  0.00     0.022 A 
BRANCH  67  71
ATOM     71  S   UNL A   1      33.745  29.542  26.984  1.00  0.00     0.124 S 
ATOM     72  O   UNL A   1      34.754  28.797  26.236  1.00  0.00    -0.237 OA
ATOM     73  O   UNL A   1      33.117  28.831  28.092  1.00  0.00    -0.237 OA
ATOM     74  O   UNL A   1      32.840  30.347  26.166  1.00  0.00    -0.744 OA
ENDBRANCH  67  71
ENDBRANCH  50  64
BRANCH  51  75
ATOM     75  C   UNL A   1      44.382  28.088  34.859  1.00  0.00     0.023 A 
ATOM     76  C   UNL A   1      44.373  26.909  35.622  1.00  0.00     0.031 A 
ATOM     77  C   UNL A   1      45.512  28.922  34.950  1.00  0.00     0.131 A 
ATOM     78  C   UNL A   1      45.452  26.618  36.475  1.00  0.00     0.055 A 
ATOM     79  C   UNL A   1      46.604  28.602  35.760  1.00  0.00     0.041 A 
ATOM     80  F   UNL A   1      45.571  30.066  34.252  1.00  0.00    -0.206 F 
ATOM     81  C   UNL A   1      46.572  27.449  36.539  1.00  0.00     0.022 A 
BRANCH  78  82
ATOM     82  S   UNL A   1      45.331  25.179  37.574  1.00  0.00     0.124 S 
ATOM     83  O   UNL A   1      46.720  24.742  37.644  1.00  0.00    -0.237 OA
ATOM     84  O   UNL A   1      44.781  25.773  38.790  1.00  0.00    -0.237 OA
ATOM     85  O   UNL A   1      44.428  24.280  36.859  1.00  0.00    -0.744 OA
ENDBRANCH  78  82
ENDBRANCH  51  75
BRANCH  63  86
ATOM     86  C   UNL A   1      38.917  32.271  36.090  1.00  0.00     0.023 A 
ATOM     87  C   UNL A   1      38.174  31.638  37.100  1.00  0.00     0.031 A 
ATOM     88  C   UNL A   1      39.270  33.622  36.270  1.00  0.00     0.131 A 
ATOM     89  C   UNL A   1      37.784  32.366  38.236  1.00  0.00     0.055 A 
ATOM     90  C   UNL A   1      38.923  34.324  37.423  1.00  0.00     0.041 A 
ATOM     91  F   UNL A   1      39.982  34.271  35.335  1.00  0.00    -0.206 F 
ATOM     92  C   UNL A   1      38.170  33.698  38.411  1.00  0.00     0.022 A 
BRANCH  89  93
ATOM     93  S   UNL A   1      36.726  31.562  39.470  1.00  0.00     0.124 S 
ATOM     94  O   UNL A   1      37.038  30.151  39.265  1.00  0.00    -0.237 OA
ATOM     95  O   UNL A   1      37.201  32.145  40.721  1.00  0.00    -0.237 OA
ATOM     96  O   UNL A   1      35.376  31.961  39.077  1.00  0.00    -0.744 OA
ENDBRANCH  89  93
ENDBRANCH  63  86
ENDBRANCH  37  38
ENDBRANCH  30  32
ENDBRANCH  29  30
ENDBRANCH  28  29
ENDBRANCH  27  28
ENDBRANCH  26  27
ENDBRANCH   1  26
TORSDOF 21
ENDMDL
