MODEL 1
REMARK VINA RESULT:      -9.9      0.000      0.000
REMARK SMILES O=C(OCCOCCOCCOC(=O)c1ccc(N2C(=O)[C@@H]3N=NC(c4ccccc4)=C3[C@H]2c2cccc(Br)c2)cc1)c1ccc(-c2c3nc(c(-c4cc(S(=O)(=O)[O-])ccc4F)c4ccc([nH]4)c(-c4cc(S(=O)(=O)[O-])ccc4F)c4nc(c(-c5cc(S(=O)(=O)[O-])ccc5F)c5ccc2[nH]5)C=C4)C=C3)cc1
REMARK SMILES IDX 7 1 6 2 5 3 4 4 3 5 2 6 1 7 43 8 44 9 105 10 45 11 104 12
REMARK SMILES IDX 46 13 47 14 48 15 98 16 49 17 103 18 97 19 99 20 50 21
REMARK SMILES IDX 102 22 96 23 95 24 51 26 83 27 63 28 82 29 64 30 67 31 81 32
REMARK SMILES IDX 100 33 65 34 66 35 80 37 101 38 68 39 52 40 53 41 61 42
REMARK SMILES IDX 54 43 60 44 62 45 59 46 55 47 56 48 57 49 58 50 84 51 85 52
REMARK SMILES IDX 93 53 86 54 92 55 94 56 91 57 87 58 88 59 89 60 90 61 69 62
REMARK SMILES IDX 70 63 78 64 71 65 77 66 79 67 76 68 72 69 73 70 74 71 75 72
REMARK SMILES IDX 8 73 9 74 10 75 11 76 12 77 13 78 14 79 15 80 16 81 42 82
REMARK SMILES IDX 17 83 41 84 18 85 19 86 20 87 33 88 22 89 21 90 32 91 23 92
REMARK SMILES IDX 25 93 24 94 34 95 35 96 40 97 36 98 38 99 37 100 39 101
REMARK SMILES IDX 26 102 27 103 31 104 28 105 30 106 29 107
REMARK H PARENT 99 25 67 36
REMARK Flexibility Score: inf
ROOT
ATOM      1  C   UNL A   1      37.024  32.732  33.045  1.00  0.00     0.188 C 
ENDROOT
BRANCH   1   2
ATOM      2  O   UNL A   1      35.779  32.779  32.391  1.00  0.00    -0.376 OA
BRANCH   2   3
ATOM      3  C   UNL A   1      35.381  33.872  31.587  1.00  0.00     0.202 C 
BRANCH   3   4
ATOM      4  C   UNL A   1      34.473  33.755  30.355  1.00  0.00     0.261 C 
BRANCH   4   5
ATOM      5  O   UNL A   1      34.633  32.581  29.561  1.00  0.00    -0.460 OA
BRANCH   5   6
ATOM      6  C   UNL A   1      35.629  32.154  28.761  1.00  0.00     0.338 C 
ATOM      7  O   UNL A   1      35.484  32.321  27.548  1.00  0.00    -0.246 OA
BRANCH   6   8
ATOM      8  C   UNL A   1      36.842  31.405  29.205  1.00  0.00     0.060 A 
ATOM      9  C   UNL A   1      38.077  31.939  29.571  1.00  0.00     0.016 A 
ATOM     10  C   UNL A   1      36.695  30.000  29.220  1.00  0.00     0.016 A 
ATOM     11  C   UNL A   1      39.171  31.096  29.754  1.00  0.00     0.010 A 
ATOM     12  C   UNL A   1      37.774  29.155  29.436  1.00  0.00     0.010 A 
ATOM     13  C   UNL A   1      39.029  29.710  29.630  1.00  0.00    -0.014 A 
BRANCH  13  14
ATOM     14  C   UNL A   1      40.207  28.873  29.825  1.00  0.00     0.031 A 
ATOM     15  C   UNL A   1      40.563  28.653  31.248  1.00  0.00     0.074 A 
ATOM     16  C   UNL A   1      40.903  28.287  28.829  1.00  0.00     0.049 A 
ATOM     17  N   UNL A   1      41.569  29.152  31.885  1.00  0.00    -0.248 NA
ATOM     18  C   UNL A   1      39.607  27.939  32.104  1.00  0.00     0.031 C 
ATOM     19  C   UNL A   1      40.550  28.206  27.411  1.00  0.00     0.029 A 
ATOM     20  N   UNL A   1      42.059  27.562  28.898  1.00  0.00    -0.354 N 
ATOM     21  C   UNL A   1      41.517  28.612  33.165  1.00  0.00     0.074 A 
ATOM     22  C   UNL A   1      40.202  28.042  33.294  1.00  0.00     0.031 C 
ATOM     23  C   UNL A   1      41.352  27.302  26.801  1.00  0.00     0.029 A 
ATOM     24  C   UNL A   1      42.360  26.843  27.744  1.00  0.00     0.049 A 
ATOM     25  H   UNL A   1      42.632  27.551  29.698  1.00  0.00     0.167 HD
ATOM     26  C   UNL A   1      42.650  28.475  33.910  1.00  0.00     0.034 A 
ATOM     27  C   UNL A   1      43.337  25.907  27.584  1.00  0.00     0.034 A 
ATOM     28  C   UNL A   1      43.705  29.328  33.399  1.00  0.00     0.049 A 
ATOM     29  C   UNL A   1      44.371  26.178  28.613  1.00  0.00     0.074 A 
ATOM     30  C   UNL A   1      43.817  30.687  33.162  1.00  0.00     0.029 A 
ATOM     31  N   UNL A   1      44.734  28.750  32.685  1.00  0.00    -0.354 N 
ATOM     32  N   UNL A   1      45.121  27.244  28.608  1.00  0.00    -0.248 NA
ATOM     33  C   UNL A   1      44.248  25.514  29.903  1.00  0.00     0.031 C 
ATOM     34  C   UNL A   1      44.546  30.788  31.940  1.00  0.00     0.029 A 
ATOM     35  C   UNL A   1      44.920  29.501  31.551  1.00  0.00     0.049 A 
ATOM     36  H   UNL A   1      45.242  27.947  32.942  1.00  0.00     0.167 HD
ATOM     37  C   UNL A   1      45.188  27.639  29.935  1.00  0.00     0.074 A 
ATOM     38  C   UNL A   1      44.715  26.483  30.696  1.00  0.00     0.031 C 
ATOM     39  C   UNL A   1      45.351  28.951  30.279  1.00  0.00     0.034 A 
BRANCH  26  40
ATOM     40  C   UNL A   1      42.938  27.298  34.822  1.00  0.00     0.023 A 
ATOM     41  C   UNL A   1      43.717  26.256  34.281  1.00  0.00     0.031 A 
ATOM     42  C   UNL A   1      42.262  26.989  36.022  1.00  0.00     0.131 A 
ATOM     43  C   UNL A   1      43.660  24.957  34.813  1.00  0.00     0.055 A 
ATOM     44  C   UNL A   1      42.268  25.712  36.592  1.00  0.00     0.041 A 
ATOM     45  F   UNL A   1      41.492  27.866  36.674  1.00  0.00    -0.206 F 
ATOM     46  C   UNL A   1      42.932  24.674  35.964  1.00  0.00     0.022 A 
BRANCH  43  47
ATOM     47  S   UNL A   1      44.384  23.612  33.843  1.00  0.00     0.124 S 
ATOM     48  O   UNL A   1      45.778  24.036  33.767  1.00  0.00    -0.237 OA
ATOM     49  O   UNL A   1      44.107  22.452  34.686  1.00  0.00    -0.237 OA
ATOM     50  O   UNL A   1      43.641  23.663  32.587  1.00  0.00    -0.744 OA
ENDBRANCH  43  47
ENDBRANCH  26  40
BRANCH  27  51
ATOM     51  C   UNL A   1      43.271  24.636  26.802  1.00  0.00     0.023 A 
ATOM     52  C   UNL A   1      42.357  23.597  27.089  1.00  0.00     0.031 A 
ATOM     53  C   UNL A   1      43.963  24.543  25.574  1.00  0.00     0.131 A 
ATOM     54  C   UNL A   1      42.169  22.535  26.168  1.00  0.00     0.055 A 
ATOM     55  C   UNL A   1      43.776  23.493  24.672  1.00  0.00     0.041 A 
ATOM     56  F   UNL A   1      44.787  25.519  25.162  1.00  0.00    -0.206 F 
ATOM     57  C   UNL A   1      42.867  22.489  24.960  1.00  0.00     0.022 A 
BRANCH  54  58
ATOM     58  S   UNL A   1      40.928  21.231  26.480  1.00  0.00     0.124 S 
ATOM     59  O   UNL A   1      39.731  21.787  25.862  1.00  0.00    -0.237 OA
ATOM     60  O   UNL A   1      41.519  20.069  25.827  1.00  0.00    -0.237 OA
ATOM     61  O   UNL A   1      40.880  21.147  27.941  1.00  0.00    -0.744 OA
ENDBRANCH  54  58
ENDBRANCH  27  51
BRANCH  39  62
ATOM     62  C   UNL A   1      45.814  29.936  29.225  1.00  0.00     0.023 A 
ATOM     63  C   UNL A   1      47.161  30.198  28.884  1.00  0.00     0.031 A 
ATOM     64  C   UNL A   1      44.816  30.565  28.456  1.00  0.00     0.131 A 
ATOM     65  C   UNL A   1      47.461  31.070  27.817  1.00  0.00     0.055 A 
ATOM     66  C   UNL A   1      45.116  31.409  27.389  1.00  0.00     0.041 A 
ATOM     67  F   UNL A   1      43.516  30.343  28.713  1.00  0.00    -0.206 F 
ATOM     68  C   UNL A   1      46.442  31.671  27.070  1.00  0.00     0.022 A 
BRANCH  65  69
ATOM     69  S   UNL A   1      49.187  31.468  27.389  1.00  0.00     0.124 S 
ATOM     70  O   UNL A   1      49.756  30.181  27.010  1.00  0.00    -0.237 OA
ATOM     71  O   UNL A   1      49.025  32.439  26.309  1.00  0.00    -0.237 OA
ATOM     72  O   UNL A   1      49.722  32.030  28.631  1.00  0.00    -0.744 OA
ENDBRANCH  65  69
ENDBRANCH  39  62
ENDBRANCH  13  14
ENDBRANCH   6   8
ENDBRANCH   5   6
ENDBRANCH   4   5
ENDBRANCH   3   4
ENDBRANCH   2   3
ENDBRANCH   1   2
BRANCH   1  73
ATOM     73  C   UNL A   1      37.871  34.029  32.949  1.00  0.00     0.188 C 
BRANCH  73  74
ATOM     74  O   UNL A   1      39.142  34.076  32.307  1.00  0.00    -0.376 OA
BRANCH  74  75
ATOM     75  C   UNL A   1      40.176  33.198  32.701  1.00  0.00     0.202 C 
BRANCH  75  76
ATOM     76  C   UNL A   1      41.513  33.302  31.960  1.00  0.00     0.261 C 
BRANCH  76  77
ATOM     77  O   UNL A   1      41.743  34.533  31.252  1.00  0.00    -0.460 OA
BRANCH  77  78
ATOM     78  C   UNL A   1      42.234  34.412  29.998  1.00  0.00     0.338 C 
ATOM     79  O   UNL A   1      42.396  33.382  29.355  1.00  0.00    -0.246 OA
BRANCH  78  80
ATOM     80  C   UNL A   1      42.584  35.737  29.453  1.00  0.00     0.060 A 
ATOM     81  C   UNL A   1      43.562  36.518  30.074  1.00  0.00     0.018 A 
ATOM     82  C   UNL A   1      41.862  36.257  28.378  1.00  0.00     0.018 A 
ATOM     83  C   UNL A   1      43.819  37.815  29.616  1.00  0.00     0.027 A 
ATOM     84  C   UNL A   1      42.098  37.572  27.948  1.00  0.00     0.027 A 
ATOM     85  C   UNL A   1      43.062  38.369  28.575  1.00  0.00     0.045 A 
BRANCH  85  86
ATOM     86  N   UNL A   1      43.293  39.712  28.167  1.00  0.00    -0.299 N 
ATOM     87  C   UNL A   1      42.737  40.174  26.929  1.00  0.00     0.259 C 
ATOM     88  C   UNL A   1      44.566  40.403  28.477  1.00  0.00     0.152 C 
ATOM     89  C   UNL A   1      43.610  41.312  26.452  1.00  0.00     0.248 C 
ATOM     90  O   UNL A   1      41.770  39.729  26.359  1.00  0.00    -0.271 OA
ATOM     91  C   UNL A   1      44.870  40.844  27.087  1.00  0.00     0.021 C 
ATOM     92  N   UNL A   1      43.939  41.295  25.025  1.00  0.00    -0.170 NA
ATOM     93  C   UNL A   1      45.750  40.711  26.092  1.00  0.00     0.097 C 
ATOM     94  N   UNL A   1      45.176  41.086  24.889  1.00  0.00    -0.154 NA
BRANCH  88  95
ATOM     95  C   UNL A   1      44.377  41.613  29.422  1.00  0.00    -0.020 A 
ATOM     96  C   UNL A   1      44.868  42.899  29.098  1.00  0.00     0.006 A 
ATOM     97  C   UNL A   1      43.683  41.496  30.637  1.00  0.00     0.022 A 
ATOM     98  C   UNL A   1      44.573  44.024  29.876  1.00  0.00     0.002 A 
ATOM     99  C   UNL A   1      43.398  42.623  31.422  1.00  0.00     0.018 A 
ATOM    100  C   UNL A   1      43.820  43.889  31.035  1.00  0.00     0.016 A 
ATOM    101  Br  UNL A   1      42.414  42.426  33.026  1.00  0.00    -0.051 Br
ENDBRANCH  88  95
BRANCH  93 102
ATOM    102  C   UNL A   1      47.022  39.989  25.988  1.00  0.00     0.002 A 
ATOM    103  C   UNL A   1      47.165  38.905  25.115  1.00  0.00     0.010 A 
ATOM    104  C   UNL A   1      47.953  40.157  27.026  1.00  0.00     0.010 A 
ATOM    105  C   UNL A   1      48.180  37.962  25.327  1.00  0.00     0.001 A 
ATOM    106  C   UNL A   1      48.956  39.210  27.242  1.00  0.00     0.001 A 
ATOM    107  C   UNL A   1      49.055  38.100  26.406  1.00  0.00     0.000 A 
ENDBRANCH  93 102
ENDBRANCH  85  86
ENDBRANCH  78  80
ENDBRANCH  77  78
ENDBRANCH  76  77
ENDBRANCH  75  76
ENDBRANCH  74  75
ENDBRANCH  73  74
ENDBRANCH   1  73
TORSDOF 23
ENDMDL
MODEL 2
REMARK VINA RESULT:      -9.9      4.817      8.105
REMARK SMILES O=C(OCCOCCOCCOC(=O)c1ccc(N2C(=O)[C@@H]3N=NC(c4ccccc4)=C3[C@H]2c2cccc(Br)c2)cc1)c1ccc(-c2c3nc(c(-c4cc(S(=O)(=O)[O-])ccc4F)c4ccc([nH]4)c(-c4cc(S(=O)(=O)[O-])ccc4F)c4nc(c(-c5cc(S(=O)(=O)[O-])ccc5F)c5ccc2[nH]5)C=C4)C=C3)cc1
REMARK SMILES IDX 7 1 6 2 5 3 4 4 3 5 2 6 1 7 43 8 44 9 105 10 45 11 104 12
REMARK SMILES IDX 46 13 47 14 48 15 98 16 49 17 103 18 97 19 99 20 50 21
REMARK SMILES IDX 102 22 96 23 95 24 51 26 83 27 63 28 82 29 64 30 67 31 81 32
REMARK SMILES IDX 100 33 65 34 66 35 80 37 101 38 68 39 52 40 53 41 61 42
REMARK SMILES IDX 54 43 60 44 62 45 59 46 55 47 56 48 57 49 58 50 84 51 85 52
REMARK SMILES IDX 93 53 86 54 92 55 94 56 91 57 87 58 88 59 89 60 90 61 69 62
REMARK SMILES IDX 70 63 78 64 71 65 77 66 79 67 76 68 72 69 73 70 74 71 75 72
REMARK SMILES IDX 8 73 9 74 10 75 11 76 12 77 13 78 14 79 15 80 16 81 42 82
REMARK SMILES IDX 17 83 41 84 18 85 19 86 20 87 33 88 22 89 21 90 32 91 23 92
REMARK SMILES IDX 25 93 24 94 34 95 35 96 40 97 36 98 38 99 37 100 39 101
REMARK SMILES IDX 26 102 27 103 31 104 28 105 30 106 29 107
REMARK H PARENT 99 25 67 36
REMARK Flexibility Score: inf
ROOT
ATOM      1  C   UNL A   1      34.144  34.702  32.002  1.00  0.00     0.188 C 
ENDROOT
BRANCH   1   2
ATOM      2  O   UNL A   1      33.193  34.822  30.971  1.00  0.00    -0.376 OA
BRANCH   2   3
ATOM      3  C   UNL A   1      33.542  35.199  29.654  1.00  0.00     0.202 C 
BRANCH   3   4
ATOM      4  C   UNL A   1      33.852  34.208  28.523  1.00  0.00     0.261 C 
BRANCH   4   5
ATOM      5  O   UNL A   1      34.140  32.868  28.918  1.00  0.00    -0.460 OA
BRANCH   5   6
ATOM      6  C   UNL A   1      34.834  31.876  28.326  1.00  0.00     0.338 C 
ATOM      7  O   UNL A   1      34.285  31.288  27.392  1.00  0.00    -0.246 OA
BRANCH   6   8
ATOM      8  C   UNL A   1      36.162  31.358  28.770  1.00  0.00     0.060 A 
ATOM      9  C   UNL A   1      37.367  32.060  28.824  1.00  0.00     0.016 A 
ATOM     10  C   UNL A   1      36.170  29.997  29.145  1.00  0.00     0.016 A 
ATOM     11  C   UNL A   1      38.558  31.377  29.056  1.00  0.00     0.010 A 
ATOM     12  C   UNL A   1      37.350  29.319  29.412  1.00  0.00     0.010 A 
ATOM     13  C   UNL A   1      38.553  29.998  29.292  1.00  0.00    -0.014 A 
BRANCH  13  14
ATOM     14  C   UNL A   1      39.828  29.330  29.523  1.00  0.00     0.031 A 
ATOM     15  C   UNL A   1      40.232  29.275  30.949  1.00  0.00     0.074 A 
ATOM     16  C   UNL A   1      40.574  28.752  28.559  1.00  0.00     0.049 A 
ATOM     17  N   UNL A   1      41.179  29.944  31.516  1.00  0.00    -0.248 NA
ATOM     18  C   UNL A   1      39.386  28.524  31.886  1.00  0.00     0.031 C 
ATOM     19  C   UNL A   1      40.210  28.510  27.163  1.00  0.00     0.029 A 
ATOM     20  N   UNL A   1      41.812  28.182  28.656  1.00  0.00    -0.354 N 
ATOM     21  C   UNL A   1      41.215  29.510  32.837  1.00  0.00     0.074 A 
ATOM     22  C   UNL A   1      39.983  28.798  33.046  1.00  0.00     0.031 C 
ATOM     23  C   UNL A   1      41.108  27.662  26.606  1.00  0.00     0.029 A 
ATOM     24  C   UNL A   1      42.180  27.410  27.556  1.00  0.00     0.049 A 
ATOM     25  H   UNL A   1      42.396  28.307  29.438  1.00  0.00     0.167 HD
ATOM     26  C   UNL A   1      42.369  29.576  33.559  1.00  0.00     0.034 A 
ATOM     27  C   UNL A   1      43.262  26.590  27.446  1.00  0.00     0.034 A 
ATOM     28  C   UNL A   1      43.302  30.505  32.953  1.00  0.00     0.049 A 
ATOM     29  C   UNL A   1      44.272  27.069  28.422  1.00  0.00     0.074 A 
ATOM     30  C   UNL A   1      43.242  31.842  32.604  1.00  0.00     0.029 A 
ATOM     31  N   UNL A   1      44.383  29.998  32.261  1.00  0.00    -0.354 N 
ATOM     32  N   UNL A   1      44.885  28.215  28.311  1.00  0.00    -0.248 NA
ATOM     33  C   UNL A   1      44.254  26.506  29.764  1.00  0.00     0.031 C 
ATOM     34  C   UNL A   1      43.932  31.929  31.359  1.00  0.00     0.029 A 
ATOM     35  C   UNL A   1      44.456  30.669  31.066  1.00  0.00     0.049 A 
ATOM     36  H   UNL A   1      44.990  29.288  32.569  1.00  0.00     0.167 HD
ATOM     37  C   UNL A   1      44.924  28.725  29.599  1.00  0.00     0.074 A 
ATOM     38  C   UNL A   1      44.611  27.588  30.463  1.00  0.00     0.031 C 
ATOM     39  C   UNL A   1      44.930  30.071  29.831  1.00  0.00     0.034 A 
BRANCH  26  40
ATOM     40  C   UNL A   1      42.816  28.523  34.556  1.00  0.00     0.023 A 
ATOM     41  C   UNL A   1      43.296  28.991  35.796  1.00  0.00     0.031 A 
ATOM     42  C   UNL A   1      43.099  27.170  34.268  1.00  0.00     0.131 A 
ATOM     43  C   UNL A   1      44.149  28.204  36.586  1.00  0.00     0.055 A 
ATOM     44  C   UNL A   1      43.888  26.365  35.096  1.00  0.00     0.041 A 
ATOM     45  F   UNL A   1      42.706  26.564  33.144  1.00  0.00    -0.206 F 
ATOM     46  C   UNL A   1      44.458  26.893  36.241  1.00  0.00     0.022 A 
BRANCH  43  47
ATOM     47  S   UNL A   1      45.014  29.008  37.958  1.00  0.00     0.124 S 
ATOM     48  O   UNL A   1      46.359  29.141  37.406  1.00  0.00    -0.237 OA
ATOM     49  O   UNL A   1      44.254  30.245  38.108  1.00  0.00    -0.237 OA
ATOM     50  O   UNL A   1      44.875  28.052  39.052  1.00  0.00    -0.744 OA
ENDBRANCH  43  47
ENDBRANCH  26  40
BRANCH  27  51
ATOM     51  C   UNL A   1      43.340  25.260  26.772  1.00  0.00     0.023 A 
ATOM     52  C   UNL A   1      42.568  24.144  27.167  1.00  0.00     0.031 A 
ATOM     53  C   UNL A   1      44.018  25.149  25.537  1.00  0.00     0.131 A 
ATOM     54  C   UNL A   1      42.497  22.994  26.341  1.00  0.00     0.055 A 
ATOM     55  C   UNL A   1      43.946  24.012  24.728  1.00  0.00     0.041 A 
ATOM     56  F   UNL A   1      44.706  26.181  25.024  1.00  0.00    -0.206 F 
ATOM     57  C   UNL A   1      43.174  22.932  25.122  1.00  0.00     0.022 A 
BRANCH  54  58
ATOM     58  S   UNL A   1      41.433  21.579  26.792  1.00  0.00     0.124 S 
ATOM     59  O   UNL A   1      40.309  21.730  25.877  1.00  0.00    -0.237 OA
ATOM     60  O   UNL A   1      42.311  20.437  26.562  1.00  0.00    -0.237 OA
ATOM     61  O   UNL A   1      41.114  21.826  28.200  1.00  0.00    -0.744 OA
ENDBRANCH  54  58
ENDBRANCH  27  51
BRANCH  39  62
ATOM     62  C   UNL A   1      45.250  31.014  28.689  1.00  0.00     0.023 A 
ATOM     63  C   UNL A   1      46.542  31.476  28.345  1.00  0.00     0.031 A 
ATOM     64  C   UNL A   1      44.185  31.375  27.842  1.00  0.00     0.131 A 
ATOM     65  C   UNL A   1      46.721  32.278  27.199  1.00  0.00     0.055 A 
ATOM     66  C   UNL A   1      44.370  32.149  26.698  1.00  0.00     0.041 A 
ATOM     67  F   UNL A   1      42.936  30.952  28.097  1.00  0.00    -0.206 F 
ATOM     68  C   UNL A   1      45.640  32.610  26.376  1.00  0.00     0.022 A 
BRANCH  65  69
ATOM     69  S   UNL A   1      48.365  32.932  26.762  1.00  0.00     0.124 S 
ATOM     70  O   UNL A   1      48.773  33.667  27.953  1.00  0.00    -0.237 OA
ATOM     71  O   UNL A   1      49.118  31.715  26.470  1.00  0.00    -0.237 OA
ATOM     72  O   UNL A   1      48.094  33.770  25.591  1.00  0.00    -0.744 OA
ENDBRANCH  65  69
ENDBRANCH  39  62
ENDBRANCH  13  14
ENDBRANCH   6   8
ENDBRANCH   5   6
ENDBRANCH   4   5
ENDBRANCH   3   4
ENDBRANCH   2   3
ENDBRANCH   1   2
BRANCH   1  73
ATOM     73  C   UNL A   1      34.099  33.368  32.793  1.00  0.00     0.188 C 
BRANCH  73  74
ATOM     74  O   UNL A   1      35.132  32.967  33.689  1.00  0.00    -0.376 OA
BRANCH  74  75
ATOM     75  C   UNL A   1      36.081  31.996  33.298  1.00  0.00     0.202 C 
BRANCH  75  76
ATOM     76  C   UNL A   1      37.163  32.425  32.303  1.00  0.00     0.261 C 
BRANCH  76  77
ATOM     77  O   UNL A   1      38.500  32.512  32.828  1.00  0.00    -0.460 OA
BRANCH  77  78
ATOM     78  C   UNL A   1      38.975  33.762  33.033  1.00  0.00     0.338 C 
ATOM     79  O   UNL A   1      39.174  34.632  32.195  1.00  0.00    -0.246 OA
BRANCH  78  80
ATOM     80  C   UNL A   1      39.251  33.978  34.466  1.00  0.00     0.060 A 
ATOM     81  C   UNL A   1      40.518  34.390  34.884  1.00  0.00     0.018 A 
ATOM     82  C   UNL A   1      38.275  33.667  35.414  1.00  0.00     0.018 A 
ATOM     83  C   UNL A   1      40.807  34.495  36.249  1.00  0.00     0.027 A 
ATOM     84  C   UNL A   1      38.583  33.737  36.782  1.00  0.00     0.027 A 
ATOM     85  C   UNL A   1      39.855  34.131  37.212  1.00  0.00     0.045 A 
BRANCH  85  86
ATOM     86  N   UNL A   1      40.189  34.181  38.593  1.00  0.00    -0.299 N 
ATOM     87  C   UNL A   1      40.901  33.085  39.183  1.00  0.00     0.259 C 
ATOM     88  C   UNL A   1      39.297  34.836  39.578  1.00  0.00     0.152 C 
ATOM     89  C   UNL A   1      40.565  33.084  40.657  1.00  0.00     0.248 C 
ATOM     90  O   UNL A   1      41.616  32.297  38.613  1.00  0.00    -0.271 OA
ATOM     91  C   UNL A   1      39.214  33.692  40.529  1.00  0.00     0.021 C 
ATOM     92  N   UNL A   1      40.278  31.769  41.234  1.00  0.00    -0.170 NA
ATOM     93  C   UNL A   1      38.369  32.816  41.076  1.00  0.00     0.097 C 
ATOM     94  N   UNL A   1      39.062  31.725  41.572  1.00  0.00    -0.154 NA
BRANCH  88  95
ATOM     95  C   UNL A   1      39.942  36.074  40.243  1.00  0.00    -0.020 A 
ATOM     96  C   UNL A   1      40.562  37.093  39.483  1.00  0.00     0.006 A 
ATOM     97  C   UNL A   1      39.920  36.258  41.635  1.00  0.00     0.022 A 
ATOM     98  C   UNL A   1      41.016  38.282  40.065  1.00  0.00     0.002 A 
ATOM     99  C   UNL A   1      40.386  37.444  42.219  1.00  0.00     0.018 A 
ATOM    100  C   UNL A   1      40.912  38.467  41.438  1.00  0.00     0.016 A 
ATOM    101  Br  UNL A   1      40.287  37.670  44.095  1.00  0.00    -0.051 Br
ENDBRANCH  88  95
BRANCH  93 102
ATOM    102  C   UNL A   1      36.916  32.649  40.975  1.00  0.00     0.002 A 
ATOM    103  C   UNL A   1      36.310  32.346  39.750  1.00  0.00     0.010 A 
ATOM    104  C   UNL A   1      36.127  33.159  42.019  1.00  0.00     0.010 A 
ATOM    105  C   UNL A   1      34.950  32.624  39.552  1.00  0.00     0.001 A 
ATOM    106  C   UNL A   1      34.776  33.444  41.815  1.00  0.00     0.001 A 
ATOM    107  C   UNL A   1      34.193  33.198  40.575  1.00  0.00     0.000 A 
ENDBRANCH  93 102
ENDBRANCH  85  86
ENDBRANCH  78  80
ENDBRANCH  77  78
ENDBRANCH  76  77
ENDBRANCH  75  76
ENDBRANCH  74  75
ENDBRANCH  73  74
ENDBRANCH   1  73
TORSDOF 23
ENDMDL
MODEL 3
REMARK VINA RESULT:      -9.5      7.137     16.459
REMARK SMILES O=C(OCCOCCOCCOC(=O)c1ccc(N2C(=O)[C@@H]3N=NC(c4ccccc4)=C3[C@H]2c2cccc(Br)c2)cc1)c1ccc(-c2c3nc(c(-c4cc(S(=O)(=O)[O-])ccc4F)c4ccc([nH]4)c(-c4cc(S(=O)(=O)[O-])ccc4F)c4nc(c(-c5cc(S(=O)(=O)[O-])ccc5F)c5ccc2[nH]5)C=C4)C=C3)cc1
REMARK SMILES IDX 7 1 6 2 5 3 4 4 3 5 2 6 1 7 43 8 44 9 105 10 45 11 104 12
REMARK SMILES IDX 46 13 47 14 48 15 98 16 49 17 103 18 97 19 99 20 50 21
REMARK SMILES IDX 102 22 96 23 95 24 51 26 83 27 63 28 82 29 64 30 67 31 81 32
REMARK SMILES IDX 100 33 65 34 66 35 80 37 101 38 68 39 52 40 53 41 61 42
REMARK SMILES IDX 54 43 60 44 62 45 59 46 55 47 56 48 57 49 58 50 84 51 85 52
REMARK SMILES IDX 93 53 86 54 92 55 94 56 91 57 87 58 88 59 89 60 90 61 69 62
REMARK SMILES IDX 70 63 78 64 71 65 77 66 79 67 76 68 72 69 73 70 74 71 75 72
REMARK SMILES IDX 8 73 9 74 10 75 11 76 12 77 13 78 14 79 15 80 16 81 42 82
REMARK SMILES IDX 17 83 41 84 18 85 19 86 20 87 33 88 22 89 21 90 32 91 23 92
REMARK SMILES IDX 25 93 24 94 34 95 35 96 40 97 36 98 38 99 37 100 39 101
REMARK SMILES IDX 26 102 27 103 31 104 28 105 30 106 29 107
REMARK H PARENT 99 25 67 36
REMARK Flexibility Score: inf
ROOT
ATOM      1  C   UNL A   1      49.447  22.153  35.888  1.00  0.00     0.188 C 
ENDROOT
BRANCH   1   2
ATOM      2  O   UNL A   1      49.279  21.665  37.198  1.00  0.00    -0.376 OA
BRANCH   2   3
ATOM      3  C   UNL A   1      48.857  22.488  38.267  1.00  0.00     0.202 C 
BRANCH   3   4
ATOM      4  C   UNL A   1      47.393  22.855  38.551  1.00  0.00     0.261 C 
BRANCH   4   5
ATOM      5  O   UNL A   1      46.679  23.475  37.484  1.00  0.00    -0.460 OA
BRANCH   5   6
ATOM      6  C   UNL A   1      46.730  24.714  36.956  1.00  0.00     0.338 C 
ATOM      7  O   UNL A   1      47.435  25.542  37.538  1.00  0.00    -0.246 OA
BRANCH   6   8
ATOM      8  C   UNL A   1      45.927  25.199  35.794  1.00  0.00     0.060 A 
ATOM      9  C   UNL A   1      44.581  24.944  35.533  1.00  0.00     0.016 A 
ATOM     10  C   UNL A   1      46.649  25.978  34.863  1.00  0.00     0.016 A 
ATOM     11  C   UNL A   1      44.036  25.290  34.299  1.00  0.00     0.010 A 
ATOM     12  C   UNL A   1      46.100  26.356  33.647  1.00  0.00     0.010 A 
ATOM     13  C   UNL A   1      44.813  25.944  33.337  1.00  0.00    -0.014 A 
BRANCH  13  14
ATOM     14  C   UNL A   1      44.196  26.279  32.059  1.00  0.00     0.031 A 
ATOM     15  C   UNL A   1      44.436  25.278  30.992  1.00  0.00     0.074 A 
ATOM     16  C   UNL A   1      43.424  27.364  31.843  1.00  0.00     0.049 A 
ATOM     17  N   UNL A   1      45.199  25.406  29.960  1.00  0.00    -0.248 NA
ATOM     18  C   UNL A   1      43.903  23.921  31.176  1.00  0.00     0.031 C 
ATOM     19  C   UNL A   1      42.900  28.307  32.831  1.00  0.00     0.029 A 
ATOM     20  N   UNL A   1      42.876  27.809  30.674  1.00  0.00    -0.354 N 
ATOM     21  C   UNL A   1      45.050  24.236  29.224  1.00  0.00     0.074 A 
ATOM     22  C   UNL A   1      44.407  23.300  30.108  1.00  0.00     0.031 C 
ATOM     23  C   UNL A   1      41.948  29.077  32.254  1.00  0.00     0.029 A 
ATOM     24  C   UNL A   1      41.889  28.781  30.831  1.00  0.00     0.049 A 
ATOM     25  H   UNL A   1      43.156  27.473  29.792  1.00  0.00     0.167 HD
ATOM     26  C   UNL A   1      45.254  24.229  27.877  1.00  0.00     0.034 A 
ATOM     27  C   UNL A   1      41.055  29.275  29.875  1.00  0.00     0.034 A 
ATOM     28  C   UNL A   1      46.029  25.386  27.470  1.00  0.00     0.049 A 
ATOM     29  C   UNL A   1      41.718  29.058  28.566  1.00  0.00     0.074 A 
ATOM     30  C   UNL A   1      47.265  25.893  27.829  1.00  0.00     0.029 A 
ATOM     31  N   UNL A   1      45.380  26.426  26.837  1.00  0.00    -0.354 N 
ATOM     32  N   UNL A   1      42.810  29.674  28.208  1.00  0.00    -0.248 NA
ATOM     33  C   UNL A   1      41.446  27.818  27.853  1.00  0.00     0.031 C 
ATOM     34  C   UNL A   1      47.085  27.307  27.867  1.00  0.00     0.029 A 
ATOM     35  C   UNL A   1      45.786  27.590  27.439  1.00  0.00     0.049 A 
ATOM     36  H   UNL A   1      44.744  26.347  26.091  1.00  0.00     0.167 HD
ATOM     37  C   UNL A   1      43.576  28.705  27.579  1.00  0.00     0.074 A 
ATOM     38  C   UNL A   1      42.646  27.611  27.303  1.00  0.00     0.031 C 
ATOM     39  C   UNL A   1      44.941  28.760  27.591  1.00  0.00     0.034 A 
BRANCH  26  40
ATOM     40  C   UNL A   1      44.428  23.427  26.889  1.00  0.00     0.023 A 
ATOM     41  C   UNL A   1      43.032  23.429  27.085  1.00  0.00     0.031 A 
ATOM     42  C   UNL A   1      44.914  22.440  26.005  1.00  0.00     0.131 A 
ATOM     43  C   UNL A   1      42.227  22.399  26.573  1.00  0.00     0.055 A 
ATOM     44  C   UNL A   1      44.096  21.458  25.436  1.00  0.00     0.041 A 
ATOM     45  F   UNL A   1      46.208  22.306  25.698  1.00  0.00    -0.206 F 
ATOM     46  C   UNL A   1      42.751  21.405  25.754  1.00  0.00     0.022 A 
BRANCH  43  47
ATOM     47  S   UNL A   1      40.527  22.272  27.180  1.00  0.00     0.124 S 
ATOM     48  O   UNL A   1      40.391  23.529  27.908  1.00  0.00    -0.237 OA
ATOM     49  O   UNL A   1      39.772  22.162  25.935  1.00  0.00    -0.237 OA
ATOM     50  O   UNL A   1      40.551  21.067  28.003  1.00  0.00    -0.744 OA
ENDBRANCH  43  47
ENDBRANCH  26  40
BRANCH  27  51
ATOM     51  C   UNL A   1      39.613  29.637  30.014  1.00  0.00     0.023 A 
ATOM     52  C   UNL A   1      39.147  30.972  30.030  1.00  0.00     0.031 A 
ATOM     53  C   UNL A   1      38.630  28.631  29.877  1.00  0.00     0.131 A 
ATOM     54  C   UNL A   1      37.761  31.248  29.911  1.00  0.00     0.055 A 
ATOM     55  C   UNL A   1      37.266  28.909  29.762  1.00  0.00     0.041 A 
ATOM     56  F   UNL A   1      38.969  27.337  29.761  1.00  0.00    -0.206 F 
ATOM     57  C   UNL A   1      36.826  30.221  29.766  1.00  0.00     0.022 A 
BRANCH  54  58
ATOM     58  S   UNL A   1      37.149  32.967  29.840  1.00  0.00     0.124 S 
ATOM     59  O   UNL A   1      35.704  32.782  29.797  1.00  0.00    -0.237 OA
ATOM     60  O   UNL A   1      37.696  33.549  31.060  1.00  0.00    -0.237 OA
ATOM     61  O   UNL A   1      37.736  33.488  28.603  1.00  0.00    -0.744 OA
ENDBRANCH  54  58
ENDBRANCH  27  51
BRANCH  39  62
ATOM     62  C   UNL A   1      45.623  30.056  27.980  1.00  0.00     0.023 A 
ATOM     63  C   UNL A   1      45.959  31.104  27.093  1.00  0.00     0.031 A 
ATOM     64  C   UNL A   1      45.845  30.272  29.354  1.00  0.00     0.131 A 
ATOM     65  C   UNL A   1      46.507  32.303  27.594  1.00  0.00     0.055 A 
ATOM     66  C   UNL A   1      46.366  31.467  29.847  1.00  0.00     0.041 A 
ATOM     67  F   UNL A   1      45.528  29.326  30.253  1.00  0.00    -0.206 F 
ATOM     68  C   UNL A   1      46.706  32.485  28.967  1.00  0.00     0.022 A 
BRANCH  65  69
ATOM     69  S   UNL A   1      47.000  33.650  26.470  1.00  0.00     0.124 S 
ATOM     70  O   UNL A   1      47.122  34.807  27.347  1.00  0.00    -0.237 OA
ATOM     71  O   UNL A   1      48.247  33.142  25.902  1.00  0.00    -0.237 OA
ATOM     72  O   UNL A   1      45.889  33.719  25.519  1.00  0.00    -0.744 OA
ENDBRANCH  65  69
ENDBRANCH  39  62
ENDBRANCH  13  14
ENDBRANCH   6   8
ENDBRANCH   5   6
ENDBRANCH   4   5
ENDBRANCH   3   4
ENDBRANCH   2   3
ENDBRANCH   1   2
BRANCH   1  73
ATOM     73  C   UNL A   1      49.932  21.108  34.849  1.00  0.00     0.188 C 
BRANCH  73  74
ATOM     74  O   UNL A   1      49.203  19.920  34.551  1.00  0.00    -0.376 OA
BRANCH  74  75
ATOM     75  C   UNL A   1      47.963  19.990  33.879  1.00  0.00     0.202 C 
BRANCH  75  76
ATOM     76  C   UNL A   1      46.721  20.305  34.718  1.00  0.00     0.261 C 
BRANCH  76  77
ATOM     77  O   UNL A   1      46.761  19.865  36.087  1.00  0.00    -0.460 OA
BRANCH  77  78
ATOM     78  C   UNL A   1      45.895  18.881  36.419  1.00  0.00     0.338 C 
ATOM     79  O   UNL A   1      45.236  18.179  35.661  1.00  0.00    -0.246 OA
BRANCH  78  80
ATOM     80  C   UNL A   1      45.815  18.739  37.885  1.00  0.00     0.060 A 
ATOM     81  C   UNL A   1      46.529  19.606  38.715  1.00  0.00     0.018 A 
ATOM     82  C   UNL A   1      45.111  17.670  38.440  1.00  0.00     0.018 A 
ATOM     83  C   UNL A   1      46.534  19.405  40.100  1.00  0.00     0.027 A 
ATOM     84  C   UNL A   1      45.151  17.452  39.826  1.00  0.00     0.027 A 
ATOM     85  C   UNL A   1      45.878  18.303  40.666  1.00  0.00     0.045 A 
BRANCH  85  86
ATOM     86  N   UNL A   1      45.949  18.079  42.068  1.00  0.00    -0.299 N 
ATOM     87  C   UNL A   1      45.629  19.150  42.967  1.00  0.00     0.259 C 
ATOM     88  C   UNL A   1      46.961  17.169  42.653  1.00  0.00     0.152 C 
ATOM     89  C   UNL A   1      46.366  18.875  44.258  1.00  0.00     0.248 C 
ATOM     90  O   UNL A   1      44.925  20.103  42.736  1.00  0.00    -0.271 OA
ATOM     91  C   UNL A   1      47.502  18.128  43.656  1.00  0.00     0.021 C 
ATOM     92  N   UNL A   1      47.024  20.035  44.863  1.00  0.00    -0.170 NA
ATOM     93  C   UNL A   1      48.603  18.792  44.013  1.00  0.00     0.097 C 
ATOM     94  N   UNL A   1      48.275  19.871  44.816  1.00  0.00    -0.154 NA
BRANCH  88  95
ATOM     95  C   UNL A   1      46.332  15.934  43.339  1.00  0.00    -0.020 A 
ATOM     96  C   UNL A   1      47.091  15.064  44.156  1.00  0.00     0.006 A 
ATOM     97  C   UNL A   1      44.967  15.632  43.204  1.00  0.00     0.022 A 
ATOM     98  C   UNL A   1      46.500  14.034  44.895  1.00  0.00     0.002 A 
ATOM     99  C   UNL A   1      44.377  14.592  43.936  1.00  0.00     0.018 A 
ATOM    100  C   UNL A   1      45.133  13.807  44.799  1.00  0.00     0.016 A 
ATOM    101  Br  UNL A   1      42.523  14.255  43.764  1.00  0.00    -0.051 Br
ENDBRANCH  88  95
BRANCH  93 102
ATOM    102  C   UNL A   1      49.974  18.786  43.491  1.00  0.00     0.002 A 
ATOM    103  C   UNL A   1      51.073  18.694  44.354  1.00  0.00     0.010 A 
ATOM    104  C   UNL A   1      50.173  19.246  42.179  1.00  0.00     0.010 A 
ATOM    105  C   UNL A   1      52.335  19.129  43.931  1.00  0.00     0.001 A 
ATOM    106  C   UNL A   1      51.430  19.688  41.764  1.00  0.00     0.001 A 
ATOM    107  C   UNL A   1      52.507  19.651  42.647  1.00  0.00     0.000 A 
ENDBRANCH  93 102
ENDBRANCH  85  86
ENDBRANCH  78  80
ENDBRANCH  77  78
ENDBRANCH  76  77
ENDBRANCH  75  76
ENDBRANCH  74  75
ENDBRANCH  73  74
ENDBRANCH   1  73
TORSDOF 23
ENDMDL
