MODEL 1
REMARK VINA RESULT:     -10.5      0.000      0.000
REMARK SMILES [NH3+][C@H](C(=O)OCCOCCOCCOC(=O)c1ccc(-c2c3nc(c(-c4cc(S(=O)(=O)[O-])ccc4F)c4ccc([nH]4)c(-c4cc(S(=O)(=O)[O-])ccc4F)c4nc(c(-c5cc(S(=O)(=O)[O-])ccc5F)c5ccc2[nH]5)C=C4)C=C3)cc1)c1ccc(OCC(=O)N2CCCC2)cc1
REMARK SMILES IDX 9 1 8 2 7 3 6 4 5 5 3 6 4 7 2 8 1 9 80 13 81 14 94 15 82 16
REMARK SMILES IDX 93 17 83 18 84 19 85 20 86 21 87 22 88 23 89 24 92 25 90 26
REMARK SMILES IDX 91 27 10 28 11 29 12 30 13 31 14 32 15 33 16 34 17 35 18 36
REMARK SMILES IDX 79 37 19 38 78 39 20 40 21 41 22 42 72 43 23 44 77 45 71 46
REMARK SMILES IDX 73 47 24 48 76 49 70 50 69 51 25 53 57 54 37 55 56 56 38 57
REMARK SMILES IDX 41 58 55 59 74 60 39 61 40 62 54 64 75 65 42 66 26 67 27 68
REMARK SMILES IDX 35 69 28 70 34 71 36 72 33 73 29 74 30 75 31 76 32 77 58 78
REMARK SMILES IDX 59 79 67 80 60 81 66 82 68 83 65 84 61 85 62 86 63 87 64 88
REMARK SMILES IDX 43 89 44 90 52 91 45 92 51 93 53 94 50 95 46 96 47 97 48 98
REMARK SMILES IDX 49 99
REMARK H PARENT 1 10 1 11 1 12 73 52 41 63
REMARK Flexibility Score: inf
ROOT
ATOM      1  C   UNL A   1      34.174  25.516  24.894  1.00  0.00     0.188 C 
ENDROOT
BRANCH   1   2
ATOM      2  O   UNL A   1      33.756  26.456  23.914  1.00  0.00    -0.376 OA
BRANCH   2   3
ATOM      3  C   UNL A   1      33.451  27.770  24.376  1.00  0.00     0.202 C 
BRANCH   3   4
ATOM      4  C   UNL A   1      32.446  28.592  23.552  1.00  0.00     0.261 C 
BRANCH   4   5
ATOM      5  O   UNL A   1      31.653  27.837  22.608  1.00  0.00    -0.459 OA
BRANCH   5   6
ATOM      6  C   UNL A   1      30.307  27.964  22.753  1.00  0.00     0.369 C 
ATOM      7  O   UNL A   1      29.605  28.644  22.000  1.00  0.00    -0.245 OA
BRANCH   6   8
ATOM      8  C   UNL A   1      29.648  27.159  23.901  1.00  0.00     0.323 C 
BRANCH   8   9
ATOM      9  N   UNL A   1      28.215  26.976  23.534  1.00  0.00    -0.342 N 
ATOM     10  H   UNL A   1      28.075  26.035  23.165  1.00  0.00     0.345 HD
ATOM     11  H   UNL A   1      27.955  27.661  22.824  1.00  0.00     0.345 HD
ATOM     12  H   UNL A   1      27.633  27.106  24.361  1.00  0.00     0.345 HD
ENDBRANCH   8   9
BRANCH   8  13
ATOM     13  C   UNL A   1      30.276  25.865  24.424  1.00  0.00     0.021 A 
ATOM     14  C   UNL A   1      30.523  24.779  23.564  1.00  0.00     0.014 A 
ATOM     15  C   UNL A   1      30.450  25.632  25.798  1.00  0.00     0.014 A 
ATOM     16  C   UNL A   1      30.955  23.540  24.049  1.00  0.00     0.047 A 
ATOM     17  C   UNL A   1      30.895  24.385  26.286  1.00  0.00     0.047 A 
ATOM     18  C   UNL A   1      31.162  23.336  25.410  1.00  0.00     0.120 A 
BRANCH  18  19
ATOM     19  O   UNL A   1      31.645  22.098  25.721  1.00  0.00    -0.484 OA
BRANCH  19  20
ATOM     20  C   UNL A   1      32.136  21.276  24.681  1.00  0.00     0.329 C 
BRANCH  20  21
ATOM     21  C   UNL A   1      33.329  20.359  24.990  1.00  0.00     0.260 C 
ATOM     22  O   UNL A   1      34.175  20.700  25.824  1.00  0.00    -0.271 OA
ATOM     23  N   UNL A   1      33.379  19.128  24.373  1.00  0.00    -0.340 N 
ATOM     24  C   UNL A   1      32.471  18.616  23.356  1.00  0.00     0.119 C 
ATOM     25  C   UNL A   1      34.458  18.202  24.640  1.00  0.00     0.119 C 
ATOM     26  C   UNL A   1      32.949  17.192  23.087  1.00  0.00     0.023 C 
ATOM     27  C   UNL A   1      34.417  17.206  23.493  1.00  0.00     0.023 C 
ENDBRANCH  20  21
ENDBRANCH  19  20
ENDBRANCH  18  19
ENDBRANCH   8  13
ENDBRANCH   6   8
ENDBRANCH   5   6
ENDBRANCH   4   5
ENDBRANCH   3   4
ENDBRANCH   2   3
ENDBRANCH   1   2
BRANCH   1  28
ATOM     28  C   UNL A   1      34.719  24.172  24.399  1.00  0.00     0.188 C 
BRANCH  28  29
ATOM     29  O   UNL A   1      35.977  23.779  24.936  1.00  0.00    -0.376 OA
BRANCH  29  30
ATOM     30  C   UNL A   1      36.783  22.977  24.070  1.00  0.00     0.202 C 
BRANCH  30  31
ATOM     31  C   UNL A   1      37.579  21.852  24.764  1.00  0.00     0.261 C 
BRANCH  31  32
ATOM     32  O   UNL A   1      37.907  22.083  26.151  1.00  0.00    -0.460 OA
BRANCH  32  33
ATOM     33  C   UNL A   1      39.212  22.337  26.404  1.00  0.00     0.338 C 
ATOM     34  O   UNL A   1      40.140  21.604  26.113  1.00  0.00    -0.246 OA
BRANCH  33  35
ATOM     35  C   UNL A   1      39.399  23.731  26.861  1.00  0.00     0.060 A 
ATOM     36  C   UNL A   1      39.810  24.670  25.906  1.00  0.00     0.016 A 
ATOM     37  C   UNL A   1      39.173  24.133  28.177  1.00  0.00     0.016 A 
ATOM     38  C   UNL A   1      40.034  25.997  26.259  1.00  0.00     0.010 A 
ATOM     39  C   UNL A   1      39.404  25.466  28.537  1.00  0.00     0.010 A 
ATOM     40  C   UNL A   1      39.861  26.398  27.585  1.00  0.00    -0.014 A 
BRANCH  40  41
ATOM     41  C   UNL A   1      40.314  27.748  28.002  1.00  0.00     0.031 A 
ATOM     42  C   UNL A   1      41.772  28.090  27.861  1.00  0.00     0.074 A 
ATOM     43  C   UNL A   1      39.440  28.670  28.445  1.00  0.00     0.049 A 
ATOM     44  N   UNL A   1      42.412  29.171  28.220  1.00  0.00    -0.248 NA
ATOM     45  C   UNL A   1      42.619  27.069  27.225  1.00  0.00     0.031 C 
ATOM     46  C   UNL A   1      37.994  28.481  28.549  1.00  0.00     0.029 A 
ATOM     47  N   UNL A   1      39.644  29.953  28.889  1.00  0.00    -0.354 N 
ATOM     48  C   UNL A   1      43.739  28.959  27.865  1.00  0.00     0.074 A 
ATOM     49  C   UNL A   1      43.815  27.632  27.290  1.00  0.00     0.031 C 
ATOM     50  C   UNL A   1      37.442  29.607  29.036  1.00  0.00     0.029 A 
ATOM     51  C   UNL A   1      38.498  30.576  29.322  1.00  0.00     0.049 A 
ATOM     52  H   UNL A   1      40.529  30.385  28.896  1.00  0.00     0.167 HD
ATOM     53  C   UNL A   1      44.797  29.796  28.001  1.00  0.00     0.034 A 
ATOM     54  C   UNL A   1      38.328  31.777  29.914  1.00  0.00     0.034 A 
ATOM     55  C   UNL A   1      44.707  31.112  28.585  1.00  0.00     0.049 A 
ATOM     56  C   UNL A   1      39.537  32.651  30.152  1.00  0.00     0.074 A 
ATOM     57  C   UNL A   1      45.716  32.037  28.789  1.00  0.00     0.029 A 
ATOM     58  N   UNL A   1      43.538  31.687  29.069  1.00  0.00    -0.354 N 
ATOM     59  N   UNL A   1      40.793  32.428  29.842  1.00  0.00    -0.248 NA
ATOM     60  C   UNL A   1      39.303  33.939  30.819  1.00  0.00     0.031 C 
ATOM     61  C   UNL A   1      45.171  33.141  29.453  1.00  0.00     0.029 A 
ATOM     62  C   UNL A   1      43.806  32.940  29.597  1.00  0.00     0.049 A 
ATOM     63  H   UNL A   1      42.649  31.266  29.040  1.00  0.00     0.167 HD
ATOM     64  C   UNL A   1      41.493  33.560  30.253  1.00  0.00     0.074 A 
ATOM     65  C   UNL A   1      40.518  34.468  30.819  1.00  0.00     0.031 C 
ATOM     66  C   UNL A   1      42.822  33.829  30.167  1.00  0.00     0.034 A 
BRANCH  53  67
ATOM     67  C   UNL A   1      46.145  29.275  27.568  1.00  0.00     0.023 A 
ATOM     68  C   UNL A   1      46.429  28.977  26.224  1.00  0.00     0.031 A 
ATOM     69  C   UNL A   1      47.145  29.027  28.524  1.00  0.00     0.131 A 
ATOM     70  C   UNL A   1      47.654  28.381  25.885  1.00  0.00     0.055 A 
ATOM     71  C   UNL A   1      48.391  28.508  28.170  1.00  0.00     0.041 A 
ATOM     72  F   UNL A   1      46.920  29.266  29.827  1.00  0.00    -0.206 F 
ATOM     73  C   UNL A   1      48.646  28.167  26.845  1.00  0.00     0.022 A 
BRANCH  70  74
ATOM     74  S   UNL A   1      47.874  27.750  24.198  1.00  0.00     0.124 S 
ATOM     75  O   UNL A   1      49.315  27.910  24.009  1.00  0.00    -0.237 OA
ATOM     76  O   UNL A   1      47.394  26.377  24.309  1.00  0.00    -0.237 OA
ATOM     77  O   UNL A   1      47.045  28.639  23.387  1.00  0.00    -0.744 OA
ENDBRANCH  70  74
ENDBRANCH  53  67
BRANCH  54  78
ATOM     78  C   UNL A   1      36.979  32.205  30.386  1.00  0.00     0.023 A 
ATOM     79  C   UNL A   1      36.075  32.853  29.529  1.00  0.00     0.031 A 
ATOM     80  C   UNL A   1      36.601  32.032  31.730  1.00  0.00     0.131 A 
ATOM     81  C   UNL A   1      34.860  33.344  30.035  1.00  0.00     0.055 A 
ATOM     82  C   UNL A   1      35.368  32.472  32.216  1.00  0.00     0.041 A 
ATOM     83  F   UNL A   1      37.429  31.425  32.596  1.00  0.00    -0.206 F 
ATOM     84  C   UNL A   1      34.495  33.145  31.368  1.00  0.00     0.022 A 
BRANCH  81  85
ATOM     85  S   UNL A   1      33.796  34.329  28.944  1.00  0.00     0.124 S 
ATOM     86  O   UNL A   1      32.804  34.842  29.881  1.00  0.00    -0.237 OA
ATOM     87  O   UNL A   1      34.737  35.307  28.406  1.00  0.00    -0.237 OA
ATOM     88  O   UNL A   1      33.298  33.351  27.980  1.00  0.00    -0.744 OA
ENDBRANCH  81  85
ENDBRANCH  54  78
BRANCH  66  89
ATOM     89  C   UNL A   1      43.282  35.180  30.658  1.00  0.00     0.023 A 
ATOM     90  C   UNL A   1      43.343  36.297  29.805  1.00  0.00     0.031 A 
ATOM     91  C   UNL A   1      43.673  35.348  31.998  1.00  0.00     0.131 A 
ATOM     92  C   UNL A   1      43.832  37.519  30.291  1.00  0.00     0.055 A 
ATOM     93  C   UNL A   1      44.106  36.580  32.489  1.00  0.00     0.041 A 
ATOM     94  F   UNL A   1      43.633  34.315  32.855  1.00  0.00    -0.206 F 
ATOM     95  C   UNL A   1      44.199  37.671  31.630  1.00  0.00     0.022 A 
BRANCH  92  96
ATOM     96  S   UNL A   1      44.061  38.892  29.127  1.00  0.00     0.124 S 
ATOM     97  O   UNL A   1      44.515  39.963  30.007  1.00  0.00    -0.237 OA
ATOM     98  O   UNL A   1      45.059  38.358  28.206  1.00  0.00    -0.237 OA
ATOM     99  O   UNL A   1      42.731  39.082  28.554  1.00  0.00    -0.744 OA
ENDBRANCH  92  96
ENDBRANCH  66  89
ENDBRANCH  40  41
ENDBRANCH  33  35
ENDBRANCH  32  33
ENDBRANCH  31  32
ENDBRANCH  30  31
ENDBRANCH  29  30
ENDBRANCH  28  29
ENDBRANCH   1  28
TORSDOF 25
ENDMDL
MODEL 2
REMARK VINA RESULT:     -10.4      1.373      7.432
REMARK SMILES [NH3+][C@H](C(=O)OCCOCCOCCOC(=O)c1ccc(-c2c3nc(c(-c4cc(S(=O)(=O)[O-])ccc4F)c4ccc([nH]4)c(-c4cc(S(=O)(=O)[O-])ccc4F)c4nc(c(-c5cc(S(=O)(=O)[O-])ccc5F)c5ccc2[nH]5)C=C4)C=C3)cc1)c1ccc(OCC(=O)N2CCCC2)cc1
REMARK SMILES IDX 9 1 8 2 7 3 6 4 5 5 3 6 4 7 2 8 1 9 80 13 81 14 94 15 82 16
REMARK SMILES IDX 93 17 83 18 84 19 85 20 86 21 87 22 88 23 89 24 92 25 90 26
REMARK SMILES IDX 91 27 10 28 11 29 12 30 13 31 14 32 15 33 16 34 17 35 18 36
REMARK SMILES IDX 79 37 19 38 78 39 20 40 21 41 22 42 72 43 23 44 77 45 71 46
REMARK SMILES IDX 73 47 24 48 76 49 70 50 69 51 25 53 57 54 37 55 56 56 38 57
REMARK SMILES IDX 41 58 55 59 74 60 39 61 40 62 54 64 75 65 42 66 26 67 27 68
REMARK SMILES IDX 35 69 28 70 34 71 36 72 33 73 29 74 30 75 31 76 32 77 58 78
REMARK SMILES IDX 59 79 67 80 60 81 66 82 68 83 65 84 61 85 62 86 63 87 64 88
REMARK SMILES IDX 43 89 44 90 52 91 45 92 51 93 53 94 50 95 46 96 47 97 48 98
REMARK SMILES IDX 49 99
REMARK H PARENT 1 10 1 11 1 12 73 52 41 63
REMARK Flexibility Score: inf
ROOT
ATOM      1  C   UNL A   1      34.403  24.719  23.867  1.00  0.00     0.188 C 
ENDROOT
BRANCH   1   2
ATOM      2  O   UNL A   1      33.435  25.619  23.344  1.00  0.00    -0.376 OA
BRANCH   2   3
ATOM      3  C   UNL A   1      33.775  27.003  23.354  1.00  0.00     0.202 C 
BRANCH   3   4
ATOM      4  C   UNL A   1      32.665  28.005  22.998  1.00  0.00     0.261 C 
BRANCH   4   5
ATOM      5  O   UNL A   1      31.581  27.473  22.203  1.00  0.00    -0.459 OA
BRANCH   5   6
ATOM      6  C   UNL A   1      30.338  27.871  22.584  1.00  0.00     0.369 C 
ATOM      7  O   UNL A   1      29.703  28.758  22.008  1.00  0.00    -0.245 OA
BRANCH   6   8
ATOM      8  C   UNL A   1      29.694  27.114  23.773  1.00  0.00     0.323 C 
BRANCH   8   9
ATOM      9  N   UNL A   1      28.232  27.033  23.494  1.00  0.00    -0.342 N 
ATOM     10  H   UNL A   1      28.001  27.641  22.708  1.00  0.00     0.345 HD
ATOM     11  H   UNL A   1      27.711  27.331  24.319  1.00  0.00     0.345 HD
ATOM     12  H   UNL A   1      27.982  26.071  23.265  1.00  0.00     0.345 HD
ENDBRANCH   8   9
BRANCH   8  13
ATOM     13  C   UNL A   1      30.259  25.779  24.262  1.00  0.00     0.021 A 
ATOM     14  C   UNL A   1      30.278  24.649  23.423  1.00  0.00     0.014 A 
ATOM     15  C   UNL A   1      30.598  25.570  25.609  1.00  0.00     0.014 A 
ATOM     16  C   UNL A   1      30.651  23.387  23.900  1.00  0.00     0.047 A 
ATOM     17  C   UNL A   1      30.983  24.298  26.085  1.00  0.00     0.047 A 
ATOM     18  C   UNL A   1      31.024  23.203  25.228  1.00  0.00     0.120 A 
BRANCH  18  19
ATOM     19  O   UNL A   1      31.422  21.932  25.524  1.00  0.00    -0.484 OA
BRANCH  19  20
ATOM     20  C   UNL A   1      32.408  21.320  24.717  1.00  0.00     0.329 C 
BRANCH  20  21
ATOM     21  C   UNL A   1      33.121  20.076  25.268  1.00  0.00     0.260 C 
ATOM     22  O   UNL A   1      33.588  20.083  26.412  1.00  0.00    -0.271 OA
ATOM     23  N   UNL A   1      33.150  18.943  24.484  1.00  0.00    -0.340 N 
ATOM     24  C   UNL A   1      32.666  18.806  23.116  1.00  0.00     0.119 C 
ATOM     25  C   UNL A   1      33.777  17.726  24.952  1.00  0.00     0.119 C 
ATOM     26  C   UNL A   1      32.880  17.335  22.773  1.00  0.00     0.023 C 
ATOM     27  C   UNL A   1      34.002  16.891  23.703  1.00  0.00     0.023 C 
ENDBRANCH  20  21
ENDBRANCH  19  20
ENDBRANCH  18  19
ENDBRANCH   8  13
ENDBRANCH   6   8
ENDBRANCH   5   6
ENDBRANCH   4   5
ENDBRANCH   3   4
ENDBRANCH   2   3
ENDBRANCH   1   2
BRANCH   1  28
ATOM     28  C   UNL A   1      34.569  24.664  25.390  1.00  0.00     0.188 C 
BRANCH  28  29
ATOM     29  O   UNL A   1      35.433  23.645  25.880  1.00  0.00    -0.376 OA
BRANCH  29  30
ATOM     30  C   UNL A   1      35.767  22.625  24.935  1.00  0.00     0.202 C 
BRANCH  30  31
ATOM     31  C   UNL A   1      36.770  21.565  25.436  1.00  0.00     0.261 C 
BRANCH  31  32
ATOM     32  O   UNL A   1      38.152  21.797  25.085  1.00  0.00    -0.460 OA
BRANCH  32  33
ATOM     33  C   UNL A   1      39.052  21.509  26.053  1.00  0.00     0.338 C 
ATOM     34  O   UNL A   1      39.507  20.404  26.283  1.00  0.00    -0.246 OA
BRANCH  33  35
ATOM     35  C   UNL A   1      39.605  22.747  26.643  1.00  0.00     0.060 A 
ATOM     36  C   UNL A   1      39.129  23.966  26.143  1.00  0.00     0.016 A 
ATOM     37  C   UNL A   1      40.553  22.739  27.666  1.00  0.00     0.016 A 
ATOM     38  C   UNL A   1      39.616  25.176  26.627  1.00  0.00     0.010 A 
ATOM     39  C   UNL A   1      41.051  23.955  28.152  1.00  0.00     0.010 A 
ATOM     40  C   UNL A   1      40.604  25.178  27.615  1.00  0.00    -0.014 A 
BRANCH  40  41
ATOM     41  C   UNL A   1      41.280  26.452  27.965  1.00  0.00     0.031 A 
ATOM     42  C   UNL A   1      40.487  27.511  28.680  1.00  0.00     0.074 A 
ATOM     43  C   UNL A   1      42.586  26.642  27.704  1.00  0.00     0.049 A 
ATOM     44  N   UNL A   1      40.836  28.722  29.025  1.00  0.00    -0.248 NA
ATOM     45  C   UNL A   1      39.112  27.148  29.056  1.00  0.00     0.031 C 
ATOM     46  C   UNL A   1      43.476  25.658  27.089  1.00  0.00     0.029 A 
ATOM     47  N   UNL A   1      43.391  27.731  27.926  1.00  0.00    -0.354 N 
ATOM     48  C   UNL A   1      39.723  29.272  29.649  1.00  0.00     0.074 A 
ATOM     49  C   UNL A   1      38.678  28.270  29.607  1.00  0.00     0.031 C 
ATOM     50  C   UNL A   1      44.704  26.194  26.975  1.00  0.00     0.029 A 
ATOM     51  C   UNL A   1      44.676  27.570  27.464  1.00  0.00     0.049 A 
ATOM     52  H   UNL A   1      43.078  28.549  28.375  1.00  0.00     0.167 HD
ATOM     53  C   UNL A   1      39.586  30.499  30.211  1.00  0.00     0.034 A 
ATOM     54  C   UNL A   1      45.700  28.449  27.409  1.00  0.00     0.034 A 
ATOM     55  C   UNL A   1      40.634  31.489  30.236  1.00  0.00     0.049 A 
ATOM     56  C   UNL A   1      45.493  29.845  27.946  1.00  0.00     0.074 A 
ATOM     57  C   UNL A   1      40.600  32.769  30.762  1.00  0.00     0.029 A 
ATOM     58  N   UNL A   1      41.906  31.314  29.703  1.00  0.00    -0.354 N 
ATOM     59  N   UNL A   1      44.425  30.367  28.506  1.00  0.00    -0.248 NA
ATOM     60  C   UNL A   1      46.630  30.770  27.844  1.00  0.00     0.031 C 
ATOM     61  C   UNL A   1      41.825  33.387  30.490  1.00  0.00     0.029 A 
ATOM     62  C   UNL A   1      42.653  32.470  29.861  1.00  0.00     0.049 A 
ATOM     63  H   UNL A   1      42.228  30.487  29.277  1.00  0.00     0.167 HD
ATOM     64  C   UNL A   1      44.774  31.672  28.846  1.00  0.00     0.074 A 
ATOM     65  C   UNL A   1      46.153  31.852  28.442  1.00  0.00     0.031 C 
ATOM     66  C   UNL A   1      44.025  32.635  29.442  1.00  0.00     0.034 A 
BRANCH  53  67
ATOM     67  C   UNL A   1      38.233  30.847  30.778  1.00  0.00     0.023 A 
ATOM     68  C   UNL A   1      37.243  31.479  30.005  1.00  0.00     0.031 A 
ATOM     69  C   UNL A   1      37.946  30.586  32.130  1.00  0.00     0.131 A 
ATOM     70  C   UNL A   1      36.045  31.893  30.606  1.00  0.00     0.055 A 
ATOM     71  C   UNL A   1      36.721  30.929  32.703  1.00  0.00     0.041 A 
ATOM     72  F   UNL A   1      38.863  30.010  32.924  1.00  0.00    -0.206 F 
ATOM     73  C   UNL A   1      35.766  31.601  31.944  1.00  0.00     0.022 A 
BRANCH  70  74
ATOM     74  S   UNL A   1      34.918  32.952  29.657  1.00  0.00     0.124 S 
ATOM     75  O   UNL A   1      34.325  31.994  28.727  1.00  0.00    -0.237 OA
ATOM     76  O   UNL A   1      34.029  33.473  30.690  1.00  0.00    -0.237 OA
ATOM     77  O   UNL A   1      35.807  33.937  29.043  1.00  0.00    -0.744 OA
ENDBRANCH  70  74
ENDBRANCH  53  67
BRANCH  54  78
ATOM     78  C   UNL A   1      46.993  28.067  26.768  1.00  0.00     0.023 A 
ATOM     79  C   UNL A   1      47.144  28.063  25.373  1.00  0.00     0.031 A 
ATOM     80  C   UNL A   1      48.079  27.631  27.549  1.00  0.00     0.131 A 
ATOM     81  C   UNL A   1      48.336  27.590  24.799  1.00  0.00     0.055 A 
ATOM     82  C   UNL A   1      49.282  27.214  26.976  1.00  0.00     0.041 A 
ATOM     83  F   UNL A   1      47.987  27.607  28.889  1.00  0.00    -0.206 F 
ATOM     84  C   UNL A   1      49.410  27.179  25.592  1.00  0.00     0.022 A 
BRANCH  81  85
ATOM     85  S   UNL A   1      48.432  27.433  22.994  1.00  0.00     0.124 S 
ATOM     86  O   UNL A   1      47.302  28.250  22.565  1.00  0.00    -0.237 OA
ATOM     87  O   UNL A   1      49.758  27.974  22.713  1.00  0.00    -0.237 OA
ATOM     88  O   UNL A   1      48.286  25.997  22.769  1.00  0.00    -0.744 OA
ENDBRANCH  81  85
ENDBRANCH  54  78
BRANCH  66  89
ATOM     89  C   UNL A   1      44.703  33.952  29.732  1.00  0.00     0.023 A 
ATOM     90  C   UNL A   1      44.695  35.010  28.806  1.00  0.00     0.031 A 
ATOM     91  C   UNL A   1      45.376  34.145  30.952  1.00  0.00     0.131 A 
ATOM     92  C   UNL A   1      45.387  36.196  29.095  1.00  0.00     0.055 A 
ATOM     93  C   UNL A   1      46.016  35.346  31.257  1.00  0.00     0.041 A 
ATOM     94  F   UNL A   1      45.414  33.168  31.872  1.00  0.00    -0.206 F 
ATOM     95  C   UNL A   1      46.035  36.376  30.320  1.00  0.00     0.022 A 
BRANCH  92  96
ATOM     96  S   UNL A   1      45.502  37.474  27.813  1.00  0.00     0.124 S 
ATOM     97  O   UNL A   1      44.237  38.182  27.975  1.00  0.00    -0.237 OA
ATOM     98  O   UNL A   1      46.699  38.209  28.211  1.00  0.00    -0.237 OA
ATOM     99  O   UNL A   1      45.630  36.709  26.575  1.00  0.00    -0.744 OA
ENDBRANCH  92  96
ENDBRANCH  66  89
ENDBRANCH  40  41
ENDBRANCH  33  35
ENDBRANCH  32  33
ENDBRANCH  31  32
ENDBRANCH  30  31
ENDBRANCH  29  30
ENDBRANCH  28  29
ENDBRANCH   1  28
TORSDOF 25
ENDMDL
MODEL 3
REMARK VINA RESULT:      -9.8      2.996      3.636
REMARK SMILES [NH3+][C@H](C(=O)OCCOCCOCCOC(=O)c1ccc(-c2c3nc(c(-c4cc(S(=O)(=O)[O-])ccc4F)c4ccc([nH]4)c(-c4cc(S(=O)(=O)[O-])ccc4F)c4nc(c(-c5cc(S(=O)(=O)[O-])ccc5F)c5ccc2[nH]5)C=C4)C=C3)cc1)c1ccc(OCC(=O)N2CCCC2)cc1
REMARK SMILES IDX 9 1 8 2 7 3 6 4 5 5 3 6 4 7 2 8 1 9 80 13 81 14 94 15 82 16
REMARK SMILES IDX 93 17 83 18 84 19 85 20 86 21 87 22 88 23 89 24 92 25 90 26
REMARK SMILES IDX 91 27 10 28 11 29 12 30 13 31 14 32 15 33 16 34 17 35 18 36
REMARK SMILES IDX 79 37 19 38 78 39 20 40 21 41 22 42 72 43 23 44 77 45 71 46
REMARK SMILES IDX 73 47 24 48 76 49 70 50 69 51 25 53 57 54 37 55 56 56 38 57
REMARK SMILES IDX 41 58 55 59 74 60 39 61 40 62 54 64 75 65 42 66 26 67 27 68
REMARK SMILES IDX 35 69 28 70 34 71 36 72 33 73 29 74 30 75 31 76 32 77 58 78
REMARK SMILES IDX 59 79 67 80 60 81 66 82 68 83 65 84 61 85 62 86 63 87 64 88
REMARK SMILES IDX 43 89 44 90 52 91 45 92 51 93 53 94 50 95 46 96 47 97 48 98
REMARK SMILES IDX 49 99
REMARK H PARENT 1 10 1 11 1 12 73 52 41 63
REMARK Flexibility Score: inf
ROOT
ATOM      1  C   UNL A   1      34.662  25.135  24.684  1.00  0.00     0.188 C 
ENDROOT
BRANCH   1   2
ATOM      2  O   UNL A   1      33.499  25.760  24.158  1.00  0.00    -0.376 OA
BRANCH   2   3
ATOM      3  C   UNL A   1      33.269  27.113  24.545  1.00  0.00     0.202 C 
BRANCH   3   4
ATOM      4  C   UNL A   1      31.881  27.458  25.110  1.00  0.00     0.261 C 
BRANCH   4   5
ATOM      5  O   UNL A   1      30.786  27.356  24.171  1.00  0.00    -0.459 OA
BRANCH   5   6
ATOM      6  C   UNL A   1      29.865  26.399  24.463  1.00  0.00     0.369 C 
ATOM      7  O   UNL A   1      28.766  26.324  23.906  1.00  0.00    -0.245 OA
BRANCH   6   8
ATOM      8  C   UNL A   1      30.270  25.334  25.513  1.00  0.00     0.323 C 
BRANCH   8   9
ATOM      9  N   UNL A   1      29.113  25.179  26.440  1.00  0.00    -0.342 N 
ATOM     10  H   UNL A   1      28.432  24.539  26.030  1.00  0.00     0.345 HD
ATOM     11  H   UNL A   1      28.676  26.087  26.594  1.00  0.00     0.345 HD
ATOM     12  H   UNL A   1      29.440  24.803  27.331  1.00  0.00     0.345 HD
ENDBRANCH   8   9
BRANCH   8  13
ATOM     13  C   UNL A   1      30.851  23.984  25.089  1.00  0.00     0.021 A 
ATOM     14  C   UNL A   1      31.516  23.158  26.015  1.00  0.00     0.014 A 
ATOM     15  C   UNL A   1      30.920  23.600  23.740  1.00  0.00     0.014 A 
ATOM     16  C   UNL A   1      32.182  21.994  25.615  1.00  0.00     0.047 A 
ATOM     17  C   UNL A   1      31.583  22.421  23.340  1.00  0.00     0.047 A 
ATOM     18  C   UNL A   1      32.207  21.605  24.280  1.00  0.00     0.120 A 
BRANCH  18  19
ATOM     19  O   UNL A   1      32.839  20.416  24.057  1.00  0.00    -0.484 OA
BRANCH  19  20
ATOM     20  C   UNL A   1      33.454  19.756  25.145  1.00  0.00     0.329 C 
BRANCH  20  21
ATOM     21  C   UNL A   1      34.258  18.480  24.853  1.00  0.00     0.260 C 
ATOM     22  O   UNL A   1      35.400  18.558  24.385  1.00  0.00    -0.271 OA
ATOM     23  N   UNL A   1      33.702  17.268  25.199  1.00  0.00    -0.340 N 
ATOM     24  C   UNL A   1      32.365  17.031  25.727  1.00  0.00     0.119 C 
ATOM     25  C   UNL A   1      34.416  16.028  24.980  1.00  0.00     0.119 C 
ATOM     26  C   UNL A   1      32.312  15.530  25.996  1.00  0.00     0.023 C 
ATOM     27  C   UNL A   1      33.356  14.943  25.055  1.00  0.00     0.023 C 
ENDBRANCH  20  21
ENDBRANCH  19  20
ENDBRANCH  18  19
ENDBRANCH   8  13
ENDBRANCH   6   8
ENDBRANCH   5   6
ENDBRANCH   4   5
ENDBRANCH   3   4
ENDBRANCH   2   3
ENDBRANCH   1   2
BRANCH   1  28
ATOM     28  C   UNL A   1      35.144  23.849  24.004  1.00  0.00     0.188 C 
BRANCH  28  29
ATOM     29  O   UNL A   1      36.351  23.295  24.515  1.00  0.00    -0.376 OA
BRANCH  29  30
ATOM     30  C   UNL A   1      36.730  22.039  23.947  1.00  0.00     0.202 C 
BRANCH  30  31
ATOM     31  C   UNL A   1      37.625  21.155  24.842  1.00  0.00     0.261 C 
BRANCH  31  32
ATOM     32  O   UNL A   1      38.042  21.749  26.090  1.00  0.00    -0.460 OA
BRANCH  32  33
ATOM     33  C   UNL A   1      39.348  21.588  26.402  1.00  0.00     0.338 C 
ATOM     34  O   UNL A   1      40.018  20.606  26.138  1.00  0.00    -0.246 OA
BRANCH  33  35
ATOM     35  C   UNL A   1      39.934  22.855  26.891  1.00  0.00     0.060 A 
ATOM     36  C   UNL A   1      39.417  24.046  26.365  1.00  0.00     0.016 A 
ATOM     37  C   UNL A   1      40.951  22.899  27.844  1.00  0.00     0.016 A 
ATOM     38  C   UNL A   1      39.930  25.280  26.753  1.00  0.00     0.010 A 
ATOM     39  C   UNL A   1      41.474  24.139  28.232  1.00  0.00     0.010 A 
ATOM     40  C   UNL A   1      40.985  25.333  27.668  1.00  0.00    -0.014 A 
BRANCH  40  41
ATOM     41  C   UNL A   1      41.676  26.624  27.907  1.00  0.00     0.031 A 
ATOM     42  C   UNL A   1      43.080  26.791  27.395  1.00  0.00     0.074 A 
ATOM     43  C   UNL A   1      41.049  27.648  28.515  1.00  0.00     0.049 A 
ATOM     44  N   UNL A   1      43.907  27.792  27.542  1.00  0.00    -0.248 NA
ATOM     45  C   UNL A   1      43.621  25.670  26.610  1.00  0.00     0.031 C 
ATOM     46  C   UNL A   1      39.664  27.631  28.983  1.00  0.00     0.029 A 
ATOM     47  N   UNL A   1      41.500  28.901  28.845  1.00  0.00    -0.354 N 
ATOM     48  C   UNL A   1      45.070  27.421  26.877  1.00  0.00     0.074 A 
ATOM     49  C   UNL A   1      44.850  26.089  26.354  1.00  0.00     0.031 C 
ATOM     50  C   UNL A   1      39.381  28.819  29.547  1.00  0.00     0.029 A 
ATOM     51  C   UNL A   1      40.576  29.660  29.524  1.00  0.00     0.049 A 
ATOM     52  H   UNL A   1      42.401  29.226  28.616  1.00  0.00     0.167 HD
ATOM     53  C   UNL A   1      46.215  28.129  26.714  1.00  0.00     0.034 A 
ATOM     54  C   UNL A   1      40.695  30.878  30.092  1.00  0.00     0.034 A 
ATOM     55  C   UNL A   1      46.422  29.452  27.251  1.00  0.00     0.049 A 
ATOM     56  C   UNL A   1      42.015  31.606  29.989  1.00  0.00     0.074 A 
ATOM     57  C   UNL A   1      47.547  30.254  27.162  1.00  0.00     0.029 A 
ATOM     58  N   UNL A   1      45.484  30.166  27.986  1.00  0.00    -0.354 N 
ATOM     59  N   UNL A   1      43.120  31.233  29.386  1.00  0.00    -0.248 NA
ATOM     60  C   UNL A   1      42.101  32.919  30.643  1.00  0.00     0.031 C 
ATOM     61  C   UNL A   1      47.312  31.421  27.897  1.00  0.00     0.029 A 
ATOM     62  C   UNL A   1      46.014  31.384  28.382  1.00  0.00     0.049 A 
ATOM     63  H   UNL A   1      44.574  29.852  28.195  1.00  0.00     0.167 HD
ATOM     64  C   UNL A   1      44.023  32.279  29.567  1.00  0.00     0.074 A 
ATOM     65  C   UNL A   1      43.329  33.301  30.321  1.00  0.00     0.031 C 
ATOM     66  C   UNL A   1      45.309  32.388  29.144  1.00  0.00     0.034 A 
BRANCH  53  67
ATOM     67  C   UNL A   1      47.345  27.449  25.982  1.00  0.00     0.023 A 
ATOM     68  C   UNL A   1      48.321  26.695  26.658  1.00  0.00     0.031 A 
ATOM     69  C   UNL A   1      47.474  27.598  24.590  1.00  0.00     0.131 A 
ATOM     70  C   UNL A   1      49.420  26.182  25.952  1.00  0.00     0.055 A 
ATOM     71  C   UNL A   1      48.527  27.018  23.881  1.00  0.00     0.041 A 
ATOM     72  F   UNL A   1      46.587  28.330  23.896  1.00  0.00    -0.206 F 
ATOM     73  C   UNL A   1      49.517  26.317  24.564  1.00  0.00     0.022 A 
BRANCH  70  74
ATOM     74  S   UNL A   1      50.797  25.466  26.890  1.00  0.00     0.124 S 
ATOM     75  O   UNL A   1      50.131  24.385  27.615  1.00  0.00    -0.237 OA
ATOM     76  O   UNL A   1      51.718  25.055  25.837  1.00  0.00    -0.237 OA
ATOM     77  O   UNL A   1      51.257  26.574  27.725  1.00  0.00    -0.744 OA
ENDBRANCH  70  74
ENDBRANCH  53  67
BRANCH  54  78
ATOM     78  C   UNL A   1      39.564  31.467  30.867  1.00  0.00     0.023 A 
ATOM     79  C   UNL A   1      39.533  31.416  32.270  1.00  0.00     0.031 A 
ATOM     80  C   UNL A   1      38.457  32.030  30.206  1.00  0.00     0.131 A 
ATOM     81  C   UNL A   1      38.402  31.877  32.962  1.00  0.00     0.055 A 
ATOM     82  C   UNL A   1      37.359  32.538  30.901  1.00  0.00     0.041 A 
ATOM     83  F   UNL A   1      38.431  32.098  28.864  1.00  0.00    -0.206 F 
ATOM     84  C   UNL A   1      37.321  32.450  32.288  1.00  0.00     0.022 A 
BRANCH  81  85
ATOM     85  S   UNL A   1      38.321  31.635  34.759  1.00  0.00     0.124 S 
ATOM     86  O   UNL A   1      38.567  30.202  34.876  1.00  0.00    -0.237 OA
ATOM     87  O   UNL A   1      39.389  32.510  35.231  1.00  0.00    -0.237 OA
ATOM     88  O   UNL A   1      36.967  32.065  35.100  1.00  0.00    -0.744 OA
ENDBRANCH  81  85
ENDBRANCH  54  78
BRANCH  66  89
ATOM     89  C   UNL A   1      46.026  33.680  29.452  1.00  0.00     0.023 A 
ATOM     90  C   UNL A   1      46.792  33.842  30.620  1.00  0.00     0.031 A 
ATOM     91  C   UNL A   1      45.933  34.767  28.565  1.00  0.00     0.131 A 
ATOM     92  C   UNL A   1      47.394  35.080  30.894  1.00  0.00     0.055 A 
ATOM     93  C   UNL A   1      46.579  35.978  28.815  1.00  0.00     0.041 A 
ATOM     94  F   UNL A   1      45.215  34.666  27.435  1.00  0.00    -0.206 F 
ATOM     95  C   UNL A   1      47.304  36.144  29.991  1.00  0.00     0.022 A 
BRANCH  92  96
ATOM     96  S   UNL A   1      48.229  35.312  32.487  1.00  0.00     0.124 S 
ATOM     97  O   UNL A   1      49.313  34.337  32.406  1.00  0.00    -0.237 OA
ATOM     98  O   UNL A   1      48.629  36.714  32.430  1.00  0.00    -0.237 OA
ATOM     99  O   UNL A   1      47.191  35.004  33.468  1.00  0.00    -0.744 OA
ENDBRANCH  92  96
ENDBRANCH  66  89
ENDBRANCH  40  41
ENDBRANCH  33  35
ENDBRANCH  32  33
ENDBRANCH  31  32
ENDBRANCH  30  31
ENDBRANCH  29  30
ENDBRANCH  28  29
ENDBRANCH   1  28
TORSDOF 25
ENDMDL
