MODEL 1
REMARK VINA RESULT:     -11.2      0.000      0.000
REMARK SMILES CC1(C)Oc2ccc(NC(=O)[C@H]3CC=CC[C@@H]3C(=O)OCCOCCOCCOC(=O)c3ccc(-c4c5nc(c(-c6cc(S(=O)(=O)[O-])ccc6F)c6ccc([nH]6)c(-c6cc(S(=O)(=O)[O-])ccc6F)c6nc(c(-c7cc(S(=O)(=O)[O-])ccc7F)c7ccc4[nH]7)C=C6)C=C5)cc3)cc2NC1=O
REMARK SMILES IDX 25 1 24 2 23 3 22 4 21 5 20 6 18 7 19 8 17 9 12 10 13 11
REMARK SMILES IDX 14 12 16 13 15 14 10 15 9 16 11 18 8 19 1 20 2 21 3 22 4 23
REMARK SMILES IDX 98 24 5 25 97 26 99 27 6 28 96 29 7 31 95 32 26 33 27 34
REMARK SMILES IDX 28 35 29 36 30 37 31 38 32 39 33 40 94 41 34 42 93 43 35 44
REMARK SMILES IDX 36 45 37 46 87 47 38 48 92 49 86 50 88 51 39 52 91 53 85 54
REMARK SMILES IDX 84 55 40 57 72 58 52 59 71 60 53 61 56 62 70 63 89 64 54 65
REMARK SMILES IDX 55 66 69 68 90 69 57 70 41 71 42 72 50 73 43 74 49 75 51 76
REMARK SMILES IDX 48 77 44 78 45 79 46 80 47 81 73 82 74 83 82 84 75 85 81 86
REMARK SMILES IDX 83 87 80 88 76 89 77 90 78 91 79 92 58 93 59 94 67 95 60 96
REMARK SMILES IDX 66 97 68 98 65 99 61 100 62 101 63 102 64 103
REMARK H PARENT 9 17 97 30 88 56 56 67
REMARK Flexibility Score: inf
ROOT
ATOM      1  C   UNL A   1      34.137  33.699  28.864  1.00  0.00     0.188 C 
ENDROOT
BRANCH   1   2
ATOM      2  C   UNL A   1      34.656  32.453  28.156  1.00  0.00     0.188 C 
BRANCH   2   3
ATOM      3  O   UNL A   1      33.785  31.757  27.268  1.00  0.00    -0.376 OA
BRANCH   3   4
ATOM      4  C   UNL A   1      33.483  30.388  27.497  1.00  0.00     0.202 C 
BRANCH   4   5
ATOM      5  C   UNL A   1      33.757  29.399  26.352  1.00  0.00     0.261 C 
BRANCH   5   6
ATOM      6  O   UNL A   1      32.855  29.450  25.213  1.00  0.00    -0.463 OA
BRANCH   6   7
ATOM      7  C   UNL A   1      32.859  28.349  24.423  1.00  0.00     0.310 C 
ATOM      8  O   UNL A   1      33.486  28.285  23.367  1.00  0.00    -0.252 OA
BRANCH   7   9
ATOM      9  C   UNL A   1      32.087  27.128  24.923  1.00  0.00     0.116 C 
ATOM     10  C   UNL A   1      32.620  25.663  24.831  1.00  0.00     0.097 C 
ATOM     11  C   UNL A   1      32.294  25.018  23.475  1.00  0.00     0.041 C 
ATOM     12  C   UNL A   1      30.832  25.122  23.185  1.00  0.00    -0.030 C 
ATOM     13  C   UNL A   1      30.606  27.250  24.498  1.00  0.00     0.043 C 
ATOM     14  C   UNL A   1      30.075  26.109  23.680  1.00  0.00    -0.030 C 
BRANCH  10  15
ATOM     15  C   UNL A   1      31.910  24.854  25.964  1.00  0.00     0.228 C 
ATOM     16  N   UNL A   1      31.697  23.509  25.848  1.00  0.00    -0.326 N 
ATOM     17  H   UNL A   1      30.808  23.204  26.144  1.00  0.00     0.169 HD
ATOM     18  O   UNL A   1      31.428  25.407  26.957  1.00  0.00    -0.274 OA
BRANCH  16  19
ATOM     19  C   UNL A   1      32.538  22.493  25.377  1.00  0.00     0.043 A 
ATOM     20  C   UNL A   1      34.363  16.655  24.082  1.00  0.00     0.067 C 
ATOM     21  C   UNL A   1      33.563  17.934  24.322  1.00  0.00     0.182 C 
ATOM     22  C   UNL A   1      32.637  17.702  25.539  1.00  0.00     0.067 C 
ATOM     23  O   UNL A   1      34.525  18.961  24.620  1.00  0.00    -0.476 OA
ATOM     24  C   UNL A   1      32.701  18.297  23.089  1.00  0.00     0.268 C 
ATOM     25  C   UNL A   1      33.919  20.186  24.742  1.00  0.00     0.144 A 
ATOM     26  N   UNL A   1      32.255  19.602  23.096  1.00  0.00    -0.319 N 
ATOM     27  O   UNL A   1      32.337  17.493  22.236  1.00  0.00    -0.270 OA
ATOM     28  C   UNL A   1      34.462  21.057  25.673  1.00  0.00     0.051 A 
ATOM     29  C   UNL A   1      32.757  20.513  24.033  1.00  0.00     0.086 A 
ATOM     30  H   UNL A   1      31.580  19.895  22.441  1.00  0.00     0.170 HD
ATOM     31  C   UNL A   1      33.752  22.202  26.011  1.00  0.00     0.030 A 
ATOM     32  C   UNL A   1      32.069  21.682  24.335  1.00  0.00     0.056 A 
ENDBRANCH  16  19
ENDBRANCH  10  15
ENDBRANCH   7   9
ENDBRANCH   6   7
ENDBRANCH   5   6
ENDBRANCH   4   5
ENDBRANCH   3   4
ENDBRANCH   2   3
ENDBRANCH   1   2
BRANCH   1  33
ATOM     33  O   UNL A   1      35.108  34.296  29.704  1.00  0.00    -0.376 OA
BRANCH  33  34
ATOM     34  C   UNL A   1      34.796  34.336  31.084  1.00  0.00     0.202 C 
BRANCH  34  35
ATOM     35  C   UNL A   1      35.693  33.393  31.893  1.00  0.00     0.261 C 
BRANCH  35  36
ATOM     36  O   UNL A   1      37.080  33.382  31.500  1.00  0.00    -0.460 OA
BRANCH  36  37
ATOM     37  C   UNL A   1      37.852  34.386  31.970  1.00  0.00     0.338 C 
ATOM     38  O   UNL A   1      37.691  34.987  33.030  1.00  0.00    -0.246 OA
BRANCH  37  39
ATOM     39  C   UNL A   1      39.064  34.474  31.128  1.00  0.00     0.060 A 
ATOM     40  C   UNL A   1      39.009  34.732  29.762  1.00  0.00     0.016 A 
ATOM     41  C   UNL A   1      40.303  34.278  31.741  1.00  0.00     0.016 A 
ATOM     42  C   UNL A   1      40.202  34.788  29.025  1.00  0.00     0.010 A 
ATOM     43  C   UNL A   1      41.490  34.319  31.010  1.00  0.00     0.010 A 
ATOM     44  C   UNL A   1      41.455  34.582  29.641  1.00  0.00    -0.014 A 
BRANCH  44  45
ATOM     45  C   UNL A   1      42.725  34.835  28.908  1.00  0.00     0.031 A 
ATOM     46  C   UNL A   1      43.134  36.201  28.432  1.00  0.00     0.074 A 
ATOM     47  C   UNL A   1      43.487  33.769  28.599  1.00  0.00     0.049 A 
ATOM     48  N   UNL A   1      44.277  36.574  27.913  1.00  0.00    -0.248 NA
ATOM     49  C   UNL A   1      42.137  37.278  28.513  1.00  0.00     0.031 C 
ATOM     50  C   UNL A   1      43.109  32.379  28.857  1.00  0.00     0.029 A 
ATOM     51  N   UNL A   1      44.721  33.674  28.005  1.00  0.00    -0.354 N 
ATOM     52  C   UNL A   1      44.154  37.933  27.641  1.00  0.00     0.074 A 
ATOM     53  C   UNL A   1      42.796  38.301  27.977  1.00  0.00     0.031 C 
ATOM     54  C   UNL A   1      44.107  31.575  28.471  1.00  0.00     0.029 A 
ATOM     55  C   UNL A   1      45.192  32.385  27.923  1.00  0.00     0.049 A 
ATOM     56  H   UNL A   1      45.220  34.455  27.671  1.00  0.00     0.167 HD
ATOM     57  C   UNL A   1      45.104  38.791  27.193  1.00  0.00     0.034 A 
ATOM     58  C   UNL A   1      46.374  31.903  27.484  1.00  0.00     0.034 A 
ATOM     59  C   UNL A   1      46.450  38.390  26.857  1.00  0.00     0.049 A 
ATOM     60  C   UNL A   1      47.440  32.878  27.059  1.00  0.00     0.074 A 
ATOM     61  C   UNL A   1      47.514  39.193  26.484  1.00  0.00     0.029 A 
ATOM     62  N   UNL A   1      46.919  37.083  26.844  1.00  0.00    -0.354 N 
ATOM     63  N   UNL A   1      47.374  34.188  26.991  1.00  0.00    -0.248 NA
ATOM     64  C   UNL A   1      48.748  32.326  26.685  1.00  0.00     0.031 C 
ATOM     65  C   UNL A   1      48.600  38.372  26.178  1.00  0.00     0.029 A 
ATOM     66  C   UNL A   1      48.246  37.059  26.445  1.00  0.00     0.049 A 
ATOM     67  H   UNL A   1      46.388  36.290  27.085  1.00  0.00     0.167 HD
ATOM     68  C   UNL A   1      48.635  34.615  26.585  1.00  0.00     0.074 A 
ATOM     69  C   UNL A   1      49.454  33.428  26.459  1.00  0.00     0.031 C 
ATOM     70  C   UNL A   1      49.068  35.876  26.332  1.00  0.00     0.034 A 
BRANCH  57  71
ATOM     71  C   UNL A   1      44.786  40.269  27.105  1.00  0.00     0.023 A 
ATOM     72  C   UNL A   1      44.310  40.833  25.905  1.00  0.00     0.031 A 
ATOM     73  C   UNL A   1      45.159  41.144  28.143  1.00  0.00     0.131 A 
ATOM     74  C   UNL A   1      44.272  42.227  25.754  1.00  0.00     0.055 A 
ATOM     75  C   UNL A   1      45.071  42.530  28.005  1.00  0.00     0.041 A 
ATOM     76  F   UNL A   1      45.636  40.662  29.302  1.00  0.00    -0.206 F 
ATOM     77  C   UNL A   1      44.643  43.078  26.801  1.00  0.00     0.022 A 
BRANCH  74  78
ATOM     78  S   UNL A   1      43.834  42.995  24.169  1.00  0.00     0.124 S 
ATOM     79  O   UNL A   1      44.028  44.415  24.457  1.00  0.00    -0.237 OA
ATOM     80  O   UNL A   1      44.816  42.405  23.263  1.00  0.00    -0.237 OA
ATOM     81  O   UNL A   1      42.450  42.590  23.952  1.00  0.00    -0.744 OA
ENDBRANCH  74  78
ENDBRANCH  57  71
BRANCH  58  82
ATOM     82  C   UNL A   1      46.613  30.432  27.543  1.00  0.00     0.023 A 
ATOM     83  C   UNL A   1      46.227  29.601  26.475  1.00  0.00     0.031 A 
ATOM     84  C   UNL A   1      47.091  29.821  28.714  1.00  0.00     0.131 A 
ATOM     85  C   UNL A   1      46.252  28.209  26.628  1.00  0.00     0.055 A 
ATOM     86  C   UNL A   1      47.192  28.433  28.833  1.00  0.00     0.041 A 
ATOM     87  F   UNL A   1      47.447  30.568  29.771  1.00  0.00    -0.206 F 
ATOM     88  C   UNL A   1      46.751  27.620  27.793  1.00  0.00     0.022 A 
BRANCH  85  89
ATOM     89  S   UNL A   1      45.482  27.128  25.392  1.00  0.00     0.124 S 
ATOM     90  O   UNL A   1      46.400  27.250  24.265  1.00  0.00    -0.237 OA
ATOM     91  O   UNL A   1      45.490  25.837  26.078  1.00  0.00    -0.237 OA
ATOM     92  O   UNL A   1      44.159  27.714  25.198  1.00  0.00    -0.744 OA
ENDBRANCH  85  89
ENDBRANCH  58  82
BRANCH  70  93
ATOM     93  C   UNL A   1      50.497  36.079  25.884  1.00  0.00     0.023 A 
ATOM     94  C   UNL A   1      51.536  36.109  26.836  1.00  0.00     0.031 A 
ATOM     95  C   UNL A   1      50.808  36.410  24.554  1.00  0.00     0.131 A 
ATOM     96  C   UNL A   1      52.822  36.511  26.454  1.00  0.00     0.055 A 
ATOM     97  C   UNL A   1      52.103  36.755  24.167  1.00  0.00     0.041 A 
ATOM     98  F   UNL A   1      49.852  36.411  23.610  1.00  0.00    -0.206 F 
ATOM     99  C   UNL A   1      53.114  36.824  25.122  1.00  0.00     0.022 A 
BRANCH  96 100
ATOM    100  S   UNL A   1      54.137  36.741  27.683  1.00  0.00     0.124 S 
ATOM    101  O   UNL A   1      54.644  38.068  27.339  1.00  0.00    -0.237 OA
ATOM    102  O   UNL A   1      53.396  36.664  28.940  1.00  0.00    -0.237 OA
ATOM    103  O   UNL A   1      55.057  35.638  27.427  1.00  0.00    -0.744 OA
ENDBRANCH  96 100
ENDBRANCH  70  93
ENDBRANCH  44  45
ENDBRANCH  37  39
ENDBRANCH  36  37
ENDBRANCH  35  36
ENDBRANCH  34  35
ENDBRANCH  33  34
ENDBRANCH   1  33
TORSDOF 22
ENDMDL
MODEL 2
REMARK VINA RESULT:     -10.8      4.311      9.520
REMARK SMILES CC1(C)Oc2ccc(NC(=O)[C@H]3CC=CC[C@@H]3C(=O)OCCOCCOCCOC(=O)c3ccc(-c4c5nc(c(-c6cc(S(=O)(=O)[O-])ccc6F)c6ccc([nH]6)c(-c6cc(S(=O)(=O)[O-])ccc6F)c6nc(c(-c7cc(S(=O)(=O)[O-])ccc7F)c7ccc4[nH]7)C=C6)C=C5)cc3)cc2NC1=O
REMARK SMILES IDX 25 1 24 2 23 3 22 4 21 5 20 6 18 7 19 8 17 9 12 10 13 11
REMARK SMILES IDX 14 12 16 13 15 14 10 15 9 16 11 18 8 19 1 20 2 21 3 22 4 23
REMARK SMILES IDX 98 24 5 25 97 26 99 27 6 28 96 29 7 31 95 32 26 33 27 34
REMARK SMILES IDX 28 35 29 36 30 37 31 38 32 39 33 40 94 41 34 42 93 43 35 44
REMARK SMILES IDX 36 45 37 46 87 47 38 48 92 49 86 50 88 51 39 52 91 53 85 54
REMARK SMILES IDX 84 55 40 57 72 58 52 59 71 60 53 61 56 62 70 63 89 64 54 65
REMARK SMILES IDX 55 66 69 68 90 69 57 70 41 71 42 72 50 73 43 74 49 75 51 76
REMARK SMILES IDX 48 77 44 78 45 79 46 80 47 81 73 82 74 83 82 84 75 85 81 86
REMARK SMILES IDX 83 87 80 88 76 89 77 90 78 91 79 92 58 93 59 94 67 95 60 96
REMARK SMILES IDX 66 97 68 98 65 99 61 100 62 101 63 102 64 103
REMARK H PARENT 9 17 97 30 88 56 56 67
REMARK Flexibility Score: inf
ROOT
ATOM      1  C   UNL A   1      38.757  19.585  24.898  1.00  0.00     0.188 C 
ENDROOT
BRANCH   1   2
ATOM      2  C   UNL A   1      37.427  20.327  24.956  1.00  0.00     0.188 C 
BRANCH   2   3
ATOM      3  O   UNL A   1      37.205  21.407  24.053  1.00  0.00    -0.376 OA
BRANCH   3   4
ATOM      4  C   UNL A   1      35.988  22.139  24.105  1.00  0.00     0.202 C 
BRANCH   4   5
ATOM      5  C   UNL A   1      35.789  23.260  23.073  1.00  0.00     0.261 C 
BRANCH   5   6
ATOM      6  O   UNL A   1      34.423  23.534  22.660  1.00  0.00    -0.463 OA
BRANCH   6   7
ATOM      7  C   UNL A   1      33.930  24.735  23.052  1.00  0.00     0.310 C 
ATOM      8  O   UNL A   1      33.984  25.742  22.349  1.00  0.00    -0.252 OA
BRANCH   7   9
ATOM      9  C   UNL A   1      33.230  24.792  24.410  1.00  0.00     0.116 C 
ATOM     10  C   UNL A   1      31.715  25.120  24.595  1.00  0.00     0.097 C 
ATOM     11  C   UNL A   1      31.461  26.634  24.667  1.00  0.00     0.041 C 
ATOM     12  C   UNL A   1      32.322  27.260  25.714  1.00  0.00    -0.030 C 
ATOM     13  C   UNL A   1      34.130  25.544  25.417  1.00  0.00     0.043 C 
ATOM     14  C   UNL A   1      33.503  26.741  26.071  1.00  0.00    -0.030 C 
BRANCH  10  15
ATOM     15  C   UNL A   1      31.275  24.466  25.944  1.00  0.00     0.228 C 
ATOM     16  N   UNL A   1      31.238  23.108  26.094  1.00  0.00    -0.326 N 
ATOM     17  H   UNL A   1      30.445  22.765  26.568  1.00  0.00     0.169 HD
ATOM     18  O   UNL A   1      30.851  25.138  26.889  1.00  0.00    -0.274 OA
BRANCH  16  19
ATOM     19  C   UNL A   1      32.145  22.123  25.683  1.00  0.00     0.043 A 
ATOM     20  C   UNL A   1      34.125  16.410  24.094  1.00  0.00     0.067 C 
ATOM     21  C   UNL A   1      33.308  17.680  24.320  1.00  0.00     0.182 C 
ATOM     22  C   UNL A   1      32.153  17.345  25.292  1.00  0.00     0.067 C 
ATOM     23  O   UNL A   1      34.202  18.633  24.923  1.00  0.00    -0.476 OA
ATOM     24  C   UNL A   1      32.717  18.212  22.991  1.00  0.00     0.268 C 
ATOM     25  C   UNL A   1      33.598  19.856  25.067  1.00  0.00     0.144 A 
ATOM     26  N   UNL A   1      32.293  19.522  23.065  1.00  0.00    -0.319 N 
ATOM     27  O   UNL A   1      32.523  17.523  21.994  1.00  0.00    -0.270 OA
ATOM     28  C   UNL A   1      33.953  20.596  26.183  1.00  0.00     0.051 A 
ATOM     29  C   UNL A   1      32.606  20.303  24.184  1.00  0.00     0.086 A 
ATOM     30  H   UNL A   1      31.768  19.911  22.328  1.00  0.00     0.170 HD
ATOM     31  C   UNL A   1      33.203  21.719  26.506  1.00  0.00     0.030 A 
ATOM     32  C   UNL A   1      31.886  21.453  24.479  1.00  0.00     0.056 A 
ENDBRANCH  16  19
ENDBRANCH  10  15
ENDBRANCH   7   9
ENDBRANCH   6   7
ENDBRANCH   5   6
ENDBRANCH   4   5
ENDBRANCH   3   4
ENDBRANCH   2   3
ENDBRANCH   1   2
BRANCH   1  33
ATOM     33  O   UNL A   1      39.438  19.582  26.140  1.00  0.00    -0.376 OA
BRANCH  33  34
ATOM     34  C   UNL A   1      40.845  19.711  26.078  1.00  0.00     0.202 C 
BRANCH  34  35
ATOM     35  C   UNL A   1      41.278  21.181  26.092  1.00  0.00     0.261 C 
BRANCH  35  36
ATOM     36  O   UNL A   1      40.661  21.989  27.114  1.00  0.00    -0.460 OA
BRANCH  36  37
ATOM     37  C   UNL A   1      39.807  22.949  26.695  1.00  0.00     0.338 C 
ATOM     38  O   UNL A   1      38.678  22.766  26.247  1.00  0.00    -0.246 OA
BRANCH  37  39
ATOM     39  C   UNL A   1      40.350  24.264  27.099  1.00  0.00     0.060 A 
ATOM     40  C   UNL A   1      40.289  25.383  26.275  1.00  0.00     0.016 A 
ATOM     41  C   UNL A   1      40.953  24.366  28.353  1.00  0.00     0.016 A 
ATOM     42  C   UNL A   1      40.837  26.596  26.721  1.00  0.00     0.010 A 
ATOM     43  C   UNL A   1      41.512  25.565  28.795  1.00  0.00     0.010 A 
ATOM     44  C   UNL A   1      41.454  26.700  27.986  1.00  0.00    -0.014 A 
BRANCH  44  45
ATOM     45  C   UNL A   1      41.857  28.021  28.541  1.00  0.00     0.031 A 
ATOM     46  C   UNL A   1      43.293  28.444  28.676  1.00  0.00     0.074 A 
ATOM     47  C   UNL A   1      40.881  28.821  29.009  1.00  0.00     0.049 A 
ATOM     48  N   UNL A   1      43.767  29.619  29.007  1.00  0.00    -0.248 NA
ATOM     49  C   UNL A   1      44.329  27.427  28.447  1.00  0.00     0.031 C 
ATOM     50  C   UNL A   1      39.470  28.446  29.088  1.00  0.00     0.029 A 
ATOM     51  N   UNL A   1      40.915  30.101  29.505  1.00  0.00    -0.354 N 
ATOM     52  C   UNL A   1      45.152  29.497  28.989  1.00  0.00     0.074 A 
ATOM     53  C   UNL A   1      45.442  28.110  28.695  1.00  0.00     0.031 C 
ATOM     54  C   UNL A   1      38.766  29.484  29.555  1.00  0.00     0.029 A 
ATOM     55  C   UNL A   1      39.672  30.597  29.824  1.00  0.00     0.049 A 
ATOM     56  H   UNL A   1      41.748  30.613  29.621  1.00  0.00     0.167 HD
ATOM     57  C   UNL A   1      46.086  30.466  29.162  1.00  0.00     0.034 A 
ATOM     58  C   UNL A   1      39.295  31.818  30.258  1.00  0.00     0.034 A 
ATOM     59  C   UNL A   1      45.764  31.842  29.465  1.00  0.00     0.049 A 
ATOM     60  C   UNL A   1      40.337  32.899  30.374  1.00  0.00     0.074 A 
ATOM     61  C   UNL A   1      46.627  32.919  29.568  1.00  0.00     0.029 A 
ATOM     62  N   UNL A   1      44.490  32.331  29.720  1.00  0.00    -0.354 N 
ATOM     63  N   UNL A   1      41.631  32.818  30.164  1.00  0.00    -0.248 NA
ATOM     64  C   UNL A   1      39.876  34.242  30.750  1.00  0.00     0.031 C 
ATOM     65  C   UNL A   1      45.889  34.039  29.953  1.00  0.00     0.029 A 
ATOM     66  C   UNL A   1      44.550  33.686  30.005  1.00  0.00     0.049 A 
ATOM     67  H   UNL A   1      43.665  31.794  29.701  1.00  0.00     0.167 HD
ATOM     68  C   UNL A   1      42.133  34.101  30.364  1.00  0.00     0.074 A 
ATOM     69  C   UNL A   1      40.999  34.946  30.675  1.00  0.00     0.031 C 
ATOM     70  C   UNL A   1      43.418  34.533  30.302  1.00  0.00     0.034 A 
BRANCH  57  71
ATOM     71  C   UNL A   1      47.548  30.133  28.955  1.00  0.00     0.023 A 
ATOM     72  C   UNL A   1      48.027  29.751  27.687  1.00  0.00     0.031 A 
ATOM     73  C   UNL A   1      48.412  29.989  30.058  1.00  0.00     0.131 A 
ATOM     74  C   UNL A   1      49.309  29.195  27.562  1.00  0.00     0.055 A 
ATOM     75  C   UNL A   1      49.705  29.482  29.919  1.00  0.00     0.041 A 
ATOM     76  F   UNL A   1      48.002  30.321  31.293  1.00  0.00    -0.206 F 
ATOM     77  C   UNL A   1      50.152  29.065  28.670  1.00  0.00     0.022 A 
BRANCH  74  78
ATOM     78  S   UNL A   1      49.899  28.527  25.980  1.00  0.00     0.124 S 
ATOM     79  O   UNL A   1      48.648  28.336  25.248  1.00  0.00    -0.237 OA
ATOM     80  O   UNL A   1      50.747  29.610  25.489  1.00  0.00    -0.237 OA
ATOM     81  O   UNL A   1      50.592  27.300  26.354  1.00  0.00    -0.744 OA
ENDBRANCH  74  78
ENDBRANCH  57  71
BRANCH  58  82
ATOM     82  C   UNL A   1      37.845  32.075  30.498  1.00  0.00     0.023 A 
ATOM     83  C   UNL A   1      36.997  32.435  29.436  1.00  0.00     0.031 A 
ATOM     84  C   UNL A   1      37.321  32.107  31.801  1.00  0.00     0.131 A 
ATOM     85  C   UNL A   1      35.697  32.886  29.702  1.00  0.00     0.055 A 
ATOM     86  C   UNL A   1      35.999  32.478  32.055  1.00  0.00     0.041 A 
ATOM     87  F   UNL A   1      38.097  31.797  32.851  1.00  0.00    -0.206 F 
ATOM     88  C   UNL A   1      35.187  32.890  31.003  1.00  0.00     0.022 A 
BRANCH  85  89
ATOM     89  S   UNL A   1      34.693  33.639  28.392  1.00  0.00     0.124 S 
ATOM     90  O   UNL A   1      35.677  33.851  27.337  1.00  0.00    -0.237 OA
ATOM     91  O   UNL A   1      33.705  32.593  28.135  1.00  0.00    -0.237 OA
ATOM     92  O   UNL A   1      34.163  34.848  29.016  1.00  0.00    -0.744 OA
ENDBRANCH  85  89
ENDBRANCH  58  82
BRANCH  70  93
ATOM     93  C   UNL A   1      43.711  35.990  30.577  1.00  0.00     0.023 A 
ATOM     94  C   UNL A   1      43.730  36.465  31.904  1.00  0.00     0.031 A 
ATOM     95  C   UNL A   1      43.800  36.929  29.536  1.00  0.00     0.131 A 
ATOM     96  C   UNL A   1      43.784  37.843  32.151  1.00  0.00     0.055 A 
ATOM     97  C   UNL A   1      43.911  38.297  29.788  1.00  0.00     0.041 A 
ATOM     98  F   UNL A   1      43.772  36.530  28.254  1.00  0.00    -0.206 F 
ATOM     99  C   UNL A   1      43.886  38.761  31.101  1.00  0.00     0.022 A 
BRANCH  96 100
ATOM    100  S   UNL A   1      43.623  38.501  33.834  1.00  0.00     0.124 S 
ATOM    101  O   UNL A   1      42.930  37.412  34.519  1.00  0.00    -0.237 OA
ATOM    102  O   UNL A   1      45.018  38.692  34.222  1.00  0.00    -0.237 OA
ATOM    103  O   UNL A   1      42.845  39.723  33.663  1.00  0.00    -0.744 OA
ENDBRANCH  96 100
ENDBRANCH  70  93
ENDBRANCH  44  45
ENDBRANCH  37  39
ENDBRANCH  36  37
ENDBRANCH  35  36
ENDBRANCH  34  35
ENDBRANCH  33  34
ENDBRANCH   1  33
TORSDOF 22
ENDMDL
MODEL 3
REMARK VINA RESULT:     -10.8      3.762      9.712
REMARK SMILES CC1(C)Oc2ccc(NC(=O)[C@H]3CC=CC[C@@H]3C(=O)OCCOCCOCCOC(=O)c3ccc(-c4c5nc(c(-c6cc(S(=O)(=O)[O-])ccc6F)c6ccc([nH]6)c(-c6cc(S(=O)(=O)[O-])ccc6F)c6nc(c(-c7cc(S(=O)(=O)[O-])ccc7F)c7ccc4[nH]7)C=C6)C=C5)cc3)cc2NC1=O
REMARK SMILES IDX 25 1 24 2 23 3 22 4 21 5 20 6 18 7 19 8 17 9 12 10 13 11
REMARK SMILES IDX 14 12 16 13 15 14 10 15 9 16 11 18 8 19 1 20 2 21 3 22 4 23
REMARK SMILES IDX 98 24 5 25 97 26 99 27 6 28 96 29 7 31 95 32 26 33 27 34
REMARK SMILES IDX 28 35 29 36 30 37 31 38 32 39 33 40 94 41 34 42 93 43 35 44
REMARK SMILES IDX 36 45 37 46 87 47 38 48 92 49 86 50 88 51 39 52 91 53 85 54
REMARK SMILES IDX 84 55 40 57 72 58 52 59 71 60 53 61 56 62 70 63 89 64 54 65
REMARK SMILES IDX 55 66 69 68 90 69 57 70 41 71 42 72 50 73 43 74 49 75 51 76
REMARK SMILES IDX 48 77 44 78 45 79 46 80 47 81 73 82 74 83 82 84 75 85 81 86
REMARK SMILES IDX 83 87 80 88 76 89 77 90 78 91 79 92 58 93 59 94 67 95 60 96
REMARK SMILES IDX 66 97 68 98 65 99 61 100 62 101 63 102 64 103
REMARK H PARENT 9 17 97 30 88 56 56 67
REMARK Flexibility Score: inf
ROOT
ATOM      1  C   UNL A   1      41.840  22.913  27.121  1.00  0.00     0.188 C 
ENDROOT
BRANCH   1   2
ATOM      2  C   UNL A   1      40.432  22.480  27.513  1.00  0.00     0.188 C 
BRANCH   2   3
ATOM      3  O   UNL A   1      39.370  22.684  26.584  1.00  0.00    -0.376 OA
BRANCH   3   4
ATOM      4  C   UNL A   1      38.603  23.879  26.633  1.00  0.00     0.202 C 
BRANCH   4   5
ATOM      5  C   UNL A   1      37.212  23.857  25.979  1.00  0.00     0.261 C 
BRANCH   5   6
ATOM      6  O   UNL A   1      36.882  22.688  25.181  1.00  0.00    -0.463 OA
BRANCH   6   7
ATOM      7  C   UNL A   1      35.635  22.191  25.373  1.00  0.00     0.310 C 
ATOM      8  O   UNL A   1      35.322  21.533  26.363  1.00  0.00    -0.252 OA
BRANCH   7   9
ATOM      9  C   UNL A   1      34.580  22.529  24.319  1.00  0.00     0.116 C 
ATOM     10  C   UNL A   1      33.700  23.819  24.353  1.00  0.00     0.097 C 
ATOM     11  C   UNL A   1      32.440  23.631  25.213  1.00  0.00     0.041 C 
ATOM     12  C   UNL A   1      31.681  22.423  24.772  1.00  0.00    -0.030 C 
ATOM     13  C   UNL A   1      33.763  21.260  23.988  1.00  0.00     0.043 C 
ATOM     14  C   UNL A   1      32.281  21.377  24.188  1.00  0.00    -0.030 C 
BRANCH  10  15
ATOM     15  C   UNL A   1      33.272  24.109  22.879  1.00  0.00     0.228 C 
ATOM     16  N   UNL A   1      32.155  24.844  22.596  1.00  0.00    -0.326 N 
ATOM     17  H   UNL A   1      31.599  24.488  21.865  1.00  0.00     0.169 HD
ATOM     18  O   UNL A   1      33.862  23.608  21.917  1.00  0.00    -0.274 OA
BRANCH  16  19
ATOM     19  C   UNL A   1      31.672  26.023  23.178  1.00  0.00     0.043 A 
ATOM     20  C   UNL A   1      28.733  31.534  23.452  1.00  0.00     0.067 C 
ATOM     21  C   UNL A   1      29.174  30.110  23.120  1.00  0.00     0.182 C 
ATOM     22  C   UNL A   1      29.627  30.078  21.641  1.00  0.00     0.067 C 
ATOM     23  O   UNL A   1      30.286  29.821  23.985  1.00  0.00    -0.476 OA
ATOM     24  C   UNL A   1      28.016  29.103  23.320  1.00  0.00     0.268 C 
ATOM     25  C   UNL A   1      30.693  28.518  23.849  1.00  0.00     0.144 A 
ATOM     26  N   UNL A   1      28.437  27.791  23.396  1.00  0.00    -0.319 N 
ATOM     27  O   UNL A   1      26.826  29.401  23.298  1.00  0.00    -0.270 OA
ATOM     28  C   UNL A   1      32.050  28.273  23.981  1.00  0.00     0.051 A 
ATOM     29  C   UNL A   1      29.801  27.494  23.506  1.00  0.00     0.086 A 
ATOM     30  H   UNL A   1      27.776  27.061  23.373  1.00  0.00     0.170 HD
ATOM     31  C   UNL A   1      32.544  27.028  23.616  1.00  0.00     0.030 A 
ATOM     32  C   UNL A   1      30.286  26.232  23.187  1.00  0.00     0.056 A 
ENDBRANCH  16  19
ENDBRANCH  10  15
ENDBRANCH   7   9
ENDBRANCH   6   7
ENDBRANCH   5   6
ENDBRANCH   4   5
ENDBRANCH   3   4
ENDBRANCH   2   3
ENDBRANCH   1   2
BRANCH   1  33
ATOM     33  O   UNL A   1      42.750  21.829  27.063  1.00  0.00    -0.376 OA
BRANCH  33  34
ATOM     34  C   UNL A   1      43.233  21.492  25.776  1.00  0.00     0.202 C 
BRANCH  34  35
ATOM     35  C   UNL A   1      43.153  22.682  24.814  1.00  0.00     0.261 C 
BRANCH  35  36
ATOM     36  O   UNL A   1      44.424  23.164  24.333  1.00  0.00    -0.460 OA
BRANCH  36  37
ATOM     37  C   UNL A   1      45.405  23.308  25.249  1.00  0.00     0.338 C 
ATOM     38  O   UNL A   1      46.420  22.621  25.337  1.00  0.00    -0.246 OA
BRANCH  37  39
ATOM     39  C   UNL A   1      45.187  24.581  25.969  1.00  0.00     0.060 A 
ATOM     40  C   UNL A   1      45.221  24.671  27.357  1.00  0.00     0.016 A 
ATOM     41  C   UNL A   1      44.927  25.725  25.212  1.00  0.00     0.016 A 
ATOM     42  C   UNL A   1      44.992  25.913  27.971  1.00  0.00     0.010 A 
ATOM     43  C   UNL A   1      44.685  26.958  25.819  1.00  0.00     0.010 A 
ATOM     44  C   UNL A   1      44.721  27.069  27.208  1.00  0.00    -0.014 A 
BRANCH  44  45
ATOM     45  C   UNL A   1      44.674  28.415  27.840  1.00  0.00     0.031 A 
ATOM     46  C   UNL A   1      45.882  29.302  27.962  1.00  0.00     0.074 A 
ATOM     47  C   UNL A   1      43.508  28.803  28.391  1.00  0.00     0.049 A 
ATOM     48  N   UNL A   1      45.940  30.549  28.359  1.00  0.00    -0.248 NA
ATOM     49  C   UNL A   1      47.191  28.719  27.632  1.00  0.00     0.031 C 
ATOM     50  C   UNL A   1      42.317  27.958  28.486  1.00  0.00     0.029 A 
ATOM     51  N   UNL A   1      43.126  29.985  28.973  1.00  0.00    -0.354 N 
ATOM     52  C   UNL A   1      47.280  30.914  28.291  1.00  0.00     0.074 A 
ATOM     53  C   UNL A   1      48.013  29.731  27.894  1.00  0.00     0.031 C 
ATOM     54  C   UNL A   1      41.325  28.662  29.044  1.00  0.00     0.029 A 
ATOM     55  C   UNL A   1      41.807  30.004  29.362  1.00  0.00     0.049 A 
ATOM     56  H   UNL A   1      43.738  30.747  29.099  1.00  0.00     0.167 HD
ATOM     57  C   UNL A   1      47.832  32.136  28.503  1.00  0.00     0.034 A 
ATOM     58  C   UNL A   1      41.056  30.993  29.890  1.00  0.00     0.034 A 
ATOM     59  C   UNL A   1      47.073  33.296  28.909  1.00  0.00     0.049 A 
ATOM     60  C   UNL A   1      41.668  32.360  30.049  1.00  0.00     0.074 A 
ATOM     61  C   UNL A   1      47.518  34.598  29.060  1.00  0.00     0.029 A 
ATOM     62  N   UNL A   1      45.724  33.299  29.235  1.00  0.00    -0.354 N 
ATOM     63  N   UNL A   1      42.898  32.743  29.796  1.00  0.00    -0.248 NA
ATOM     64  C   UNL A   1      40.794  33.438  30.530  1.00  0.00     0.031 C 
ATOM     65  C   UNL A   1      46.462  35.371  29.543  1.00  0.00     0.029 A 
ATOM     66  C   UNL A   1      45.330  34.574  29.610  1.00  0.00     0.049 A 
ATOM     67  H   UNL A   1      45.134  32.512  29.203  1.00  0.00     0.167 HD
ATOM     68  C   UNL A   1      42.939  34.107  30.068  1.00  0.00     0.074 A 
ATOM     69  C   UNL A   1      41.602  34.490  30.470  1.00  0.00     0.031 C 
ATOM     70  C   UNL A   1      43.992  34.959  29.998  1.00  0.00     0.034 A 
BRANCH  57  71
ATOM     71  C   UNL A   1      49.307  32.341  28.230  1.00  0.00     0.023 A 
ATOM     72  C   UNL A   1      49.757  32.716  26.949  1.00  0.00     0.031 A 
ATOM     73  C   UNL A   1      50.271  31.956  29.182  1.00  0.00     0.131 A 
ATOM     74  C   UNL A   1      51.124  32.646  26.640  1.00  0.00     0.055 A 
ATOM     75  C   UNL A   1      51.634  31.936  28.883  1.00  0.00     0.041 A 
ATOM     76  F   UNL A   1      49.897  31.571  30.413  1.00  0.00    -0.206 F 
ATOM     77  C   UNL A   1      52.065  32.265  27.602  1.00  0.00     0.022 A 
BRANCH  74  78
ATOM     78  S   UNL A   1      51.728  32.950  24.955  1.00  0.00     0.124 S 
ATOM     79  O   UNL A   1      53.114  33.347  25.199  1.00  0.00    -0.237 OA
ATOM     80  O   UNL A   1      51.557  31.642  24.329  1.00  0.00    -0.237 OA
ATOM     81  O   UNL A   1      50.859  34.009  24.456  1.00  0.00    -0.744 OA
ENDBRANCH  74  78
ENDBRANCH  57  71
BRANCH  58  82
ATOM     82  C   UNL A   1      39.621  30.719  30.190  1.00  0.00     0.023 A 
ATOM     83  C   UNL A   1      38.613  31.113  29.290  1.00  0.00     0.031 A 
ATOM     84  C   UNL A   1      39.227  30.197  31.433  1.00  0.00     0.131 A 
ATOM     85  C   UNL A   1      37.269  31.051  29.677  1.00  0.00     0.055 A 
ATOM     86  C   UNL A   1      37.882  30.060  31.783  1.00  0.00     0.041 A 
ATOM     87  F   UNL A   1      40.150  29.831  32.337  1.00  0.00    -0.206 F 
ATOM     88  C   UNL A   1      36.896  30.509  30.910  1.00  0.00     0.022 A 
BRANCH  85  89
ATOM     89  S   UNL A   1      35.978  31.828  28.666  1.00  0.00     0.124 S 
ATOM     90  O   UNL A   1      35.711  30.798  27.669  1.00  0.00    -0.237 OA
ATOM     91  O   UNL A   1      34.920  32.047  29.649  1.00  0.00    -0.237 OA
ATOM     92  O   UNL A   1      36.617  33.043  28.166  1.00  0.00    -0.744 OA
ENDBRANCH  85  89
ENDBRANCH  58  82
BRANCH  70  93
ATOM     93  C   UNL A   1      43.781  36.411  30.364  1.00  0.00     0.023 A 
ATOM     94  C   UNL A   1      43.449  37.347  29.365  1.00  0.00     0.031 A 
ATOM     95  C   UNL A   1      44.071  36.892  31.652  1.00  0.00     0.131 A 
ATOM     96  C   UNL A   1      43.467  38.717  29.658  1.00  0.00     0.055 A 
ATOM     97  C   UNL A   1      44.031  38.253  31.954  1.00  0.00     0.041 A 
ATOM     98  F   UNL A   1      44.406  36.043  32.638  1.00  0.00    -0.206 F 
ATOM     99  C   UNL A   1      43.745  39.174  30.949  1.00  0.00     0.022 A 
BRANCH  96 100
ATOM    100  S   UNL A   1      43.229  39.958  28.355  1.00  0.00     0.124 S 
ATOM    101  O   UNL A   1      41.950  40.554  28.735  1.00  0.00    -0.237 OA
ATOM    102  O   UNL A   1      44.396  40.818  28.536  1.00  0.00    -0.237 OA
ATOM    103  O   UNL A   1      43.210  39.176  27.123  1.00  0.00    -0.744 OA
ENDBRANCH  96 100
ENDBRANCH  70  93
ENDBRANCH  44  45
ENDBRANCH  37  39
ENDBRANCH  36  37
ENDBRANCH  35  36
ENDBRANCH  34  35
ENDBRANCH  33  34
ENDBRANCH   1  33
TORSDOF 22
ENDMDL
