MODEL 1
REMARK VINA RESULT:      -7.3      0.000      0.000
REMARK SMILES CC(C)Cc1ccc(S(=O)(=O)Nc2cnc(N3CCCC3)c(C(=O)OCCOCCOCCOC(=O)c3ccc(-c4c5nc(c(-c6cc(S(=O)(=O)[O-])ccc6F)c6ccc([nH]6)c(-c6cc(S(=O)(=O)[O-])ccc6F)c6nc(c(-c7cc(S(=O)(=O)[O-])ccc7F)c7ccc4[nH]7)C=C6)C=C5)cc3)c2)cc1
REMARK SMILES IDX 29 1 28 2 27 3 26 4 25 5 23 6 24 7 22 8 13 9 14 10 100 11
REMARK SMILES IDX 15 12 16 13 12 14 9 16 10 17 11 18 8 19 5 20 6 21 102 22
REMARK SMILES IDX 7 23 101 24 4 25 2 26 1 27 3 28 17 29 18 30 21 31 19 32
REMARK SMILES IDX 20 33 30 34 31 35 32 36 33 37 34 38 35 39 36 40 37 41 38 42
REMARK SMILES IDX 99 43 39 44 98 45 40 46 41 47 42 48 92 49 43 50 97 51 91 52
REMARK SMILES IDX 93 53 44 54 96 55 90 56 89 57 45 59 77 60 57 61 76 62 58 63
REMARK SMILES IDX 61 64 75 65 94 66 59 67 60 68 74 70 95 71 62 72 46 73 47 74
REMARK SMILES IDX 55 75 48 76 54 77 56 78 53 79 49 80 50 81 51 82 52 83 78 84
REMARK SMILES IDX 79 85 87 86 80 87 86 88 88 89 85 90 81 91 82 92 83 93 84 94
REMARK SMILES IDX 63 95 64 96 72 97 65 98 71 99 73 100 70 101 66 102 67 103
REMARK SMILES IDX 68 104 69 105
REMARK H PARENT 12 15 93 58 61 69
REMARK Flexibility Score: inf
ROOT
ATOM      1  C   UNL A   1      42.839  25.117  28.315  1.00  0.00     0.188 C 
ENDROOT
BRANCH   1   2
ATOM      2  O   UNL A   1      42.641  25.921  27.161  1.00  0.00    -0.376 OA
BRANCH   2   3
ATOM      3  C   UNL A   1      41.285  26.177  26.831  1.00  0.00     0.202 C 
BRANCH   3   4
ATOM      4  C   UNL A   1      40.838  27.632  27.012  1.00  0.00     0.261 C 
BRANCH   4   5
ATOM      5  O   UNL A   1      40.485  27.991  28.356  1.00  0.00    -0.460 OA
BRANCH   5   6
ATOM      6  C   UNL A   1      39.352  27.466  28.883  1.00  0.00     0.342 C 
ATOM      7  O   UNL A   1      39.178  26.284  29.123  1.00  0.00    -0.246 OA
BRANCH   6   8
ATOM      8  C   UNL A   1      38.367  28.566  29.096  1.00  0.00     0.104 A 
ATOM      9  C   UNL A   1      36.580  29.903  28.177  1.00  0.00     0.068 A 
ATOM     10  C   UNL A   1      36.271  30.256  29.484  1.00  0.00     0.140 A 
ATOM     11  C   UNL A   1      37.698  29.107  27.982  1.00  0.00     0.048 A 
ATOM     12  N   UNL A   1      36.973  29.843  30.564  1.00  0.00    -0.236 NA
ATOM     13  C   UNL A   1      38.022  29.005  30.380  1.00  0.00     0.143 A 
BRANCH   9  14
ATOM     14  N   UNL A   1      35.746  30.304  27.080  1.00  0.00    -0.278 N 
ATOM     15  H   UNL A   1      36.131  30.346  26.175  1.00  0.00     0.180 HD
BRANCH  14  16
ATOM     16  S   UNL A   1      34.101  30.711  27.307  1.00  0.00     0.261 S 
ATOM     17  O   UNL A   1      33.632  29.862  28.383  1.00  0.00    -0.201 OA
ATOM     18  O   UNL A   1      33.494  30.633  25.995  1.00  0.00    -0.201 OA
BRANCH  16  19
ATOM     19  C   UNL A   1      33.935  32.396  27.848  1.00  0.00     0.087 A 
ATOM     20  C   UNL A   1      33.501  34.901  29.039  1.00  0.00    -0.048 A 
ATOM     21  C   UNL A   1      32.522  34.328  28.214  1.00  0.00     0.005 A 
ATOM     22  C   UNL A   1      34.713  34.219  29.204  1.00  0.00     0.005 A 
ATOM     23  C   UNL A   1      32.727  33.070  27.637  1.00  0.00     0.022 A 
ATOM     24  C   UNL A   1      34.967  33.021  28.541  1.00  0.00     0.022 A 
BRANCH  20  25
ATOM     25  C   UNL A   1      33.211  36.207  29.754  1.00  0.00     0.038 C 
BRANCH  25  26
ATOM     26  C   UNL A   1      33.398  36.198  31.287  1.00  0.00    -0.013 C 
ATOM     27  C   UNL A   1      33.597  37.610  31.848  1.00  0.00     0.008 C 
ATOM     28  C   UNL A   1      32.203  35.539  31.976  1.00  0.00     0.008 C 
ENDBRANCH  25  26
ENDBRANCH  20  25
ENDBRANCH  16  19
ENDBRANCH  14  16
ENDBRANCH   9  14
BRANCH  13  29
ATOM     29  N   UNL A   1      38.760  28.730  31.484  1.00  0.00    -0.356 N 
ATOM     30  C   UNL A   1      39.903  29.506  31.898  1.00  0.00     0.118 C 
ATOM     31  C   UNL A   1      38.541  27.590  32.353  1.00  0.00     0.118 C 
ATOM     32  C   UNL A   1      40.828  28.406  32.401  1.00  0.00     0.023 C 
ATOM     33  C   UNL A   1      39.859  27.486  33.142  1.00  0.00     0.023 C 
ENDBRANCH  13  29
ENDBRANCH   6   8
ENDBRANCH   5   6
ENDBRANCH   4   5
ENDBRANCH   3   4
ENDBRANCH   2   3
ENDBRANCH   1   2
BRANCH   1  34
ATOM     34  C   UNL A   1      44.295  24.636  28.484  1.00  0.00     0.188 C 
BRANCH  34  35
ATOM     35  O   UNL A   1      44.999  24.059  27.396  1.00  0.00    -0.376 OA
BRANCH  35  36
ATOM     36  C   UNL A   1      46.347  24.431  27.186  1.00  0.00     0.202 C 
BRANCH  36  37
ATOM     37  C   UNL A   1      46.639  25.643  26.289  1.00  0.00     0.261 C 
BRANCH  37  38
ATOM     38  O   UNL A   1      46.501  26.937  26.902  1.00  0.00    -0.460 OA
BRANCH  38  39
ATOM     39  C   UNL A   1      45.517  27.721  26.386  1.00  0.00     0.338 C 
ATOM     40  O   UNL A   1      44.870  27.496  25.373  1.00  0.00    -0.246 OA
BRANCH  39  41
ATOM     41  C   UNL A   1      45.199  28.829  27.323  1.00  0.00     0.060 A 
ATOM     42  C   UNL A   1      44.114  29.667  27.022  1.00  0.00     0.016 A 
ATOM     43  C   UNL A   1      45.974  29.081  28.457  1.00  0.00     0.016 A 
ATOM     44  C   UNL A   1      43.821  30.768  27.833  1.00  0.00     0.010 A 
ATOM     45  C   UNL A   1      45.696  30.204  29.254  1.00  0.00     0.010 A 
ATOM     46  C   UNL A   1      44.634  31.070  28.934  1.00  0.00    -0.014 A 
BRANCH  46  47
ATOM     47  C   UNL A   1      44.495  32.383  29.627  1.00  0.00     0.031 A 
ATOM     48  C   UNL A   1      45.313  33.542  29.135  1.00  0.00     0.074 A 
ATOM     49  C   UNL A   1      43.663  32.562  30.671  1.00  0.00     0.049 A 
ATOM     50  N   UNL A   1      45.387  34.760  29.603  1.00  0.00    -0.248 NA
ATOM     51  C   UNL A   1      46.169  33.284  27.969  1.00  0.00     0.031 C 
ATOM     52  C   UNL A   1      42.805  31.529  31.224  1.00  0.00     0.029 A 
ATOM     53  N   UNL A   1      43.402  33.661  31.455  1.00  0.00    -0.354 N 
ATOM     54  C   UNL A   1      46.299  35.420  28.790  1.00  0.00     0.074 A 
ATOM     55  C   UNL A   1      46.772  34.453  27.819  1.00  0.00     0.031 C 
ATOM     56  C   UNL A   1      42.105  32.029  32.254  1.00  0.00     0.029 A 
ATOM     57  C   UNL A   1      42.501  33.417  32.470  1.00  0.00     0.049 A 
ATOM     58  H   UNL A   1      43.820  34.540  31.307  1.00  0.00     0.167 HD
ATOM     59  C   UNL A   1      46.706  36.711  28.849  1.00  0.00     0.034 A 
ATOM     60  C   UNL A   1      42.068  34.206  33.477  1.00  0.00     0.034 A 
ATOM     61  C   UNL A   1      46.258  37.653  29.845  1.00  0.00     0.049 A 
ATOM     62  C   UNL A   1      42.604  35.616  33.575  1.00  0.00     0.074 A 
ATOM     63  C   UNL A   1      46.610  38.984  29.988  1.00  0.00     0.029 A 
ATOM     64  N   UNL A   1      45.382  37.363  30.884  1.00  0.00    -0.354 N 
ATOM     65  N   UNL A   1      43.454  36.232  32.784  1.00  0.00    -0.248 NA
ATOM     66  C   UNL A   1      42.129  36.435  34.698  1.00  0.00     0.031 C 
ATOM     67  C   UNL A   1      46.015  39.474  31.155  1.00  0.00     0.029 A 
ATOM     68  C   UNL A   1      45.215  38.479  31.692  1.00  0.00     0.049 A 
ATOM     69  H   UNL A   1      44.943  36.494  31.025  1.00  0.00     0.167 HD
ATOM     70  C   UNL A   1      43.588  37.519  33.300  1.00  0.00     0.074 A 
ATOM     71  C   UNL A   1      42.721  37.595  34.456  1.00  0.00     0.031 C 
ATOM     72  C   UNL A   1      44.356  38.546  32.853  1.00  0.00     0.034 A 
BRANCH  59  73
ATOM     73  C   UNL A   1      47.741  37.147  27.843  1.00  0.00     0.023 A 
ATOM     74  C   UNL A   1      49.108  37.194  28.163  1.00  0.00     0.031 A 
ATOM     75  C   UNL A   1      47.348  37.564  26.560  1.00  0.00     0.131 A 
ATOM     76  C   UNL A   1      50.023  37.717  27.238  1.00  0.00     0.055 A 
ATOM     77  C   UNL A   1      48.275  38.005  25.614  1.00  0.00     0.041 A 
ATOM     78  F   UNL A   1      46.052  37.568  26.209  1.00  0.00    -0.206 F 
ATOM     79  C   UNL A   1      49.620  38.099  25.957  1.00  0.00     0.022 A 
BRANCH  76  80
ATOM     80  S   UNL A   1      51.722  38.037  27.789  1.00  0.00     0.124 S 
ATOM     81  O   UNL A   1      52.500  37.373  26.746  1.00  0.00    -0.237 OA
ATOM     82  O   UNL A   1      51.781  39.494  27.800  1.00  0.00    -0.237 OA
ATOM     83  O   UNL A   1      51.781  37.399  29.103  1.00  0.00    -0.744 OA
ENDBRANCH  76  80
ENDBRANCH  59  73
BRANCH  60  84
ATOM     84  C   UNL A   1      41.121  33.687  34.512  1.00  0.00     0.023 A 
ATOM     85  C   UNL A   1      39.733  33.672  34.294  1.00  0.00     0.031 A 
ATOM     86  C   UNL A   1      41.589  33.269  35.772  1.00  0.00     0.131 A 
ATOM     87  C   UNL A   1      38.862  33.300  35.332  1.00  0.00     0.055 A 
ATOM     88  C   UNL A   1      40.722  32.841  36.779  1.00  0.00     0.041 A 
ATOM     89  F   UNL A   1      42.903  33.268  36.044  1.00  0.00    -0.206 F 
ATOM     90  C   UNL A   1      39.347  32.869  36.567  1.00  0.00     0.022 A 
BRANCH  87  91
ATOM     91  S   UNL A   1      37.073  33.487  35.080  1.00  0.00     0.124 S 
ATOM     92  O   UNL A   1      36.751  32.269  34.345  1.00  0.00    -0.237 OA
ATOM     93  O   UNL A   1      36.582  33.560  36.451  1.00  0.00    -0.237 OA
ATOM     94  O   UNL A   1      36.965  34.726  34.314  1.00  0.00    -0.744 OA
ENDBRANCH  87  91
ENDBRANCH  60  84
BRANCH  72  95
ATOM     95  C   UNL A   1      44.251  39.861  33.590  1.00  0.00     0.023 A 
ATOM     96  C   UNL A   1      43.524  40.949  33.075  1.00  0.00     0.031 A 
ATOM     97  C   UNL A   1      44.897  40.026  34.829  1.00  0.00     0.131 A 
ATOM     98  C   UNL A   1      43.505  42.168  33.769  1.00  0.00     0.055 A 
ATOM     99  C   UNL A   1      44.819  41.220  35.547  1.00  0.00     0.041 A 
ATOM    100  F   UNL A   1      45.610  39.023  35.367  1.00  0.00    -0.206 F 
ATOM    101  C   UNL A   1      44.131  42.304  35.011  1.00  0.00     0.022 A 
BRANCH  98 102
ATOM    102  S   UNL A   1      42.730  43.609  32.985  1.00  0.00     0.124 S 
ATOM    103  O   UNL A   1      43.888  44.428  32.644  1.00  0.00    -0.237 OA
ATOM    104  O   UNL A   1      42.021  43.008  31.858  1.00  0.00    -0.237 OA
ATOM    105  O   UNL A   1      41.872  44.153  34.036  1.00  0.00    -0.744 OA
ENDBRANCH  98 102
ENDBRANCH  72  95
ENDBRANCH  46  47
ENDBRANCH  39  41
ENDBRANCH  38  39
ENDBRANCH  37  38
ENDBRANCH  36  37
ENDBRANCH  35  36
ENDBRANCH  34  35
ENDBRANCH   1  34
TORSDOF 26
ENDMDL
MODEL 2
REMARK VINA RESULT:      -7.3     12.474     16.994
REMARK SMILES CC(C)Cc1ccc(S(=O)(=O)Nc2cnc(N3CCCC3)c(C(=O)OCCOCCOCCOC(=O)c3ccc(-c4c5nc(c(-c6cc(S(=O)(=O)[O-])ccc6F)c6ccc([nH]6)c(-c6cc(S(=O)(=O)[O-])ccc6F)c6nc(c(-c7cc(S(=O)(=O)[O-])ccc7F)c7ccc4[nH]7)C=C6)C=C5)cc3)c2)cc1
REMARK SMILES IDX 29 1 28 2 27 3 26 4 25 5 23 6 24 7 22 8 13 9 14 10 100 11
REMARK SMILES IDX 15 12 16 13 12 14 9 16 10 17 11 18 8 19 5 20 6 21 102 22
REMARK SMILES IDX 7 23 101 24 4 25 2 26 1 27 3 28 17 29 18 30 21 31 19 32
REMARK SMILES IDX 20 33 30 34 31 35 32 36 33 37 34 38 35 39 36 40 37 41 38 42
REMARK SMILES IDX 99 43 39 44 98 45 40 46 41 47 42 48 92 49 43 50 97 51 91 52
REMARK SMILES IDX 93 53 44 54 96 55 90 56 89 57 45 59 77 60 57 61 76 62 58 63
REMARK SMILES IDX 61 64 75 65 94 66 59 67 60 68 74 70 95 71 62 72 46 73 47 74
REMARK SMILES IDX 55 75 48 76 54 77 56 78 53 79 49 80 50 81 51 82 52 83 78 84
REMARK SMILES IDX 79 85 87 86 80 87 86 88 88 89 85 90 81 91 82 92 83 93 84 94
REMARK SMILES IDX 63 95 64 96 72 97 65 98 71 99 73 100 70 101 66 102 67 103
REMARK SMILES IDX 68 104 69 105
REMARK H PARENT 12 15 93 58 61 69
REMARK Flexibility Score: inf
ROOT
ATOM      1  C   UNL A   1      47.681  18.839  41.205  1.00  0.00     0.188 C 
ENDROOT
BRANCH   1   2
ATOM      2  O   UNL A   1      48.427  18.059  42.129  1.00  0.00    -0.376 OA
BRANCH   2   3
ATOM      3  C   UNL A   1      49.261  18.799  43.006  1.00  0.00     0.202 C 
BRANCH   3   4
ATOM      4  C   UNL A   1      48.943  18.633  44.496  1.00  0.00     0.261 C 
BRANCH   4   5
ATOM      5  O   UNL A   1      48.679  17.284  44.910  1.00  0.00    -0.460 OA
BRANCH   5   6
ATOM      6  C   UNL A   1      47.448  16.992  45.398  1.00  0.00     0.342 C 
ATOM      7  O   UNL A   1      46.400  17.416  44.944  1.00  0.00    -0.246 OA
BRANCH   6   8
ATOM      8  C   UNL A   1      47.602  16.093  46.579  1.00  0.00     0.104 A 
ATOM      9  C   UNL A   1      47.798  13.832  47.403  1.00  0.00     0.068 A 
ATOM     10  C   UNL A   1      48.285  14.383  48.581  1.00  0.00     0.140 A 
ATOM     11  C   UNL A   1      47.376  14.713  46.419  1.00  0.00     0.048 A 
ATOM     12  N   UNL A   1      48.401  15.713  48.803  1.00  0.00    -0.236 NA
ATOM     13  C   UNL A   1      48.058  16.571  47.813  1.00  0.00     0.143 A 
BRANCH   9  14
ATOM     14  N   UNL A   1      47.779  12.413  47.196  1.00  0.00    -0.278 N 
ATOM     15  H   UNL A   1      48.592  11.966  46.866  1.00  0.00     0.180 HD
BRANCH  14  16
ATOM     16  S   UNL A   1      46.381  11.479  47.509  1.00  0.00     0.261 S 
ATOM     17  O   UNL A   1      45.639  12.211  48.516  1.00  0.00    -0.201 OA
ATOM     18  O   UNL A   1      46.857  10.140  47.780  1.00  0.00    -0.201 OA
BRANCH  16  19
ATOM     19  C   UNL A   1      45.354  11.374  46.063  1.00  0.00     0.087 A 
ATOM     20  C   UNL A   1      43.432  11.356  44.015  1.00  0.00    -0.048 A 
ATOM     21  C   UNL A   1      43.601  10.235  44.841  1.00  0.00     0.005 A 
ATOM     22  C   UNL A   1      44.282  12.454  44.204  1.00  0.00     0.005 A 
ATOM     23  C   UNL A   1      44.542  10.250  45.875  1.00  0.00     0.022 A 
ATOM     24  C   UNL A   1      45.296  12.430  45.158  1.00  0.00     0.022 A 
BRANCH  20  25
ATOM     25  C   UNL A   1      42.324  11.368  42.979  1.00  0.00     0.038 C 
BRANCH  25  26
ATOM     26  C   UNL A   1      41.821  12.761  42.541  1.00  0.00    -0.013 C 
ATOM     27  C   UNL A   1      41.205  12.730  41.137  1.00  0.00     0.008 C 
ATOM     28  C   UNL A   1      40.795  13.306  43.535  1.00  0.00     0.008 C 
ENDBRANCH  25  26
ENDBRANCH  20  25
ENDBRANCH  16  19
ENDBRANCH  14  16
ENDBRANCH   9  14
BRANCH  13  29
ATOM     29  N   UNL A   1      48.075  17.888  48.140  1.00  0.00    -0.356 N 
ATOM     30  C   UNL A   1      46.887  18.671  48.377  1.00  0.00     0.118 C 
ATOM     31  C   UNL A   1      49.277  18.694  48.231  1.00  0.00     0.118 C 
ATOM     32  C   UNL A   1      47.286  19.994  47.738  1.00  0.00     0.023 C 
ATOM     33  C   UNL A   1      48.742  20.137  48.179  1.00  0.00     0.023 C 
ENDBRANCH  13  29
ENDBRANCH   6   8
ENDBRANCH   5   6
ENDBRANCH   4   5
ENDBRANCH   3   4
ENDBRANCH   2   3
ENDBRANCH   1   2
BRANCH   1  34
ATOM     34  C   UNL A   1      47.050  18.006  40.070  1.00  0.00     0.188 C 
BRANCH  34  35
ATOM     35  O   UNL A   1      45.738  18.286  39.608  1.00  0.00    -0.376 OA
BRANCH  35  36
ATOM     36  C   UNL A   1      45.103  17.349  38.761  1.00  0.00     0.202 C 
BRANCH  36  37
ATOM     37  C   UNL A   1      44.826  17.751  37.305  1.00  0.00     0.261 C 
BRANCH  37  38
ATOM     38  O   UNL A   1      45.342  19.027  36.887  1.00  0.00    -0.460 OA
BRANCH  38  39
ATOM     39  C   UNL A   1      45.510  19.172  35.545  1.00  0.00     0.338 C 
ATOM     40  O   UNL A   1      45.514  18.275  34.715  1.00  0.00    -0.246 OA
BRANCH  39  41
ATOM     41  C   UNL A   1      45.517  20.613  35.182  1.00  0.00     0.060 A 
ATOM     42  C   UNL A   1      44.315  21.331  35.278  1.00  0.00     0.016 A 
ATOM     43  C   UNL A   1      46.668  21.249  34.711  1.00  0.00     0.016 A 
ATOM     44  C   UNL A   1      44.255  22.670  34.876  1.00  0.00     0.010 A 
ATOM     45  C   UNL A   1      46.598  22.584  34.282  1.00  0.00     0.010 A 
ATOM     46  C   UNL A   1      45.386  23.297  34.337  1.00  0.00    -0.014 A 
BRANCH  46  47
ATOM     47  C   UNL A   1      45.253  24.619  33.658  1.00  0.00     0.031 A 
ATOM     48  C   UNL A   1      44.792  24.646  32.230  1.00  0.00     0.074 A 
ATOM     49  C   UNL A   1      45.532  25.779  34.281  1.00  0.00     0.049 A 
ATOM     50  N   UNL A   1      44.642  25.667  31.429  1.00  0.00    -0.248 NA
ATOM     51  C   UNL A   1      44.469  23.346  31.626  1.00  0.00     0.031 C 
ATOM     52  C   UNL A   1      45.965  25.886  35.664  1.00  0.00     0.029 A 
ATOM     53  N   UNL A   1      45.501  27.083  33.844  1.00  0.00    -0.354 N 
ATOM     54  C   UNL A   1      44.208  25.137  30.220  1.00  0.00     0.074 A 
ATOM     55  C   UNL A   1      44.149  23.699  30.391  1.00  0.00     0.031 C 
ATOM     56  C   UNL A   1      46.158  27.178  35.976  1.00  0.00     0.029 A 
ATOM     57  C   UNL A   1      45.909  27.996  34.793  1.00  0.00     0.049 A 
ATOM     58  H   UNL A   1      45.216  27.340  32.938  1.00  0.00     0.167 HD
ATOM     59  C   UNL A   1      43.890  25.788  29.076  1.00  0.00     0.034 A 
ATOM     60  C   UNL A   1      46.092  29.332  34.714  1.00  0.00     0.034 A 
ATOM     61  C   UNL A   1      43.991  27.217  28.906  1.00  0.00     0.049 A 
ATOM     62  C   UNL A   1      45.817  30.025  33.399  1.00  0.00     0.074 A 
ATOM     63  C   UNL A   1      43.691  27.972  27.785  1.00  0.00     0.029 A 
ATOM     64  N   UNL A   1      44.449  28.107  29.870  1.00  0.00    -0.354 N 
ATOM     65  N   UNL A   1      45.387  29.509  32.270  1.00  0.00    -0.248 NA
ATOM     66  C   UNL A   1      46.052  31.474  33.346  1.00  0.00     0.031 C 
ATOM     67  C   UNL A   1      44.043  29.300  28.042  1.00  0.00     0.029 A 
ATOM     68  C   UNL A   1      44.476  29.395  29.355  1.00  0.00     0.049 A 
ATOM     69  H   UNL A   1      44.714  27.860  30.785  1.00  0.00     0.167 HD
ATOM     70  C   UNL A   1      45.273  30.578  31.384  1.00  0.00     0.074 A 
ATOM     71  C   UNL A   1      45.662  31.766  32.114  1.00  0.00     0.031 C 
ATOM     72  C   UNL A   1      44.876  30.576  30.085  1.00  0.00     0.034 A 
BRANCH  59  73
ATOM     73  C   UNL A   1      43.472  24.940  27.902  1.00  0.00     0.023 A 
ATOM     74  C   UNL A   1      42.239  24.268  27.878  1.00  0.00     0.031 A 
ATOM     75  C   UNL A   1      44.342  24.766  26.810  1.00  0.00     0.131 A 
ATOM     76  C   UNL A   1      41.941  23.394  26.821  1.00  0.00     0.055 A 
ATOM     77  C   UNL A   1      44.002  23.961  25.722  1.00  0.00     0.041 A 
ATOM     78  F   UNL A   1      45.545  25.360  26.793  1.00  0.00    -0.206 F 
ATOM     79  C   UNL A   1      42.802  23.257  25.731  1.00  0.00     0.022 A 
BRANCH  76  80
ATOM     80  S   UNL A   1      40.483  22.325  26.968  1.00  0.00     0.124 S 
ATOM     81  O   UNL A   1      39.400  23.304  26.991  1.00  0.00    -0.237 OA
ATOM     82  O   UNL A   1      40.575  21.501  25.770  1.00  0.00    -0.237 OA
ATOM     83  O   UNL A   1      40.703  21.620  28.230  1.00  0.00    -0.744 OA
ENDBRANCH  76  80
ENDBRANCH  59  73
BRANCH  60  84
ATOM     84  C   UNL A   1      46.613  30.110  35.881  1.00  0.00     0.023 A 
ATOM     85  C   UNL A   1      45.749  30.619  36.866  1.00  0.00     0.031 A 
ATOM     86  C   UNL A   1      47.981  30.424  35.985  1.00  0.00     0.131 A 
ATOM     87  C   UNL A   1      46.252  31.454  37.878  1.00  0.00     0.055 A 
ATOM     88  C   UNL A   1      48.484  31.204  37.029  1.00  0.00     0.041 A 
ATOM     89  F   UNL A   1      48.854  29.975  35.071  1.00  0.00    -0.206 F 
ATOM     90  C   UNL A   1      47.615  31.737  37.976  1.00  0.00     0.022 A 
BRANCH  87  91
ATOM     91  S   UNL A   1      45.081  32.254  39.012  1.00  0.00     0.124 S 
ATOM     92  O   UNL A   1      45.902  32.438  40.203  1.00  0.00    -0.237 OA
ATOM     93  O   UNL A   1      44.731  33.466  38.279  1.00  0.00    -0.237 OA
ATOM     94  O   UNL A   1      44.006  31.273  39.139  1.00  0.00    -0.744 OA
ENDBRANCH  87  91
ENDBRANCH  60  84
BRANCH  72  95
ATOM     95  C   UNL A   1      44.794  31.913  29.384  1.00  0.00     0.023 A 
ATOM     96  C   UNL A   1      43.748  32.820  29.630  1.00  0.00     0.031 A 
ATOM     97  C   UNL A   1      45.781  32.279  28.451  1.00  0.00     0.131 A 
ATOM     98  C   UNL A   1      43.685  34.024  28.910  1.00  0.00     0.055 A 
ATOM     99  C   UNL A   1      45.748  33.506  27.788  1.00  0.00     0.041 A 
ATOM    100  F   UNL A   1      46.801  31.451  28.173  1.00  0.00    -0.206 F 
ATOM    101  C   UNL A   1      44.688  34.381  28.006  1.00  0.00     0.022 A 
BRANCH  98 102
ATOM    102  S   UNL A   1      42.220  35.079  29.100  1.00  0.00     0.124 S 
ATOM    103  O   UNL A   1      41.860  35.349  27.712  1.00  0.00    -0.237 OA
ATOM    104  O   UNL A   1      41.305  34.215  29.839  1.00  0.00    -0.237 OA
ATOM    105  O   UNL A   1      42.722  36.232  29.846  1.00  0.00    -0.744 OA
ENDBRANCH  98 102
ENDBRANCH  72  95
ENDBRANCH  46  47
ENDBRANCH  39  41
ENDBRANCH  38  39
ENDBRANCH  37  38
ENDBRANCH  36  37
ENDBRANCH  35  36
ENDBRANCH  34  35
ENDBRANCH   1  34
TORSDOF 26
ENDMDL
MODEL 3
REMARK VINA RESULT:      -7.3      4.627     13.281
REMARK SMILES CC(C)Cc1ccc(S(=O)(=O)Nc2cnc(N3CCCC3)c(C(=O)OCCOCCOCCOC(=O)c3ccc(-c4c5nc(c(-c6cc(S(=O)(=O)[O-])ccc6F)c6ccc([nH]6)c(-c6cc(S(=O)(=O)[O-])ccc6F)c6nc(c(-c7cc(S(=O)(=O)[O-])ccc7F)c7ccc4[nH]7)C=C6)C=C5)cc3)c2)cc1
REMARK SMILES IDX 29 1 28 2 27 3 26 4 25 5 23 6 24 7 22 8 13 9 14 10 100 11
REMARK SMILES IDX 15 12 16 13 12 14 9 16 10 17 11 18 8 19 5 20 6 21 102 22
REMARK SMILES IDX 7 23 101 24 4 25 2 26 1 27 3 28 17 29 18 30 21 31 19 32
REMARK SMILES IDX 20 33 30 34 31 35 32 36 33 37 34 38 35 39 36 40 37 41 38 42
REMARK SMILES IDX 99 43 39 44 98 45 40 46 41 47 42 48 92 49 43 50 97 51 91 52
REMARK SMILES IDX 93 53 44 54 96 55 90 56 89 57 45 59 77 60 57 61 76 62 58 63
REMARK SMILES IDX 61 64 75 65 94 66 59 67 60 68 74 70 95 71 62 72 46 73 47 74
REMARK SMILES IDX 55 75 48 76 54 77 56 78 53 79 49 80 50 81 51 82 52 83 78 84
REMARK SMILES IDX 79 85 87 86 80 87 86 88 88 89 85 90 81 91 82 92 83 93 84 94
REMARK SMILES IDX 63 95 64 96 72 97 65 98 71 99 73 100 70 101 66 102 67 103
REMARK SMILES IDX 68 104 69 105
REMARK H PARENT 12 15 93 58 61 69
REMARK Flexibility Score: inf
ROOT
ATOM      1  C   UNL A   1      49.164  40.687  29.416  1.00  0.00     0.188 C 
ENDROOT
BRANCH   1   2
ATOM      2  O   UNL A   1      49.305  41.970  28.822  1.00  0.00    -0.376 OA
BRANCH   2   3
ATOM      3  C   UNL A   1      48.227  42.863  29.052  1.00  0.00     0.202 C 
BRANCH   3   4
ATOM      4  C   UNL A   1      47.517  42.688  30.399  1.00  0.00     0.261 C 
BRANCH   4   5
ATOM      5  O   UNL A   1      46.126  42.344  30.307  1.00  0.00    -0.460 OA
BRANCH   5   6
ATOM      6  C   UNL A   1      45.244  43.035  31.070  1.00  0.00     0.342 C 
ATOM      7  O   UNL A   1      44.767  44.117  30.777  1.00  0.00    -0.246 OA
BRANCH   6   8
ATOM      8  C   UNL A   1      44.979  42.260  32.317  1.00  0.00     0.104 A 
ATOM      9  C   UNL A   1      45.296  42.074  34.704  1.00  0.00     0.068 A 
ATOM     10  C   UNL A   1      44.235  41.178  34.700  1.00  0.00     0.140 A 
ATOM     11  C   UNL A   1      45.721  42.558  33.476  1.00  0.00     0.048 A 
ATOM     12  N   UNL A   1      43.582  40.784  33.582  1.00  0.00    -0.236 NA
ATOM     13  C   UNL A   1      43.950  41.314  32.391  1.00  0.00     0.143 A 
BRANCH   9  14
ATOM     14  N   UNL A   1      45.893  42.517  35.931  1.00  0.00    -0.278 N 
ATOM     15  H   UNL A   1      46.718  43.053  35.897  1.00  0.00     0.180 HD
BRANCH  14  16
ATOM     16  S   UNL A   1      45.205  42.139  37.450  1.00  0.00     0.261 S 
ATOM     17  O   UNL A   1      43.930  41.515  37.158  1.00  0.00    -0.201 OA
ATOM     18  O   UNL A   1      45.263  43.362  38.222  1.00  0.00    -0.201 OA
BRANCH  16  19
ATOM     19  C   UNL A   1      46.198  40.943  38.312  1.00  0.00     0.087 A 
ATOM     20  C   UNL A   1      47.469  38.786  39.583  1.00  0.00    -0.048 A 
ATOM     21  C   UNL A   1      46.577  39.603  40.293  1.00  0.00     0.005 A 
ATOM     22  C   UNL A   1      47.748  39.109  38.249  1.00  0.00     0.005 A 
ATOM     23  C   UNL A   1      45.926  40.664  39.657  1.00  0.00     0.022 A 
ATOM     24  C   UNL A   1      47.189  40.232  37.644  1.00  0.00     0.022 A 
BRANCH  20  25
ATOM     25  C   UNL A   1      48.072  37.567  40.256  1.00  0.00     0.038 C 
BRANCH  25  26
ATOM     26  C   UNL A   1      47.553  36.197  39.767  1.00  0.00    -0.013 C 
ATOM     27  C   UNL A   1      46.041  36.051  39.975  1.00  0.00     0.008 C 
ATOM     28  C   UNL A   1      47.887  35.985  38.290  1.00  0.00     0.008 C 
ENDBRANCH  25  26
ENDBRANCH  20  25
ENDBRANCH  16  19
ENDBRANCH  14  16
ENDBRANCH   9  14
BRANCH  13  29
ATOM     29  N   UNL A   1      43.345  40.786  31.297  1.00  0.00    -0.356 N 
ATOM     30  C   UNL A   1      43.837  39.631  30.588  1.00  0.00     0.118 C 
ATOM     31  C   UNL A   1      42.168  41.347  30.661  1.00  0.00     0.118 C 
ATOM     32  C   UNL A   1      43.541  40.032  29.149  1.00  0.00     0.023 C 
ATOM     33  C   UNL A   1      42.162  40.679  29.274  1.00  0.00     0.023 C 
ENDBRANCH  13  29
ENDBRANCH   6   8
ENDBRANCH   5   6
ENDBRANCH   4   5
ENDBRANCH   3   4
ENDBRANCH   2   3
ENDBRANCH   1   2
BRANCH   1  34
ATOM     34  C   UNL A   1      50.133  40.446  30.591  1.00  0.00     0.188 C 
BRANCH  34  35
ATOM     35  O   UNL A   1      51.499  40.814  30.492  1.00  0.00    -0.376 OA
BRANCH  35  36
ATOM     36  C   UNL A   1      52.297  40.781  31.659  1.00  0.00     0.202 C 
BRANCH  36  37
ATOM     37  C   UNL A   1      52.576  39.420  32.314  1.00  0.00     0.261 C 
BRANCH  37  38
ATOM     38  O   UNL A   1      51.424  38.664  32.726  1.00  0.00    -0.460 OA
BRANCH  38  39
ATOM     39  C   UNL A   1      50.969  38.937  33.978  1.00  0.00     0.338 C 
ATOM     40  O   UNL A   1      51.562  39.566  34.842  1.00  0.00    -0.246 OA
BRANCH  39  41
ATOM     41  C   UNL A   1      49.551  38.511  34.113  1.00  0.00     0.060 A 
ATOM     42  C   UNL A   1      49.279  37.151  34.324  1.00  0.00     0.016 A 
ATOM     43  C   UNL A   1      48.495  39.417  33.989  1.00  0.00     0.016 A 
ATOM     44  C   UNL A   1      47.959  36.692  34.383  1.00  0.00     0.010 A 
ATOM     45  C   UNL A   1      47.171  38.949  34.020  1.00  0.00     0.010 A 
ATOM     46  C   UNL A   1      46.893  37.581  34.191  1.00  0.00    -0.014 A 
BRANCH  46  47
ATOM     47  C   UNL A   1      45.514  37.056  33.976  1.00  0.00     0.031 A 
ATOM     48  C   UNL A   1      44.605  36.927  35.164  1.00  0.00     0.074 A 
ATOM     49  C   UNL A   1      45.061  36.697  32.760  1.00  0.00     0.049 A 
ATOM     50  N   UNL A   1      43.385  36.461  35.225  1.00  0.00    -0.248 NA
ATOM     51  C   UNL A   1      45.152  37.373  36.453  1.00  0.00     0.031 C 
ATOM     52  C   UNL A   1      45.834  36.795  31.534  1.00  0.00     0.029 A 
ATOM     53  N   UNL A   1      43.856  36.178  32.348  1.00  0.00    -0.354 N 
ATOM     54  C   UNL A   1      43.014  36.555  36.560  1.00  0.00     0.074 A 
ATOM     55  C   UNL A   1      44.153  37.095  37.275  1.00  0.00     0.031 C 
ATOM     56  C   UNL A   1      45.097  36.359  30.501  1.00  0.00     0.029 A 
ATOM     57  C   UNL A   1      43.804  35.900  30.999  1.00  0.00     0.049 A 
ATOM     58  H   UNL A   1      43.102  36.019  32.960  1.00  0.00     0.167 HD
ATOM     59  C   UNL A   1      41.833  36.220  37.135  1.00  0.00     0.034 A 
ATOM     60  C   UNL A   1      42.842  35.314  30.253  1.00  0.00     0.034 A 
ATOM     61  C   UNL A   1      40.721  35.646  36.419  1.00  0.00     0.049 A 
ATOM     62  C   UNL A   1      41.569  34.867  30.934  1.00  0.00     0.074 A 
ATOM     63  C   UNL A   1      39.482  35.274  36.912  1.00  0.00     0.029 A 
ATOM     64  N   UNL A   1      40.716  35.335  35.065  1.00  0.00    -0.354 N 
ATOM     65  N   UNL A   1      41.225  34.981  32.197  1.00  0.00    -0.248 NA
ATOM     66  C   UNL A   1      40.557  34.211  30.095  1.00  0.00     0.031 C 
ATOM     67  C   UNL A   1      38.762  34.666  35.880  1.00  0.00     0.029 A 
ATOM     68  C   UNL A   1      39.511  34.741  34.717  1.00  0.00     0.049 A 
ATOM     69  H   UNL A   1      41.458  35.512  34.443  1.00  0.00     0.167 HD
ATOM     70  C   UNL A   1      39.945  34.438  32.294  1.00  0.00     0.074 A 
ATOM     71  C   UNL A   1      39.574  34.014  30.961  1.00  0.00     0.031 C 
ATOM     72  C   UNL A   1      39.150  34.309  33.386  1.00  0.00     0.034 A 
BRANCH  59  73
ATOM     73  C   UNL A   1      41.726  36.405  38.628  1.00  0.00     0.023 A 
ATOM     74  C   UNL A   1      41.408  37.650  39.197  1.00  0.00     0.031 A 
ATOM     75  C   UNL A   1      41.989  35.329  39.495  1.00  0.00     0.131 A 
ATOM     76  C   UNL A   1      41.435  37.807  40.590  1.00  0.00     0.055 A 
ATOM     77  C   UNL A   1      41.931  35.473  40.881  1.00  0.00     0.041 A 
ATOM     78  F   UNL A   1      42.326  34.124  39.007  1.00  0.00    -0.206 F 
ATOM     79  C   UNL A   1      41.668  36.721  41.437  1.00  0.00     0.022 A 
BRANCH  76  80
ATOM     80  S   UNL A   1      41.313  39.482  41.274  1.00  0.00     0.124 S 
ATOM     81  O   UNL A   1      42.665  39.690  41.788  1.00  0.00    -0.237 OA
ATOM     82  O   UNL A   1      40.945  40.273  40.106  1.00  0.00    -0.237 OA
ATOM     83  O   UNL A   1      40.277  39.359  42.298  1.00  0.00    -0.744 OA
ENDBRANCH  76  80
ENDBRANCH  59  73
BRANCH  60  84
ATOM     84  C   UNL A   1      43.046  35.056  28.794  1.00  0.00     0.023 A 
ATOM     85  C   UNL A   1      43.707  33.902  28.339  1.00  0.00     0.031 A 
ATOM     86  C   UNL A   1      42.650  36.005  27.832  1.00  0.00     0.131 A 
ATOM     87  C   UNL A   1      43.997  33.751  26.973  1.00  0.00     0.055 A 
ATOM     88  C   UNL A   1      42.887  35.820  26.469  1.00  0.00     0.041 A 
ATOM     89  F   UNL A   1      42.022  37.131  28.205  1.00  0.00    -0.206 F 
ATOM     90  C   UNL A   1      43.578  34.694  26.033  1.00  0.00     0.022 A 
BRANCH  87  91
ATOM     91  S   UNL A   1      45.027  32.350  26.449  1.00  0.00     0.124 S 
ATOM     92  O   UNL A   1      44.317  31.224  27.045  1.00  0.00    -0.237 OA
ATOM     93  O   UNL A   1      44.962  32.455  24.996  1.00  0.00    -0.237 OA
ATOM     94  O   UNL A   1      46.331  32.649  27.035  1.00  0.00    -0.744 OA
ENDBRANCH  87  91
ENDBRANCH  60  84
BRANCH  72  95
ATOM     95  C   UNL A   1      37.771  33.727  33.173  1.00  0.00     0.023 A 
ATOM     96  C   UNL A   1      36.685  34.518  32.757  1.00  0.00     0.031 A 
ATOM     97  C   UNL A   1      37.543  32.357  33.395  1.00  0.00     0.131 A 
ATOM     98  C   UNL A   1      35.411  33.942  32.629  1.00  0.00     0.055 A 
ATOM     99  C   UNL A   1      36.289  31.778  33.203  1.00  0.00     0.041 A 
ATOM    100  F   UNL A   1      38.542  31.555  33.799  1.00  0.00    -0.206 F 
ATOM    101  C   UNL A   1      35.210  32.574  32.830  1.00  0.00     0.022 A 
BRANCH  98 102
ATOM    102  S   UNL A   1      33.994  35.024  32.288  1.00  0.00     0.124 S 
ATOM    103  O   UNL A   1      34.072  35.177  30.839  1.00  0.00    -0.237 OA
ATOM    104  O   UNL A   1      32.871  34.234  32.785  1.00  0.00    -0.237 OA
ATOM    105  O   UNL A   1      34.290  36.231  33.057  1.00  0.00    -0.744 OA
ENDBRANCH  98 102
ENDBRANCH  72  95
ENDBRANCH  46  47
ENDBRANCH  39  41
ENDBRANCH  38  39
ENDBRANCH  37  38
ENDBRANCH  36  37
ENDBRANCH  35  36
ENDBRANCH  34  35
ENDBRANCH   1  34
TORSDOF 26
ENDMDL
