MODEL 1
REMARK VINA RESULT:      -8.9      0.000      0.000
REMARK SMILES C#CCNC(=O)C[N@@H+](CC(=O)OCCOCCOCCOC(=O)c1ccc(-c2c3nc(c(-c4cc(S(=O)(=O)[O-])ccc4F)c4ccc([nH]4)c(-c4cc(S(=O)(=O)[O-])ccc4F)c4nc(c(-c5cc(S(=O)(=O)[O-])ccc5F)c5ccc2[nH]5)C=C4)C=C3)cc1)C(C)(C)C
REMARK SMILES IDX 16 1 15 2 14 3 13 4 12 5 10 6 11 7 9 8 8 9 7 11 5 12 4 13
REMARK SMILES IDX 6 15 3 16 2 17 1 18 87 19 88 20 89 21 90 22 17 23 18 24
REMARK SMILES IDX 19 25 20 26 21 27 22 28 23 29 24 30 25 31 86 32 26 33 85 34
REMARK SMILES IDX 27 35 28 36 29 37 79 38 30 39 84 40 78 41 80 42 31 43 83 44
REMARK SMILES IDX 77 45 76 46 32 48 64 49 44 50 63 51 45 52 48 53 62 54 81 55
REMARK SMILES IDX 46 56 47 57 61 59 82 60 49 61 33 62 34 63 42 64 35 65 41 66
REMARK SMILES IDX 43 67 40 68 36 69 37 70 38 71 39 72 65 73 66 74 74 75 67 76
REMARK SMILES IDX 73 77 75 78 72 79 68 80 69 81 70 82 71 83 50 84 51 85 59 86
REMARK SMILES IDX 52 87 58 88 60 89 57 90 53 91 54 92 55 93 56 94
REMARK H PARENT 8 10 4 14 80 47 48 58
REMARK Flexibility Score: inf
ROOT
ATOM      1  C   UNL A   1      32.441  28.398  27.144  1.00  0.00     0.188 C 
ENDROOT
BRANCH   1   2
ATOM      2  O   UNL A   1      33.713  27.792  26.958  1.00  0.00    -0.376 OA
BRANCH   2   3
ATOM      3  C   UNL A   1      33.988  27.300  25.649  1.00  0.00     0.202 C 
BRANCH   3   4
ATOM      4  C   UNL A   1      33.548  25.860  25.321  1.00  0.00     0.261 C 
BRANCH   4   5
ATOM      5  O   UNL A   1      34.176  24.783  26.063  1.00  0.00    -0.459 OA
BRANCH   5   6
ATOM      6  C   UNL A   1      35.221  24.175  25.439  1.00  0.00     0.361 C 
ATOM      7  O   UNL A   1      36.379  24.247  25.856  1.00  0.00    -0.245 OA
BRANCH   6   8
ATOM      8  C   UNL A   1      34.952  23.458  24.111  1.00  0.00     0.387 C 
BRANCH   8   9
ATOM      9  N   UNL A   1      34.305  22.116  24.026  1.00  0.00    -0.314 N 
ATOM     10  H   UNL A   1      34.782  21.616  23.274  1.00  0.00     0.349 HD
BRANCH   9  11
ATOM     11  C   UNL A   1      32.916  22.201  23.533  1.00  0.00     0.364 C 
BRANCH  11  12
ATOM     12  C   UNL A   1      32.713  23.248  22.435  1.00  0.00     0.275 C 
ATOM     13  N   UNL A   1      31.766  24.217  22.616  1.00  0.00    -0.340 N 
ATOM     14  H   UNL A   1      31.772  24.984  21.999  1.00  0.00     0.164 HD
ATOM     15  O   UNL A   1      33.356  23.216  21.385  1.00  0.00    -0.268 OA
BRANCH  13  16
ATOM     16  C   UNL A   1      30.769  24.190  23.636  1.00  0.00     0.206 C 
BRANCH  16  17
ATOM     17  C   UNL A   1      29.917  25.434  23.826  1.00  0.00    -0.085 C 
ATOM     18  C   UNL A   1      29.186  26.501  23.989  1.00  0.00     0.006 C 
ENDBRANCH  16  17
ENDBRANCH  13  16
ENDBRANCH  11  12
ENDBRANCH   9  11
BRANCH   9  19
ATOM     19  C   UNL A   1      34.682  21.088  25.032  1.00  0.00     0.090 C 
ATOM     20  C   UNL A   1      34.172  19.796  24.463  1.00  0.00     0.078 C 
ATOM     21  C   UNL A   1      36.171  20.763  25.368  1.00  0.00     0.078 C 
ATOM     22  C   UNL A   1      34.041  21.443  26.400  1.00  0.00     0.078 C 
ENDBRANCH   9  19
ENDBRANCH   8   9
ENDBRANCH   6   8
ENDBRANCH   5   6
ENDBRANCH   4   5
ENDBRANCH   3   4
ENDBRANCH   2   3
ENDBRANCH   1   2
BRANCH   1  23
ATOM     23  C   UNL A   1      31.763  28.941  25.873  1.00  0.00     0.188 C 
BRANCH  23  24
ATOM     24  O   UNL A   1      32.022  30.323  25.641  1.00  0.00    -0.376 OA
BRANCH  24  25
ATOM     25  C   UNL A   1      31.787  31.268  26.686  1.00  0.00     0.202 C 
BRANCH  25  26
ATOM     26  C   UNL A   1      32.975  31.902  27.414  1.00  0.00     0.261 C 
BRANCH  26  27
ATOM     27  O   UNL A   1      32.955  33.344  27.446  1.00  0.00    -0.460 OA
BRANCH  27  28
ATOM     28  C   UNL A   1      33.356  33.947  28.592  1.00  0.00     0.338 C 
ATOM     29  O   UNL A   1      32.709  34.737  29.261  1.00  0.00    -0.246 OA
BRANCH  28  30
ATOM     30  C   UNL A   1      34.621  33.303  29.028  1.00  0.00     0.060 A 
ATOM     31  C   UNL A   1      34.570  32.306  30.006  1.00  0.00     0.016 A 
ATOM     32  C   UNL A   1      35.849  33.641  28.468  1.00  0.00     0.016 A 
ATOM     33  C   UNL A   1      35.713  31.634  30.433  1.00  0.00     0.010 A 
ATOM     34  C   UNL A   1      37.010  32.997  28.918  1.00  0.00     0.010 A 
ATOM     35  C   UNL A   1      36.952  32.003  29.917  1.00  0.00    -0.014 A 
BRANCH  35  36
ATOM     36  C   UNL A   1      38.190  31.512  30.574  1.00  0.00     0.031 A 
ATOM     37  C   UNL A   1      39.010  30.485  29.847  1.00  0.00     0.074 A 
ATOM     38  C   UNL A   1      38.612  31.993  31.757  1.00  0.00     0.049 A 
ATOM     39  N   UNL A   1      40.011  29.763  30.272  1.00  0.00    -0.248 NA
ATOM     40  C   UNL A   1      38.635  30.238  28.446  1.00  0.00     0.031 C 
ATOM     41  C   UNL A   1      37.980  33.078  32.507  1.00  0.00     0.029 A 
ATOM     42  N   UNL A   1      39.674  31.615  32.544  1.00  0.00    -0.354 N 
ATOM     43  C   UNL A   1      40.352  28.932  29.209  1.00  0.00     0.074 A 
ATOM     44  C   UNL A   1      39.442  29.238  28.127  1.00  0.00     0.031 C 
ATOM     45  C   UNL A   1      38.651  33.258  33.658  1.00  0.00     0.029 A 
ATOM     46  C   UNL A   1      39.711  32.256  33.761  1.00  0.00     0.049 A 
ATOM     47  H   UNL A   1      40.342  30.948  32.264  1.00  0.00     0.167 HD
ATOM     48  C   UNL A   1      41.331  27.997  29.152  1.00  0.00     0.034 A 
ATOM     49  C   UNL A   1      40.467  32.020  34.853  1.00  0.00     0.034 A 
ATOM     50  C   UNL A   1      42.237  27.725  30.240  1.00  0.00     0.049 A 
ATOM     51  C   UNL A   1      41.483  30.902  34.810  1.00  0.00     0.074 A 
ATOM     52  C   UNL A   1      43.275  26.812  30.288  1.00  0.00     0.029 A 
ATOM     53  N   UNL A   1      42.206  28.355  31.479  1.00  0.00    -0.354 N 
ATOM     54  N   UNL A   1      41.772  30.084  33.824  1.00  0.00    -0.248 NA
ATOM     55  C   UNL A   1      42.269  30.673  36.030  1.00  0.00     0.031 C 
ATOM     56  C   UNL A   1      43.811  26.826  31.580  1.00  0.00     0.029 A 
ATOM     57  C   UNL A   1      43.175  27.817  32.312  1.00  0.00     0.049 A 
ATOM     58  H   UNL A   1      41.587  29.079  31.729  1.00  0.00     0.167 HD
ATOM     59  C   UNL A   1      42.791  29.259  34.298  1.00  0.00     0.074 A 
ATOM     60  C   UNL A   1      43.074  29.691  35.652  1.00  0.00     0.031 C 
ATOM     61  C   UNL A   1      43.439  28.244  33.669  1.00  0.00     0.034 A 
BRANCH  48  62
ATOM     62  C   UNL A   1      41.397  27.142  27.908  1.00  0.00     0.023 A 
ATOM     63  C   UNL A   1      40.947  25.810  27.884  1.00  0.00     0.031 A 
ATOM     64  C   UNL A   1      41.984  27.657  26.738  1.00  0.00     0.131 A 
ATOM     65  C   UNL A   1      41.176  25.016  26.749  1.00  0.00     0.055 A 
ATOM     66  C   UNL A   1      42.121  26.891  25.580  1.00  0.00     0.041 A 
ATOM     67  F   UNL A   1      42.459  28.912  26.708  1.00  0.00    -0.206 F 
ATOM     68  C   UNL A   1      41.734  25.554  25.587  1.00  0.00     0.022 A 
BRANCH  65  69
ATOM     69  S   UNL A   1      40.906  23.226  26.878  1.00  0.00     0.124 S 
ATOM     70  O   UNL A   1      39.476  23.122  26.598  1.00  0.00    -0.237 OA
ATOM     71  O   UNL A   1      41.798  22.698  25.852  1.00  0.00    -0.237 OA
ATOM     72  O   UNL A   1      41.287  22.921  28.255  1.00  0.00    -0.744 OA
ENDBRANCH  65  69
ENDBRANCH  48  62
BRANCH  49  73
ATOM     73  C   UNL A   1      40.228  32.788  36.110  1.00  0.00     0.023 A 
ATOM     74  C   UNL A   1      39.393  32.299  37.126  1.00  0.00     0.031 A 
ATOM     75  C   UNL A   1      40.812  34.057  36.293  1.00  0.00     0.131 A 
ATOM     76  C   UNL A   1      39.143  33.084  38.265  1.00  0.00     0.055 A 
ATOM     77  C   UNL A   1      40.606  34.807  37.451  1.00  0.00     0.041 A 
ATOM     78  F   UNL A   1      41.608  34.581  35.347  1.00  0.00    -0.206 F 
ATOM     79  C   UNL A   1      39.759  34.325  38.442  1.00  0.00     0.022 A 
BRANCH  76  80
ATOM     80  S   UNL A   1      37.938  32.492  39.485  1.00  0.00     0.124 S 
ATOM     81  O   UNL A   1      38.793  31.767  40.419  1.00  0.00    -0.237 OA
ATOM     82  O   UNL A   1      37.364  33.740  39.977  1.00  0.00    -0.237 OA
ATOM     83  O   UNL A   1      37.033  31.661  38.695  1.00  0.00    -0.744 OA
ENDBRANCH  76  80
ENDBRANCH  49  73
BRANCH  61  84
ATOM     84  C   UNL A   1      44.555  27.558  34.423  1.00  0.00     0.023 A 
ATOM     85  C   UNL A   1      44.346  26.376  35.155  1.00  0.00     0.031 A 
ATOM     86  C   UNL A   1      45.855  28.098  34.403  1.00  0.00     0.131 A 
ATOM     87  C   UNL A   1      45.405  25.803  35.876  1.00  0.00     0.055 A 
ATOM     88  C   UNL A   1      46.919  27.485  35.066  1.00  0.00     0.041 A 
ATOM     89  F   UNL A   1      46.116  29.228  33.726  1.00  0.00    -0.206 F 
ATOM     90  C   UNL A   1      46.694  26.338  35.819  1.00  0.00     0.022 A 
BRANCH  87  91
ATOM     91  S   UNL A   1      45.055  24.401  36.975  1.00  0.00     0.124 S 
ATOM     92  O   UNL A   1      44.356  23.484  36.080  1.00  0.00    -0.237 OA
ATOM     93  O   UNL A   1      46.390  23.991  37.394  1.00  0.00    -0.237 OA
ATOM     94  O   UNL A   1      44.229  24.989  38.028  1.00  0.00    -0.744 OA
ENDBRANCH  87  91
ENDBRANCH  61  84
ENDBRANCH  35  36
ENDBRANCH  28  30
ENDBRANCH  27  28
ENDBRANCH  26  27
ENDBRANCH  25  26
ENDBRANCH  24  25
ENDBRANCH  23  24
ENDBRANCH   1  23
TORSDOF 26
ENDMDL
MODEL 2
REMARK VINA RESULT:      -8.7      1.856      2.699
REMARK SMILES C#CCNC(=O)C[N@@H+](CC(=O)OCCOCCOCCOC(=O)c1ccc(-c2c3nc(c(-c4cc(S(=O)(=O)[O-])ccc4F)c4ccc([nH]4)c(-c4cc(S(=O)(=O)[O-])ccc4F)c4nc(c(-c5cc(S(=O)(=O)[O-])ccc5F)c5ccc2[nH]5)C=C4)C=C3)cc1)C(C)(C)C
REMARK SMILES IDX 16 1 15 2 14 3 13 4 12 5 10 6 11 7 9 8 8 9 7 11 5 12 4 13
REMARK SMILES IDX 6 15 3 16 2 17 1 18 87 19 88 20 89 21 90 22 17 23 18 24
REMARK SMILES IDX 19 25 20 26 21 27 22 28 23 29 24 30 25 31 86 32 26 33 85 34
REMARK SMILES IDX 27 35 28 36 29 37 79 38 30 39 84 40 78 41 80 42 31 43 83 44
REMARK SMILES IDX 77 45 76 46 32 48 64 49 44 50 63 51 45 52 48 53 62 54 81 55
REMARK SMILES IDX 46 56 47 57 61 59 82 60 49 61 33 62 34 63 42 64 35 65 41 66
REMARK SMILES IDX 43 67 40 68 36 69 37 70 38 71 39 72 65 73 66 74 74 75 67 76
REMARK SMILES IDX 73 77 75 78 72 79 68 80 69 81 70 82 71 83 50 84 51 85 59 86
REMARK SMILES IDX 52 87 58 88 60 89 57 90 53 91 54 92 55 93 56 94
REMARK H PARENT 8 10 4 14 80 47 48 58
REMARK Flexibility Score: inf
ROOT
ATOM      1  C   UNL A   1      32.193  28.865  23.412  1.00  0.00     0.188 C 
ENDROOT
BRANCH   1   2
ATOM      2  O   UNL A   1      31.937  27.962  22.344  1.00  0.00    -0.376 OA
BRANCH   2   3
ATOM      3  C   UNL A   1      32.202  26.587  22.609  1.00  0.00     0.202 C 
BRANCH   3   4
ATOM      4  C   UNL A   1      32.254  25.626  21.406  1.00  0.00     0.261 C 
BRANCH   4   5
ATOM      5  O   UNL A   1      33.289  24.609  21.406  1.00  0.00    -0.459 OA
BRANCH   5   6
ATOM      6  C   UNL A   1      33.434  23.921  22.571  1.00  0.00     0.361 C 
ATOM      7  O   UNL A   1      32.661  23.025  22.915  1.00  0.00    -0.245 OA
BRANCH   6   8
ATOM      8  C   UNL A   1      34.547  24.354  23.533  1.00  0.00     0.387 C 
BRANCH   8   9
ATOM      9  N   UNL A   1      34.927  23.569  24.744  1.00  0.00    -0.314 N 
ATOM     10  H   UNL A   1      34.216  22.845  24.849  1.00  0.00     0.349 HD
BRANCH   9  11
ATOM     11  C   UNL A   1      34.778  24.358  25.983  1.00  0.00     0.364 C 
BRANCH  11  12
ATOM     12  C   UNL A   1      33.569  25.295  25.978  1.00  0.00     0.275 C 
ATOM     13  N   UNL A   1      32.368  24.823  26.429  1.00  0.00    -0.340 N 
ATOM     14  H   UNL A   1      31.651  25.478  26.597  1.00  0.00     0.164 HD
ATOM     15  O   UNL A   1      33.645  26.447  25.548  1.00  0.00    -0.268 OA
BRANCH  13  16
ATOM     16  C   UNL A   1      32.082  23.447  26.673  1.00  0.00     0.206 C 
BRANCH  16  17
ATOM     17  C   UNL A   1      30.633  23.056  26.908  1.00  0.00    -0.085 C 
ATOM     18  C   UNL A   1      29.389  22.720  27.110  1.00  0.00     0.006 C 
ENDBRANCH  16  17
ENDBRANCH  13  16
ENDBRANCH  11  12
ENDBRANCH   9  11
BRANCH   9  19
ATOM     19  C   UNL A   1      36.018  22.567  24.620  1.00  0.00     0.090 C 
ATOM     20  C   UNL A   1      36.954  22.882  25.750  1.00  0.00     0.078 C 
ATOM     21  C   UNL A   1      35.761  21.036  24.790  1.00  0.00     0.078 C 
ATOM     22  C   UNL A   1      36.686  22.699  23.225  1.00  0.00     0.078 C 
ENDBRANCH   9  19
ENDBRANCH   8   9
ENDBRANCH   6   8
ENDBRANCH   5   6
ENDBRANCH   4   5
ENDBRANCH   3   4
ENDBRANCH   2   3
ENDBRANCH   1   2
BRANCH   1  23
ATOM     23  C   UNL A   1      31.026  29.099  24.389  1.00  0.00     0.188 C 
BRANCH  23  24
ATOM     24  O   UNL A   1      31.244  30.190  25.278  1.00  0.00    -0.376 OA
BRANCH  24  25
ATOM     25  C   UNL A   1      31.723  29.937  26.600  1.00  0.00     0.202 C 
BRANCH  25  26
ATOM     26  C   UNL A   1      33.226  29.784  26.844  1.00  0.00     0.261 C 
BRANCH  26  27
ATOM     27  O   UNL A   1      33.971  31.017  26.774  1.00  0.00    -0.460 OA
BRANCH  27  28
ATOM     28  C   UNL A   1      34.278  31.626  27.945  1.00  0.00     0.338 C 
ATOM     29  O   UNL A   1      33.530  32.309  28.626  1.00  0.00    -0.246 OA
BRANCH  28  30
ATOM     30  C   UNL A   1      35.606  31.127  28.384  1.00  0.00     0.060 A 
ATOM     31  C   UNL A   1      35.668  29.972  29.169  1.00  0.00     0.016 A 
ATOM     32  C   UNL A   1      36.789  31.757  28.010  1.00  0.00     0.016 A 
ATOM     33  C   UNL A   1      36.881  29.428  29.583  1.00  0.00     0.010 A 
ATOM     34  C   UNL A   1      38.014  31.238  28.454  1.00  0.00     0.010 A 
ATOM     35  C   UNL A   1      38.067  30.081  29.259  1.00  0.00    -0.014 A 
BRANCH  35  36
ATOM     36  C   UNL A   1      39.326  29.685  29.938  1.00  0.00     0.031 A 
ATOM     37  C   UNL A   1      40.151  28.598  29.311  1.00  0.00     0.074 A 
ATOM     38  C   UNL A   1      39.763  30.300  31.052  1.00  0.00     0.049 A 
ATOM     39  N   UNL A   1      41.173  27.943  29.790  1.00  0.00    -0.248 NA
ATOM     40  C   UNL A   1      39.752  28.192  27.954  1.00  0.00     0.031 C 
ATOM     41  C   UNL A   1      39.127  31.450  31.692  1.00  0.00     0.029 A 
ATOM     42  N   UNL A   1      40.847  30.028  31.852  1.00  0.00    -0.354 N 
ATOM     43  C   UNL A   1      41.508  27.007  28.817  1.00  0.00     0.074 A 
ATOM     44  C   UNL A   1      40.571  27.177  27.728  1.00  0.00     0.031 C 
ATOM     45  C   UNL A   1      39.816  31.767  32.802  1.00  0.00     0.029 A 
ATOM     46  C   UNL A   1      40.897  30.799  32.990  1.00  0.00     0.049 A 
ATOM     47  H   UNL A   1      41.522  29.345  31.632  1.00  0.00     0.167 HD
ATOM     48  C   UNL A   1      42.503  26.086  28.841  1.00  0.00     0.034 A 
ATOM     49  C   UNL A   1      41.678  30.697  34.085  1.00  0.00     0.034 A 
ATOM     50  C   UNL A   1      43.436  25.950  29.933  1.00  0.00     0.049 A 
ATOM     51  C   UNL A   1      42.714  29.598  34.143  1.00  0.00     0.074 A 
ATOM     52  C   UNL A   1      44.491  25.065  30.057  1.00  0.00     0.029 A 
ATOM     53  N   UNL A   1      43.417  26.712  31.095  1.00  0.00    -0.354 N 
ATOM     54  N   UNL A   1      42.998  28.680  33.246  1.00  0.00    -0.248 NA
ATOM     55  C   UNL A   1      43.528  29.516  35.363  1.00  0.00     0.031 C 
ATOM     56  C   UNL A   1      45.052  25.229  31.328  1.00  0.00     0.029 A 
ATOM     57  C   UNL A   1      44.413  26.285  31.961  1.00  0.00     0.049 A 
ATOM     58  H   UNL A   1      42.790  27.449  31.278  1.00  0.00     0.167 HD
ATOM     59  C   UNL A   1      44.042  27.930  33.785  1.00  0.00     0.074 A 
ATOM     60  C   UNL A   1      44.344  28.512  35.077  1.00  0.00     0.031 C 
ATOM     61  C   UNL A   1      44.696  26.862  33.257  1.00  0.00     0.034 A 
BRANCH  48  62
ATOM     62  C   UNL A   1      42.559  25.101  27.697  1.00  0.00     0.023 A 
ATOM     63  C   UNL A   1      41.791  23.924  27.677  1.00  0.00     0.031 A 
ATOM     64  C   UNL A   1      43.455  25.318  26.633  1.00  0.00     0.131 A 
ATOM     65  C   UNL A   1      41.999  22.971  26.667  1.00  0.00     0.055 A 
ATOM     66  C   UNL A   1      43.587  24.411  25.582  1.00  0.00     0.041 A 
ATOM     67  F   UNL A   1      44.237  26.409  26.612  1.00  0.00    -0.206 F 
ATOM     68  C   UNL A   1      42.871  23.218  25.605  1.00  0.00     0.022 A 
BRANCH  65  69
ATOM     69  S   UNL A   1      41.256  21.328  26.864  1.00  0.00     0.124 S 
ATOM     70  O   UNL A   1      40.849  21.353  28.267  1.00  0.00    -0.237 OA
ATOM     71  O   UNL A   1      40.175  21.351  25.885  1.00  0.00    -0.237 OA
ATOM     72  O   UNL A   1      42.356  20.415  26.558  1.00  0.00    -0.744 OA
ENDBRANCH  65  69
ENDBRANCH  48  62
BRANCH  49  73
ATOM     73  C   UNL A   1      41.451  31.594  35.256  1.00  0.00     0.023 A 
ATOM     74  C   UNL A   1      40.277  31.524  36.021  1.00  0.00     0.031 A 
ATOM     75  C   UNL A   1      42.403  32.573  35.601  1.00  0.00     0.131 A 
ATOM     76  C   UNL A   1      40.073  32.433  37.075  1.00  0.00     0.055 A 
ATOM     77  C   UNL A   1      42.222  33.434  36.684  1.00  0.00     0.041 A 
ATOM     78  F   UNL A   1      43.538  32.694  34.895  1.00  0.00    -0.206 F 
ATOM     79  C   UNL A   1      41.046  33.373  37.422  1.00  0.00     0.022 A 
BRANCH  76  80
ATOM     80  S   UNL A   1      38.480  32.419  37.943  1.00  0.00     0.124 S 
ATOM     81  O   UNL A   1      37.854  31.221  37.394  1.00  0.00    -0.237 OA
ATOM     82  O   UNL A   1      38.896  32.343  39.340  1.00  0.00    -0.237 OA
ATOM     83  O   UNL A   1      37.864  33.683  37.546  1.00  0.00    -0.744 OA
ENDBRANCH  76  80
ENDBRANCH  49  73
BRANCH  61  84
ATOM     84  C   UNL A   1      45.839  26.281  34.057  1.00  0.00     0.023 A 
ATOM     85  C   UNL A   1      45.651  25.236  34.978  1.00  0.00     0.031 A 
ATOM     86  C   UNL A   1      47.144  26.782  33.889  1.00  0.00     0.131 A 
ATOM     87  C   UNL A   1      46.737  24.762  35.731  1.00  0.00     0.055 A 
ATOM     88  C   UNL A   1      48.231  26.260  34.590  1.00  0.00     0.041 A 
ATOM     89  F   UNL A   1      47.385  27.785  33.028  1.00  0.00    -0.206 F 
ATOM     90  C   UNL A   1      48.028  25.253  35.527  1.00  0.00     0.022 A 
BRANCH  87  91
ATOM     91  S   UNL A   1      46.424  23.561  37.055  1.00  0.00     0.124 S 
ATOM     92  O   UNL A   1      47.386  23.975  38.071  1.00  0.00    -0.237 OA
ATOM     93  O   UNL A   1      45.020  23.801  37.370  1.00  0.00    -0.237 OA
ATOM     94  O   UNL A   1      46.706  22.274  36.424  1.00  0.00    -0.744 OA
ENDBRANCH  87  91
ENDBRANCH  61  84
ENDBRANCH  35  36
ENDBRANCH  28  30
ENDBRANCH  27  28
ENDBRANCH  26  27
ENDBRANCH  25  26
ENDBRANCH  24  25
ENDBRANCH  23  24
ENDBRANCH   1  23
TORSDOF 26
ENDMDL
MODEL 3
REMARK VINA RESULT:      -8.7      2.715      3.880
REMARK SMILES C#CCNC(=O)C[N@@H+](CC(=O)OCCOCCOCCOC(=O)c1ccc(-c2c3nc(c(-c4cc(S(=O)(=O)[O-])ccc4F)c4ccc([nH]4)c(-c4cc(S(=O)(=O)[O-])ccc4F)c4nc(c(-c5cc(S(=O)(=O)[O-])ccc5F)c5ccc2[nH]5)C=C4)C=C3)cc1)C(C)(C)C
REMARK SMILES IDX 16 1 15 2 14 3 13 4 12 5 10 6 11 7 9 8 8 9 7 11 5 12 4 13
REMARK SMILES IDX 6 15 3 16 2 17 1 18 87 19 88 20 89 21 90 22 17 23 18 24
REMARK SMILES IDX 19 25 20 26 21 27 22 28 23 29 24 30 25 31 86 32 26 33 85 34
REMARK SMILES IDX 27 35 28 36 29 37 79 38 30 39 84 40 78 41 80 42 31 43 83 44
REMARK SMILES IDX 77 45 76 46 32 48 64 49 44 50 63 51 45 52 48 53 62 54 81 55
REMARK SMILES IDX 46 56 47 57 61 59 82 60 49 61 33 62 34 63 42 64 35 65 41 66
REMARK SMILES IDX 43 67 40 68 36 69 37 70 38 71 39 72 65 73 66 74 74 75 67 76
REMARK SMILES IDX 73 77 75 78 72 79 68 80 69 81 70 82 71 83 50 84 51 85 59 86
REMARK SMILES IDX 52 87 58 88 60 89 57 90 53 91 54 92 55 93 56 94
REMARK H PARENT 8 10 4 14 80 47 48 58
REMARK Flexibility Score: inf
ROOT
ATOM      1  C   UNL A   1      33.079  29.042  24.081  1.00  0.00     0.188 C 
ENDROOT
BRANCH   1   2
ATOM      2  O   UNL A   1      32.805  28.204  22.966  1.00  0.00    -0.376 OA
BRANCH   2   3
ATOM      3  C   UNL A   1      32.753  26.805  23.231  1.00  0.00     0.202 C 
BRANCH   3   4
ATOM      4  C   UNL A   1      33.209  25.849  22.112  1.00  0.00     0.261 C 
BRANCH   4   5
ATOM      5  O   UNL A   1      34.227  24.869  22.443  1.00  0.00    -0.459 OA
BRANCH   5   6
ATOM      6  C   UNL A   1      34.152  24.348  23.697  1.00  0.00     0.361 C 
ATOM      7  O   UNL A   1      34.955  24.635  24.587  1.00  0.00    -0.245 OA
BRANCH   6   8
ATOM      8  C   UNL A   1      33.082  23.285  23.975  1.00  0.00     0.387 C 
BRANCH   8   9
ATOM      9  N   UNL A   1      32.491  23.058  25.327  1.00  0.00    -0.314 N 
ATOM     10  H   UNL A   1      33.110  23.526  25.991  1.00  0.00     0.349 HD
BRANCH   9  11
ATOM     11  C   UNL A   1      32.579  21.643  25.739  1.00  0.00     0.364 C 
BRANCH  11  12
ATOM     12  C   UNL A   1      33.949  21.243  26.292  1.00  0.00     0.275 C 
ATOM     13  N   UNL A   1      34.672  20.287  25.635  1.00  0.00    -0.340 N 
ATOM     14  H   UNL A   1      35.617  20.173  25.885  1.00  0.00     0.164 HD
ATOM     15  O   UNL A   1      34.397  21.737  27.328  1.00  0.00    -0.268 OA
BRANCH  13  16
ATOM     16  C   UNL A   1      34.148  19.442  24.611  1.00  0.00     0.206 C 
BRANCH  16  17
ATOM     17  C   UNL A   1      33.282  18.268  25.038  1.00  0.00    -0.085 C 
ATOM     18  C   UNL A   1      32.539  17.261  25.403  1.00  0.00     0.006 C 
ENDBRANCH  16  17
ENDBRANCH  13  16
ENDBRANCH  11  12
ENDBRANCH   9  11
BRANCH   9  19
ATOM     19  C   UNL A   1      31.326  23.886  25.735  1.00  0.00     0.090 C 
ATOM     20  C   UNL A   1      30.560  24.114  24.464  1.00  0.00     0.078 C 
ATOM     21  C   UNL A   1      30.233  23.355  26.715  1.00  0.00     0.078 C 
ATOM     22  C   UNL A   1      31.829  25.203  26.385  1.00  0.00     0.078 C 
ENDBRANCH   9  19
ENDBRANCH   8   9
ENDBRANCH   6   8
ENDBRANCH   5   6
ENDBRANCH   4   5
ENDBRANCH   3   4
ENDBRANCH   2   3
ENDBRANCH   1   2
BRANCH   1  23
ATOM     23  C   UNL A   1      31.878  29.365  24.990  1.00  0.00     0.188 C 
BRANCH  23  24
ATOM     24  O   UNL A   1      32.112  30.467  25.863  1.00  0.00    -0.376 OA
BRANCH  24  25
ATOM     25  C   UNL A   1      32.684  30.234  27.152  1.00  0.00     0.202 C 
BRANCH  25  26
ATOM     26  C   UNL A   1      34.186  30.438  27.361  1.00  0.00     0.261 C 
BRANCH  26  27
ATOM     27  O   UNL A   1      34.557  31.770  27.771  1.00  0.00    -0.460 OA
BRANCH  27  28
ATOM     28  C   UNL A   1      34.872  31.954  29.077  1.00  0.00     0.338 C 
ATOM     29  O   UNL A   1      34.131  32.378  29.950  1.00  0.00    -0.246 OA
BRANCH  28  30
ATOM     30  C   UNL A   1      36.197  31.329  29.318  1.00  0.00     0.060 A 
ATOM     31  C   UNL A   1      36.271  30.198  30.138  1.00  0.00     0.016 A 
ATOM     32  C   UNL A   1      37.359  31.815  28.728  1.00  0.00     0.016 A 
ATOM     33  C   UNL A   1      37.474  29.539  30.376  1.00  0.00     0.010 A 
ATOM     34  C   UNL A   1      38.581  31.181  28.992  1.00  0.00     0.010 A 
ATOM     35  C   UNL A   1      38.650  30.050  29.833  1.00  0.00    -0.014 A 
BRANCH  35  36
ATOM     36  C   UNL A   1      39.957  29.542  30.318  1.00  0.00     0.031 A 
ATOM     37  C   UNL A   1      40.590  28.404  29.569  1.00  0.00     0.074 A 
ATOM     38  C   UNL A   1      40.601  30.099  31.360  1.00  0.00     0.049 A 
ATOM     39  N   UNL A   1      41.613  27.660  29.890  1.00  0.00    -0.248 NA
ATOM     40  C   UNL A   1      39.966  28.056  28.283  1.00  0.00     0.031 C 
ATOM     41  C   UNL A   1      40.162  31.285  32.093  1.00  0.00     0.029 A 
ATOM     42  N   UNL A   1      41.764  29.726  31.990  1.00  0.00    -0.354 N 
ATOM     43  C   UNL A   1      41.725  26.717  28.872  1.00  0.00     0.074 A 
ATOM     44  C   UNL A   1      40.656  26.983  27.933  1.00  0.00     0.031 C 
ATOM     45  C   UNL A   1      41.029  31.524  33.092  1.00  0.00     0.029 A 
ATOM     46  C   UNL A   1      42.042  30.470  33.114  1.00  0.00     0.049 A 
ATOM     47  H   UNL A   1      42.341  28.995  31.670  1.00  0.00     0.167 HD
ATOM     48  C   UNL A   1      42.633  25.719  28.745  1.00  0.00     0.034 A 
ATOM     49  C   UNL A   1      42.964  30.284  34.082  1.00  0.00     0.034 A 
ATOM     50  C   UNL A   1      43.701  25.489  29.686  1.00  0.00     0.049 A 
ATOM     51  C   UNL A   1      43.902  29.105  33.980  1.00  0.00     0.074 A 
ATOM     52  C   UNL A   1      44.686  24.519  29.650  1.00  0.00     0.029 A 
ATOM     53  N   UNL A   1      43.915  26.228  30.844  1.00  0.00    -0.354 N 
ATOM     54  N   UNL A   1      43.977  28.184  33.046  1.00  0.00    -0.248 NA
ATOM     55  C   UNL A   1      44.876  28.936  35.067  1.00  0.00     0.031 C 
ATOM     56  C   UNL A   1      45.438  24.614  30.826  1.00  0.00     0.029 A 
ATOM     57  C   UNL A   1      44.987  25.706  31.552  1.00  0.00     0.049 A 
ATOM     58  H   UNL A   1      43.383  27.009  31.122  1.00  0.00     0.167 HD
ATOM     59  C   UNL A   1      45.022  27.342  33.421  1.00  0.00     0.074 A 
ATOM     60  C   UNL A   1      45.556  27.874  34.658  1.00  0.00     0.031 C 
ATOM     61  C   UNL A   1      45.502  26.235  32.796  1.00  0.00     0.034 A 
BRANCH  48  62
ATOM     62  C   UNL A   1      42.441  24.754  27.598  1.00  0.00     0.023 A 
ATOM     63  C   UNL A   1      41.743  23.543  27.741  1.00  0.00     0.031 A 
ATOM     64  C   UNL A   1      43.030  25.028  26.350  1.00  0.00     0.131 A 
ATOM     65  C   UNL A   1      41.730  22.615  26.688  1.00  0.00     0.055 A 
ATOM     66  C   UNL A   1      42.931  24.142  25.276  1.00  0.00     0.041 A 
ATOM     67  F   UNL A   1      43.736  26.154  26.160  1.00  0.00    -0.206 F 
ATOM     68  C   UNL A   1      42.295  22.917  25.448  1.00  0.00     0.022 A 
BRANCH  65  69
ATOM     69  S   UNL A   1      41.129  20.935  27.023  1.00  0.00     0.124 S 
ATOM     70  O   UNL A   1      40.715  21.043  28.420  1.00  0.00    -0.237 OA
ATOM     71  O   UNL A   1      40.056  20.784  26.048  1.00  0.00    -0.237 OA
ATOM     72  O   UNL A   1      42.306  20.099  26.794  1.00  0.00    -0.744 OA
ENDBRANCH  65  69
ENDBRANCH  48  62
BRANCH  49  73
ATOM     73  C   UNL A   1      42.983  31.176  35.279  1.00  0.00     0.023 A 
ATOM     74  C   UNL A   1      43.726  32.366  35.299  1.00  0.00     0.031 A 
ATOM     75  C   UNL A   1      42.280  30.820  36.446  1.00  0.00     0.131 A 
ATOM     76  C   UNL A   1      43.770  33.143  36.470  1.00  0.00     0.055 A 
ATOM     77  C   UNL A   1      42.280  31.624  37.586  1.00  0.00     0.041 A 
ATOM     78  F   UNL A   1      41.564  29.685  36.487  1.00  0.00    -0.206 F 
ATOM     79  C   UNL A   1      43.037  32.790  37.605  1.00  0.00     0.022 A 
BRANCH  76  80
ATOM     80  S   UNL A   1      44.863  34.591  36.515  1.00  0.00     0.124 S 
ATOM     81  O   UNL A   1      45.693  34.372  35.336  1.00  0.00    -0.237 OA
ATOM     82  O   UNL A   1      43.911  35.693  36.434  1.00  0.00    -0.237 OA
ATOM     83  O   UNL A   1      45.552  34.458  37.797  1.00  0.00    -0.744 OA
ENDBRANCH  76  80
ENDBRANCH  49  73
BRANCH  61  84
ATOM     84  C   UNL A   1      46.697  25.549  33.416  1.00  0.00     0.023 A 
ATOM     85  C   UNL A   1      46.560  24.490  34.330  1.00  0.00     0.031 A 
ATOM     86  C   UNL A   1      48.001  25.963  33.080  1.00  0.00     0.131 A 
ATOM     87  C   UNL A   1      47.701  23.917  34.914  1.00  0.00     0.055 A 
ATOM     88  C   UNL A   1      49.132  25.343  33.611  1.00  0.00     0.041 A 
ATOM     89  F   UNL A   1      48.196  26.974  32.217  1.00  0.00    -0.206 F 
ATOM     90  C   UNL A   1      48.985  24.322  34.544  1.00  0.00     0.022 A 
BRANCH  87  91
ATOM     91  S   UNL A   1      47.484  22.698  36.241  1.00  0.00     0.124 S 
ATOM     92  O   UNL A   1      46.032  22.652  36.374  1.00  0.00    -0.237 OA
ATOM     93  O   UNL A   1      48.111  21.507  35.678  1.00  0.00    -0.237 OA
ATOM     94  O   UNL A   1      48.192  23.294  37.372  1.00  0.00    -0.744 OA
ENDBRANCH  87  91
ENDBRANCH  61  84
ENDBRANCH  35  36
ENDBRANCH  28  30
ENDBRANCH  27  28
ENDBRANCH  26  27
ENDBRANCH  25  26
ENDBRANCH  24  25
ENDBRANCH  23  24
ENDBRANCH   1  23
TORSDOF 26
ENDMDL
