MODEL 1
REMARK VINA RESULT:     -10.2      0.000      0.000
REMARK SMILES C=CCn1nc(C(=O)OCCOCCOCCOC(=O)c2ccc(-c3c4nc(c(-c5cc(S(=O)(=O)[O-])ccc5F)c5ccc([nH]5)c(-c5cc(S(=O)(=O)[O-])ccc5F)c5nc(c(-c6cc(S(=O)(=O)[O-])ccc6F)c6ccc3[nH]6)C=C5)C=C4)cc2)c2c1CC[C@@H]([NH2+]Cc1nc(C)cc(=O)[nH]1)C2
REMARK SMILES IDX 13 1 12 2 11 3 10 4 9 5 7 6 8 7 6 8 4 9 5 10 85 11 84 12
REMARK SMILES IDX 86 13 99 14 87 15 88 16 3 17 2 18 1 19 89 20 90 23 91 24
REMARK SMILES IDX 92 25 98 26 93 27 96 28 94 30 95 31 97 32 14 33 15 34 16 35
REMARK SMILES IDX 17 36 18 37 19 38 20 39 21 40 22 41 83 42 23 43 82 44 24 45
REMARK SMILES IDX 25 46 26 47 76 48 27 49 81 50 75 51 77 52 28 53 80 54 74 55
REMARK SMILES IDX 73 56 29 58 61 59 41 60 60 61 42 62 45 63 59 64 78 65 43 66
REMARK SMILES IDX 44 67 58 69 79 70 46 71 30 72 31 73 39 74 32 75 38 76 40 77
REMARK SMILES IDX 37 78 33 79 34 80 35 81 36 82 62 83 63 84 71 85 64 86 70 87
REMARK SMILES IDX 72 88 69 89 65 90 66 91 67 92 68 93 47 94 48 95 56 96 49 97
REMARK SMILES IDX 55 98 57 99 54 100 50 101 51 102 52 103 53 104
REMARK H PARENT 89 21 89 22 98 29 77 57 45 68
REMARK Flexibility Score: inf
ROOT
ATOM      1  C   UNL A   1      34.362  30.656  27.553  1.00  0.00     0.188 C 
ENDROOT
BRANCH   1   2
ATOM      2  O   UNL A   1      33.057  30.312  27.098  1.00  0.00    -0.376 OA
BRANCH   2   3
ATOM      3  C   UNL A   1      32.828  30.085  25.716  1.00  0.00     0.202 C 
BRANCH   3   4
ATOM      4  C   UNL A   1      33.725  29.084  24.964  1.00  0.00     0.261 C 
BRANCH   4   5
ATOM      5  O   UNL A   1      33.708  29.204  23.532  1.00  0.00    -0.458 OA
BRANCH   5   6
ATOM      6  C   UNL A   1      33.228  28.133  22.829  1.00  0.00     0.359 C 
ATOM      7  O   UNL A   1      33.824  27.623  21.879  1.00  0.00    -0.244 OA
BRANCH   6   8
ATOM      8  C   UNL A   1      31.965  27.601  23.385  1.00  0.00     0.174 A 
ATOM      9  N   UNL A   1      29.845  27.370  23.652  1.00  0.00    -0.265 N 
ATOM     10  N   UNL A   1      30.773  28.144  23.047  1.00  0.00    -0.165 NA
ATOM     11  C   UNL A   1      30.406  26.464  24.499  1.00  0.00     0.043 A 
ATOM     12  C   UNL A   1      31.762  26.483  24.249  1.00  0.00     0.014 A 
ATOM     13  C   UNL A   1      29.707  25.565  25.454  1.00  0.00     0.062 C 
ATOM     14  C   UNL A   1      32.710  25.508  24.867  1.00  0.00     0.105 C 
ATOM     15  C   UNL A   1      30.755  24.961  26.414  1.00  0.00     0.072 C 
ATOM     16  C   UNL A   1      31.973  24.371  25.653  1.00  0.00     0.187 C 
BRANCH   9  17
ATOM     17  C   UNL A   1      28.426  27.597  23.388  1.00  0.00     0.171 C 
BRANCH  17  18
ATOM     18  C   UNL A   1      28.171  28.845  22.585  1.00  0.00    -0.011 C 
ATOM     19  C   UNL A   1      27.598  29.960  23.059  1.00  0.00     0.006 C 
ENDBRANCH  17  18
ENDBRANCH   9  17
BRANCH  16  20
ATOM     20  N   UNL A   1      31.516  23.282  24.778  1.00  0.00    -0.337 N 
ATOM     21  H   UNL A   1      32.227  23.125  24.064  1.00  0.00     0.346 HD
ATOM     22  H   UNL A   1      30.623  23.575  24.383  1.00  0.00     0.346 HD
BRANCH  20  23
ATOM     23  C   UNL A   1      31.279  22.020  25.478  1.00  0.00     0.337 C 
BRANCH  23  24
ATOM     24  C   UNL A   1      32.361  20.986  25.164  1.00  0.00     0.164 A 
ATOM     25  N   UNL A   1      32.089  19.744  24.913  1.00  0.00    -0.234 NA
ATOM     26  N   UNL A   1      33.645  21.465  25.226  1.00  0.00    -0.306 N 
ATOM     27  C   UNL A   1      33.141  18.899  24.648  1.00  0.00     0.045 A 
ATOM     28  C   UNL A   1      34.731  20.662  25.044  1.00  0.00     0.251 A 
ATOM     29  H   UNL A   1      33.787  22.422  25.407  1.00  0.00     0.171 HD
ATOM     30  C   UNL A   1      32.775  17.489  24.279  1.00  0.00     0.067 C 
ATOM     31  C   UNL A   1      34.429  19.269  24.697  1.00  0.00     0.095 A 
ATOM     32  O   UNL A   1      35.877  21.072  25.180  1.00  0.00    -0.270 OA
ENDBRANCH  23  24
ENDBRANCH  20  23
ENDBRANCH  16  20
ENDBRANCH   6   8
ENDBRANCH   5   6
ENDBRANCH   4   5
ENDBRANCH   3   4
ENDBRANCH   2   3
ENDBRANCH   1   2
BRANCH   1  33
ATOM     33  C   UNL A   1      34.774  32.135  27.750  1.00  0.00     0.188 C 
BRANCH  33  34
ATOM     34  O   UNL A   1      33.742  33.007  28.200  1.00  0.00    -0.376 OA
BRANCH  34  35
ATOM     35  C   UNL A   1      34.128  34.334  28.548  1.00  0.00     0.202 C 
BRANCH  35  36
ATOM     36  C   UNL A   1      33.997  34.705  30.026  1.00  0.00     0.261 C 
BRANCH  36  37
ATOM     37  O   UNL A   1      35.004  34.133  30.841  1.00  0.00    -0.460 OA
BRANCH  37  38
ATOM     38  C   UNL A   1      34.566  33.308  31.805  1.00  0.00     0.338 C 
ATOM     39  O   UNL A   1      33.551  33.452  32.490  1.00  0.00    -0.246 OA
BRANCH  38  40
ATOM     40  C   UNL A   1      35.514  32.204  31.934  1.00  0.00     0.060 A 
ATOM     41  C   UNL A   1      36.013  31.952  33.213  1.00  0.00     0.016 A 
ATOM     42  C   UNL A   1      36.150  31.754  30.768  1.00  0.00     0.016 A 
ATOM     43  C   UNL A   1      37.324  31.560  33.310  1.00  0.00     0.010 A 
ATOM     44  C   UNL A   1      37.469  31.412  30.865  1.00  0.00     0.010 A 
ATOM     45  C   UNL A   1      38.054  31.446  32.127  1.00  0.00    -0.014 A 
BRANCH  45  46
ATOM     46  C   UNL A   1      39.492  31.511  32.217  1.00  0.00     0.031 A 
ATOM     47  C   UNL A   1      40.125  30.239  32.589  1.00  0.00     0.074 A 
ATOM     48  C   UNL A   1      40.144  32.628  31.844  1.00  0.00     0.049 A 
ATOM     49  N   UNL A   1      40.716  29.949  33.697  1.00  0.00    -0.248 NA
ATOM     50  C   UNL A   1      39.894  29.088  31.705  1.00  0.00     0.031 C 
ATOM     51  C   UNL A   1      39.605  33.805  31.154  1.00  0.00     0.029 A 
ATOM     52  N   UNL A   1      41.475  32.878  31.880  1.00  0.00    -0.354 N 
ATOM     53  C   UNL A   1      41.123  28.629  33.556  1.00  0.00     0.074 A 
ATOM     54  C   UNL A   1      40.369  28.099  32.457  1.00  0.00     0.031 C 
ATOM     55  C   UNL A   1      40.631  34.503  30.615  1.00  0.00     0.029 A 
ATOM     56  C   UNL A   1      41.885  33.882  31.014  1.00  0.00     0.049 A 
ATOM     57  H   UNL A   1      42.096  32.392  32.468  1.00  0.00     0.167 HD
ATOM     58  C   UNL A   1      42.232  28.159  34.186  1.00  0.00     0.034 A 
ATOM     59  C   UNL A   1      43.152  34.072  30.561  1.00  0.00     0.034 A 
ATOM     60  C   UNL A   1      42.656  29.072  35.226  1.00  0.00     0.049 A 
ATOM     61  C   UNL A   1      44.058  33.365  31.514  1.00  0.00     0.074 A 
ATOM     62  C   UNL A   1      42.061  29.567  36.371  1.00  0.00     0.029 A 
ATOM     63  N   UNL A   1      43.712  29.918  34.957  1.00  0.00    -0.354 N 
ATOM     64  N   UNL A   1      44.193  33.706  32.769  1.00  0.00    -0.248 NA
ATOM     65  C   UNL A   1      44.418  31.982  31.217  1.00  0.00     0.031 C 
ATOM     66  C   UNL A   1      42.474  30.928  36.443  1.00  0.00     0.029 A 
ATOM     67  C   UNL A   1      43.354  31.175  35.384  1.00  0.00     0.049 A 
ATOM     68  H   UNL A   1      44.566  29.669  34.536  1.00  0.00     0.167 HD
ATOM     69  C   UNL A   1      44.238  32.508  33.474  1.00  0.00     0.074 A 
ATOM     70  C   UNL A   1      44.471  31.483  32.457  1.00  0.00     0.031 C 
ATOM     71  C   UNL A   1      43.791  32.414  34.763  1.00  0.00     0.034 A 
BRANCH  58  72
ATOM     72  C   UNL A   1      43.133  27.071  33.646  1.00  0.00     0.023 A 
ATOM     73  C   UNL A   1      43.373  25.977  34.497  1.00  0.00     0.031 A 
ATOM     74  C   UNL A   1      43.958  27.143  32.499  1.00  0.00     0.131 A 
ATOM     75  C   UNL A   1      44.446  25.101  34.264  1.00  0.00     0.055 A 
ATOM     76  C   UNL A   1      44.976  26.224  32.232  1.00  0.00     0.041 A 
ATOM     77  F   UNL A   1      43.904  28.144  31.616  1.00  0.00    -0.206 F 
ATOM     78  C   UNL A   1      45.250  25.216  33.136  1.00  0.00     0.022 A 
BRANCH  75  79
ATOM     79  S   UNL A   1      44.884  23.930  35.571  1.00  0.00     0.124 S 
ATOM     80  O   UNL A   1      46.204  23.485  35.139  1.00  0.00    -0.237 OA
ATOM     81  O   UNL A   1      44.843  24.778  36.757  1.00  0.00    -0.237 OA
ATOM     82  O   UNL A   1      43.828  22.924  35.486  1.00  0.00    -0.744 OA
ENDBRANCH  75  79
ENDBRANCH  58  72
BRANCH  59  83
ATOM     83  C   UNL A   1      43.520  34.465  29.168  1.00  0.00     0.023 A 
ATOM     84  C   UNL A   1      43.940  33.539  28.192  1.00  0.00     0.031 A 
ATOM     85  C   UNL A   1      43.270  35.784  28.712  1.00  0.00     0.131 A 
ATOM     86  C   UNL A   1      44.118  33.950  26.847  1.00  0.00     0.055 A 
ATOM     87  C   UNL A   1      43.468  36.189  27.391  1.00  0.00     0.041 A 
ATOM     88  F   UNL A   1      42.746  36.716  29.523  1.00  0.00    -0.206 F 
ATOM     89  C   UNL A   1      43.889  35.269  26.448  1.00  0.00     0.022 A 
BRANCH  86  90
ATOM     90  S   UNL A   1      44.569  32.739  25.562  1.00  0.00     0.124 S 
ATOM     91  O   UNL A   1      46.010  32.610  25.750  1.00  0.00    -0.237 OA
ATOM     92  O   UNL A   1      43.761  31.582  25.926  1.00  0.00    -0.237 OA
ATOM     93  O   UNL A   1      44.169  33.397  24.317  1.00  0.00    -0.744 OA
ENDBRANCH  86  90
ENDBRANCH  59  83
BRANCH  71  94
ATOM     94  C   UNL A   1      43.495  33.685  35.534  1.00  0.00     0.023 A 
ATOM     95  C   UNL A   1      42.204  34.226  35.726  1.00  0.00     0.031 A 
ATOM     96  C   UNL A   1      44.557  34.262  36.254  1.00  0.00     0.131 A 
ATOM     97  C   UNL A   1      42.017  35.301  36.620  1.00  0.00     0.055 A 
ATOM     98  C   UNL A   1      44.365  35.311  37.151  1.00  0.00     0.041 A 
ATOM     99  F   UNL A   1      45.803  33.771  36.139  1.00  0.00    -0.206 F 
ATOM    100  C   UNL A   1      43.092  35.837  37.337  1.00  0.00     0.022 A 
BRANCH  97 101
ATOM    101  S   UNL A   1      40.361  36.019  36.875  1.00  0.00     0.124 S 
ATOM    102  O   UNL A   1      40.109  36.743  35.635  1.00  0.00    -0.237 OA
ATOM    103  O   UNL A   1      39.536  34.837  37.110  1.00  0.00    -0.237 OA
ATOM    104  O   UNL A   1      40.540  36.874  38.051  1.00  0.00    -0.744 OA
ENDBRANCH  97 101
ENDBRANCH  71  94
ENDBRANCH  45  46
ENDBRANCH  38  40
ENDBRANCH  37  38
ENDBRANCH  36  37
ENDBRANCH  35  36
ENDBRANCH  34  35
ENDBRANCH  33  34
ENDBRANCH   1  33
TORSDOF 25
ENDMDL
MODEL 2
REMARK VINA RESULT:      -9.7      2.337      7.466
REMARK SMILES C=CCn1nc(C(=O)OCCOCCOCCOC(=O)c2ccc(-c3c4nc(c(-c5cc(S(=O)(=O)[O-])ccc5F)c5ccc([nH]5)c(-c5cc(S(=O)(=O)[O-])ccc5F)c5nc(c(-c6cc(S(=O)(=O)[O-])ccc6F)c6ccc3[nH]6)C=C5)C=C4)cc2)c2c1CC[C@@H]([NH2+]Cc1nc(C)cc(=O)[nH]1)C2
REMARK SMILES IDX 13 1 12 2 11 3 10 4 9 5 7 6 8 7 6 8 4 9 5 10 85 11 84 12
REMARK SMILES IDX 86 13 99 14 87 15 88 16 3 17 2 18 1 19 89 20 90 23 91 24
REMARK SMILES IDX 92 25 98 26 93 27 96 28 94 30 95 31 97 32 14 33 15 34 16 35
REMARK SMILES IDX 17 36 18 37 19 38 20 39 21 40 22 41 83 42 23 43 82 44 24 45
REMARK SMILES IDX 25 46 26 47 76 48 27 49 81 50 75 51 77 52 28 53 80 54 74 55
REMARK SMILES IDX 73 56 29 58 61 59 41 60 60 61 42 62 45 63 59 64 78 65 43 66
REMARK SMILES IDX 44 67 58 69 79 70 46 71 30 72 31 73 39 74 32 75 38 76 40 77
REMARK SMILES IDX 37 78 33 79 34 80 35 81 36 82 62 83 63 84 71 85 64 86 70 87
REMARK SMILES IDX 72 88 69 89 65 90 66 91 67 92 68 93 47 94 48 95 56 96 49 97
REMARK SMILES IDX 55 98 57 99 54 100 50 101 51 102 52 103 53 104
REMARK H PARENT 89 21 89 22 98 29 77 57 45 68
REMARK Flexibility Score: inf
ROOT
ATOM      1  C   UNL A   1      34.011  32.058  27.642  1.00  0.00     0.188 C 
ENDROOT
BRANCH   1   2
ATOM      2  O   UNL A   1      32.788  31.346  27.796  1.00  0.00    -0.376 OA
BRANCH   2   3
ATOM      3  C   UNL A   1      32.163  30.763  26.663  1.00  0.00     0.202 C 
BRANCH   3   4
ATOM      4  C   UNL A   1      32.794  29.515  26.019  1.00  0.00     0.261 C 
BRANCH   4   5
ATOM      5  O   UNL A   1      33.213  29.677  24.654  1.00  0.00    -0.458 OA
BRANCH   5   6
ATOM      6  C   UNL A   1      33.511  28.536  23.961  1.00  0.00     0.359 C 
ATOM      7  O   UNL A   1      34.515  28.413  23.255  1.00  0.00    -0.244 OA
BRANCH   6   8
ATOM      8  C   UNL A   1      32.552  27.441  24.217  1.00  0.00     0.174 A 
ATOM      9  N   UNL A   1      30.764  26.266  24.008  1.00  0.00    -0.265 N 
ATOM     10  N   UNL A   1      31.331  27.433  23.633  1.00  0.00    -0.165 NA
ATOM     11  C   UNL A   1      31.505  25.613  24.946  1.00  0.00     0.043 A 
ATOM     12  C   UNL A   1      32.722  26.259  25.001  1.00  0.00     0.014 A 
ATOM     13  C   UNL A   1      31.127  24.397  25.711  1.00  0.00     0.062 C 
ATOM     14  C   UNL A   1      33.874  25.743  25.800  1.00  0.00     0.105 C 
ATOM     15  C   UNL A   1      32.132  24.216  26.870  1.00  0.00     0.072 C 
ATOM     16  C   UNL A   1      33.603  24.317  26.388  1.00  0.00     0.187 C 
BRANCH   9  17
ATOM     17  C   UNL A   1      29.478  25.868  23.442  1.00  0.00     0.171 C 
BRANCH  17  18
ATOM     18  C   UNL A   1      28.329  26.693  23.960  1.00  0.00    -0.011 C 
ATOM     19  C   UNL A   1      27.806  27.759  23.338  1.00  0.00     0.006 C 
ENDBRANCH  17  18
ENDBRANCH   9  17
BRANCH  16  20
ATOM     20  N   UNL A   1      33.871  23.244  25.419  1.00  0.00    -0.337 N 
ATOM     21  H   UNL A   1      34.725  23.475  24.912  1.00  0.00     0.346 HD
ATOM     22  H   UNL A   1      33.056  23.187  24.809  1.00  0.00     0.346 HD
BRANCH  20  23
ATOM     23  C   UNL A   1      34.039  21.925  26.028  1.00  0.00     0.337 C 
BRANCH  23  24
ATOM     24  C   UNL A   1      33.464  20.816  25.145  1.00  0.00     0.164 A 
ATOM     25  N   UNL A   1      32.918  21.053  23.995  1.00  0.00    -0.234 NA
ATOM     26  N   UNL A   1      33.520  19.561  25.693  1.00  0.00    -0.306 N 
ATOM     27  C   UNL A   1      32.428  19.982  23.285  1.00  0.00     0.045 A 
ATOM     28  C   UNL A   1      32.988  18.471  25.072  1.00  0.00     0.251 A 
ATOM     29  H   UNL A   1      33.961  19.442  26.566  1.00  0.00     0.171 HD
ATOM     30  C   UNL A   1      31.880  20.291  21.920  1.00  0.00     0.067 C 
ATOM     31  C   UNL A   1      32.425  18.721  23.741  1.00  0.00     0.095 A 
ATOM     32  O   UNL A   1      32.965  17.365  25.598  1.00  0.00    -0.270 OA
ENDBRANCH  23  24
ENDBRANCH  20  23
ENDBRANCH  16  20
ENDBRANCH   6   8
ENDBRANCH   5   6
ENDBRANCH   4   5
ENDBRANCH   3   4
ENDBRANCH   2   3
ENDBRANCH   1   2
BRANCH   1  33
ATOM     33  C   UNL A   1      34.043  33.605  27.675  1.00  0.00     0.188 C 
BRANCH  33  34
ATOM     34  O   UNL A   1      32.957  34.229  28.352  1.00  0.00    -0.376 OA
BRANCH  34  35
ATOM     35  C   UNL A   1      33.228  35.471  28.996  1.00  0.00     0.202 C 
BRANCH  35  36
ATOM     36  C   UNL A   1      33.465  35.407  30.506  1.00  0.00     0.261 C 
BRANCH  36  37
ATOM     37  O   UNL A   1      34.555  34.580  30.869  1.00  0.00    -0.460 OA
BRANCH  37  38
ATOM     38  C   UNL A   1      34.360  33.813  31.953  1.00  0.00     0.338 C 
ATOM     39  O   UNL A   1      33.607  34.054  32.898  1.00  0.00    -0.246 OA
BRANCH  38  40
ATOM     40  C   UNL A   1      35.219  32.635  31.845  1.00  0.00     0.060 A 
ATOM     41  C   UNL A   1      35.546  31.985  33.036  1.00  0.00     0.016 A 
ATOM     42  C   UNL A   1      35.961  32.478  30.666  1.00  0.00     0.016 A 
ATOM     43  C   UNL A   1      36.810  31.464  33.141  1.00  0.00     0.010 A 
ATOM     44  C   UNL A   1      37.236  32.003  30.785  1.00  0.00     0.010 A 
ATOM     45  C   UNL A   1      37.668  31.624  32.053  1.00  0.00    -0.014 A 
BRANCH  45  46
ATOM     46  C   UNL A   1      39.086  31.528  32.296  1.00  0.00     0.031 A 
ATOM     47  C   UNL A   1      39.704  32.788  32.731  1.00  0.00     0.074 A 
ATOM     48  C   UNL A   1      39.702  30.333  32.248  1.00  0.00     0.049 A 
ATOM     49  N   UNL A   1      40.524  33.531  32.070  1.00  0.00    -0.248 NA
ATOM     50  C   UNL A   1      39.190  33.400  33.965  1.00  0.00     0.031 C 
ATOM     51  C   UNL A   1      39.092  29.002  32.152  1.00  0.00     0.029 A 
ATOM     52  N   UNL A   1      41.016  30.054  32.426  1.00  0.00    -0.354 N 
ATOM     53  C   UNL A   1      40.796  34.605  32.908  1.00  0.00     0.074 A 
ATOM     54  C   UNL A   1      39.765  34.598  33.906  1.00  0.00     0.031 C 
ATOM     55  C   UNL A   1      40.002  28.076  32.533  1.00  0.00     0.029 A 
ATOM     56  C   UNL A   1      41.271  28.740  32.791  1.00  0.00     0.049 A 
ATOM     57  H   UNL A   1      41.727  30.724  32.306  1.00  0.00     0.167 HD
ATOM     58  C   UNL A   1      41.990  35.253  32.864  1.00  0.00     0.034 A 
ATOM     59  C   UNL A   1      42.401  28.288  33.396  1.00  0.00     0.034 A 
ATOM     60  C   UNL A   1      42.712  34.913  31.657  1.00  0.00     0.049 A 
ATOM     61  C   UNL A   1      43.461  29.308  33.139  1.00  0.00     0.074 A 
ATOM     62  C   UNL A   1      42.446  35.048  30.307  1.00  0.00     0.029 A 
ATOM     63  N   UNL A   1      43.727  33.982  31.746  1.00  0.00    -0.354 N 
ATOM     64  N   UNL A   1      43.917  29.590  31.946  1.00  0.00    -0.248 NA
ATOM     65  C   UNL A   1      43.646  30.366  34.127  1.00  0.00     0.031 C 
ATOM     66  C   UNL A   1      42.955  33.860  29.709  1.00  0.00     0.029 A 
ATOM     67  C   UNL A   1      43.567  33.096  30.707  1.00  0.00     0.049 A 
ATOM     68  H   UNL A   1      44.434  33.955  32.429  1.00  0.00     0.167 HD
ATOM     69  C   UNL A   1      44.051  30.973  31.921  1.00  0.00     0.074 A 
ATOM     70  C   UNL A   1      43.962  31.386  33.321  1.00  0.00     0.031 C 
ATOM     71  C   UNL A   1      43.923  31.688  30.761  1.00  0.00     0.034 A 
BRANCH  58  72
ATOM     72  C   UNL A   1      42.659  35.907  34.052  1.00  0.00     0.023 A 
ATOM     73  C   UNL A   1      42.843  37.299  33.980  1.00  0.00     0.031 A 
ATOM     74  C   UNL A   1      43.344  35.256  35.105  1.00  0.00     0.131 A 
ATOM     75  C   UNL A   1      43.747  37.955  34.830  1.00  0.00     0.055 A 
ATOM     76  C   UNL A   1      44.185  35.926  35.998  1.00  0.00     0.041 A 
ATOM     77  F   UNL A   1      43.326  33.932  35.288  1.00  0.00    -0.206 F 
ATOM     78  C   UNL A   1      44.420  37.278  35.841  1.00  0.00     0.022 A 
BRANCH  75  79
ATOM     79  S   UNL A   1      44.169  39.673  34.458  1.00  0.00     0.124 S 
ATOM     80  O   UNL A   1      42.994  40.112  33.713  1.00  0.00    -0.237 OA
ATOM     81  O   UNL A   1      44.335  40.235  35.794  1.00  0.00    -0.237 OA
ATOM     82  O   UNL A   1      45.395  39.556  33.673  1.00  0.00    -0.744 OA
ENDBRANCH  75  79
ENDBRANCH  58  72
BRANCH  59  83
ATOM     83  C   UNL A   1      42.447  27.266  34.484  1.00  0.00     0.023 A 
ATOM     84  C   UNL A   1      43.241  26.103  34.416  1.00  0.00     0.031 A 
ATOM     85  C   UNL A   1      41.828  27.528  35.732  1.00  0.00     0.131 A 
ATOM     86  C   UNL A   1      43.366  25.256  35.545  1.00  0.00     0.055 A 
ATOM     87  C   UNL A   1      41.936  26.680  36.834  1.00  0.00     0.041 A 
ATOM     88  F   UNL A   1      41.154  28.668  35.952  1.00  0.00    -0.206 F 
ATOM     89  C   UNL A   1      42.712  25.538  36.748  1.00  0.00     0.022 A 
BRANCH  86  90
ATOM     90  S   UNL A   1      44.465  23.804  35.496  1.00  0.00     0.124 S 
ATOM     91  O   UNL A   1      45.469  24.209  34.519  1.00  0.00    -0.237 OA
ATOM     92  O   UNL A   1      44.910  23.702  36.880  1.00  0.00    -0.237 OA
ATOM     93  O   UNL A   1      43.583  22.722  35.056  1.00  0.00    -0.744 OA
ENDBRANCH  86  90
ENDBRANCH  59  83
BRANCH  71  94
ATOM     94  C   UNL A   1      43.907  30.947  29.438  1.00  0.00     0.023 A 
ATOM     95  C   UNL A   1      42.829  30.164  28.969  1.00  0.00     0.031 A 
ATOM     96  C   UNL A   1      44.964  31.205  28.545  1.00  0.00     0.131 A 
ATOM     97  C   UNL A   1      42.836  29.678  27.645  1.00  0.00     0.055 A 
ATOM     98  C   UNL A   1      44.958  30.739  27.231  1.00  0.00     0.041 A 
ATOM     99  F   UNL A   1      46.002  31.969  28.922  1.00  0.00    -0.206 F 
ATOM    100  C   UNL A   1      43.893  29.971  26.776  1.00  0.00     0.022 A 
BRANCH  97 101
ATOM    101  S   UNL A   1      41.459  28.659  27.021  1.00  0.00     0.124 S 
ATOM    102  O   UNL A   1      40.274  29.355  27.507  1.00  0.00    -0.237 OA
ATOM    103  O   UNL A   1      41.675  28.686  25.577  1.00  0.00    -0.237 OA
ATOM    104  O   UNL A   1      41.694  27.354  27.643  1.00  0.00    -0.744 OA
ENDBRANCH  97 101
ENDBRANCH  71  94
ENDBRANCH  45  46
ENDBRANCH  38  40
ENDBRANCH  37  38
ENDBRANCH  36  37
ENDBRANCH  35  36
ENDBRANCH  34  35
ENDBRANCH  33  34
ENDBRANCH   1  33
TORSDOF 25
ENDMDL
MODEL 3
REMARK VINA RESULT:      -9.6      2.457      7.760
REMARK SMILES C=CCn1nc(C(=O)OCCOCCOCCOC(=O)c2ccc(-c3c4nc(c(-c5cc(S(=O)(=O)[O-])ccc5F)c5ccc([nH]5)c(-c5cc(S(=O)(=O)[O-])ccc5F)c5nc(c(-c6cc(S(=O)(=O)[O-])ccc6F)c6ccc3[nH]6)C=C5)C=C4)cc2)c2c1CC[C@@H]([NH2+]Cc1nc(C)cc(=O)[nH]1)C2
REMARK SMILES IDX 13 1 12 2 11 3 10 4 9 5 7 6 8 7 6 8 4 9 5 10 85 11 84 12
REMARK SMILES IDX 86 13 99 14 87 15 88 16 3 17 2 18 1 19 89 20 90 23 91 24
REMARK SMILES IDX 92 25 98 26 93 27 96 28 94 30 95 31 97 32 14 33 15 34 16 35
REMARK SMILES IDX 17 36 18 37 19 38 20 39 21 40 22 41 83 42 23 43 82 44 24 45
REMARK SMILES IDX 25 46 26 47 76 48 27 49 81 50 75 51 77 52 28 53 80 54 74 55
REMARK SMILES IDX 73 56 29 58 61 59 41 60 60 61 42 62 45 63 59 64 78 65 43 66
REMARK SMILES IDX 44 67 58 69 79 70 46 71 30 72 31 73 39 74 32 75 38 76 40 77
REMARK SMILES IDX 37 78 33 79 34 80 35 81 36 82 62 83 63 84 71 85 64 86 70 87
REMARK SMILES IDX 72 88 69 89 65 90 66 91 67 92 68 93 47 94 48 95 56 96 49 97
REMARK SMILES IDX 55 98 57 99 54 100 50 101 51 102 52 103 53 104
REMARK H PARENT 89 21 89 22 98 29 77 57 45 68
REMARK Flexibility Score: inf
ROOT
ATOM      1  C   UNL A   1      33.364  30.281  27.292  1.00  0.00     0.188 C 
ENDROOT
BRANCH   1   2
ATOM      2  O   UNL A   1      32.333  30.227  26.311  1.00  0.00    -0.376 OA
BRANCH   2   3
ATOM      3  C   UNL A   1      32.579  29.601  25.062  1.00  0.00     0.202 C 
BRANCH   3   4
ATOM      4  C   UNL A   1      32.998  28.119  25.038  1.00  0.00     0.261 C 
BRANCH   4   5
ATOM      5  O   UNL A   1      32.458  27.348  23.952  1.00  0.00    -0.458 OA
BRANCH   5   6
ATOM      6  C   UNL A   1      33.183  26.263  23.546  1.00  0.00     0.359 C 
ATOM      7  O   UNL A   1      34.036  26.310  22.658  1.00  0.00    -0.244 OA
BRANCH   6   8
ATOM      8  C   UNL A   1      32.897  25.050  24.343  1.00  0.00     0.174 A 
ATOM      9  N   UNL A   1      31.729  23.502  25.270  1.00  0.00    -0.265 N 
ATOM     10  N   UNL A   1      31.624  24.680  24.615  1.00  0.00    -0.165 NA
ATOM     11  C   UNL A   1      33.020  23.198  25.577  1.00  0.00     0.043 A 
ATOM     12  C   UNL A   1      33.808  24.089  24.878  1.00  0.00     0.014 A 
ATOM     13  C   UNL A   1      33.509  22.084  26.430  1.00  0.00     0.062 C 
ATOM     14  C   UNL A   1      35.297  23.979  24.824  1.00  0.00     0.105 C 
ATOM     15  C   UNL A   1      35.000  22.329  26.748  1.00  0.00     0.072 C 
ATOM     16  C   UNL A   1      35.823  22.655  25.473  1.00  0.00     0.187 C 
BRANCH   9  17
ATOM     17  C   UNL A   1      30.524  22.746  25.601  1.00  0.00     0.171 C 
BRANCH  17  18
ATOM     18  C   UNL A   1      30.079  22.946  27.026  1.00  0.00    -0.011 C 
ATOM     19  C   UNL A   1      28.913  22.524  27.534  1.00  0.00     0.006 C 
ENDBRANCH  17  18
ENDBRANCH   9  17
BRANCH  16  20
ATOM     20  N   UNL A   1      35.765  21.510  24.552  1.00  0.00    -0.337 N 
ATOM     21  H   UNL A   1      36.381  21.702  23.762  1.00  0.00     0.346 HD
ATOM     22  H   UNL A   1      34.790  21.406  24.272  1.00  0.00     0.346 HD
BRANCH  20  23
ATOM     23  C   UNL A   1      36.172  20.242  25.158  1.00  0.00     0.337 C 
BRANCH  23  24
ATOM     24  C   UNL A   1      35.255  19.093  24.735  1.00  0.00     0.164 A 
ATOM     25  N   UNL A   1      34.089  19.290  24.205  1.00  0.00    -0.234 NA
ATOM     26  N   UNL A   1      35.739  17.841  25.015  1.00  0.00    -0.306 N 
ATOM     27  C   UNL A   1      33.344  18.184  23.867  1.00  0.00     0.045 A 
ATOM     28  C   UNL A   1      35.020  16.711  24.770  1.00  0.00     0.251 A 
ATOM     29  H   UNL A   1      36.639  17.757  25.406  1.00  0.00     0.171 HD
ATOM     30  C   UNL A   1      32.037  18.456  23.177  1.00  0.00     0.067 C 
ATOM     31  C   UNL A   1      33.726  16.922  24.111  1.00  0.00     0.095 A 
ATOM     32  O   UNL A   1      35.417  15.599  25.096  1.00  0.00    -0.270 OA
ENDBRANCH  23  24
ENDBRANCH  20  23
ENDBRANCH  16  20
ENDBRANCH   6   8
ENDBRANCH   5   6
ENDBRANCH   4   5
ENDBRANCH   3   4
ENDBRANCH   2   3
ENDBRANCH   1   2
BRANCH   1  33
ATOM     33  C   UNL A   1      34.137  31.594  27.565  1.00  0.00     0.188 C 
BRANCH  33  34
ATOM     34  O   UNL A   1      33.334  32.730  27.866  1.00  0.00    -0.376 OA
BRANCH  34  35
ATOM     35  C   UNL A   1      34.014  33.968  28.056  1.00  0.00     0.202 C 
BRANCH  35  36
ATOM     36  C   UNL A   1      33.856  34.618  29.431  1.00  0.00     0.261 C 
BRANCH  36  37
ATOM     37  O   UNL A   1      34.917  34.320  30.319  1.00  0.00    -0.460 OA
BRANCH  37  38
ATOM     38  C   UNL A   1      34.586  33.573  31.384  1.00  0.00     0.338 C 
ATOM     39  O   UNL A   1      33.714  33.827  32.217  1.00  0.00    -0.246 OA
BRANCH  38  40
ATOM     40  C   UNL A   1      35.456  32.399  31.414  1.00  0.00     0.060 A 
ATOM     41  C   UNL A   1      35.777  31.887  32.672  1.00  0.00     0.016 A 
ATOM     42  C   UNL A   1      36.212  32.122  30.265  1.00  0.00     0.016 A 
ATOM     43  C   UNL A   1      37.044  31.393  32.845  1.00  0.00     0.010 A 
ATOM     44  C   UNL A   1      37.490  31.676  30.448  1.00  0.00     0.010 A 
ATOM     45  C   UNL A   1      37.912  31.442  31.753  1.00  0.00    -0.014 A 
BRANCH  45  46
ATOM     46  C   UNL A   1      39.328  31.388  32.019  1.00  0.00     0.031 A 
ATOM     47  C   UNL A   1      39.890  32.649  32.521  1.00  0.00     0.074 A 
ATOM     48  C   UNL A   1      39.990  30.220  31.930  1.00  0.00     0.049 A 
ATOM     49  N   UNL A   1      40.692  33.451  31.910  1.00  0.00    -0.248 NA
ATOM     50  C   UNL A   1      39.332  33.185  33.771  1.00  0.00     0.031 C 
ATOM     51  C   UNL A   1      39.432  28.873  31.762  1.00  0.00     0.029 A 
ATOM     52  N   UNL A   1      41.310  29.982  32.119  1.00  0.00    -0.354 N 
ATOM     53  C   UNL A   1      40.909  34.495  32.800  1.00  0.00     0.074 A 
ATOM     54  C   UNL A   1      39.862  34.405  33.776  1.00  0.00     0.031 C 
ATOM     55  C   UNL A   1      40.370  27.965  32.118  1.00  0.00     0.029 A 
ATOM     56  C   UNL A   1      41.608  28.663  32.430  1.00  0.00     0.049 A 
ATOM     57  H   UNL A   1      41.997  30.683  32.043  1.00  0.00     0.167 HD
ATOM     58  C   UNL A   1      42.079  35.189  32.807  1.00  0.00     0.034 A 
ATOM     59  C   UNL A   1      42.745  28.227  33.035  1.00  0.00     0.034 A 
ATOM     60  C   UNL A   1      42.834  34.931  31.600  1.00  0.00     0.049 A 
ATOM     61  C   UNL A   1      43.769  29.296  32.845  1.00  0.00     0.074 A 
ATOM     62  C   UNL A   1      42.585  35.117  30.253  1.00  0.00     0.029 A 
ATOM     63  N   UNL A   1      43.881  34.035  31.667  1.00  0.00    -0.354 N 
ATOM     64  N   UNL A   1      44.235  29.649  31.674  1.00  0.00    -0.248 NA
ATOM     65  C   UNL A   1      43.896  30.314  33.882  1.00  0.00     0.031 C 
ATOM     66  C   UNL A   1      43.149  33.977  29.612  1.00  0.00     0.029 A 
ATOM     67  C   UNL A   1      43.773  33.191  30.587  1.00  0.00     0.049 A 
ATOM     68  H   UNL A   1      44.577  34.003  32.361  1.00  0.00     0.167 HD
ATOM     69  C   UNL A   1      44.316  31.036  31.713  1.00  0.00     0.074 A 
ATOM     70  C   UNL A   1      44.188  31.381  33.128  1.00  0.00     0.031 C 
ATOM     71  C   UNL A   1      44.181  31.797  30.584  1.00  0.00     0.034 A 
BRANCH  58  72
ATOM     72  C   UNL A   1      42.702  35.812  34.036  1.00  0.00     0.023 A 
ATOM     73  C   UNL A   1      43.035  37.175  33.946  1.00  0.00     0.031 A 
ATOM     74  C   UNL A   1      43.218  35.132  35.164  1.00  0.00     0.131 A 
ATOM     75  C   UNL A   1      43.922  37.766  34.860  1.00  0.00     0.055 A 
ATOM     76  C   UNL A   1      44.039  35.745  36.115  1.00  0.00     0.041 A 
ATOM     77  F   UNL A   1      43.046  33.824  35.378  1.00  0.00    -0.206 F 
ATOM     78  C   UNL A   1      44.426  37.060  35.946  1.00  0.00     0.022 A 
BRANCH  75  79
ATOM     79  S   UNL A   1      44.551  39.419  34.486  1.00  0.00     0.124 S 
ATOM     80  O   UNL A   1      44.918  39.904  35.811  1.00  0.00    -0.237 OA
ATOM     81  O   UNL A   1      45.653  39.120  33.578  1.00  0.00    -0.237 OA
ATOM     82  O   UNL A   1      43.402  40.085  33.876  1.00  0.00    -0.744 OA
ENDBRANCH  75  79
ENDBRANCH  58  72
BRANCH  59  83
ATOM     83  C   UNL A   1      42.810  27.159  34.078  1.00  0.00     0.023 A 
ATOM     84  C   UNL A   1      43.680  26.053  33.993  1.00  0.00     0.031 A 
ATOM     85  C   UNL A   1      42.124  27.322  35.307  1.00  0.00     0.131 A 
ATOM     86  C   UNL A   1      43.811  25.162  35.087  1.00  0.00     0.055 A 
ATOM     87  C   UNL A   1      42.240  26.431  36.374  1.00  0.00     0.041 A 
ATOM     88  F   UNL A   1      41.369  28.406  35.547  1.00  0.00    -0.206 F 
ATOM     89  C   UNL A   1      43.091  25.345  36.271  1.00  0.00     0.022 A 
BRANCH  86  90
ATOM     90  S   UNL A   1      45.003  23.786  35.022  1.00  0.00     0.124 S 
ATOM     91  O   UNL A   1      46.113  24.300  35.816  1.00  0.00    -0.237 OA
ATOM     92  O   UNL A   1      44.243  22.687  35.606  1.00  0.00    -0.237 OA
ATOM     93  O   UNL A   1      45.284  23.643  33.593  1.00  0.00    -0.744 OA
ENDBRANCH  86  90
ENDBRANCH  59  83
BRANCH  71  94
ATOM     94  C   UNL A   1      44.216  31.116  29.230  1.00  0.00     0.023 A 
ATOM     95  C   UNL A   1      45.396  30.808  28.517  1.00  0.00     0.031 A 
ATOM     96  C   UNL A   1      43.004  30.599  28.739  1.00  0.00     0.131 A 
ATOM     97  C   UNL A   1      45.330  30.002  27.361  1.00  0.00     0.055 A 
ATOM     98  C   UNL A   1      42.945  29.787  27.607  1.00  0.00     0.041 A 
ATOM     99  F   UNL A   1      41.851  30.830  29.391  1.00  0.00    -0.206 F 
ATOM    100  C   UNL A   1      44.109  29.486  26.912  1.00  0.00     0.022 A 
BRANCH  97 101
ATOM    101  S   UNL A   1      46.839  29.600  26.420  1.00  0.00     0.124 S 
ATOM    102  O   UNL A   1      46.425  29.754  25.031  1.00  0.00    -0.237 OA
ATOM    103  O   UNL A   1      47.795  30.584  26.920  1.00  0.00    -0.237 OA
ATOM    104  O   UNL A   1      47.129  28.221  26.819  1.00  0.00    -0.744 OA
ENDBRANCH  97 101
ENDBRANCH  71  94
ENDBRANCH  45  46
ENDBRANCH  38  40
ENDBRANCH  37  38
ENDBRANCH  36  37
ENDBRANCH  35  36
ENDBRANCH  34  35
ENDBRANCH  33  34
ENDBRANCH   1  33
TORSDOF 25
ENDMDL
