MODEL 1
REMARK VINA RESULT:     -10.0      0.000      0.000
REMARK SMILES O=C(OCCOCCOCCOC(=O)c1cc(-n2cccc2)ccc1O)c1ccc(-c2c3nc(c(-c4cc(S(=O)(=O)[O-])ccc4F)c4ccc([nH]4)c(-c4cc(S(=O)(=O)[O-])ccc4F)c4nc(c(-c5cc(S(=O)(=O)[O-])ccc5F)c5ccc2[nH]5)C=C4)C=C3)cc1
REMARK SMILES IDX 7 1 6 2 5 3 4 4 3 5 2 6 1 7 27 8 28 9 89 10 29 11 88 12
REMARK SMILES IDX 30 13 31 14 32 15 82 16 33 17 87 18 81 19 83 20 34 21 86 22
REMARK SMILES IDX 80 23 79 24 35 26 67 27 47 28 66 29 48 30 51 31 65 32 84 33
REMARK SMILES IDX 49 34 50 35 64 37 85 38 52 39 36 40 37 41 45 42 38 43 44 44
REMARK SMILES IDX 46 45 43 46 39 47 40 48 41 49 42 50 68 51 69 52 77 53 70 54
REMARK SMILES IDX 76 55 78 56 75 57 71 58 72 59 73 60 74 61 53 62 54 63 62 64
REMARK SMILES IDX 55 65 61 66 63 67 60 68 56 69 57 70 58 71 59 72 8 73 9 74
REMARK SMILES IDX 10 75 11 76 12 77 13 78 14 79 15 80 16 81 25 82 17 83 24 84
REMARK SMILES IDX 23 85 26 86 18 88 19 89 22 90 20 91 21 92
REMARK H PARENT 83 25 51 36 26 87
REMARK Flexibility Score: inf
ROOT
ATOM      1  C   UNL A   1      35.898  22.706  23.241  1.00  0.00     0.188 C 
ENDROOT
BRANCH   1   2
ATOM      2  O   UNL A   1      36.969  23.419  23.850  1.00  0.00    -0.376 OA
BRANCH   2   3
ATOM      3  C   UNL A   1      37.394  22.935  25.108  1.00  0.00     0.202 C 
BRANCH   3   4
ATOM      4  C   UNL A   1      37.760  24.056  26.091  1.00  0.00     0.261 C 
BRANCH   4   5
ATOM      5  O   UNL A   1      38.880  23.751  26.955  1.00  0.00    -0.460 OA
BRANCH   5   6
ATOM      6  C   UNL A   1      40.120  24.254  27.101  1.00  0.00     0.338 C 
ATOM      7  O   UNL A   1      41.078  23.539  26.809  1.00  0.00    -0.246 OA
BRANCH   6   8
ATOM      8  C   UNL A   1      40.409  25.603  27.655  1.00  0.00     0.060 A 
ATOM      9  C   UNL A   1      40.923  25.849  28.925  1.00  0.00     0.016 A 
ATOM     10  C   UNL A   1      40.155  26.707  26.814  1.00  0.00     0.016 A 
ATOM     11  C   UNL A   1      41.142  27.139  29.371  1.00  0.00     0.010 A 
ATOM     12  C   UNL A   1      40.344  28.014  27.263  1.00  0.00     0.010 A 
ATOM     13  C   UNL A   1      40.812  28.220  28.559  1.00  0.00    -0.014 A 
BRANCH  13  14
ATOM     14  C   UNL A   1      40.937  29.544  29.192  1.00  0.00     0.031 A 
ATOM     15  C   UNL A   1      39.592  30.110  29.641  1.00  0.00     0.074 A 
ATOM     16  C   UNL A   1      42.173  30.117  29.089  1.00  0.00     0.049 A 
ATOM     17  N   UNL A   1      39.104  31.306  29.506  1.00  0.00    -0.248 NA
ATOM     18  C   UNL A   1      38.579  29.167  30.181  1.00  0.00     0.031 C 
ATOM     19  C   UNL A   1      43.382  29.427  28.573  1.00  0.00     0.029 A 
ATOM     20  N   UNL A   1      42.670  31.371  29.359  1.00  0.00    -0.354 N 
ATOM     21  C   UNL A   1      37.848  31.322  30.158  1.00  0.00     0.074 A 
ATOM     22  C   UNL A   1      37.514  29.945  30.389  1.00  0.00     0.031 C 
ATOM     23  C   UNL A   1      44.435  30.270  28.522  1.00  0.00     0.029 A 
ATOM     24  C   UNL A   1      44.027  31.578  28.991  1.00  0.00     0.049 A 
ATOM     25  H   UNL A   1      42.125  32.075  29.778  1.00  0.00     0.167 HD
ATOM     26  C   UNL A   1      37.249  32.464  30.617  1.00  0.00     0.034 A 
ATOM     27  C   UNL A   1      44.767  32.727  29.027  1.00  0.00     0.034 A 
ATOM     28  C   UNL A   1      38.068  33.599  30.329  1.00  0.00     0.049 A 
ATOM     29  C   UNL A   1      43.870  33.749  29.587  1.00  0.00     0.074 A 
ATOM     30  C   UNL A   1      38.375  34.304  29.197  1.00  0.00     0.029 A 
ATOM     31  N   UNL A   1      38.900  34.026  31.340  1.00  0.00    -0.354 N 
ATOM     32  N   UNL A   1      43.509  33.814  30.830  1.00  0.00    -0.248 NA
ATOM     33  C   UNL A   1      43.283  34.750  28.688  1.00  0.00     0.031 C 
ATOM     34  C   UNL A   1      39.661  34.833  29.453  1.00  0.00     0.029 A 
ATOM     35  C   UNL A   1      40.052  34.482  30.752  1.00  0.00     0.049 A 
ATOM     36  H   UNL A   1      38.704  34.008  32.306  1.00  0.00     0.167 HD
ATOM     37  C   UNL A   1      42.424  34.654  30.797  1.00  0.00     0.074 A 
ATOM     38  C   UNL A   1      42.525  35.405  29.566  1.00  0.00     0.031 C 
ATOM     39  C   UNL A   1      41.300  34.311  31.475  1.00  0.00     0.034 A 
BRANCH  26  40
ATOM     40  C   UNL A   1      36.081  32.708  31.553  1.00  0.00     0.023 A 
ATOM     41  C   UNL A   1      35.043  33.552  31.068  1.00  0.00     0.031 A 
ATOM     42  C   UNL A   1      36.032  32.413  32.921  1.00  0.00     0.131 A 
ATOM     43  C   UNL A   1      34.098  34.138  31.922  1.00  0.00     0.055 A 
ATOM     44  C   UNL A   1      35.046  32.950  33.767  1.00  0.00     0.041 A 
ATOM     45  F   UNL A   1      36.968  31.664  33.517  1.00  0.00    -0.206 F 
ATOM     46  C   UNL A   1      34.095  33.841  33.278  1.00  0.00     0.022 A 
BRANCH  43  47
ATOM     47  S   UNL A   1      32.992  35.415  31.252  1.00  0.00     0.124 S 
ATOM     48  O   UNL A   1      31.862  35.368  32.174  1.00  0.00    -0.237 OA
ATOM     49  O   UNL A   1      33.829  36.609  31.329  1.00  0.00    -0.237 OA
ATOM     50  O   UNL A   1      32.708  34.941  29.899  1.00  0.00    -0.744 OA
ENDBRANCH  43  47
ENDBRANCH  26  40
BRANCH  27  51
ATOM     51  C   UNL A   1      46.143  33.205  28.616  1.00  0.00     0.023 A 
ATOM     52  C   UNL A   1      47.099  33.798  29.457  1.00  0.00     0.031 A 
ATOM     53  C   UNL A   1      46.570  33.017  27.265  1.00  0.00     0.131 A 
ATOM     54  C   UNL A   1      48.394  34.115  28.965  1.00  0.00     0.055 A 
ATOM     55  C   UNL A   1      47.861  33.271  26.801  1.00  0.00     0.041 A 
ATOM     56  F   UNL A   1      45.747  32.555  26.314  1.00  0.00    -0.206 F 
ATOM     57  C   UNL A   1      48.789  33.815  27.658  1.00  0.00     0.022 A 
BRANCH  54  58
ATOM     58  S   UNL A   1      49.640  34.905  30.023  1.00  0.00     0.124 S 
ATOM     59  O   UNL A   1      49.298  36.317  29.887  1.00  0.00    -0.237 OA
ATOM     60  O   UNL A   1      49.393  34.310  31.331  1.00  0.00    -0.237 OA
ATOM     61  O   UNL A   1      50.899  34.506  29.395  1.00  0.00    -0.744 OA
ENDBRANCH  54  58
ENDBRANCH  27  51
BRANCH  39  62
ATOM     62  C   UNL A   1      41.556  33.348  32.642  1.00  0.00     0.023 A 
ATOM     63  C   UNL A   1      41.207  31.986  32.549  1.00  0.00     0.031 A 
ATOM     64  C   UNL A   1      42.004  33.772  33.907  1.00  0.00     0.131 A 
ATOM     65  C   UNL A   1      41.269  31.141  33.680  1.00  0.00     0.055 A 
ATOM     66  C   UNL A   1      42.080  32.939  35.027  1.00  0.00     0.041 A 
ATOM     67  F   UNL A   1      42.380  35.030  34.110  1.00  0.00    -0.206 F 
ATOM     68  C   UNL A   1      41.702  31.614  34.920  1.00  0.00     0.022 A 
BRANCH  65  69
ATOM     69  S   UNL A   1      40.799  29.397  33.526  1.00  0.00     0.124 S 
ATOM     70  O   UNL A   1      41.476  28.782  34.661  1.00  0.00    -0.237 OA
ATOM     71  O   UNL A   1      39.341  29.453  33.603  1.00  0.00    -0.237 OA
ATOM     72  O   UNL A   1      41.324  29.018  32.214  1.00  0.00    -0.744 OA
ENDBRANCH  65  69
ENDBRANCH  39  62
ENDBRANCH  13  14
ENDBRANCH   6   8
ENDBRANCH   5   6
ENDBRANCH   4   5
ENDBRANCH   3   4
ENDBRANCH   2   3
ENDBRANCH   1   2
BRANCH   1  73
ATOM     73  C   UNL A   1      34.769  22.376  24.237  1.00  0.00     0.188 C 
BRANCH  73  74
ATOM     74  O   UNL A   1      33.405  22.376  23.823  1.00  0.00    -0.376 OA
BRANCH  74  75
ATOM     75  C   UNL A   1      33.027  23.030  22.625  1.00  0.00     0.202 C 
BRANCH  75  76
ATOM     76  C   UNL A   1      32.408  24.419  22.766  1.00  0.00     0.261 C 
BRANCH  76  77
ATOM     77  O   UNL A   1      33.315  25.439  23.211  1.00  0.00    -0.460 OA
BRANCH  77  78
ATOM     78  C   UNL A   1      33.331  26.564  22.454  1.00  0.00     0.342 C 
ATOM     79  O   UNL A   1      33.696  26.677  21.297  1.00  0.00    -0.246 OA
BRANCH  78  80
ATOM     80  C   UNL A   1      32.753  27.690  23.207  1.00  0.00     0.103 A 
ATOM     81  C   UNL A   1      33.468  28.215  24.293  1.00  0.00     0.046 A 
ATOM     82  C   UNL A   1      31.454  28.127  22.941  1.00  0.00     0.130 A 
ATOM     83  C   UNL A   1      32.842  29.129  25.146  1.00  0.00     0.046 A 
ATOM     84  C   UNL A   1      30.834  29.040  23.797  1.00  0.00     0.049 A 
ATOM     85  C   UNL A   1      31.516  29.517  24.920  1.00  0.00     0.030 A 
BRANCH  82  86
ATOM     86  O   UNL A   1      30.772  27.640  21.862  1.00  0.00    -0.507 OA
ATOM     87  H   UNL A   1      29.908  27.296  21.970  1.00  0.00     0.293 HD
ENDBRANCH  82  86
BRANCH  83  88
ATOM     88  N   UNL A   1      33.544  29.663  26.250  1.00  0.00    -0.324 N 
ATOM     89  C   UNL A   1      33.244  30.839  26.904  1.00  0.00     0.091 A 
ATOM     90  C   UNL A   1      34.667  29.120  26.834  1.00  0.00     0.091 A 
ATOM     91  C   UNL A   1      34.180  31.043  27.895  1.00  0.00     0.020 A 
ATOM     92  C   UNL A   1      35.106  29.976  27.822  1.00  0.00     0.020 A 
ENDBRANCH  83  88
ENDBRANCH  78  80
ENDBRANCH  77  78
ENDBRANCH  76  77
ENDBRANCH  75  76
ENDBRANCH  74  75
ENDBRANCH  73  74
ENDBRANCH   1  73
TORSDOF 22
ENDMDL
MODEL 2
REMARK VINA RESULT:      -9.7      3.298      8.315
REMARK SMILES O=C(OCCOCCOCCOC(=O)c1cc(-n2cccc2)ccc1O)c1ccc(-c2c3nc(c(-c4cc(S(=O)(=O)[O-])ccc4F)c4ccc([nH]4)c(-c4cc(S(=O)(=O)[O-])ccc4F)c4nc(c(-c5cc(S(=O)(=O)[O-])ccc5F)c5ccc2[nH]5)C=C4)C=C3)cc1
REMARK SMILES IDX 7 1 6 2 5 3 4 4 3 5 2 6 1 7 27 8 28 9 89 10 29 11 88 12
REMARK SMILES IDX 30 13 31 14 32 15 82 16 33 17 87 18 81 19 83 20 34 21 86 22
REMARK SMILES IDX 80 23 79 24 35 26 67 27 47 28 66 29 48 30 51 31 65 32 84 33
REMARK SMILES IDX 49 34 50 35 64 37 85 38 52 39 36 40 37 41 45 42 38 43 44 44
REMARK SMILES IDX 46 45 43 46 39 47 40 48 41 49 42 50 68 51 69 52 77 53 70 54
REMARK SMILES IDX 76 55 78 56 75 57 71 58 72 59 73 60 74 61 53 62 54 63 62 64
REMARK SMILES IDX 55 65 61 66 63 67 60 68 56 69 57 70 58 71 59 72 8 73 9 74
REMARK SMILES IDX 10 75 11 76 12 77 13 78 14 79 15 80 16 81 25 82 17 83 24 84
REMARK SMILES IDX 23 85 26 86 18 88 19 89 22 90 20 91 21 92
REMARK H PARENT 83 25 51 36 26 87
REMARK Flexibility Score: inf
ROOT
ATOM      1  C   UNL A   1      40.524  21.100  26.925  1.00  0.00     0.188 C 
ENDROOT
BRANCH   1   2
ATOM      2  O   UNL A   1      41.342  20.648  25.851  1.00  0.00    -0.376 OA
BRANCH   2   3
ATOM      3  C   UNL A   1      42.682  20.345  26.184  1.00  0.00     0.202 C 
BRANCH   3   4
ATOM      4  C   UNL A   1      43.696  21.267  25.491  1.00  0.00     0.261 C 
BRANCH   4   5
ATOM      5  O   UNL A   1      43.150  22.530  25.045  1.00  0.00    -0.460 OA
BRANCH   5   6
ATOM      6  C   UNL A   1      43.596  23.801  25.043  1.00  0.00     0.338 C 
ATOM      7  O   UNL A   1      44.527  24.091  24.293  1.00  0.00    -0.246 OA
BRANCH   6   8
ATOM      8  C   UNL A   1      43.072  24.865  25.940  1.00  0.00     0.060 A 
ATOM      9  C   UNL A   1      43.293  26.229  25.769  1.00  0.00     0.016 A 
ATOM     10  C   UNL A   1      42.280  24.450  27.030  1.00  0.00     0.016 A 
ATOM     11  C   UNL A   1      42.787  27.153  26.663  1.00  0.00     0.010 A 
ATOM     12  C   UNL A   1      41.788  25.371  27.955  1.00  0.00     0.010 A 
ATOM     13  C   UNL A   1      42.073  26.723  27.778  1.00  0.00    -0.014 A 
BRANCH  13  14
ATOM     14  C   UNL A   1      41.719  27.776  28.744  1.00  0.00     0.031 A 
ATOM     15  C   UNL A   1      42.602  27.752  29.989  1.00  0.00     0.074 A 
ATOM     16  C   UNL A   1      40.562  28.447  28.465  1.00  0.00     0.049 A 
ATOM     17  N   UNL A   1      42.279  27.858  31.243  1.00  0.00    -0.248 NA
ATOM     18  C   UNL A   1      44.038  27.405  29.825  1.00  0.00     0.031 C 
ATOM     19  C   UNL A   1      39.791  28.311  27.205  1.00  0.00     0.029 A 
ATOM     20  N   UNL A   1      39.786  29.343  29.164  1.00  0.00    -0.354 N 
ATOM     21  C   UNL A   1      43.482  27.841  31.988  1.00  0.00     0.074 A 
ATOM     22  C   UNL A   1      44.494  27.384  31.080  1.00  0.00     0.031 C 
ATOM     23  C   UNL A   1      38.657  29.041  27.250  1.00  0.00     0.029 A 
ATOM     24  C   UNL A   1      38.572  29.718  28.528  1.00  0.00     0.049 A 
ATOM     25  H   UNL A   1      40.052  29.699  30.042  1.00  0.00     0.167 HD
ATOM     26  C   UNL A   1      43.598  28.365  33.248  1.00  0.00     0.034 A 
ATOM     27  C   UNL A   1      37.550  30.491  29.004  1.00  0.00     0.034 A 
ATOM     28  C   UNL A   1      42.344  28.903  33.674  1.00  0.00     0.049 A 
ATOM     29  C   UNL A   1      37.979  30.923  30.342  1.00  0.00     0.074 A 
ATOM     30  C   UNL A   1      41.156  28.366  34.088  1.00  0.00     0.029 A 
ATOM     31  N   UNL A   1      42.164  30.256  33.489  1.00  0.00    -0.354 N 
ATOM     32  N   UNL A   1      38.900  31.805  30.574  1.00  0.00    -0.248 NA
ATOM     33  C   UNL A   1      37.378  30.288  31.521  1.00  0.00     0.031 C 
ATOM     34  C   UNL A   1      40.192  29.338  33.734  1.00  0.00     0.029 A 
ATOM     35  C   UNL A   1      40.842  30.449  33.181  1.00  0.00     0.049 A 
ATOM     36  H   UNL A   1      42.855  30.953  33.563  1.00  0.00     0.167 HD
ATOM     37  C   UNL A   1      39.203  31.601  31.896  1.00  0.00     0.074 A 
ATOM     38  C   UNL A   1      38.072  30.908  32.473  1.00  0.00     0.031 C 
ATOM     39  C   UNL A   1      40.504  31.534  32.276  1.00  0.00     0.034 A 
BRANCH  26  40
ATOM     40  C   UNL A   1      44.795  28.703  34.115  1.00  0.00     0.023 A 
ATOM     41  C   UNL A   1      44.762  28.229  35.457  1.00  0.00     0.031 A 
ATOM     42  C   UNL A   1      45.798  29.637  33.827  1.00  0.00     0.131 A 
ATOM     43  C   UNL A   1      45.606  28.746  36.450  1.00  0.00     0.055 A 
ATOM     44  C   UNL A   1      46.685  30.109  34.809  1.00  0.00     0.041 A 
ATOM     45  F   UNL A   1      45.918  30.194  32.615  1.00  0.00    -0.206 F 
ATOM     46  C   UNL A   1      46.572  29.691  36.133  1.00  0.00     0.022 A 
BRANCH  43  47
ATOM     47  S   UNL A   1      45.299  28.284  38.181  1.00  0.00     0.124 S 
ATOM     48  O   UNL A   1      44.178  27.357  38.065  1.00  0.00    -0.237 OA
ATOM     49  O   UNL A   1      46.577  27.694  38.567  1.00  0.00    -0.237 OA
ATOM     50  O   UNL A   1      44.985  29.560  38.822  1.00  0.00    -0.744 OA
ENDBRANCH  43  47
ENDBRANCH  26  40
BRANCH  27  51
ATOM     51  C   UNL A   1      36.169  30.938  28.574  1.00  0.00     0.023 A 
ATOM     52  C   UNL A   1      35.620  32.218  28.752  1.00  0.00     0.031 A 
ATOM     53  C   UNL A   1      35.324  30.016  27.880  1.00  0.00     0.131 A 
ATOM     54  C   UNL A   1      34.343  32.536  28.214  1.00  0.00     0.055 A 
ATOM     55  C   UNL A   1      34.099  30.350  27.301  1.00  0.00     0.041 A 
ATOM     56  F   UNL A   1      35.656  28.729  27.715  1.00  0.00    -0.206 F 
ATOM     57  C   UNL A   1      33.605  31.623  27.457  1.00  0.00     0.022 A 
BRANCH  54  58
ATOM     58  S   UNL A   1      33.599  34.175  28.451  1.00  0.00     0.124 S 
ATOM     59  O   UNL A   1      34.616  35.053  27.881  1.00  0.00    -0.237 OA
ATOM     60  O   UNL A   1      32.346  34.083  27.710  1.00  0.00    -0.237 OA
ATOM     61  O   UNL A   1      33.449  34.257  29.903  1.00  0.00    -0.744 OA
ENDBRANCH  54  58
ENDBRANCH  27  51
BRANCH  39  62
ATOM     62  C   UNL A   1      41.461  32.256  31.316  1.00  0.00     0.023 A 
ATOM     63  C   UNL A   1      42.307  31.531  30.454  1.00  0.00     0.031 A 
ATOM     64  C   UNL A   1      41.666  33.648  31.337  1.00  0.00     0.131 A 
ATOM     65  C   UNL A   1      43.315  32.184  29.709  1.00  0.00     0.055 A 
ATOM     66  C   UNL A   1      42.653  34.301  30.593  1.00  0.00     0.041 A 
ATOM     67  F   UNL A   1      40.915  34.437  32.097  1.00  0.00    -0.206 F 
ATOM     68  C   UNL A   1      43.493  33.566  29.778  1.00  0.00     0.022 A 
BRANCH  65  69
ATOM     69  S   UNL A   1      44.395  31.218  28.619  1.00  0.00     0.124 S 
ATOM     70  O   UNL A   1      43.446  30.422  27.851  1.00  0.00    -0.237 OA
ATOM     71  O   UNL A   1      45.110  32.255  27.880  1.00  0.00    -0.237 OA
ATOM     72  O   UNL A   1      45.225  30.456  29.553  1.00  0.00    -0.744 OA
ENDBRANCH  65  69
ENDBRANCH  39  62
ENDBRANCH  13  14
ENDBRANCH   6   8
ENDBRANCH   5   6
ENDBRANCH   4   5
ENDBRANCH   3   4
ENDBRANCH   2   3
ENDBRANCH   1   2
BRANCH   1  73
ATOM     73  C   UNL A   1      39.425  22.074  26.458  1.00  0.00     0.188 C 
BRANCH  73  74
ATOM     74  O   UNL A   1      38.503  21.702  25.436  1.00  0.00    -0.376 OA
BRANCH  74  75
ATOM     75  C   UNL A   1      37.289  22.413  25.284  1.00  0.00     0.202 C 
BRANCH  75  76
ATOM     76  C   UNL A   1      36.090  21.902  26.081  1.00  0.00     0.261 C 
BRANCH  76  77
ATOM     77  O   UNL A   1      35.182  22.922  26.522  1.00  0.00    -0.460 OA
BRANCH  77  78
ATOM     78  C   UNL A   1      33.889  22.529  26.642  1.00  0.00     0.342 C 
ATOM     79  O   UNL A   1      33.413  21.787  27.482  1.00  0.00    -0.246 OA
BRANCH  78  80
ATOM     80  C   UNL A   1      33.059  23.200  25.627  1.00  0.00     0.103 A 
ATOM     81  C   UNL A   1      33.486  24.432  25.111  1.00  0.00     0.046 A 
ATOM     82  C   UNL A   1      31.800  22.695  25.295  1.00  0.00     0.130 A 
ATOM     83  C   UNL A   1      32.611  25.180  24.317  1.00  0.00     0.046 A 
ATOM     84  C   UNL A   1      30.931  23.448  24.502  1.00  0.00     0.049 A 
ATOM     85  C   UNL A   1      31.324  24.707  24.040  1.00  0.00     0.030 A 
BRANCH  82  86
ATOM     86  O   UNL A   1      31.400  21.478  25.771  1.00  0.00    -0.507 OA
ATOM     87  H   UNL A   1      31.861  20.703  25.520  1.00  0.00     0.293 HD
ENDBRANCH  82  86
BRANCH  83  88
ATOM     88  N   UNL A   1      33.021  26.428  23.795  1.00  0.00    -0.324 N 
ATOM     89  C   UNL A   1      33.290  26.699  22.470  1.00  0.00     0.091 A 
ATOM     90  C   UNL A   1      33.258  27.572  24.525  1.00  0.00     0.091 A 
ATOM     91  C   UNL A   1      33.703  28.009  22.364  1.00  0.00     0.020 A 
ATOM     92  C   UNL A   1      33.724  28.549  23.670  1.00  0.00     0.020 A 
ENDBRANCH  83  88
ENDBRANCH  78  80
ENDBRANCH  77  78
ENDBRANCH  76  77
ENDBRANCH  75  76
ENDBRANCH  74  75
ENDBRANCH  73  74
ENDBRANCH   1  73
TORSDOF 22
ENDMDL
MODEL 3
REMARK VINA RESULT:      -9.6      4.883     10.252
REMARK SMILES O=C(OCCOCCOCCOC(=O)c1cc(-n2cccc2)ccc1O)c1ccc(-c2c3nc(c(-c4cc(S(=O)(=O)[O-])ccc4F)c4ccc([nH]4)c(-c4cc(S(=O)(=O)[O-])ccc4F)c4nc(c(-c5cc(S(=O)(=O)[O-])ccc5F)c5ccc2[nH]5)C=C4)C=C3)cc1
REMARK SMILES IDX 7 1 6 2 5 3 4 4 3 5 2 6 1 7 27 8 28 9 89 10 29 11 88 12
REMARK SMILES IDX 30 13 31 14 32 15 82 16 33 17 87 18 81 19 83 20 34 21 86 22
REMARK SMILES IDX 80 23 79 24 35 26 67 27 47 28 66 29 48 30 51 31 65 32 84 33
REMARK SMILES IDX 49 34 50 35 64 37 85 38 52 39 36 40 37 41 45 42 38 43 44 44
REMARK SMILES IDX 46 45 43 46 39 47 40 48 41 49 42 50 68 51 69 52 77 53 70 54
REMARK SMILES IDX 76 55 78 56 75 57 71 58 72 59 73 60 74 61 53 62 54 63 62 64
REMARK SMILES IDX 55 65 61 66 63 67 60 68 56 69 57 70 58 71 59 72 8 73 9 74
REMARK SMILES IDX 10 75 11 76 12 77 13 78 14 79 15 80 16 81 25 82 17 83 24 84
REMARK SMILES IDX 23 85 26 86 18 88 19 89 22 90 20 91 21 92
REMARK H PARENT 83 25 51 36 26 87
REMARK Flexibility Score: inf
ROOT
ATOM      1  C   UNL A   1      32.803  28.135  24.040  1.00  0.00     0.188 C 
ENDROOT
BRANCH   1   2
ATOM      2  O   UNL A   1      32.498  28.943  25.171  1.00  0.00    -0.376 OA
BRANCH   2   3
ATOM      3  C   UNL A   1      33.122  28.567  26.382  1.00  0.00     0.202 C 
BRANCH   3   4
ATOM      4  C   UNL A   1      33.855  29.729  27.068  1.00  0.00     0.261 C 
BRANCH   4   5
ATOM      5  O   UNL A   1      35.278  29.527  27.228  1.00  0.00    -0.460 OA
BRANCH   5   6
ATOM      6  C   UNL A   1      36.270  30.230  27.810  1.00  0.00     0.338 C 
ATOM      7  O   UNL A   1      36.116  31.441  27.958  1.00  0.00    -0.246 OA
BRANCH   6   8
ATOM      8  C   UNL A   1      37.569  29.641  28.229  1.00  0.00     0.060 A 
ATOM      9  C   UNL A   1      38.807  29.984  27.693  1.00  0.00     0.016 A 
ATOM     10  C   UNL A   1      37.533  28.679  29.259  1.00  0.00     0.016 A 
ATOM     11  C   UNL A   1      39.968  29.371  28.126  1.00  0.00     0.010 A 
ATOM     12  C   UNL A   1      38.693  28.033  29.684  1.00  0.00     0.010 A 
ATOM     13  C   UNL A   1      39.907  28.367  29.087  1.00  0.00    -0.014 A 
BRANCH  13  14
ATOM     14  C   UNL A   1      41.179  27.675  29.357  1.00  0.00     0.031 A 
ATOM     15  C   UNL A   1      41.465  26.560  28.355  1.00  0.00     0.074 A 
ATOM     16  C   UNL A   1      41.771  28.003  30.544  1.00  0.00     0.049 A 
ATOM     17  N   UNL A   1      41.896  25.351  28.554  1.00  0.00    -0.248 NA
ATOM     18  C   UNL A   1      41.068  26.770  26.939  1.00  0.00     0.031 C 
ATOM     19  C   UNL A   1      41.325  29.102  31.434  1.00  0.00     0.029 A 
ATOM     20  N   UNL A   1      42.827  27.486  31.259  1.00  0.00    -0.354 N 
ATOM     21  C   UNL A   1      42.056  24.748  27.284  1.00  0.00     0.074 A 
ATOM     22  C   UNL A   1      41.366  25.603  26.360  1.00  0.00     0.031 C 
ATOM     23  C   UNL A   1      42.057  29.136  32.567  1.00  0.00     0.029 A 
ATOM     24  C   UNL A   1      43.042  28.074  32.534  1.00  0.00     0.049 A 
ATOM     25  H   UNL A   1      43.394  26.761  30.911  1.00  0.00     0.167 HD
ATOM     26  C   UNL A   1      42.886  23.685  27.050  1.00  0.00     0.034 A 
ATOM     27  C   UNL A   1      43.926  27.716  33.513  1.00  0.00     0.034 A 
ATOM     28  C   UNL A   1      43.533  23.290  28.262  1.00  0.00     0.049 A 
ATOM     29  C   UNL A   1      44.683  26.583  32.959  1.00  0.00     0.074 A 
ATOM     30  C   UNL A   1      43.137  22.637  29.397  1.00  0.00     0.029 A 
ATOM     31  N   UNL A   1      44.794  23.800  28.476  1.00  0.00    -0.354 N 
ATOM     32  N   UNL A   1      45.582  26.680  32.031  1.00  0.00    -0.248 NA
ATOM     33  C   UNL A   1      44.382  25.227  33.433  1.00  0.00     0.031 C 
ATOM     34  C   UNL A   1      43.998  23.133  30.403  1.00  0.00     0.029 A 
ATOM     35  C   UNL A   1      44.920  24.015  29.825  1.00  0.00     0.049 A 
ATOM     36  H   UNL A   1      45.478  23.977  27.790  1.00  0.00     0.167 HD
ATOM     37  C   UNL A   1      45.722  25.386  31.597  1.00  0.00     0.074 A 
ATOM     38  C   UNL A   1      45.217  24.541  32.656  1.00  0.00     0.031 C 
ATOM     39  C   UNL A   1      45.738  25.132  30.264  1.00  0.00     0.034 A 
BRANCH  26  40
ATOM     40  C   UNL A   1      43.419  23.057  25.777  1.00  0.00     0.023 A 
ATOM     41  C   UNL A   1      43.497  21.636  25.753  1.00  0.00     0.031 A 
ATOM     42  C   UNL A   1      44.080  23.717  24.734  1.00  0.00     0.131 A 
ATOM     43  C   UNL A   1      44.276  20.948  24.812  1.00  0.00     0.055 A 
ATOM     44  C   UNL A   1      44.809  23.023  23.753  1.00  0.00     0.041 A 
ATOM     45  F   UNL A   1      44.121  25.053  24.656  1.00  0.00    -0.206 F 
ATOM     46  C   UNL A   1      44.938  21.638  23.806  1.00  0.00     0.022 A 
BRANCH  43  47
ATOM     47  S   UNL A   1      44.536  19.163  25.034  1.00  0.00     0.124 S 
ATOM     48  O   UNL A   1      44.489  18.665  23.664  1.00  0.00    -0.237 OA
ATOM     49  O   UNL A   1      45.844  19.127  25.683  1.00  0.00    -0.237 OA
ATOM     50  O   UNL A   1      43.413  18.760  25.879  1.00  0.00    -0.744 OA
ENDBRANCH  43  47
ENDBRANCH  26  40
BRANCH  27  51
ATOM     51  C   UNL A   1      44.266  28.108  34.936  1.00  0.00     0.023 A 
ATOM     52  C   UNL A   1      44.466  27.228  36.012  1.00  0.00     0.031 A 
ATOM     53  C   UNL A   1      44.453  29.490  35.251  1.00  0.00     0.131 A 
ATOM     54  C   UNL A   1      44.876  27.721  37.279  1.00  0.00     0.055 A 
ATOM     55  C   UNL A   1      44.916  29.965  36.479  1.00  0.00     0.041 A 
ATOM     56  F   UNL A   1      44.206  30.464  34.365  1.00  0.00    -0.206 F 
ATOM     57  C   UNL A   1      45.142  29.075  37.503  1.00  0.00     0.022 A 
BRANCH  54  58
ATOM     58  S   UNL A   1      45.116  26.609  38.694  1.00  0.00     0.124 S 
ATOM     59  O   UNL A   1      46.554  26.713  38.919  1.00  0.00    -0.237 OA
ATOM     60  O   UNL A   1      44.265  27.192  39.725  1.00  0.00    -0.237 OA
ATOM     61  O   UNL A   1      44.659  25.320  38.176  1.00  0.00    -0.744 OA
ENDBRANCH  54  58
ENDBRANCH  27  51
BRANCH  39  62
ATOM     62  C   UNL A   1      46.175  26.335  29.415  1.00  0.00     0.023 A 
ATOM     63  C   UNL A   1      45.232  27.092  28.691  1.00  0.00     0.031 A 
ATOM     64  C   UNL A   1      47.522  26.665  29.184  1.00  0.00     0.131 A 
ATOM     65  C   UNL A   1      45.649  28.077  27.768  1.00  0.00     0.055 A 
ATOM     66  C   UNL A   1      47.941  27.647  28.281  1.00  0.00     0.041 A 
ATOM     67  F   UNL A   1      48.499  26.032  29.825  1.00  0.00    -0.206 F 
ATOM     68  C   UNL A   1      47.000  28.356  27.558  1.00  0.00     0.022 A 
BRANCH  65  69
ATOM     69  S   UNL A   1      44.409  29.024  26.843  1.00  0.00     0.124 S 
ATOM     70  O   UNL A   1      43.431  29.360  27.870  1.00  0.00    -0.237 OA
ATOM     71  O   UNL A   1      45.191  30.137  26.312  1.00  0.00    -0.237 OA
ATOM     72  O   UNL A   1      43.942  28.074  25.833  1.00  0.00    -0.744 OA
ENDBRANCH  65  69
ENDBRANCH  39  62
ENDBRANCH  13  14
ENDBRANCH   6   8
ENDBRANCH   5   6
ENDBRANCH   4   5
ENDBRANCH   3   4
ENDBRANCH   2   3
ENDBRANCH   1   2
BRANCH   1  73
ATOM     73  C   UNL A   1      31.832  28.372  22.867  1.00  0.00     0.188 C 
BRANCH  73  74
ATOM     74  O   UNL A   1      30.763  27.466  22.606  1.00  0.00    -0.376 OA
BRANCH  74  75
ATOM     75  C   UNL A   1      30.162  26.753  23.672  1.00  0.00     0.202 C 
BRANCH  75  76
ATOM     76  C   UNL A   1      30.205  25.228  23.588  1.00  0.00     0.261 C 
BRANCH  76  77
ATOM     77  O   UNL A   1      31.187  24.607  24.429  1.00  0.00    -0.460 OA
BRANCH  77  78
ATOM     78  C   UNL A   1      32.217  24.017  23.772  1.00  0.00     0.342 C 
ATOM     79  O   UNL A   1      32.645  24.290  22.664  1.00  0.00    -0.246 OA
BRANCH  78  80
ATOM     80  C   UNL A   1      32.848  22.999  24.629  1.00  0.00     0.103 A 
ATOM     81  C   UNL A   1      32.683  21.646  24.304  1.00  0.00     0.046 A 
ATOM     82  C   UNL A   1      33.471  23.367  25.824  1.00  0.00     0.130 A 
ATOM     83  C   UNL A   1      33.087  20.669  25.219  1.00  0.00     0.046 A 
ATOM     84  C   UNL A   1      33.871  22.386  26.734  1.00  0.00     0.049 A 
ATOM     85  C   UNL A   1      33.649  21.036  26.447  1.00  0.00     0.030 A 
BRANCH  82  86
ATOM     86  O   UNL A   1      33.662  24.686  26.122  1.00  0.00    -0.507 OA
ATOM     87  H   UNL A   1      33.932  25.283  25.453  1.00  0.00     0.293 HD
ENDBRANCH  82  86
BRANCH  83  88
ATOM     88  N   UNL A   1      32.922  19.299  24.912  1.00  0.00    -0.324 N 
ATOM     89  C   UNL A   1      32.721  18.286  25.826  1.00  0.00     0.091 A 
ATOM     90  C   UNL A   1      32.971  18.741  23.654  1.00  0.00     0.091 A 
ATOM     91  C   UNL A   1      32.652  17.089  25.148  1.00  0.00     0.020 A 
ATOM     92  C   UNL A   1      32.853  17.372  23.777  1.00  0.00     0.020 A 
ENDBRANCH  83  88
ENDBRANCH  78  80
ENDBRANCH  77  78
ENDBRANCH  76  77
ENDBRANCH  75  76
ENDBRANCH  74  75
ENDBRANCH  73  74
ENDBRANCH   1  73
TORSDOF 22
ENDMDL
