MODEL 1
REMARK VINA RESULT:     -10.5      0.000      0.000
REMARK SMILES Cc1cc(CC(=O)C(=O)OCCOCCOCCOC(=O)c2ccc(-c3c4nc(c(-c5cc(S(=O)(=O)[O-])ccc5F)c5ccc([nH]5)c(-c5cc(S(=O)(=O)[O-])ccc5F)c5nc(c(-c6cc(S(=O)(=O)[O-])ccc6F)c6ccc3[nH]6)C=C5)C=C4)cc2)cc2cn[nH]c12
REMARK SMILES IDX 15 1 14 2 13 3 12 4 11 5 10 6 8 7 9 8 6 9 7 10 5 11 4 12
REMARK SMILES IDX 1 13 2 14 3 15 90 16 86 17 89 18 85 19 87 20 88 21 16 23
REMARK SMILES IDX 17 24 18 25 19 26 20 27 21 28 22 29 23 30 84 31 24 32 83 33
REMARK SMILES IDX 25 34 26 35 27 36 77 37 28 38 82 39 76 40 78 41 29 42 81 43
REMARK SMILES IDX 75 44 74 45 30 47 62 48 42 49 61 50 43 51 46 52 60 53 79 54
REMARK SMILES IDX 44 55 45 56 59 58 80 59 47 60 31 61 32 62 40 63 33 64 39 65
REMARK SMILES IDX 41 66 38 67 34 68 35 69 36 70 37 71 63 72 64 73 72 74 65 75
REMARK SMILES IDX 71 76 73 77 70 78 66 79 67 80 68 81 69 82 48 83 49 84 57 85
REMARK SMILES IDX 50 86 56 87 58 88 55 89 51 90 52 91 53 92 54 93
REMARK H PARENT 89 22 78 46 46 57
REMARK Flexibility Score: inf
ROOT
ATOM      1  C   UNL A   1      33.656  30.841  26.955  1.00  0.00     0.188 C 
ENDROOT
BRANCH   1   2
ATOM      2  C   UNL A   1      32.156  30.447  26.898  1.00  0.00     0.188 C 
BRANCH   2   3
ATOM      3  O   UNL A   1      31.755  29.090  27.035  1.00  0.00    -0.376 OA
BRANCH   3   4
ATOM      4  C   UNL A   1      32.079  28.157  26.009  1.00  0.00     0.202 C 
BRANCH   4   5
ATOM      5  C   UNL A   1      31.001  27.167  25.524  1.00  0.00     0.261 C 
BRANCH   5   6
ATOM      6  O   UNL A   1      31.012  25.915  26.226  1.00  0.00    -0.457 OA
BRANCH   6   7
ATOM      7  C   UNL A   1      30.832  24.794  25.505  1.00  0.00     0.375 C 
ATOM      8  O   UNL A   1      30.576  24.720  24.322  1.00  0.00    -0.243 OA
BRANCH   7   9
ATOM      9  C   UNL A   1      31.045  23.564  26.411  1.00  0.00     0.244 C 
ATOM     10  O   UNL A   1      31.417  23.723  27.570  1.00  0.00    -0.286 OA
BRANCH   9  11
ATOM     11  C   UNL A   1      30.863  22.188  25.783  1.00  0.00     0.124 C 
BRANCH  11  12
ATOM     12  C   UNL A   1      32.165  21.558  25.363  1.00  0.00    -0.039 A 
ATOM     13  C   UNL A   1      33.476  18.160  24.190  1.00  0.00     0.047 C 
ATOM     14  C   UNL A   1      33.455  19.574  24.692  1.00  0.00    -0.025 A 
ATOM     15  C   UNL A   1      32.227  20.237  24.894  1.00  0.00     0.009 A 
ATOM     16  C   UNL A   1      34.608  20.319  25.000  1.00  0.00     0.068 A 
ATOM     17  C   UNL A   1      34.575  21.644  25.411  1.00  0.00     0.020 A 
ATOM     18  N   UNL A   1      35.939  19.990  25.003  1.00  0.00    -0.278 N 
ATOM     19  C   UNL A   1      33.346  22.297  25.545  1.00  0.00     0.016 A 
ATOM     20  C   UNL A   1      35.922  21.989  25.644  1.00  0.00     0.143 A 
ATOM     21  N   UNL A   1      36.762  20.985  25.387  1.00  0.00    -0.183 NA
ATOM     22  H   UNL A   1      36.268  19.098  24.745  1.00  0.00     0.190 HD
ENDBRANCH  11  12
ENDBRANCH   9  11
ENDBRANCH   7   9
ENDBRANCH   6   7
ENDBRANCH   5   6
ENDBRANCH   4   5
ENDBRANCH   3   4
ENDBRANCH   2   3
ENDBRANCH   1   2
BRANCH   1  23
ATOM     23  O   UNL A   1      34.097  31.289  28.225  1.00  0.00    -0.376 OA
BRANCH  23  24
ATOM     24  C   UNL A   1      34.196  32.683  28.473  1.00  0.00     0.202 C 
BRANCH  24  25
ATOM     25  C   UNL A   1      34.818  33.154  29.788  1.00  0.00     0.261 C 
BRANCH  25  26
ATOM     26  O   UNL A   1      35.056  32.121  30.727  1.00  0.00    -0.460 OA
BRANCH  26  27
ATOM     27  C   UNL A   1      36.319  32.091  31.197  1.00  0.00     0.338 C 
ATOM     28  O   UNL A   1      36.703  32.399  32.307  1.00  0.00    -0.246 OA
BRANCH  27  29
ATOM     29  C   UNL A   1      37.189  31.632  30.116  1.00  0.00     0.060 A 
ATOM     30  C   UNL A   1      36.982  30.323  29.673  1.00  0.00     0.016 A 
ATOM     31  C   UNL A   1      38.403  32.309  29.977  1.00  0.00     0.016 A 
ATOM     32  C   UNL A   1      38.098  29.578  29.388  1.00  0.00     0.010 A 
ATOM     33  C   UNL A   1      39.516  31.551  29.750  1.00  0.00     0.010 A 
ATOM     34  C   UNL A   1      39.345  30.181  29.568  1.00  0.00    -0.014 A 
BRANCH  34  35
ATOM     35  C   UNL A   1      40.495  29.319  29.635  1.00  0.00     0.031 A 
ATOM     36  C   UNL A   1      40.850  28.920  31.003  1.00  0.00     0.074 A 
ATOM     37  C   UNL A   1      41.082  28.849  28.521  1.00  0.00     0.049 A 
ATOM     38  N   UNL A   1      41.829  29.355  31.723  1.00  0.00    -0.248 NA
ATOM     39  C   UNL A   1      39.871  28.100  31.730  1.00  0.00     0.031 C 
ATOM     40  C   UNL A   1      40.586  28.879  27.142  1.00  0.00     0.029 A 
ATOM     41  N   UNL A   1      42.215  28.117  28.424  1.00  0.00    -0.354 N 
ATOM     42  C   UNL A   1      41.697  28.696  32.937  1.00  0.00     0.074 A 
ATOM     43  C   UNL A   1      40.359  28.164  32.967  1.00  0.00     0.031 C 
ATOM     44  C   UNL A   1      41.287  27.984  26.408  1.00  0.00     0.029 A 
ATOM     45  C   UNL A   1      42.345  27.422  27.235  1.00  0.00     0.049 A 
ATOM     46  H   UNL A   1      42.890  28.081  29.139  1.00  0.00     0.167 HD
ATOM     47  C   UNL A   1      42.772  28.391  33.715  1.00  0.00     0.034 A 
ATOM     48  C   UNL A   1      43.170  26.363  27.040  1.00  0.00     0.034 A 
ATOM     49  C   UNL A   1      43.955  29.083  33.282  1.00  0.00     0.049 A 
ATOM     50  C   UNL A   1      44.180  26.369  28.138  1.00  0.00     0.074 A 
ATOM     51  C   UNL A   1      44.306  30.412  33.159  1.00  0.00     0.029 A 
ATOM     52  N   UNL A   1      44.854  28.377  32.516  1.00  0.00    -0.354 N 
ATOM     53  N   UNL A   1      45.114  27.269  28.275  1.00  0.00    -0.248 NA
ATOM     54  C   UNL A   1      43.861  25.617  29.348  1.00  0.00     0.031 C 
ATOM     55  C   UNL A   1      45.103  30.478  31.982  1.00  0.00     0.029 A 
ATOM     56  C   UNL A   1      45.231  29.183  31.474  1.00  0.00     0.049 A 
ATOM     57  H   UNL A   1      45.168  27.459  32.686  1.00  0.00     0.167 HD
ATOM     58  C   UNL A   1      45.192  27.494  29.644  1.00  0.00     0.074 A 
ATOM     59  C   UNL A   1      44.471  26.382  30.257  1.00  0.00     0.031 C 
ATOM     60  C   UNL A   1      45.572  28.706  30.148  1.00  0.00     0.034 A 
BRANCH  47  61
ATOM     61  C   UNL A   1      42.809  27.198  34.630  1.00  0.00     0.023 A 
ATOM     62  C   UNL A   1      43.492  26.011  34.300  1.00  0.00     0.031 A 
ATOM     63  C   UNL A   1      42.330  27.287  35.947  1.00  0.00     0.131 A 
ATOM     64  C   UNL A   1      43.627  24.958  35.206  1.00  0.00     0.055 A 
ATOM     65  C   UNL A   1      42.536  26.267  36.885  1.00  0.00     0.041 A 
ATOM     66  F   UNL A   1      41.693  28.387  36.375  1.00  0.00    -0.206 F 
ATOM     67  C   UNL A   1      43.179  25.089  36.514  1.00  0.00     0.022 A 
BRANCH  64  68
ATOM     68  S   UNL A   1      44.391  23.401  34.679  1.00  0.00     0.124 S 
ATOM     69  O   UNL A   1      45.619  23.870  34.046  1.00  0.00    -0.237 OA
ATOM     70  O   UNL A   1      44.557  22.706  35.952  1.00  0.00    -0.237 OA
ATOM     71  O   UNL A   1      43.395  22.819  33.784  1.00  0.00    -0.744 OA
ENDBRANCH  64  68
ENDBRANCH  47  61
BRANCH  48  72
ATOM     72  C   UNL A   1      42.814  25.118  26.313  1.00  0.00     0.023 A 
ATOM     73  C   UNL A   1      41.733  24.323  26.739  1.00  0.00     0.031 A 
ATOM     74  C   UNL A   1      43.705  24.545  25.390  1.00  0.00     0.131 A 
ATOM     75  C   UNL A   1      41.597  23.000  26.302  1.00  0.00     0.055 A 
ATOM     76  C   UNL A   1      43.564  23.224  24.946  1.00  0.00     0.041 A 
ATOM     77  F   UNL A   1      44.771  25.234  24.957  1.00  0.00    -0.206 F 
ATOM     78  C   UNL A   1      42.513  22.440  25.413  1.00  0.00     0.022 A 
BRANCH  75  79
ATOM     79  S   UNL A   1      40.239  21.981  26.941  1.00  0.00     0.124 S 
ATOM     80  O   UNL A   1      39.942  21.099  25.814  1.00  0.00    -0.237 OA
ATOM     81  O   UNL A   1      40.860  21.344  28.095  1.00  0.00    -0.237 OA
ATOM     82  O   UNL A   1      39.197  22.962  27.241  1.00  0.00    -0.744 OA
ENDBRANCH  75  79
ENDBRANCH  48  72
BRANCH  60  83
ATOM     83  C   UNL A   1      46.144  29.741  29.210  1.00  0.00     0.023 A 
ATOM     84  C   UNL A   1      45.230  30.563  28.527  1.00  0.00     0.031 A 
ATOM     85  C   UNL A   1      47.487  29.768  28.789  1.00  0.00     0.131 A 
ATOM     86  C   UNL A   1      45.653  31.335  27.440  1.00  0.00     0.055 A 
ATOM     87  C   UNL A   1      47.918  30.592  27.745  1.00  0.00     0.041 A 
ATOM     88  F   UNL A   1      48.397  28.933  29.305  1.00  0.00    -0.206 F 
ATOM     89  C   UNL A   1      46.996  31.369  27.053  1.00  0.00     0.022 A 
BRANCH  86  90
ATOM     90  S   UNL A   1      44.443  32.199  26.408  1.00  0.00     0.124 S 
ATOM     91  O   UNL A   1      45.266  32.683  25.303  1.00  0.00    -0.237 OA
ATOM     92  O   UNL A   1      43.508  31.128  26.070  1.00  0.00    -0.237 OA
ATOM     93  O   UNL A   1      43.906  33.236  27.285  1.00  0.00    -0.744 OA
ENDBRANCH  86  90
ENDBRANCH  60  83
ENDBRANCH  34  35
ENDBRANCH  27  29
ENDBRANCH  26  27
ENDBRANCH  25  26
ENDBRANCH  24  25
ENDBRANCH  23  24
ENDBRANCH   1  23
TORSDOF 22
ENDMDL
MODEL 2
REMARK VINA RESULT:     -10.4      2.744      7.530
REMARK SMILES Cc1cc(CC(=O)C(=O)OCCOCCOCCOC(=O)c2ccc(-c3c4nc(c(-c5cc(S(=O)(=O)[O-])ccc5F)c5ccc([nH]5)c(-c5cc(S(=O)(=O)[O-])ccc5F)c5nc(c(-c6cc(S(=O)(=O)[O-])ccc6F)c6ccc3[nH]6)C=C5)C=C4)cc2)cc2cn[nH]c12
REMARK SMILES IDX 15 1 14 2 13 3 12 4 11 5 10 6 8 7 9 8 6 9 7 10 5 11 4 12
REMARK SMILES IDX 1 13 2 14 3 15 90 16 86 17 89 18 85 19 87 20 88 21 16 23
REMARK SMILES IDX 17 24 18 25 19 26 20 27 21 28 22 29 23 30 84 31 24 32 83 33
REMARK SMILES IDX 25 34 26 35 27 36 77 37 28 38 82 39 76 40 78 41 29 42 81 43
REMARK SMILES IDX 75 44 74 45 30 47 62 48 42 49 61 50 43 51 46 52 60 53 79 54
REMARK SMILES IDX 44 55 45 56 59 58 80 59 47 60 31 61 32 62 40 63 33 64 39 65
REMARK SMILES IDX 41 66 38 67 34 68 35 69 36 70 37 71 63 72 64 73 72 74 65 75
REMARK SMILES IDX 71 76 73 77 70 78 66 79 67 80 68 81 69 82 48 83 49 84 57 85
REMARK SMILES IDX 50 86 56 87 58 88 55 89 51 90 52 91 53 92 54 93
REMARK H PARENT 89 22 78 46 46 57
REMARK Flexibility Score: inf
ROOT
ATOM      1  C   UNL A   1      33.030  29.728  26.802  1.00  0.00     0.188 C 
ENDROOT
BRANCH   1   2
ATOM      2  C   UNL A   1      31.808  29.250  25.974  1.00  0.00     0.188 C 
BRANCH   2   3
ATOM      3  O   UNL A   1      31.953  28.889  24.606  1.00  0.00    -0.376 OA
BRANCH   3   4
ATOM      4  C   UNL A   1      30.800  28.826  23.773  1.00  0.00     0.202 C 
BRANCH   4   5
ATOM      5  C   UNL A   1      30.327  27.457  23.245  1.00  0.00     0.261 C 
BRANCH   5   6
ATOM      6  O   UNL A   1      31.188  26.369  23.614  1.00  0.00    -0.457 OA
BRANCH   6   7
ATOM      7  C   UNL A   1      31.986  25.855  22.662  1.00  0.00     0.375 C 
ATOM      8  O   UNL A   1      31.783  25.843  21.466  1.00  0.00    -0.243 OA
BRANCH   7   9
ATOM      9  C   UNL A   1      33.268  25.299  23.315  1.00  0.00     0.244 C 
ATOM     10  O   UNL A   1      33.921  26.013  24.070  1.00  0.00    -0.286 OA
BRANCH   9  11
ATOM     11  C   UNL A   1      33.711  23.897  22.915  1.00  0.00     0.124 C 
BRANCH  11  12
ATOM     12  C   UNL A   1      33.386  22.860  23.958  1.00  0.00    -0.039 A 
ATOM     13  C   UNL A   1      33.936  22.263  27.697  1.00  0.00     0.047 C 
ATOM     14  C   UNL A   1      33.587  22.015  26.259  1.00  0.00    -0.025 A 
ATOM     15  C   UNL A   1      33.701  23.053  25.312  1.00  0.00     0.009 A 
ATOM     16  C   UNL A   1      33.150  20.776  25.756  1.00  0.00     0.068 A 
ATOM     17  C   UNL A   1      32.779  20.574  24.434  1.00  0.00     0.020 A 
ATOM     18  N   UNL A   1      32.998  19.548  26.348  1.00  0.00    -0.278 N 
ATOM     19  C   UNL A   1      32.843  21.638  23.529  1.00  0.00     0.016 A 
ATOM     20  C   UNL A   1      32.448  19.207  24.350  1.00  0.00     0.143 A 
ATOM     21  N   UNL A   1      32.570  18.575  25.519  1.00  0.00    -0.183 NA
ATOM     22  H   UNL A   1      33.187  19.389  27.301  1.00  0.00     0.190 HD
ENDBRANCH  11  12
ENDBRANCH   9  11
ENDBRANCH   7   9
ENDBRANCH   6   7
ENDBRANCH   5   6
ENDBRANCH   4   5
ENDBRANCH   3   4
ENDBRANCH   2   3
ENDBRANCH   1   2
BRANCH   1  23
ATOM     23  O   UNL A   1      33.038  31.117  27.086  1.00  0.00    -0.376 OA
BRANCH  23  24
ATOM     24  C   UNL A   1      33.998  31.632  27.996  1.00  0.00     0.202 C 
BRANCH  24  25
ATOM     25  C   UNL A   1      35.473  31.296  27.777  1.00  0.00     0.261 C 
BRANCH  25  26
ATOM     26  O   UNL A   1      35.967  30.257  28.601  1.00  0.00    -0.460 OA
BRANCH  26  27
ATOM     27  C   UNL A   1      37.265  30.395  28.936  1.00  0.00     0.338 C 
ATOM     28  O   UNL A   1      37.782  31.319  29.530  1.00  0.00    -0.246 OA
BRANCH  27  29
ATOM     29  C   UNL A   1      37.985  29.225  28.434  1.00  0.00     0.060 A 
ATOM     30  C   UNL A   1      38.294  28.242  29.377  1.00  0.00     0.016 A 
ATOM     31  C   UNL A   1      38.702  29.409  27.249  1.00  0.00     0.016 A 
ATOM     32  C   UNL A   1      39.530  27.656  29.284  1.00  0.00     0.010 A 
ATOM     33  C   UNL A   1      39.955  28.869  27.191  1.00  0.00     0.010 A 
ATOM     34  C   UNL A   1      40.380  28.091  28.265  1.00  0.00    -0.014 A 
BRANCH  34  35
ATOM     35  C   UNL A   1      41.777  27.768  28.383  1.00  0.00     0.031 A 
ATOM     36  C   UNL A   1      42.140  26.492  27.749  1.00  0.00     0.074 A 
ATOM     37  C   UNL A   1      42.652  28.635  28.918  1.00  0.00     0.049 A 
ATOM     38  N   UNL A   1      42.403  25.371  28.330  1.00  0.00    -0.248 NA
ATOM     39  C   UNL A   1      41.976  26.406  26.291  1.00  0.00     0.031 C 
ATOM     40  C   UNL A   1      42.462  30.056  29.227  1.00  0.00     0.029 A 
ATOM     41  N   UNL A   1      43.964  28.437  29.181  1.00  0.00    -0.354 N 
ATOM     42  C   UNL A   1      42.640  24.481  27.291  1.00  0.00     0.074 A 
ATOM     43  C   UNL A   1      42.110  25.095  26.102  1.00  0.00     0.031 C 
ATOM     44  C   UNL A   1      43.676  30.631  29.390  1.00  0.00     0.029 A 
ATOM     45  C   UNL A   1      44.700  29.600  29.319  1.00  0.00     0.049 A 
ATOM     46  H   UNL A   1      44.362  27.541  29.266  1.00  0.00     0.167 HD
ATOM     47  C   UNL A   1      43.497  23.431  27.421  1.00  0.00     0.034 A 
ATOM     48  C   UNL A   1      46.051  29.681  29.218  1.00  0.00     0.034 A 
ATOM     49  C   UNL A   1      43.855  23.202  28.793  1.00  0.00     0.049 A 
ATOM     50  C   UNL A   1      46.599  28.303  29.373  1.00  0.00     0.074 A 
ATOM     51  C   UNL A   1      43.149  22.885  29.937  1.00  0.00     0.029 A 
ATOM     52  N   UNL A   1      45.071  23.688  29.218  1.00  0.00    -0.354 N 
ATOM     53  N   UNL A   1      46.568  27.618  30.483  1.00  0.00    -0.248 NA
ATOM     54  C   UNL A   1      46.777  27.511  28.161  1.00  0.00     0.031 C 
ATOM     55  C   UNL A   1      43.788  23.610  30.981  1.00  0.00     0.029 A 
ATOM     56  C   UNL A   1      44.873  24.296  30.430  1.00  0.00     0.049 A 
ATOM     57  H   UNL A   1      45.927  23.613  28.737  1.00  0.00     0.167 HD
ATOM     58  C   UNL A   1      46.291  26.314  30.088  1.00  0.00     0.074 A 
ATOM     59  C   UNL A   1      46.529  26.292  28.647  1.00  0.00     0.031 C 
ATOM     60  C   UNL A   1      45.613  25.451  30.901  1.00  0.00     0.034 A 
BRANCH  47  61
ATOM     61  C   UNL A   1      44.272  22.859  26.266  1.00  0.00     0.023 A 
ATOM     62  C   UNL A   1      44.071  21.548  25.792  1.00  0.00     0.031 A 
ATOM     63  C   UNL A   1      45.094  23.679  25.475  1.00  0.00     0.131 A 
ATOM     64  C   UNL A   1      44.704  21.070  24.644  1.00  0.00     0.055 A 
ATOM     65  C   UNL A   1      45.663  23.230  24.277  1.00  0.00     0.041 A 
ATOM     66  F   UNL A   1      45.325  24.956  25.817  1.00  0.00    -0.206 F 
ATOM     67  C   UNL A   1      45.479  21.915  23.860  1.00  0.00     0.022 A 
BRANCH  64  68
ATOM     68  S   UNL A   1      44.519  19.332  24.164  1.00  0.00     0.124 S 
ATOM     69  O   UNL A   1      43.246  18.984  24.786  1.00  0.00    -0.237 OA
ATOM     70  O   UNL A   1      44.511  19.425  22.707  1.00  0.00    -0.237 OA
ATOM     71  O   UNL A   1      45.702  18.693  24.734  1.00  0.00    -0.744 OA
ENDBRANCH  64  68
ENDBRANCH  47  61
BRANCH  48  72
ATOM     72  C   UNL A   1      46.797  30.742  28.495  1.00  0.00     0.023 A 
ATOM     73  C   UNL A   1      47.589  31.668  29.200  1.00  0.00     0.031 A 
ATOM     74  C   UNL A   1      46.502  31.042  27.154  1.00  0.00     0.131 A 
ATOM     75  C   UNL A   1      48.008  32.861  28.597  1.00  0.00     0.055 A 
ATOM     76  C   UNL A   1      46.928  32.230  26.549  1.00  0.00     0.041 A 
ATOM     77  F   UNL A   1      45.732  30.218  26.427  1.00  0.00    -0.206 F 
ATOM     78  C   UNL A   1      47.675  33.154  27.276  1.00  0.00     0.022 A 
BRANCH  75  79
ATOM     79  S   UNL A   1      48.956  34.067  29.565  1.00  0.00     0.124 S 
ATOM     80  O   UNL A   1      47.943  34.633  30.453  1.00  0.00    -0.237 OA
ATOM     81  O   UNL A   1      49.953  33.219  30.206  1.00  0.00    -0.237 OA
ATOM     82  O   UNL A   1      49.463  34.988  28.549  1.00  0.00    -0.744 OA
ENDBRANCH  75  79
ENDBRANCH  48  72
BRANCH  60  83
ATOM     83  C   UNL A   1      45.368  25.839  32.339  1.00  0.00     0.023 A 
ATOM     84  C   UNL A   1      46.171  25.225  33.315  1.00  0.00     0.031 A 
ATOM     85  C   UNL A   1      44.245  26.564  32.779  1.00  0.00     0.131 A 
ATOM     86  C   UNL A   1      45.822  25.304  34.667  1.00  0.00     0.055 A 
ATOM     87  C   UNL A   1      43.937  26.697  34.136  1.00  0.00     0.041 A 
ATOM     88  F   UNL A   1      43.363  27.080  31.914  1.00  0.00    -0.206 F 
ATOM     89  C   UNL A   1      44.718  26.051  35.088  1.00  0.00     0.022 A 
BRANCH  86  90
ATOM     90  S   UNL A   1      46.708  24.316  35.899  1.00  0.00     0.124 S 
ATOM     91  O   UNL A   1      47.714  25.256  36.385  1.00  0.00    -0.237 OA
ATOM     92  O   UNL A   1      45.647  23.988  36.848  1.00  0.00    -0.237 OA
ATOM     93  O   UNL A   1      47.229  23.185  35.137  1.00  0.00    -0.744 OA
ENDBRANCH  86  90
ENDBRANCH  60  83
ENDBRANCH  34  35
ENDBRANCH  27  29
ENDBRANCH  26  27
ENDBRANCH  25  26
ENDBRANCH  24  25
ENDBRANCH  23  24
ENDBRANCH   1  23
TORSDOF 22
ENDMDL
MODEL 3
REMARK VINA RESULT:     -10.3      3.509      9.373
REMARK SMILES Cc1cc(CC(=O)C(=O)OCCOCCOCCOC(=O)c2ccc(-c3c4nc(c(-c5cc(S(=O)(=O)[O-])ccc5F)c5ccc([nH]5)c(-c5cc(S(=O)(=O)[O-])ccc5F)c5nc(c(-c6cc(S(=O)(=O)[O-])ccc6F)c6ccc3[nH]6)C=C5)C=C4)cc2)cc2cn[nH]c12
REMARK SMILES IDX 15 1 14 2 13 3 12 4 11 5 10 6 8 7 9 8 6 9 7 10 5 11 4 12
REMARK SMILES IDX 1 13 2 14 3 15 90 16 86 17 89 18 85 19 87 20 88 21 16 23
REMARK SMILES IDX 17 24 18 25 19 26 20 27 21 28 22 29 23 30 84 31 24 32 83 33
REMARK SMILES IDX 25 34 26 35 27 36 77 37 28 38 82 39 76 40 78 41 29 42 81 43
REMARK SMILES IDX 75 44 74 45 30 47 62 48 42 49 61 50 43 51 46 52 60 53 79 54
REMARK SMILES IDX 44 55 45 56 59 58 80 59 47 60 31 61 32 62 40 63 33 64 39 65
REMARK SMILES IDX 41 66 38 67 34 68 35 69 36 70 37 71 63 72 64 73 72 74 65 75
REMARK SMILES IDX 71 76 73 77 70 78 66 79 67 80 68 81 69 82 48 83 49 84 57 85
REMARK SMILES IDX 50 86 56 87 58 88 55 89 51 90 52 91 53 92 54 93
REMARK H PARENT 89 22 78 46 46 57
REMARK Flexibility Score: inf
ROOT
ATOM      1  C   UNL A   1      42.277  19.644  26.448  1.00  0.00     0.188 C 
ENDROOT
BRANCH   1   2
ATOM      2  C   UNL A   1      40.786  19.938  26.758  1.00  0.00     0.188 C 
BRANCH   2   3
ATOM      3  O   UNL A   1      40.286  21.270  26.732  1.00  0.00    -0.376 OA
BRANCH   3   4
ATOM      4  C   UNL A   1      39.310  21.633  25.762  1.00  0.00     0.202 C 
BRANCH   4   5
ATOM      5  C   UNL A   1      38.215  22.650  26.140  1.00  0.00     0.261 C 
BRANCH   5   6
ATOM      6  O   UNL A   1      37.808  23.490  25.049  1.00  0.00    -0.457 OA
BRANCH   6   7
ATOM      7  C   UNL A   1      36.785  23.069  24.286  1.00  0.00     0.375 C 
ATOM      8  O   UNL A   1      36.629  23.267  23.099  1.00  0.00    -0.243 OA
BRANCH   7   9
ATOM      9  C   UNL A   1      35.817  22.230  25.146  1.00  0.00     0.244 C 
ATOM     10  O   UNL A   1      35.459  21.125  24.750  1.00  0.00    -0.286 OA
BRANCH   9  11
ATOM     11  C   UNL A   1      35.280  22.865  26.422  1.00  0.00     0.124 C 
BRANCH  11  12
ATOM     12  C   UNL A   1      34.110  23.780  26.175  1.00  0.00    -0.039 A 
ATOM     13  C   UNL A   1      33.435  27.502  25.595  1.00  0.00     0.047 C 
ATOM     14  C   UNL A   1      33.201  26.047  25.879  1.00  0.00    -0.025 A 
ATOM     15  C   UNL A   1      34.287  25.147  25.911  1.00  0.00     0.009 A 
ATOM     16  C   UNL A   1      31.938  25.487  26.138  1.00  0.00     0.068 A 
ATOM     17  C   UNL A   1      31.729  24.130  26.346  1.00  0.00     0.020 A 
ATOM     18  N   UNL A   1      30.693  26.050  26.265  1.00  0.00    -0.278 N 
ATOM     19  C   UNL A   1      32.816  23.251  26.312  1.00  0.00     0.016 A 
ATOM     20  C   UNL A   1      30.348  24.006  26.601  1.00  0.00     0.143 A 
ATOM     21  N   UNL A   1      29.707  25.174  26.544  1.00  0.00    -0.183 NA
ATOM     22  H   UNL A   1      30.532  27.016  26.162  1.00  0.00     0.190 HD
ENDBRANCH  11  12
ENDBRANCH   9  11
ENDBRANCH   7   9
ENDBRANCH   6   7
ENDBRANCH   5   6
ENDBRANCH   4   5
ENDBRANCH   3   4
ENDBRANCH   2   3
ENDBRANCH   1   2
BRANCH   1  23
ATOM     23  O   UNL A   1      43.140  20.757  26.609  1.00  0.00    -0.376 OA
BRANCH  23  24
ATOM     24  C   UNL A   1      43.996  21.131  25.540  1.00  0.00     0.202 C 
BRANCH  24  25
ATOM     25  C   UNL A   1      43.676  22.401  24.752  1.00  0.00     0.261 C 
BRANCH  25  26
ATOM     26  O   UNL A   1      42.513  23.083  25.185  1.00  0.00    -0.460 OA
BRANCH  26  27
ATOM     27  C   UNL A   1      42.713  24.390  25.449  1.00  0.00     0.338 C 
ATOM     28  O   UNL A   1      43.483  25.147  24.892  1.00  0.00    -0.246 OA
BRANCH  27  29
ATOM     29  C   UNL A   1      41.842  24.762  26.562  1.00  0.00     0.060 A 
ATOM     30  C   UNL A   1      40.733  25.547  26.240  1.00  0.00     0.016 A 
ATOM     31  C   UNL A   1      42.427  24.737  27.831  1.00  0.00     0.016 A 
ATOM     32  C   UNL A   1      40.413  26.560  27.108  1.00  0.00     0.010 A 
ATOM     33  C   UNL A   1      42.146  25.782  28.666  1.00  0.00     0.010 A 
ATOM     34  C   UNL A   1      41.221  26.730  28.234  1.00  0.00    -0.014 A 
BRANCH  34  35
ATOM     35  C   UNL A   1      41.130  27.984  28.933  1.00  0.00     0.031 A 
ATOM     36  C   UNL A   1      42.091  28.990  28.460  1.00  0.00     0.074 A 
ATOM     37  C   UNL A   1      40.164  28.211  29.838  1.00  0.00     0.049 A 
ATOM     38  N   UNL A   1      43.174  29.381  29.043  1.00  0.00    -0.248 NA
ATOM     39  C   UNL A   1      41.937  29.455  27.074  1.00  0.00     0.031 C 
ATOM     40  C   UNL A   1      38.952  27.428  30.100  1.00  0.00     0.029 A 
ATOM     41  N   UNL A   1      40.009  29.292  30.636  1.00  0.00    -0.354 N 
ATOM     42  C   UNL A   1      43.734  30.304  28.170  1.00  0.00     0.074 A 
ATOM     43  C   UNL A   1      43.085  30.105  26.900  1.00  0.00     0.031 C 
ATOM     44  C   UNL A   1      38.085  28.192  30.803  1.00  0.00     0.029 A 
ATOM     45  C   UNL A   1      38.730  29.453  31.137  1.00  0.00     0.049 A 
ATOM     46  H   UNL A   1      40.745  29.913  30.843  1.00  0.00     0.167 HD
ATOM     47  C   UNL A   1      44.485  31.350  28.609  1.00  0.00     0.034 A 
ATOM     48  C   UNL A   1      38.232  30.611  31.639  1.00  0.00     0.034 A 
ATOM     49  C   UNL A   1      44.859  31.196  29.988  1.00  0.00     0.049 A 
ATOM     50  C   UNL A   1      39.387  31.502  31.951  1.00  0.00     0.074 A 
ATOM     51  C   UNL A   1      45.588  30.259  30.692  1.00  0.00     0.029 A 
ATOM     52  N   UNL A   1      44.125  31.890  30.922  1.00  0.00    -0.354 N 
ATOM     53  N   UNL A   1      40.253  31.280  32.901  1.00  0.00    -0.248 NA
ATOM     54  C   UNL A   1      39.839  32.409  30.900  1.00  0.00     0.031 C 
ATOM     55  C   UNL A   1      44.923  30.136  31.944  1.00  0.00     0.029 A 
ATOM     56  C   UNL A   1      43.852  31.032  31.955  1.00  0.00     0.049 A 
ATOM     57  H   UNL A   1      43.847  32.833  30.860  1.00  0.00     0.167 HD
ATOM     58  C   UNL A   1      41.477  31.660  32.363  1.00  0.00     0.074 A 
ATOM     59  C   UNL A   1      41.147  32.436  31.171  1.00  0.00     0.031 C 
ATOM     60  C   UNL A   1      42.644  31.068  32.756  1.00  0.00     0.034 A 
BRANCH  47  61
ATOM     61  C   UNL A   1      44.564  32.665  27.881  1.00  0.00     0.023 A 
ATOM     62  C   UNL A   1      43.737  33.759  28.201  1.00  0.00     0.031 A 
ATOM     63  C   UNL A   1      45.609  32.926  26.980  1.00  0.00     0.131 A 
ATOM     64  C   UNL A   1      43.904  35.011  27.607  1.00  0.00     0.055 A 
ATOM     65  C   UNL A   1      45.832  34.201  26.446  1.00  0.00     0.041 A 
ATOM     66  F   UNL A   1      46.476  31.962  26.633  1.00  0.00    -0.206 F 
ATOM     67  C   UNL A   1      44.970  35.251  26.750  1.00  0.00     0.022 A 
BRANCH  64  68
ATOM     68  S   UNL A   1      42.720  36.341  27.951  1.00  0.00     0.124 S 
ATOM     69  O   UNL A   1      42.324  36.743  26.607  1.00  0.00    -0.237 OA
ATOM     70  O   UNL A   1      41.704  35.640  28.731  1.00  0.00    -0.237 OA
ATOM     71  O   UNL A   1      43.510  37.314  28.701  1.00  0.00    -0.744 OA
ENDBRANCH  64  68
ENDBRANCH  47  61
BRANCH  48  72
ATOM     72  C   UNL A   1      36.878  31.155  31.365  1.00  0.00     0.023 A 
ATOM     73  C   UNL A   1      36.430  31.331  30.042  1.00  0.00     0.031 A 
ATOM     74  C   UNL A   1      36.137  31.783  32.380  1.00  0.00     0.131 A 
ATOM     75  C   UNL A   1      35.329  32.149  29.759  1.00  0.00     0.055 A 
ATOM     76  C   UNL A   1      35.030  32.593  32.098  1.00  0.00     0.041 A 
ATOM     77  F   UNL A   1      36.517  31.679  33.663  1.00  0.00    -0.206 F 
ATOM     78  C   UNL A   1      34.629  32.790  30.779  1.00  0.00     0.022 A 
BRANCH  75  79
ATOM     79  S   UNL A   1      34.836  32.419  28.034  1.00  0.00     0.124 S 
ATOM     80  O   UNL A   1      35.882  33.309  27.537  1.00  0.00    -0.237 OA
ATOM     81  O   UNL A   1      34.855  31.062  27.502  1.00  0.00    -0.237 OA
ATOM     82  O   UNL A   1      33.515  33.034  28.156  1.00  0.00    -0.744 OA
ENDBRANCH  75  79
ENDBRANCH  48  72
BRANCH  60  83
ATOM     83  C   UNL A   1      42.633  30.158  33.961  1.00  0.00     0.023 A 
ATOM     84  C   UNL A   1      43.118  30.688  35.169  1.00  0.00     0.031 A 
ATOM     85  C   UNL A   1      42.416  28.769  33.897  1.00  0.00     0.131 A 
ATOM     86  C   UNL A   1      43.412  29.840  36.243  1.00  0.00     0.055 A 
ATOM     87  C   UNL A   1      42.648  27.934  34.994  1.00  0.00     0.041 A 
ATOM     88  F   UNL A   1      42.070  28.168  32.752  1.00  0.00    -0.206 F 
ATOM     89  C   UNL A   1      43.164  28.466  36.170  1.00  0.00     0.022 A 
BRANCH  86  90
ATOM     90  S   UNL A   1      44.262  30.482  37.706  1.00  0.00     0.124 S 
ATOM     91  O   UNL A   1      45.279  31.350  37.118  1.00  0.00    -0.237 OA
ATOM     92  O   UNL A   1      43.183  31.169  38.411  1.00  0.00    -0.237 OA
ATOM     93  O   UNL A   1      44.774  29.286  38.371  1.00  0.00    -0.744 OA
ENDBRANCH  86  90
ENDBRANCH  60  83
ENDBRANCH  34  35
ENDBRANCH  27  29
ENDBRANCH  26  27
ENDBRANCH  25  26
ENDBRANCH  24  25
ENDBRANCH  23  24
ENDBRANCH   1  23
TORSDOF 22
ENDMDL
