MODEL 1
REMARK VINA RESULT:     -11.3      0.000      0.000
REMARK SMILES C[C@H]1CCc2sc3ncn4nc(/C=C\C(=O)OCCOCCOCCOC(=O)c5ccc(-c6c7nc(c(-c8cc(S(=O)(=O)[O-])ccc8F)c8ccc([nH]8)c(-c8cc(S(=O)(=O)[O-])ccc8F)c8nc(c(-c9cc(S(=O)(=O)[O-])ccc9F)c9ccc6[nH]9)C=C8)C=C7)cc5)nc4c3c2C1
REMARK SMILES IDX 22 1 21 2 20 3 19 4 18 5 17 6 15 7 16 8 14 9 13 10 12 11
REMARK SMILES IDX 1 12 2 13 3 14 96 15 4 16 95 17 5 18 94 19 6 20 7 21 93 22
REMARK SMILES IDX 8 23 10 24 92 25 9 26 11 27 23 28 24 29 25 30 26 31 27 32
REMARK SMILES IDX 28 33 29 34 30 35 91 36 31 37 90 38 32 39 33 40 34 41 84 42
REMARK SMILES IDX 35 43 89 44 83 45 85 46 36 47 88 48 82 49 81 50 37 52 69 53
REMARK SMILES IDX 49 54 68 55 50 56 53 57 67 58 86 59 51 60 52 61 66 63 87 64
REMARK SMILES IDX 54 65 38 66 39 67 47 68 40 69 46 70 48 71 45 72 41 73 42 74
REMARK SMILES IDX 43 75 44 76 70 77 71 78 79 79 72 80 78 81 80 82 77 83 73 84
REMARK SMILES IDX 74 85 75 86 76 87 55 88 56 89 64 90 57 91 63 92 65 93 62 94
REMARK SMILES IDX 58 95 59 96 60 97 61 98
REMARK H PARENT 85 51 53 62
REMARK Flexibility Score: inf
ROOT
ATOM      1  C   UNL A   1      39.598  20.507  26.154  1.00  0.00     0.188 C 
ENDROOT
BRANCH   1   2
ATOM      2  C   UNL A   1      38.892  21.829  25.751  1.00  0.00     0.188 C 
BRANCH   2   3
ATOM      3  O   UNL A   1      37.838  21.800  24.789  1.00  0.00    -0.376 OA
BRANCH   3   4
ATOM      4  C   UNL A   1      36.821  22.797  24.879  1.00  0.00     0.202 C 
BRANCH   4   5
ATOM      5  C   UNL A   1      35.920  22.801  26.127  1.00  0.00     0.261 C 
BRANCH   5   6
ATOM      6  O   UNL A   1      35.233  21.559  26.342  1.00  0.00    -0.460 OA
BRANCH   6   7
ATOM      7  C   UNL A   1      34.038  21.594  26.959  1.00  0.00     0.330 C 
ATOM      8  O   UNL A   1      33.778  22.181  28.001  1.00  0.00    -0.247 OA
BRANCH   7   9
ATOM      9  C   UNL A   1      32.963  21.021  26.121  1.00  0.00     0.097 C 
ATOM     10  C   UNL A   1      32.382  21.477  25.000  1.00  0.00     0.058 C 
BRANCH  10  11
ATOM     11  C   UNL A   1      32.622  22.655  24.234  1.00  0.00     0.175 A 
ATOM     12  C   UNL A   1      33.709  28.508  27.474  1.00  0.00     0.008 C 
ATOM     13  C   UNL A   1      32.310  28.252  26.909  1.00  0.00    -0.009 C 
ATOM     14  C   UNL A   1      31.768  29.463  26.116  1.00  0.00     0.009 C 
ATOM     15  C   UNL A   1      32.280  26.957  26.075  1.00  0.00     0.041 C 
ATOM     16  C   UNL A   1      32.481  29.703  24.770  1.00  0.00     0.047 C 
ATOM     17  C   UNL A   1      32.609  27.164  24.636  1.00  0.00    -0.020 A 
ATOM     18  C   UNL A   1      32.680  28.408  24.046  1.00  0.00     0.011 A 
ATOM     19  C   UNL A   1      32.821  26.157  23.675  1.00  0.00     0.060 A 
ATOM     20  S   UNL A   1      33.045  28.328  22.375  1.00  0.00    -0.120 S 
ATOM     21  C   UNL A   1      33.063  26.613  22.390  1.00  0.00     0.129 A 
ATOM     22  C   UNL A   1      32.793  24.694  23.798  1.00  0.00     0.168 A 
ATOM     23  N   UNL A   1      33.279  25.857  21.259  1.00  0.00    -0.225 NA
ATOM     24  N   UNL A   1      32.952  23.973  22.660  1.00  0.00    -0.201 N 
ATOM     25  N   UNL A   1      32.641  23.896  24.821  1.00  0.00    -0.207 NA
ATOM     26  C   UNL A   1      33.203  24.556  21.417  1.00  0.00     0.227 A 
ATOM     27  N   UNL A   1      32.848  22.653  22.904  1.00  0.00    -0.145 NA
ENDBRANCH  10  11
ENDBRANCH   7   9
ENDBRANCH   6   7
ENDBRANCH   5   6
ENDBRANCH   4   5
ENDBRANCH   3   4
ENDBRANCH   2   3
ENDBRANCH   1   2
BRANCH   1  28
ATOM     28  O   UNL A   1      40.793  20.701  26.896  1.00  0.00    -0.376 OA
BRANCH  28  29
ATOM     29  C   UNL A   1      41.671  19.607  27.102  1.00  0.00     0.202 C 
BRANCH  29  30
ATOM     30  C   UNL A   1      42.804  19.397  26.097  1.00  0.00     0.261 C 
BRANCH  30  31
ATOM     31  O   UNL A   1      43.120  20.560  25.363  1.00  0.00    -0.460 OA
BRANCH  31  32
ATOM     32  C   UNL A   1      44.238  20.447  24.629  1.00  0.00     0.338 C 
ATOM     33  O   UNL A   1      44.634  19.438  24.047  1.00  0.00    -0.246 OA
BRANCH  32  34
ATOM     34  C   UNL A   1      44.947  21.723  24.646  1.00  0.00     0.060 A 
ATOM     35  C   UNL A   1      45.890  21.874  25.663  1.00  0.00     0.016 A 
ATOM     36  C   UNL A   1      44.323  22.804  24.012  1.00  0.00     0.016 A 
ATOM     37  C   UNL A   1      45.913  23.079  26.311  1.00  0.00     0.010 A 
ATOM     38  C   UNL A   1      44.317  23.992  24.680  1.00  0.00     0.010 A 
ATOM     39  C   UNL A   1      45.009  24.054  25.886  1.00  0.00    -0.014 A 
BRANCH  39  40
ATOM     40  C   UNL A   1      44.756  25.162  26.763  1.00  0.00     0.031 A 
ATOM     41  C   UNL A   1      45.864  26.123  26.778  1.00  0.00     0.074 A 
ATOM     42  C   UNL A   1      43.588  25.307  27.409  1.00  0.00     0.049 A 
ATOM     43  N   UNL A   1      46.773  26.240  27.684  1.00  0.00    -0.248 NA
ATOM     44  C   UNL A   1      46.143  26.857  25.536  1.00  0.00     0.031 C 
ATOM     45  C   UNL A   1      42.339  24.558  27.265  1.00  0.00     0.029 A 
ATOM     46  N   UNL A   1      43.265  26.263  28.309  1.00  0.00    -0.354 N 
ATOM     47  C   UNL A   1      47.616  27.234  27.219  1.00  0.00     0.074 A 
ATOM     48  C   UNL A   1      47.343  27.364  25.814  1.00  0.00     0.031 C 
ATOM     49  C   UNL A   1      41.343  25.238  27.883  1.00  0.00     0.029 A 
ATOM     50  C   UNL A   1      41.909  26.393  28.566  1.00  0.00     0.049 A 
ATOM     51  H   UNL A   1      43.943  26.827  28.748  1.00  0.00     0.167 HD
ATOM     52  C   UNL A   1      48.277  28.054  28.076  1.00  0.00     0.034 A 
ATOM     53  C   UNL A   1      41.330  27.432  29.225  1.00  0.00     0.034 A 
ATOM     54  C   UNL A   1      48.260  27.523  29.421  1.00  0.00     0.049 A 
ATOM     55  C   UNL A   1      42.410  28.056  30.046  1.00  0.00     0.074 A 
ATOM     56  C   UNL A   1      48.735  26.357  29.995  1.00  0.00     0.029 A 
ATOM     57  N   UNL A   1      47.307  28.005  30.295  1.00  0.00    -0.354 N 
ATOM     58  N   UNL A   1      43.000  27.433  31.033  1.00  0.00    -0.248 NA
ATOM     59  C   UNL A   1      43.193  29.133  29.449  1.00  0.00     0.031 C 
ATOM     60  C   UNL A   1      47.714  25.951  30.905  1.00  0.00     0.029 A 
ATOM     61  C   UNL A   1      46.710  26.923  30.900  1.00  0.00     0.049 A 
ATOM     62  H   UNL A   1      47.093  28.953  30.456  1.00  0.00     0.167 HD
ATOM     63  C   UNL A   1      44.350  27.741  30.909  1.00  0.00     0.074 A 
ATOM     64  C   UNL A   1      44.395  28.862  29.970  1.00  0.00     0.031 C 
ATOM     65  C   UNL A   1      45.323  26.879  31.333  1.00  0.00     0.034 A 
BRANCH  52  66
ATOM     66  C   UNL A   1      48.649  29.477  27.756  1.00  0.00     0.023 A 
ATOM     67  C   UNL A   1      47.604  30.398  27.588  1.00  0.00     0.031 A 
ATOM     68  C   UNL A   1      49.938  29.930  27.380  1.00  0.00     0.131 A 
ATOM     69  C   UNL A   1      47.844  31.662  27.026  1.00  0.00     0.055 A 
ATOM     70  C   UNL A   1      50.183  31.213  26.890  1.00  0.00     0.041 A 
ATOM     71  F   UNL A   1      51.016  29.137  27.366  1.00  0.00    -0.206 F 
ATOM     72  C   UNL A   1      49.129  32.080  26.684  1.00  0.00     0.022 A 
BRANCH  69  73
ATOM     73  S   UNL A   1      46.424  32.702  26.613  1.00  0.00     0.124 S 
ATOM     74  O   UNL A   1      45.848  32.958  27.929  1.00  0.00    -0.237 OA
ATOM     75  O   UNL A   1      47.065  33.837  25.957  1.00  0.00    -0.237 OA
ATOM     76  O   UNL A   1      45.624  31.847  25.739  1.00  0.00    -0.744 OA
ENDBRANCH  69  73
ENDBRANCH  52  66
BRANCH  53  77
ATOM     77  C   UNL A   1      40.031  28.092  28.904  1.00  0.00     0.023 A 
ATOM     78  C   UNL A   1      39.101  28.469  29.897  1.00  0.00     0.031 A 
ATOM     79  C   UNL A   1      39.786  28.580  27.599  1.00  0.00     0.131 A 
ATOM     80  C   UNL A   1      37.992  29.287  29.568  1.00  0.00     0.055 A 
ATOM     81  C   UNL A   1      38.686  29.381  27.278  1.00  0.00     0.041 A 
ATOM     82  F   UNL A   1      40.656  28.372  26.600  1.00  0.00    -0.206 F 
ATOM     83  C   UNL A   1      37.787  29.745  28.265  1.00  0.00     0.022 A 
BRANCH  80  84
ATOM     84  S   UNL A   1      36.846  29.864  30.863  1.00  0.00     0.124 S 
ATOM     85  O   UNL A   1      37.122  28.937  31.954  1.00  0.00    -0.237 OA
ATOM     86  O   UNL A   1      37.265  31.247  31.064  1.00  0.00    -0.237 OA
ATOM     87  O   UNL A   1      35.528  29.711  30.244  1.00  0.00    -0.744 OA
ENDBRANCH  80  84
ENDBRANCH  53  77
BRANCH  65  88
ATOM     88  C   UNL A   1      44.905  25.658  32.137  1.00  0.00     0.023 A 
ATOM     89  C   UNL A   1      44.541  25.684  33.505  1.00  0.00     0.031 A 
ATOM     90  C   UNL A   1      44.702  24.459  31.434  1.00  0.00     0.131 A 
ATOM     91  C   UNL A   1      44.000  24.532  34.115  1.00  0.00     0.055 A 
ATOM     92  C   UNL A   1      44.147  23.329  32.035  1.00  0.00     0.041 A 
ATOM     93  F   UNL A   1      44.994  24.383  30.124  1.00  0.00    -0.206 F 
ATOM     94  C   UNL A   1      43.794  23.361  33.379  1.00  0.00     0.022 A 
BRANCH  91  95
ATOM     95  S   UNL A   1      43.516  24.551  35.873  1.00  0.00     0.124 S 
ATOM     96  O   UNL A   1      44.591  23.809  36.523  1.00  0.00    -0.237 OA
ATOM     97  O   UNL A   1      43.449  25.979  36.172  1.00  0.00    -0.237 OA
ATOM     98  O   UNL A   1      42.220  23.871  35.879  1.00  0.00    -0.744 OA
ENDBRANCH  91  95
ENDBRANCH  65  88
ENDBRANCH  39  40
ENDBRANCH  32  34
ENDBRANCH  31  32
ENDBRANCH  30  31
ENDBRANCH  29  30
ENDBRANCH  28  29
ENDBRANCH   1  28
TORSDOF 21
ENDMDL
MODEL 2
REMARK VINA RESULT:     -11.1      5.098     11.178
REMARK SMILES C[C@H]1CCc2sc3ncn4nc(/C=C\C(=O)OCCOCCOCCOC(=O)c5ccc(-c6c7nc(c(-c8cc(S(=O)(=O)[O-])ccc8F)c8ccc([nH]8)c(-c8cc(S(=O)(=O)[O-])ccc8F)c8nc(c(-c9cc(S(=O)(=O)[O-])ccc9F)c9ccc6[nH]9)C=C8)C=C7)cc5)nc4c3c2C1
REMARK SMILES IDX 22 1 21 2 20 3 19 4 18 5 17 6 15 7 16 8 14 9 13 10 12 11
REMARK SMILES IDX 1 12 2 13 3 14 96 15 4 16 95 17 5 18 94 19 6 20 7 21 93 22
REMARK SMILES IDX 8 23 10 24 92 25 9 26 11 27 23 28 24 29 25 30 26 31 27 32
REMARK SMILES IDX 28 33 29 34 30 35 91 36 31 37 90 38 32 39 33 40 34 41 84 42
REMARK SMILES IDX 35 43 89 44 83 45 85 46 36 47 88 48 82 49 81 50 37 52 69 53
REMARK SMILES IDX 49 54 68 55 50 56 53 57 67 58 86 59 51 60 52 61 66 63 87 64
REMARK SMILES IDX 54 65 38 66 39 67 47 68 40 69 46 70 48 71 45 72 41 73 42 74
REMARK SMILES IDX 43 75 44 76 70 77 71 78 79 79 72 80 78 81 80 82 77 83 73 84
REMARK SMILES IDX 74 85 75 86 76 87 55 88 56 89 64 90 57 91 63 92 65 93 62 94
REMARK SMILES IDX 58 95 59 96 60 97 61 98
REMARK H PARENT 85 51 53 62
REMARK Flexibility Score: inf
ROOT
ATOM      1  C   UNL A   1      47.521  27.492  24.222  1.00  0.00     0.188 C 
ENDROOT
BRANCH   1   2
ATOM      2  C   UNL A   1      48.723  26.851  24.967  1.00  0.00     0.188 C 
BRANCH   2   3
ATOM      3  O   UNL A   1      49.147  27.394  26.217  1.00  0.00    -0.376 OA
BRANCH   3   4
ATOM      4  C   UNL A   1      48.319  28.378  26.836  1.00  0.00     0.202 C 
BRANCH   4   5
ATOM      5  C   UNL A   1      48.300  28.445  28.373  1.00  0.00     0.261 C 
BRANCH   5   6
ATOM      6  O   UNL A   1      47.242  29.261  28.898  1.00  0.00    -0.460 OA
BRANCH   6   7
ATOM      7  C   UNL A   1      46.018  28.714  29.011  1.00  0.00     0.330 C 
ATOM      8  O   UNL A   1      45.086  28.856  28.232  1.00  0.00    -0.247 OA
BRANCH   7   9
ATOM      9  C   UNL A   1      45.959  27.705  30.091  1.00  0.00     0.097 C 
ATOM     10  C   UNL A   1      45.876  26.365  30.041  1.00  0.00     0.058 C 
BRANCH  10  11
ATOM     11  C   UNL A   1      45.837  25.471  28.932  1.00  0.00     0.175 A 
ATOM     12  C   UNL A   1      39.910  22.702  27.160  1.00  0.00     0.008 C 
ATOM     13  C   UNL A   1      40.875  21.855  27.994  1.00  0.00    -0.009 C 
ATOM     14  C   UNL A   1      41.049  20.430  27.421  1.00  0.00     0.009 C 
ATOM     15  C   UNL A   1      42.226  22.573  28.173  1.00  0.00     0.041 C 
ATOM     16  C   UNL A   1      41.838  20.377  26.097  1.00  0.00     0.047 C 
ATOM     17  C   UNL A   1      43.209  22.276  27.093  1.00  0.00    -0.020 A 
ATOM     18  C   UNL A   1      43.038  21.269  26.167  1.00  0.00     0.011 A 
ATOM     19  C   UNL A   1      44.453  22.908  26.900  1.00  0.00     0.060 A 
ATOM     20  S   UNL A   1      44.348  21.146  25.072  1.00  0.00    -0.120 S 
ATOM     21  C   UNL A   1      45.207  22.411  25.850  1.00  0.00     0.129 A 
ATOM     22  C   UNL A   1      45.107  23.986  27.652  1.00  0.00     0.168 A 
ATOM     23  N   UNL A   1      46.460  22.820  25.451  1.00  0.00    -0.225 NA
ATOM     24  N   UNL A   1      46.364  24.332  27.275  1.00  0.00    -0.201 N 
ATOM     25  N   UNL A   1      44.718  24.724  28.658  1.00  0.00    -0.207 NA
ATOM     26  C   UNL A   1      47.015  23.760  26.181  1.00  0.00     0.227 A 
ATOM     27  N   UNL A   1      46.866  25.287  28.079  1.00  0.00    -0.145 NA
ENDBRANCH  10  11
ENDBRANCH   7   9
ENDBRANCH   6   7
ENDBRANCH   5   6
ENDBRANCH   4   5
ENDBRANCH   3   4
ENDBRANCH   2   3
ENDBRANCH   1   2
BRANCH   1  28
ATOM     28  O   UNL A   1      46.296  26.801  24.415  1.00  0.00    -0.376 OA
BRANCH  28  29
ATOM     29  C   UNL A   1      45.203  27.473  25.019  1.00  0.00     0.202 C 
BRANCH  29  30
ATOM     30  C   UNL A   1      44.097  26.625  25.648  1.00  0.00     0.261 C 
BRANCH  30  31
ATOM     31  O   UNL A   1      42.829  27.242  25.604  1.00  0.00    -0.460 OA
BRANCH  31  32
ATOM     32  C   UNL A   1      41.816  26.413  25.899  1.00  0.00     0.338 C 
ATOM     33  O   UNL A   1      41.787  25.197  25.717  1.00  0.00    -0.246 OA
BRANCH  32  34
ATOM     34  C   UNL A   1      40.714  27.191  26.458  1.00  0.00     0.060 A 
ATOM     35  C   UNL A   1      40.785  28.569  26.250  1.00  0.00     0.016 A 
ATOM     36  C   UNL A   1      39.996  26.609  27.509  1.00  0.00     0.016 A 
ATOM     37  C   UNL A   1      40.470  29.371  27.314  1.00  0.00     0.010 A 
ATOM     38  C   UNL A   1      39.720  27.404  28.582  1.00  0.00     0.010 A 
ATOM     39  C   UNL A   1      40.089  28.743  28.501  1.00  0.00    -0.014 A 
BRANCH  39  40
ATOM     40  C   UNL A   1      40.115  29.520  29.709  1.00  0.00     0.031 A 
ATOM     41  C   UNL A   1      38.891  30.306  29.891  1.00  0.00     0.074 A 
ATOM     42  C   UNL A   1      41.128  29.436  30.586  1.00  0.00     0.049 A 
ATOM     43  N   UNL A   1      38.740  31.565  29.661  1.00  0.00    -0.248 NA
ATOM     44  C   UNL A   1      37.637  29.571  30.104  1.00  0.00     0.031 C 
ATOM     45  C   UNL A   1      42.255  28.505  30.630  1.00  0.00     0.029 A 
ATOM     46  N   UNL A   1      41.295  30.166  31.712  1.00  0.00    -0.354 N 
ATOM     47  C   UNL A   1      37.405  31.820  29.924  1.00  0.00     0.074 A 
ATOM     48  C   UNL A   1      36.746  30.543  29.915  1.00  0.00     0.031 C 
ATOM     49  C   UNL A   1      42.850  28.587  31.845  1.00  0.00     0.029 A 
ATOM     50  C   UNL A   1      42.224  29.659  32.606  1.00  0.00     0.049 A 
ATOM     51  H   UNL A   1      40.792  30.995  31.885  1.00  0.00     0.167 HD
ATOM     52  C   UNL A   1      36.999  33.027  30.394  1.00  0.00     0.034 A 
ATOM     53  C   UNL A   1      42.378  30.066  33.895  1.00  0.00     0.034 A 
ATOM     54  C   UNL A   1      38.031  34.026  30.222  1.00  0.00     0.049 A 
ATOM     55  C   UNL A   1      41.794  31.438  33.969  1.00  0.00     0.074 A 
ATOM     56  C   UNL A   1      38.681  34.550  29.119  1.00  0.00     0.029 A 
ATOM     57  N   UNL A   1      38.845  34.306  31.301  1.00  0.00    -0.354 N 
ATOM     58  N   UNL A   1      42.297  32.459  33.324  1.00  0.00    -0.248 NA
ATOM     59  C   UNL A   1      40.381  31.567  34.309  1.00  0.00     0.031 C 
ATOM     60  C   UNL A   1      40.047  34.666  29.516  1.00  0.00     0.029 A 
ATOM     61  C   UNL A   1      40.148  34.285  30.857  1.00  0.00     0.049 A 
ATOM     62  H   UNL A   1      38.547  34.488  32.221  1.00  0.00     0.167 HD
ATOM     63  C   UNL A   1      41.203  33.149  32.815  1.00  0.00     0.074 A 
ATOM     64  C   UNL A   1      40.048  32.602  33.529  1.00  0.00     0.031 C 
ATOM     65  C   UNL A   1      41.288  33.875  31.660  1.00  0.00     0.034 A 
BRANCH  52  66
ATOM     66  C   UNL A   1      35.807  33.220  31.292  1.00  0.00     0.023 A 
ATOM     67  C   UNL A   1      34.830  34.142  30.883  1.00  0.00     0.031 A 
ATOM     68  C   UNL A   1      35.684  32.737  32.618  1.00  0.00     0.131 A 
ATOM     69  C   UNL A   1      33.839  34.580  31.776  1.00  0.00     0.055 A 
ATOM     70  C   UNL A   1      34.654  33.122  33.478  1.00  0.00     0.041 A 
ATOM     71  F   UNL A   1      36.598  31.950  33.197  1.00  0.00    -0.206 F 
ATOM     72  C   UNL A   1      33.738  34.070  33.069  1.00  0.00     0.022 A 
BRANCH  69  73
ATOM     73  S   UNL A   1      32.766  35.943  31.265  1.00  0.00     0.124 S 
ATOM     74  O   UNL A   1      31.599  35.739  32.117  1.00  0.00    -0.237 OA
ATOM     75  O   UNL A   1      33.593  37.106  31.570  1.00  0.00    -0.237 OA
ATOM     76  O   UNL A   1      32.551  35.687  29.843  1.00  0.00    -0.744 OA
ENDBRANCH  69  73
ENDBRANCH  52  66
BRANCH  53  77
ATOM     77  C   UNL A   1      42.667  29.211  35.083  1.00  0.00     0.023 A 
ATOM     78  C   UNL A   1      41.914  28.059  35.396  1.00  0.00     0.031 A 
ATOM     79  C   UNL A   1      43.864  29.393  35.815  1.00  0.00     0.131 A 
ATOM     80  C   UNL A   1      42.359  27.160  36.397  1.00  0.00     0.055 A 
ATOM     81  C   UNL A   1      44.296  28.508  36.806  1.00  0.00     0.041 A 
ATOM     82  F   UNL A   1      44.710  30.396  35.532  1.00  0.00    -0.206 F 
ATOM     83  C   UNL A   1      43.547  27.380  37.096  1.00  0.00     0.022 A 
BRANCH  80  84
ATOM     84  S   UNL A   1      41.447  25.617  36.733  1.00  0.00     0.124 S 
ATOM     85  O   UNL A   1      42.521  24.694  37.080  1.00  0.00    -0.237 OA
ATOM     86  O   UNL A   1      40.552  26.008  37.816  1.00  0.00    -0.237 OA
ATOM     87  O   UNL A   1      40.779  25.334  35.462  1.00  0.00    -0.744 OA
ENDBRANCH  80  84
ENDBRANCH  53  77
BRANCH  65  88
ATOM     88  C   UNL A   1      42.661  34.090  31.043  1.00  0.00     0.023 A 
ATOM     89  C   UNL A   1      43.157  33.383  29.921  1.00  0.00     0.031 A 
ATOM     90  C   UNL A   1      43.417  35.177  31.511  1.00  0.00     0.131 A 
ATOM     91  C   UNL A   1      44.369  33.777  29.317  1.00  0.00     0.055 A 
ATOM     92  C   UNL A   1      44.605  35.576  30.898  1.00  0.00     0.041 A 
ATOM     93  F   UNL A   1      42.981  35.910  32.551  1.00  0.00    -0.206 F 
ATOM     94  C   UNL A   1      45.086  34.877  29.798  1.00  0.00     0.022 A 
BRANCH  91  95
ATOM     95  S   UNL A   1      45.016  32.884  27.864  1.00  0.00     0.124 S 
ATOM     96  O   UNL A   1      45.034  33.908  26.824  1.00  0.00    -0.237 OA
ATOM     97  O   UNL A   1      46.319  32.417  28.329  1.00  0.00    -0.237 OA
ATOM     98  O   UNL A   1      44.034  31.819  27.650  1.00  0.00    -0.744 OA
ENDBRANCH  91  95
ENDBRANCH  65  88
ENDBRANCH  39  40
ENDBRANCH  32  34
ENDBRANCH  31  32
ENDBRANCH  30  31
ENDBRANCH  29  30
ENDBRANCH  28  29
ENDBRANCH   1  28
TORSDOF 21
ENDMDL
MODEL 3
REMARK VINA RESULT:     -11.1      4.290      8.930
REMARK SMILES C[C@H]1CCc2sc3ncn4nc(/C=C\C(=O)OCCOCCOCCOC(=O)c5ccc(-c6c7nc(c(-c8cc(S(=O)(=O)[O-])ccc8F)c8ccc([nH]8)c(-c8cc(S(=O)(=O)[O-])ccc8F)c8nc(c(-c9cc(S(=O)(=O)[O-])ccc9F)c9ccc6[nH]9)C=C8)C=C7)cc5)nc4c3c2C1
REMARK SMILES IDX 22 1 21 2 20 3 19 4 18 5 17 6 15 7 16 8 14 9 13 10 12 11
REMARK SMILES IDX 1 12 2 13 3 14 96 15 4 16 95 17 5 18 94 19 6 20 7 21 93 22
REMARK SMILES IDX 8 23 10 24 92 25 9 26 11 27 23 28 24 29 25 30 26 31 27 32
REMARK SMILES IDX 28 33 29 34 30 35 91 36 31 37 90 38 32 39 33 40 34 41 84 42
REMARK SMILES IDX 35 43 89 44 83 45 85 46 36 47 88 48 82 49 81 50 37 52 69 53
REMARK SMILES IDX 49 54 68 55 50 56 53 57 67 58 86 59 51 60 52 61 66 63 87 64
REMARK SMILES IDX 54 65 38 66 39 67 47 68 40 69 46 70 48 71 45 72 41 73 42 74
REMARK SMILES IDX 43 75 44 76 70 77 71 78 79 79 72 80 78 81 80 82 77 83 73 84
REMARK SMILES IDX 74 85 75 86 76 87 55 88 56 89 64 90 57 91 63 92 65 93 62 94
REMARK SMILES IDX 58 95 59 96 60 97 61 98
REMARK H PARENT 85 51 53 62
REMARK Flexibility Score: inf
ROOT
ATOM      1  C   UNL A   1      39.483  21.267  26.128  1.00  0.00     0.188 C 
ENDROOT
BRANCH   1   2
ATOM      2  C   UNL A   1      38.157  21.934  25.672  1.00  0.00     0.188 C 
BRANCH   2   3
ATOM      3  O   UNL A   1      37.676  21.711  24.347  1.00  0.00    -0.376 OA
BRANCH   3   4
ATOM      4  C   UNL A   1      36.355  22.149  24.032  1.00  0.00     0.202 C 
BRANCH   4   5
ATOM      5  C   UNL A   1      35.305  22.151  25.158  1.00  0.00     0.261 C 
BRANCH   5   6
ATOM      6  O   UNL A   1      34.276  21.166  24.984  1.00  0.00    -0.460 OA
BRANCH   6   7
ATOM      7  C   UNL A   1      33.016  21.595  24.788  1.00  0.00     0.330 C 
ATOM      8  O   UNL A   1      32.146  21.700  25.641  1.00  0.00    -0.247 OA
BRANCH   7   9
ATOM      9  C   UNL A   1      32.826  22.162  23.435  1.00  0.00     0.097 C 
ATOM     10  C   UNL A   1      32.673  23.432  23.026  1.00  0.00     0.058 C 
BRANCH  10  11
ATOM     11  C   UNL A   1      32.660  24.656  23.757  1.00  0.00     0.175 A 
ATOM     12  C   UNL A   1      27.305  28.769  23.172  1.00  0.00     0.008 C 
ATOM     13  C   UNL A   1      28.556  29.102  22.355  1.00  0.00    -0.009 C 
ATOM     14  C   UNL A   1      28.954  30.591  22.473  1.00  0.00     0.009 C 
ATOM     15  C   UNL A   1      29.722  28.164  22.723  1.00  0.00     0.041 C 
ATOM     16  C   UNL A   1      29.513  30.985  23.855  1.00  0.00     0.047 C 
ATOM     17  C   UNL A   1      30.562  28.665  23.847  1.00  0.00    -0.020 A 
ATOM     18  C   UNL A   1      30.476  29.949  24.343  1.00  0.00     0.011 A 
ATOM     19  C   UNL A   1      31.584  27.956  24.506  1.00  0.00     0.060 A 
ATOM     20  S   UNL A   1      31.589  30.244  25.611  1.00  0.00    -0.120 S 
ATOM     21  C   UNL A   1      32.253  28.667  25.488  1.00  0.00     0.129 A 
ATOM     22  C   UNL A   1      32.089  26.592  24.302  1.00  0.00     0.168 A 
ATOM     23  N   UNL A   1      33.302  28.235  26.269  1.00  0.00    -0.225 NA
ATOM     24  N   UNL A   1      33.159  26.210  25.044  1.00  0.00    -0.201 N 
ATOM     25  N   UNL A   1      31.709  25.618  23.520  1.00  0.00    -0.207 NA
ATOM     26  C   UNL A   1      33.740  27.022  26.018  1.00  0.00     0.227 A 
ATOM     27  N   UNL A   1      33.554  24.965  24.718  1.00  0.00    -0.145 NA
ENDBRANCH  10  11
ENDBRANCH   7   9
ENDBRANCH   6   7
ENDBRANCH   5   6
ENDBRANCH   4   5
ENDBRANCH   3   4
ENDBRANCH   2   3
ENDBRANCH   1   2
BRANCH   1  28
ATOM     28  O   UNL A   1      39.981  21.769  27.359  1.00  0.00    -0.376 OA
BRANCH  28  29
ATOM     29  C   UNL A   1      41.353  22.113  27.468  1.00  0.00     0.202 C 
BRANCH  29  30
ATOM     30  C   UNL A   1      41.747  23.574  27.255  1.00  0.00     0.261 C 
BRANCH  30  31
ATOM     31  O   UNL A   1      40.652  24.462  27.327  1.00  0.00    -0.460 OA
BRANCH  31  32
ATOM     32  C   UNL A   1      40.943  25.709  26.926  1.00  0.00     0.338 C 
ATOM     33  O   UNL A   1      41.862  26.045  26.181  1.00  0.00    -0.246 OA
BRANCH  32  34
ATOM     34  C   UNL A   1      39.999  26.637  27.543  1.00  0.00     0.060 A 
ATOM     35  C   UNL A   1      40.075  27.957  27.098  1.00  0.00     0.016 A 
ATOM     36  C   UNL A   1      39.479  26.276  28.792  1.00  0.00     0.016 A 
ATOM     37  C   UNL A   1      40.001  28.935  28.052  1.00  0.00     0.010 A 
ATOM     38  C   UNL A   1      39.444  27.247  29.748  1.00  0.00     0.010 A 
ATOM     39  C   UNL A   1      39.836  28.529  29.378  1.00  0.00    -0.014 A 
BRANCH  39  40
ATOM     40  C   UNL A   1      40.124  29.482  30.412  1.00  0.00     0.031 A 
ATOM     41  C   UNL A   1      38.978  30.350  30.703  1.00  0.00     0.074 A 
ATOM     42  C   UNL A   1      41.293  29.485  31.072  1.00  0.00     0.049 A 
ATOM     43  N   UNL A   1      38.807  31.563  30.305  1.00  0.00    -0.248 NA
ATOM     44  C   UNL A   1      37.781  29.722  31.279  1.00  0.00     0.031 C 
ATOM     45  C   UNL A   1      42.388  28.515  31.042  1.00  0.00     0.029 A 
ATOM     46  N   UNL A   1      41.701  30.372  32.007  1.00  0.00    -0.354 N 
ATOM     47  C   UNL A   1      37.559  31.924  30.783  1.00  0.00     0.074 A 
ATOM     48  C   UNL A   1      36.888  30.698  31.115  1.00  0.00     0.031 C 
ATOM     49  C   UNL A   1      43.220  28.756  32.085  1.00  0.00     0.029 A 
ATOM     50  C   UNL A   1      42.784  29.964  32.769  1.00  0.00     0.049 A 
ATOM     51  H   UNL A   1      41.260  31.243  32.138  1.00  0.00     0.167 HD
ATOM     52  C   UNL A   1      37.280  33.210  31.120  1.00  0.00     0.034 A 
ATOM     53  C   UNL A   1      43.206  30.560  33.917  1.00  0.00     0.034 A 
ATOM     54  C   UNL A   1      38.274  34.115  30.585  1.00  0.00     0.049 A 
ATOM     55  C   UNL A   1      42.676  31.955  33.880  1.00  0.00     0.074 A 
ATOM     56  C   UNL A   1      38.694  34.425  29.305  1.00  0.00     0.029 A 
ATOM     57  N   UNL A   1      39.296  34.518  31.419  1.00  0.00    -0.354 N 
ATOM     58  N   UNL A   1      43.054  32.835  32.989  1.00  0.00    -0.248 NA
ATOM     59  C   UNL A   1      41.365  32.208  34.469  1.00  0.00     0.031 C 
ATOM     60  C   UNL A   1      40.114  34.531  29.397  1.00  0.00     0.029 A 
ATOM     61  C   UNL A   1      40.480  34.361  30.735  1.00  0.00     0.049 A 
ATOM     62  H   UNL A   1      39.197  34.857  32.338  1.00  0.00     0.167 HD
ATOM     63  C   UNL A   1      41.892  33.492  32.603  1.00  0.00     0.074 A 
ATOM     64  C   UNL A   1      40.899  33.124  33.612  1.00  0.00     0.031 C 
ATOM     65  C   UNL A   1      41.752  34.023  31.351  1.00  0.00     0.034 A 
BRANCH  52  66
ATOM     66  C   UNL A   1      36.301  33.602  32.194  1.00  0.00     0.023 A 
ATOM     67  C   UNL A   1      35.145  34.293  31.796  1.00  0.00     0.031 A 
ATOM     68  C   UNL A   1      36.539  33.548  33.589  1.00  0.00     0.131 A 
ATOM     69  C   UNL A   1      34.328  34.928  32.744  1.00  0.00     0.055 A 
ATOM     70  C   UNL A   1      35.683  34.120  34.531  1.00  0.00     0.041 A 
ATOM     71  F   UNL A   1      37.654  33.034  34.122  1.00  0.00    -0.206 F 
ATOM     72  C   UNL A   1      34.583  34.839  34.111  1.00  0.00     0.022 A 
BRANCH  69  73
ATOM     73  S   UNL A   1      32.998  36.001  32.149  1.00  0.00     0.124 S 
ATOM     74  O   UNL A   1      31.817  35.188  32.416  1.00  0.00    -0.237 OA
ATOM     75  O   UNL A   1      33.171  37.183  32.985  1.00  0.00    -0.237 OA
ATOM     76  O   UNL A   1      33.321  36.184  30.736  1.00  0.00    -0.744 OA
ENDBRANCH  69  73
ENDBRANCH  52  66
BRANCH  53  77
ATOM     77  C   UNL A   1      43.717  29.887  35.147  1.00  0.00     0.023 A 
ATOM     78  C   UNL A   1      43.139  28.710  35.669  1.00  0.00     0.031 A 
ATOM     79  C   UNL A   1      44.955  30.278  35.708  1.00  0.00     0.131 A 
ATOM     80  C   UNL A   1      43.789  27.988  36.701  1.00  0.00     0.055 A 
ATOM     81  C   UNL A   1      45.589  29.567  36.731  1.00  0.00     0.041 A 
ATOM     82  F   UNL A   1      45.645  31.321  35.221  1.00  0.00    -0.206 F 
ATOM     83  C   UNL A   1      45.011  28.411  37.227  1.00  0.00     0.022 A 
BRANCH  80  84
ATOM     84  S   UNL A   1      43.103  26.411  37.306  1.00  0.00     0.124 S 
ATOM     85  O   UNL A   1      43.794  25.434  36.474  1.00  0.00    -0.237 OA
ATOM     86  O   UNL A   1      43.463  26.430  38.720  1.00  0.00    -0.237 OA
ATOM     87  O   UNL A   1      41.669  26.540  37.041  1.00  0.00    -0.744 OA
ENDBRANCH  80  84
ENDBRANCH  53  77
BRANCH  65  88
ATOM     88  C   UNL A   1      42.974  34.068  30.446  1.00  0.00     0.023 A 
ATOM     89  C   UNL A   1      43.402  32.999  29.622  1.00  0.00     0.031 A 
ATOM     90  C   UNL A   1      43.618  35.306  30.291  1.00  0.00     0.131 A 
ATOM     91  C   UNL A   1      44.441  33.199  28.689  1.00  0.00     0.055 A 
ATOM     92  C   UNL A   1      44.631  35.505  29.353  1.00  0.00     0.041 A 
ATOM     93  F   UNL A   1      43.233  36.368  31.019  1.00  0.00    -0.206 F 
ATOM     94  C   UNL A   1      45.047  34.451  28.548  1.00  0.00     0.022 A 
BRANCH  91  95
ATOM     95  S   UNL A   1      44.997  31.836  27.611  1.00  0.00     0.124 S 
ATOM     96  O   UNL A   1      46.159  32.401  26.932  1.00  0.00    -0.237 OA
ATOM     97  O   UNL A   1      45.268  30.764  28.565  1.00  0.00    -0.237 OA
ATOM     98  O   UNL A   1      43.844  31.594  26.742  1.00  0.00    -0.744 OA
ENDBRANCH  91  95
ENDBRANCH  65  88
ENDBRANCH  39  40
ENDBRANCH  32  34
ENDBRANCH  31  32
ENDBRANCH  30  31
ENDBRANCH  29  30
ENDBRANCH  28  29
ENDBRANCH   1  28
TORSDOF 21
ENDMDL
