MODEL 1
REMARK VINA RESULT:     -10.7      0.000      0.000
REMARK SMILES Cc1cc2nc(S/C(=C\c3ccc(O)cc3)C(=O)OCCOCCOCCOC(=O)c3ccc(-c4c5nc(c(-c6cc(S(=O)(=O)[O-])ccc6F)c6ccc([nH]6)c(-c6cc(S(=O)(=O)[O-])ccc6F)c6nc(c(-c7cc(S(=O)(=O)[O-])ccc7F)c7ccc4[nH]7)C=C6)C=C5)cc3)[nH]c2cc1C
REMARK SMILES IDX 24 1 23 2 22 3 21 4 20 5 19 6 17 7 18 8 8 9 9 10 7 11 6 12
REMARK SMILES IDX 1 13 2 14 3 15 97 16 4 17 96 18 98 19 5 20 95 21 94 22 10 24
REMARK SMILES IDX 11 25 16 26 12 27 15 28 13 29 14 30 25 32 26 33 27 34 28 35
REMARK SMILES IDX 29 36 30 37 31 38 32 39 93 40 33 41 92 42 34 43 35 44 36 45
REMARK SMILES IDX 86 46 37 47 91 48 85 49 87 50 38 51 90 52 84 53 83 54 39 56
REMARK SMILES IDX 71 57 51 58 70 59 52 60 55 61 69 62 88 63 53 64 54 65 68 67
REMARK SMILES IDX 89 68 56 69 40 70 41 71 49 72 42 73 48 74 50 75 47 76 43 77
REMARK SMILES IDX 44 78 45 79 46 80 72 81 73 82 81 83 74 84 80 85 82 86 79 87
REMARK SMILES IDX 75 88 76 89 77 90 78 91 57 92 58 93 66 94 59 95 65 96 67 97
REMARK SMILES IDX 64 98 60 99 61 100 62 101 63 102
REMARK H PARENT 94 23 14 31 87 55 55 66
REMARK Flexibility Score: inf
ROOT
ATOM      1  C   UNL A   1      33.514  32.340  27.643  1.00  0.00     0.188 C 
ENDROOT
BRANCH   1   2
ATOM      2  C   UNL A   1      34.156  30.949  27.841  1.00  0.00     0.188 C 
BRANCH   2   3
ATOM      3  O   UNL A   1      33.916  29.925  26.881  1.00  0.00    -0.376 OA
BRANCH   3   4
ATOM      4  C   UNL A   1      33.135  28.794  27.239  1.00  0.00     0.202 C 
BRANCH   4   5
ATOM      5  C   UNL A   1      33.130  27.553  26.331  1.00  0.00     0.261 C 
BRANCH   5   6
ATOM      6  O   UNL A   1      32.811  27.827  24.958  1.00  0.00    -0.459 OA
BRANCH   6   7
ATOM      7  C   UNL A   1      33.483  27.105  24.017  1.00  0.00     0.345 C 
ATOM      8  O   UNL A   1      34.444  27.506  23.375  1.00  0.00    -0.246 OA
BRANCH   7   9
ATOM      9  C   UNL A   1      32.929  25.700  23.918  1.00  0.00     0.101 C 
ATOM     10  C   UNL A   1      33.495  24.787  24.734  1.00  0.00     0.031 C 
BRANCH   9  11
ATOM     11  S   UNL A   1      31.717  25.571  22.682  1.00  0.00    -0.044 SA
BRANCH  11  12
ATOM     12  C   UNL A   1      30.767  27.003  22.672  1.00  0.00     0.171 A 
ATOM     13  C   UNL A   1      26.916  31.349  23.844  1.00  0.00     0.044 C 
ATOM     14  C   UNL A   1      28.099  30.595  23.295  1.00  0.00    -0.046 A 
ATOM     15  C   UNL A   1      28.270  29.254  23.709  1.00  0.00     0.034 A 
ATOM     16  C   UNL A   1      28.982  31.154  22.345  1.00  0.00    -0.046 A 
ATOM     17  C   UNL A   1      29.306  28.487  23.157  1.00  0.00     0.090 A 
ATOM     18  C   UNL A   1      29.930  30.344  21.691  1.00  0.00     0.032 A 
ATOM     19  C   UNL A   1      28.956  32.621  22.005  1.00  0.00     0.044 C 
ATOM     20  N   UNL A   1      29.755  27.230  23.481  1.00  0.00    -0.222 NA
ATOM     21  C   UNL A   1      30.061  29.024  22.125  1.00  0.00     0.066 A 
ATOM     22  N   UNL A   1      30.893  27.999  21.749  1.00  0.00    -0.333 N 
ATOM     23  H   UNL A   1      31.478  27.985  20.957  1.00  0.00     0.169 HD
ENDBRANCH  11  12
ENDBRANCH   9  11
BRANCH  10  24
ATOM     24  C   UNL A   1      33.225  23.359  24.928  1.00  0.00    -0.024 A 
ATOM     25  C   UNL A   1      34.031  22.346  24.399  1.00  0.00     0.012 A 
ATOM     26  C   UNL A   1      32.079  23.018  25.664  1.00  0.00     0.012 A 
ATOM     27  C   UNL A   1      33.629  21.010  24.507  1.00  0.00     0.047 A 
ATOM     28  C   UNL A   1      31.689  21.686  25.785  1.00  0.00     0.047 A 
ATOM     29  C   UNL A   1      32.447  20.698  25.172  1.00  0.00     0.115 A 
BRANCH  29  30
ATOM     30  O   UNL A   1      31.963  19.423  25.188  1.00  0.00    -0.508 OA
ATOM     31  H   UNL A   1      31.267  19.194  25.772  1.00  0.00     0.293 HD
ENDBRANCH  29  30
ENDBRANCH  10  24
ENDBRANCH   7   9
ENDBRANCH   6   7
ENDBRANCH   5   6
ENDBRANCH   4   5
ENDBRANCH   3   4
ENDBRANCH   2   3
ENDBRANCH   1   2
BRANCH   1  32
ATOM     32  O   UNL A   1      34.287  33.406  28.144  1.00  0.00    -0.376 OA
BRANCH  32  33
ATOM     33  C   UNL A   1      33.795  34.152  29.242  1.00  0.00     0.202 C 
BRANCH  33  34
ATOM     34  C   UNL A   1      34.233  33.934  30.708  1.00  0.00     0.261 C 
BRANCH  34  35
ATOM     35  O   UNL A   1      34.439  32.595  31.171  1.00  0.00    -0.460 OA
BRANCH  35  36
ATOM     36  C   UNL A   1      35.379  32.412  32.128  1.00  0.00     0.338 C 
ATOM     37  O   UNL A   1      35.268  32.671  33.317  1.00  0.00    -0.246 OA
BRANCH  36  38
ATOM     38  C   UNL A   1      36.505  31.664  31.529  1.00  0.00     0.060 A 
ATOM     39  C   UNL A   1      37.463  31.081  32.370  1.00  0.00     0.016 A 
ATOM     40  C   UNL A   1      36.608  31.529  30.144  1.00  0.00     0.016 A 
ATOM     41  C   UNL A   1      38.535  30.370  31.826  1.00  0.00     0.010 A 
ATOM     42  C   UNL A   1      37.696  30.837  29.599  1.00  0.00     0.010 A 
ATOM     43  C   UNL A   1      38.678  30.273  30.435  1.00  0.00    -0.014 A 
BRANCH  43  44
ATOM     44  C   UNL A   1      39.935  29.739  29.850  1.00  0.00     0.031 A 
ATOM     45  C   UNL A   1      41.122  30.659  29.740  1.00  0.00     0.074 A 
ATOM     46  C   UNL A   1      40.032  28.462  29.435  1.00  0.00     0.049 A 
ATOM     47  N   UNL A   1      42.293  30.450  29.199  1.00  0.00    -0.248 NA
ATOM     48  C   UNL A   1      40.955  32.002  30.317  1.00  0.00     0.031 C 
ATOM     49  C   UNL A   1      38.975  27.459  29.541  1.00  0.00     0.029 A 
ATOM     50  N   UNL A   1      41.070  27.796  28.831  1.00  0.00    -0.354 N 
ATOM     51  C   UNL A   1      43.003  31.635  29.361  1.00  0.00     0.074 A 
ATOM     52  C   UNL A   1      42.113  32.570  30.017  1.00  0.00     0.031 C 
ATOM     53  C   UNL A   1      39.416  26.304  29.009  1.00  0.00     0.029 A 
ATOM     54  C   UNL A   1      40.767  26.499  28.484  1.00  0.00     0.049 A 
ATOM     55  H   UNL A   1      41.949  28.206  28.662  1.00  0.00     0.167 HD
ATOM     56  C   UNL A   1      44.281  31.914  29.006  1.00  0.00     0.034 A 
ATOM     57  C   UNL A   1      41.486  25.586  27.796  1.00  0.00     0.034 A 
ATOM     58  C   UNL A   1      45.151  30.975  28.339  1.00  0.00     0.049 A 
ATOM     59  C   UNL A   1      42.871  25.956  27.312  1.00  0.00     0.074 A 
ATOM     60  C   UNL A   1      46.466  31.150  27.945  1.00  0.00     0.029 A 
ATOM     61  N   UNL A   1      44.790  29.691  27.952  1.00  0.00    -0.354 N 
ATOM     62  N   UNL A   1      43.534  27.078  27.476  1.00  0.00    -0.248 NA
ATOM     63  C   UNL A   1      43.602  24.934  26.551  1.00  0.00     0.031 C 
ATOM     64  C   UNL A   1      46.871  30.009  27.246  1.00  0.00     0.029 A 
ATOM     65  C   UNL A   1      45.842  29.081  27.285  1.00  0.00     0.049 A 
ATOM     66  H   UNL A   1      43.915  29.274  28.125  1.00  0.00     0.167 HD
ATOM     67  C   UNL A   1      44.775  26.880  26.870  1.00  0.00     0.074 A 
ATOM     68  C   UNL A   1      44.770  25.528  26.351  1.00  0.00     0.031 C 
ATOM     69  C   UNL A   1      45.824  27.735  26.758  1.00  0.00     0.034 A 
BRANCH  56  70
ATOM     70  C   UNL A   1      44.788  33.310  29.280  1.00  0.00     0.023 A 
ATOM     71  C   UNL A   1      44.592  34.364  28.371  1.00  0.00     0.031 A 
ATOM     72  C   UNL A   1      45.507  33.583  30.458  1.00  0.00     0.131 A 
ATOM     73  C   UNL A   1      45.169  35.620  28.619  1.00  0.00     0.055 A 
ATOM     74  C   UNL A   1      46.005  34.856  30.740  1.00  0.00     0.041 A 
ATOM     75  F   UNL A   1      45.750  32.611  31.352  1.00  0.00    -0.206 F 
ATOM     76  C   UNL A   1      45.851  35.881  29.810  1.00  0.00     0.022 A 
BRANCH  73  77
ATOM     77  S   UNL A   1      45.148  36.861  27.297  1.00  0.00     0.124 S 
ATOM     78  O   UNL A   1      45.731  38.020  27.968  1.00  0.00    -0.237 OA
ATOM     79  O   UNL A   1      45.969  36.239  26.265  1.00  0.00    -0.237 OA
ATOM     80  O   UNL A   1      43.728  36.990  26.971  1.00  0.00    -0.744 OA
ENDBRANCH  73  77
ENDBRANCH  56  70
BRANCH  57  81
ATOM     81  C   UNL A   1      40.905  24.249  27.470  1.00  0.00     0.023 A 
ATOM     82  C   UNL A   1      39.792  24.122  26.624  1.00  0.00     0.031 A 
ATOM     83  C   UNL A   1      41.415  23.079  28.064  1.00  0.00     0.131 A 
ATOM     84  C   UNL A   1      39.195  22.864  26.433  1.00  0.00     0.055 A 
ATOM     85  C   UNL A   1      40.857  21.823  27.822  1.00  0.00     0.041 A 
ATOM     86  F   UNL A   1      42.469  23.141  28.894  1.00  0.00    -0.206 F 
ATOM     87  C   UNL A   1      39.731  21.712  27.013  1.00  0.00     0.022 A 
BRANCH  84  88
ATOM     88  S   UNL A   1      37.639  22.770  25.505  1.00  0.00     0.124 S 
ATOM     89  O   UNL A   1      37.688  21.410  24.981  1.00  0.00    -0.237 OA
ATOM     90  O   UNL A   1      36.647  23.022  26.545  1.00  0.00    -0.237 OA
ATOM     91  O   UNL A   1      37.774  23.829  24.506  1.00  0.00    -0.744 OA
ENDBRANCH  84  88
ENDBRANCH  57  81
BRANCH  69  92
ATOM     92  C   UNL A   1      47.075  27.214  26.086  1.00  0.00     0.023 A 
ATOM     93  C   UNL A   1      48.101  26.581  26.809  1.00  0.00     0.031 A 
ATOM     94  C   UNL A   1      47.242  27.357  24.696  1.00  0.00     0.131 A 
ATOM     95  C   UNL A   1      49.271  26.168  26.152  1.00  0.00     0.055 A 
ATOM     96  C   UNL A   1      48.377  26.882  24.037  1.00  0.00     0.041 A 
ATOM     97  F   UNL A   1      46.298  27.956  23.952  1.00  0.00    -0.206 F 
ATOM     98  C   UNL A   1      49.406  26.296  24.767  1.00  0.00     0.022 A 
BRANCH  95  99
ATOM     99  S   UNL A   1      50.659  25.552  27.143  1.00  0.00     0.124 S 
ATOM    100  O   UNL A   1      50.787  26.589  28.163  1.00  0.00    -0.237 OA
ATOM    101  O   UNL A   1      50.165  24.260  27.606  1.00  0.00    -0.237 OA
ATOM    102  O   UNL A   1      51.762  25.486  26.186  1.00  0.00    -0.744 OA
ENDBRANCH  95  99
ENDBRANCH  69  92
ENDBRANCH  43  44
ENDBRANCH  36  38
ENDBRANCH  35  36
ENDBRANCH  34  35
ENDBRANCH  33  34
ENDBRANCH  32  33
ENDBRANCH   1  32
TORSDOF 24
ENDMDL
MODEL 2
REMARK VINA RESULT:     -10.5      5.067      7.582
REMARK SMILES Cc1cc2nc(S/C(=C\c3ccc(O)cc3)C(=O)OCCOCCOCCOC(=O)c3ccc(-c4c5nc(c(-c6cc(S(=O)(=O)[O-])ccc6F)c6ccc([nH]6)c(-c6cc(S(=O)(=O)[O-])ccc6F)c6nc(c(-c7cc(S(=O)(=O)[O-])ccc7F)c7ccc4[nH]7)C=C6)C=C5)cc3)[nH]c2cc1C
REMARK SMILES IDX 24 1 23 2 22 3 21 4 20 5 19 6 17 7 18 8 8 9 9 10 7 11 6 12
REMARK SMILES IDX 1 13 2 14 3 15 97 16 4 17 96 18 98 19 5 20 95 21 94 22 10 24
REMARK SMILES IDX 11 25 16 26 12 27 15 28 13 29 14 30 25 32 26 33 27 34 28 35
REMARK SMILES IDX 29 36 30 37 31 38 32 39 93 40 33 41 92 42 34 43 35 44 36 45
REMARK SMILES IDX 86 46 37 47 91 48 85 49 87 50 38 51 90 52 84 53 83 54 39 56
REMARK SMILES IDX 71 57 51 58 70 59 52 60 55 61 69 62 88 63 53 64 54 65 68 67
REMARK SMILES IDX 89 68 56 69 40 70 41 71 49 72 42 73 48 74 50 75 47 76 43 77
REMARK SMILES IDX 44 78 45 79 46 80 72 81 73 82 81 83 74 84 80 85 82 86 79 87
REMARK SMILES IDX 75 88 76 89 77 90 78 91 57 92 58 93 66 94 59 95 65 96 67 97
REMARK SMILES IDX 64 98 60 99 61 100 62 101 63 102
REMARK H PARENT 94 23 14 31 87 55 55 66
REMARK Flexibility Score: inf
ROOT
ATOM      1  C   UNL A   1      32.858  30.428  26.383  1.00  0.00     0.188 C 
ENDROOT
BRANCH   1   2
ATOM      2  C   UNL A   1      31.384  30.684  25.999  1.00  0.00     0.188 C 
BRANCH   2   3
ATOM      3  O   UNL A   1      30.922  30.305  24.706  1.00  0.00    -0.376 OA
BRANCH   3   4
ATOM      4  C   UNL A   1      29.698  30.832  24.214  1.00  0.00     0.202 C 
BRANCH   4   5
ATOM      5  C   UNL A   1      29.121  30.308  22.889  1.00  0.00     0.261 C 
BRANCH   5   6
ATOM      6  O   UNL A   1      29.413  28.927  22.622  1.00  0.00    -0.459 OA
BRANCH   6   7
ATOM      7  C   UNL A   1      30.719  28.611  22.389  1.00  0.00     0.345 C 
ATOM      8  O   UNL A   1      31.534  29.341  21.844  1.00  0.00    -0.246 OA
BRANCH   7   9
ATOM      9  C   UNL A   1      31.055  27.252  22.967  1.00  0.00     0.101 C 
ATOM     10  C   UNL A   1      31.090  27.179  24.313  1.00  0.00     0.031 C 
BRANCH   9  11
ATOM     11  S   UNL A   1      31.409  26.094  21.723  1.00  0.00    -0.044 SA
BRANCH  11  12
ATOM     12  C   UNL A   1      32.429  24.869  22.365  1.00  0.00     0.171 A 
ATOM     13  C   UNL A   1      36.945  21.712  24.540  1.00  0.00     0.044 C 
ATOM     14  C   UNL A   1      35.550  22.166  24.199  1.00  0.00    -0.046 A 
ATOM     15  C   UNL A   1      35.411  23.389  23.505  1.00  0.00     0.034 A 
ATOM     16  C   UNL A   1      34.406  21.387  24.483  1.00  0.00    -0.046 A 
ATOM     17  C   UNL A   1      34.138  23.808  23.090  1.00  0.00     0.090 A 
ATOM     18  C   UNL A   1      33.153  21.739  23.946  1.00  0.00     0.032 A 
ATOM     19  C   UNL A   1      34.475  20.171  25.370  1.00  0.00     0.044 C 
ATOM     20  N   UNL A   1      33.728  24.994  22.530  1.00  0.00    -0.222 NA
ATOM     21  C   UNL A   1      33.062  22.952  23.261  1.00  0.00     0.066 A 
ATOM     22  N   UNL A   1      32.013  23.605  22.663  1.00  0.00    -0.333 N 
ATOM     23  H   UNL A   1      31.120  23.231  22.483  1.00  0.00     0.169 HD
ENDBRANCH  11  12
ENDBRANCH   9  11
BRANCH  10  24
ATOM     24  C   UNL A   1      31.362  26.058  25.217  1.00  0.00    -0.024 A 
ATOM     25  C   UNL A   1      32.619  25.809  25.777  1.00  0.00     0.012 A 
ATOM     26  C   UNL A   1      30.295  25.189  25.499  1.00  0.00     0.012 A 
ATOM     27  C   UNL A   1      32.833  24.640  26.515  1.00  0.00     0.047 A 
ATOM     28  C   UNL A   1      30.506  24.033  26.247  1.00  0.00     0.047 A 
ATOM     29  C   UNL A   1      31.782  23.750  26.716  1.00  0.00     0.115 A 
BRANCH  29  30
ATOM     30  O   UNL A   1      31.984  22.546  27.322  1.00  0.00    -0.508 OA
ATOM     31  H   UNL A   1      32.810  22.111  27.235  1.00  0.00     0.293 HD
ENDBRANCH  29  30
ENDBRANCH  10  24
ENDBRANCH   7   9
ENDBRANCH   6   7
ENDBRANCH   5   6
ENDBRANCH   4   5
ENDBRANCH   3   4
ENDBRANCH   2   3
ENDBRANCH   1   2
BRANCH   1  32
ATOM     32  O   UNL A   1      33.197  30.857  27.681  1.00  0.00    -0.376 OA
BRANCH  32  33
ATOM     33  C   UNL A   1      34.091  31.945  27.831  1.00  0.00     0.202 C 
BRANCH  33  34
ATOM     34  C   UNL A   1      33.669  33.430  27.786  1.00  0.00     0.261 C 
BRANCH  34  35
ATOM     35  O   UNL A   1      32.888  33.956  28.864  1.00  0.00    -0.460 OA
BRANCH  35  36
ATOM     36  C   UNL A   1      33.491  34.845  29.687  1.00  0.00     0.338 C 
ATOM     37  O   UNL A   1      33.093  35.966  29.968  1.00  0.00    -0.246 OA
BRANCH  36  38
ATOM     38  C   UNL A   1      34.625  34.164  30.347  1.00  0.00     0.060 A 
ATOM     39  C   UNL A   1      35.933  34.467  29.945  1.00  0.00     0.016 A 
ATOM     40  C   UNL A   1      34.399  33.238  31.367  1.00  0.00     0.016 A 
ATOM     41  C   UNL A   1      37.019  33.835  30.555  1.00  0.00     0.010 A 
ATOM     42  C   UNL A   1      35.487  32.588  31.960  1.00  0.00     0.010 A 
ATOM     43  C   UNL A   1      36.802  32.865  31.543  1.00  0.00    -0.014 A 
BRANCH  43  44
ATOM     44  C   UNL A   1      37.927  32.017  32.015  1.00  0.00     0.031 A 
ATOM     45  C   UNL A   1      38.540  32.324  33.357  1.00  0.00     0.074 A 
ATOM     46  C   UNL A   1      38.393  30.990  31.281  1.00  0.00     0.049 A 
ATOM     47  N   UNL A   1      39.573  31.782  33.946  1.00  0.00    -0.248 NA
ATOM     48  C   UNL A   1      37.897  33.396  34.132  1.00  0.00     0.031 C 
ATOM     49  C   UNL A   1      37.848  30.557  29.997  1.00  0.00     0.029 A 
ATOM     50  N   UNL A   1      39.438  30.129  31.511  1.00  0.00    -0.354 N 
ATOM     51  C   UNL A   1      39.711  32.449  35.158  1.00  0.00     0.074 A 
ATOM     52  C   UNL A   1      38.678  33.462  35.199  1.00  0.00     0.031 C 
ATOM     53  C   UNL A   1      38.572  29.516  29.545  1.00  0.00     0.029 A 
ATOM     54  C   UNL A   1      39.658  29.239  30.485  1.00  0.00     0.049 A 
ATOM     55  H   UNL A   1      39.980  30.147  32.333  1.00  0.00     0.167 HD
ATOM     56  C   UNL A   1      40.610  32.230  36.150  1.00  0.00     0.034 A 
ATOM     57  C   UNL A   1      40.638  28.328  30.311  1.00  0.00     0.034 A 
ATOM     58  C   UNL A   1      41.644  31.225  36.087  1.00  0.00     0.049 A 
ATOM     59  C   UNL A   1      41.697  28.175  31.381  1.00  0.00     0.074 A 
ATOM     60  C   UNL A   1      42.599  30.912  37.039  1.00  0.00     0.029 A 
ATOM     61  N   UNL A   1      41.871  30.382  35.007  1.00  0.00    -0.354 N 
ATOM     62  N   UNL A   1      41.815  28.808  32.527  1.00  0.00    -0.248 NA
ATOM     63  C   UNL A   1      42.753  27.185  31.134  1.00  0.00     0.031 C 
ATOM     64  C   UNL A   1      43.453  29.943  36.502  1.00  0.00     0.029 A 
ATOM     65  C   UNL A   1      42.977  29.581  35.252  1.00  0.00     0.049 A 
ATOM     66  H   UNL A   1      41.327  30.357  34.186  1.00  0.00     0.167 HD
ATOM     67  C   UNL A   1      42.937  28.263  33.150  1.00  0.00     0.074 A 
ATOM     68  C   UNL A   1      43.449  27.243  32.260  1.00  0.00     0.031 C 
ATOM     69  C   UNL A   1      43.490  28.574  34.351  1.00  0.00     0.034 A 
BRANCH  56  70
ATOM     70  C   UNL A   1      40.547  33.137  37.356  1.00  0.00     0.023 A 
ATOM     71  C   UNL A   1      39.905  32.748  38.545  1.00  0.00     0.031 A 
ATOM     72  C   UNL A   1      41.113  34.423  37.305  1.00  0.00     0.131 A 
ATOM     73  C   UNL A   1      39.782  33.661  39.605  1.00  0.00     0.055 A 
ATOM     74  C   UNL A   1      41.062  35.296  38.393  1.00  0.00     0.041 A 
ATOM     75  F   UNL A   1      41.716  34.862  36.188  1.00  0.00    -0.206 F 
ATOM     76  C   UNL A   1      40.379  34.922  39.548  1.00  0.00     0.022 A 
BRANCH  73  77
ATOM     77  S   UNL A   1      38.700  33.233  40.996  1.00  0.00     0.124 S 
ATOM     78  O   UNL A   1      38.939  31.798  41.128  1.00  0.00    -0.237 OA
ATOM     79  O   UNL A   1      39.221  34.069  42.071  1.00  0.00    -0.237 OA
ATOM     80  O   UNL A   1      37.367  33.593  40.516  1.00  0.00    -0.744 OA
ENDBRANCH  73  77
ENDBRANCH  56  70
BRANCH  57  81
ATOM     81  C   UNL A   1      40.711  27.517  29.058  1.00  0.00     0.023 A 
ATOM     82  C   UNL A   1      41.630  27.824  28.042  1.00  0.00     0.031 A 
ATOM     83  C   UNL A   1      39.806  26.464  28.828  1.00  0.00     0.131 A 
ATOM     84  C   UNL A   1      41.593  27.121  26.826  1.00  0.00     0.055 A 
ATOM     85  C   UNL A   1      39.814  25.727  27.643  1.00  0.00     0.041 A 
ATOM     86  F   UNL A   1      38.895  26.136  29.758  1.00  0.00    -0.206 F 
ATOM     87  C   UNL A   1      40.703  26.064  26.628  1.00  0.00     0.022 A 
BRANCH  84  88
ATOM     88  S   UNL A   1      42.652  27.681  25.463  1.00  0.00     0.124 S 
ATOM     89  O   UNL A   1      43.875  28.048  26.169  1.00  0.00    -0.237 OA
ATOM     90  O   UNL A   1      42.727  26.490  24.625  1.00  0.00    -0.237 OA
ATOM     91  O   UNL A   1      41.904  28.799  24.888  1.00  0.00    -0.744 OA
ENDBRANCH  84  88
ENDBRANCH  57  81
BRANCH  69  92
ATOM     92  C   UNL A   1      44.689  27.764  34.793  1.00  0.00     0.023 A 
ATOM     93  C   UNL A   1      44.554  26.506  35.405  1.00  0.00     0.031 A 
ATOM     94  C   UNL A   1      45.990  28.265  34.599  1.00  0.00     0.131 A 
ATOM     95  C   UNL A   1      45.693  25.818  35.853  1.00  0.00     0.055 A 
ATOM     96  C   UNL A   1      47.122  27.545  34.984  1.00  0.00     0.041 A 
ATOM     97  F   UNL A   1      46.182  29.462  34.023  1.00  0.00    -0.206 F 
ATOM     98  C   UNL A   1      46.977  26.321  35.628  1.00  0.00     0.022 A 
BRANCH  95  99
ATOM     99  S   UNL A   1      45.472  24.304  36.826  1.00  0.00     0.124 S 
ATOM    100  O   UNL A   1      44.255  23.744  36.247  1.00  0.00    -0.237 OA
ATOM    101  O   UNL A   1      46.704  23.572  36.550  1.00  0.00    -0.237 OA
ATOM    102  O   UNL A   1      45.338  24.793  38.197  1.00  0.00    -0.744 OA
ENDBRANCH  95  99
ENDBRANCH  69  92
ENDBRANCH  43  44
ENDBRANCH  36  38
ENDBRANCH  35  36
ENDBRANCH  34  35
ENDBRANCH  33  34
ENDBRANCH  32  33
ENDBRANCH   1  32
TORSDOF 24
ENDMDL
MODEL 3
REMARK VINA RESULT:     -10.5      5.311      9.386
REMARK SMILES Cc1cc2nc(S/C(=C\c3ccc(O)cc3)C(=O)OCCOCCOCCOC(=O)c3ccc(-c4c5nc(c(-c6cc(S(=O)(=O)[O-])ccc6F)c6ccc([nH]6)c(-c6cc(S(=O)(=O)[O-])ccc6F)c6nc(c(-c7cc(S(=O)(=O)[O-])ccc7F)c7ccc4[nH]7)C=C6)C=C5)cc3)[nH]c2cc1C
REMARK SMILES IDX 24 1 23 2 22 3 21 4 20 5 19 6 17 7 18 8 8 9 9 10 7 11 6 12
REMARK SMILES IDX 1 13 2 14 3 15 97 16 4 17 96 18 98 19 5 20 95 21 94 22 10 24
REMARK SMILES IDX 11 25 16 26 12 27 15 28 13 29 14 30 25 32 26 33 27 34 28 35
REMARK SMILES IDX 29 36 30 37 31 38 32 39 93 40 33 41 92 42 34 43 35 44 36 45
REMARK SMILES IDX 86 46 37 47 91 48 85 49 87 50 38 51 90 52 84 53 83 54 39 56
REMARK SMILES IDX 71 57 51 58 70 59 52 60 55 61 69 62 88 63 53 64 54 65 68 67
REMARK SMILES IDX 89 68 56 69 40 70 41 71 49 72 42 73 48 74 50 75 47 76 43 77
REMARK SMILES IDX 44 78 45 79 46 80 72 81 73 82 81 83 74 84 80 85 82 86 79 87
REMARK SMILES IDX 75 88 76 89 77 90 78 91 57 92 58 93 66 94 59 95 65 96 67 97
REMARK SMILES IDX 64 98 60 99 61 100 62 101 63 102
REMARK H PARENT 94 23 14 31 87 55 55 66
REMARK Flexibility Score: inf
ROOT
ATOM      1  C   UNL A   1      32.471  29.914  26.387  1.00  0.00     0.188 C 
ENDROOT
BRANCH   1   2
ATOM      2  C   UNL A   1      31.375  30.850  25.831  1.00  0.00     0.188 C 
BRANCH   2   3
ATOM      3  O   UNL A   1      30.731  30.521  24.604  1.00  0.00    -0.376 OA
BRANCH   3   4
ATOM      4  C   UNL A   1      29.527  31.184  24.242  1.00  0.00     0.202 C 
BRANCH   4   5
ATOM      5  C   UNL A   1      28.456  30.431  23.437  1.00  0.00     0.261 C 
BRANCH   5   6
ATOM      6  O   UNL A   1      28.718  29.028  23.271  1.00  0.00    -0.459 OA
BRANCH   6   7
ATOM      7  C   UNL A   1      29.767  28.692  22.468  1.00  0.00     0.345 C 
ATOM      8  O   UNL A   1      30.077  29.269  21.436  1.00  0.00    -0.246 OA
BRANCH   7   9
ATOM      9  C   UNL A   1      30.555  27.544  23.062  1.00  0.00     0.101 C 
ATOM     10  C   UNL A   1      30.317  27.279  24.363  1.00  0.00     0.031 C 
BRANCH   9  11
ATOM     11  S   UNL A   1      31.674  26.871  21.918  1.00  0.00    -0.044 SA
BRANCH  11  12
ATOM     12  C   UNL A   1      32.234  25.354  22.499  1.00  0.00     0.171 A 
ATOM     13  C   UNL A   1      35.335  20.911  24.895  1.00  0.00     0.044 C 
ATOM     14  C   UNL A   1      34.189  21.734  24.366  1.00  0.00    -0.046 A 
ATOM     15  C   UNL A   1      34.476  23.045  23.920  1.00  0.00     0.034 A 
ATOM     16  C   UNL A   1      32.880  21.222  24.239  1.00  0.00    -0.046 A 
ATOM     17  C   UNL A   1      33.459  23.816  23.340  1.00  0.00     0.090 A 
ATOM     18  C   UNL A   1      31.897  21.942  23.532  1.00  0.00     0.032 A 
ATOM     19  C   UNL A   1      32.480  19.907  24.857  1.00  0.00     0.044 C 
ATOM     20  N   UNL A   1      33.448  25.135  22.956  1.00  0.00    -0.222 NA
ATOM     21  C   UNL A   1      32.225  23.229  23.103  1.00  0.00     0.066 A 
ATOM     22  N   UNL A   1      31.513  24.198  22.442  1.00  0.00    -0.333 N 
ATOM     23  H   UNL A   1      30.638  24.082  22.006  1.00  0.00     0.169 HD
ENDBRANCH  11  12
ENDBRANCH   9  11
BRANCH  10  24
ATOM     24  C   UNL A   1      30.866  26.261  25.263  1.00  0.00    -0.024 A 
ATOM     25  C   UNL A   1      32.143  26.343  25.828  1.00  0.00     0.012 A 
ATOM     26  C   UNL A   1      30.060  25.144  25.534  1.00  0.00     0.012 A 
ATOM     27  C   UNL A   1      32.649  25.264  26.562  1.00  0.00     0.047 A 
ATOM     28  C   UNL A   1      30.560  24.077  26.278  1.00  0.00     0.047 A 
ATOM     29  C   UNL A   1      31.864  24.132  26.752  1.00  0.00     0.115 A 
BRANCH  29  30
ATOM     30  O   UNL A   1      32.369  23.017  27.353  1.00  0.00    -0.508 OA
ATOM     31  H   UNL A   1      33.101  23.089  27.932  1.00  0.00     0.293 HD
ENDBRANCH  29  30
ENDBRANCH  10  24
ENDBRANCH   7   9
ENDBRANCH   6   7
ENDBRANCH   5   6
ENDBRANCH   4   5
ENDBRANCH   3   4
ENDBRANCH   2   3
ENDBRANCH   1   2
BRANCH   1  32
ATOM     32  O   UNL A   1      32.960  30.290  27.654  1.00  0.00    -0.376 OA
BRANCH  32  33
ATOM     33  C   UNL A   1      34.145  31.061  27.728  1.00  0.00     0.202 C 
BRANCH  33  34
ATOM     34  C   UNL A   1      34.188  32.603  27.635  1.00  0.00     0.261 C 
BRANCH  34  35
ATOM     35  O   UNL A   1      33.123  33.356  28.225  1.00  0.00    -0.460 OA
BRANCH  35  36
ATOM     36  C   UNL A   1      33.470  34.368  29.055  1.00  0.00     0.338 C 
ATOM     37  O   UNL A   1      32.843  35.398  29.250  1.00  0.00    -0.246 OA
BRANCH  36  38
ATOM     38  C   UNL A   1      34.647  33.935  29.840  1.00  0.00     0.060 A 
ATOM     39  C   UNL A   1      35.927  34.327  29.425  1.00  0.00     0.016 A 
ATOM     40  C   UNL A   1      34.485  33.157  30.987  1.00  0.00     0.016 A 
ATOM     41  C   UNL A   1      37.052  33.930  30.151  1.00  0.00     0.010 A 
ATOM     42  C   UNL A   1      35.616  32.739  31.699  1.00  0.00     0.010 A 
ATOM     43  C   UNL A   1      36.906  33.103  31.273  1.00  0.00    -0.014 A 
BRANCH  43  44
ATOM     44  C   UNL A   1      38.101  32.478  31.898  1.00  0.00     0.031 A 
ATOM     45  C   UNL A   1      38.768  31.334  31.182  1.00  0.00     0.074 A 
ATOM     46  C   UNL A   1      38.594  32.919  33.070  1.00  0.00     0.049 A 
ATOM     47  N   UNL A   1      39.767  30.581  31.560  1.00  0.00    -0.248 NA
ATOM     48  C   UNL A   1      38.222  30.992  29.859  1.00  0.00     0.031 C 
ATOM     49  C   UNL A   1      38.075  34.053  33.831  1.00  0.00     0.029 A 
ATOM     50  N   UNL A   1      39.642  32.456  33.828  1.00  0.00    -0.354 N 
ATOM     51  C   UNL A   1      39.968  29.671  30.527  1.00  0.00     0.074 A 
ATOM     52  C   UNL A   1      38.959  29.944  29.526  1.00  0.00     0.031 C 
ATOM     53  C   UNL A   1      38.800  34.191  34.956  1.00  0.00     0.029 A 
ATOM     54  C   UNL A   1      39.804  33.130  35.018  1.00  0.00     0.049 A 
ATOM     55  H   UNL A   1      40.222  31.711  33.549  1.00  0.00     0.167 HD
ATOM     56  C   UNL A   1      40.913  28.705  30.420  1.00  0.00     0.034 A 
ATOM     57  C   UNL A   1      40.644  32.897  36.048  1.00  0.00     0.034 A 
ATOM     58  C   UNL A   1      41.903  28.436  31.435  1.00  0.00     0.049 A 
ATOM     59  C   UNL A   1      41.619  31.743  35.954  1.00  0.00     0.074 A 
ATOM     60  C   UNL A   1      42.913  27.489  31.423  1.00  0.00     0.029 A 
ATOM     61  N   UNL A   1      42.000  29.101  32.651  1.00  0.00    -0.354 N 
ATOM     62  N   UNL A   1      41.804  30.893  34.971  1.00  0.00    -0.248 NA
ATOM     63  C   UNL A   1      42.497  31.521  37.110  1.00  0.00     0.031 C 
ATOM     64  C   UNL A   1      43.562  27.523  32.661  1.00  0.00     0.029 A 
ATOM     65  C   UNL A   1      43.022  28.555  33.413  1.00  0.00     0.049 A 
ATOM     66  H   UNL A   1      41.426  29.850  32.931  1.00  0.00     0.167 HD
ATOM     67  C   UNL A   1      42.846  30.059  35.378  1.00  0.00     0.074 A 
ATOM     68  C   UNL A   1      43.255  30.520  36.688  1.00  0.00     0.031 C 
ATOM     69  C   UNL A   1      43.416  29.013  34.726  1.00  0.00     0.034 A 
BRANCH  56  70
ATOM     70  C   UNL A   1      40.877  27.833  29.188  1.00  0.00     0.023 A 
ATOM     71  C   UNL A   1      41.785  28.004  28.129  1.00  0.00     0.031 A 
ATOM     72  C   UNL A   1      39.897  26.831  29.058  1.00  0.00     0.131 A 
ATOM     73  C   UNL A   1      41.649  27.238  26.960  1.00  0.00     0.055 A 
ATOM     74  C   UNL A   1      39.821  26.015  27.929  1.00  0.00     0.041 A 
ATOM     75  F   UNL A   1      38.985  26.637  30.024  1.00  0.00    -0.206 F 
ATOM     76  C   UNL A   1      40.692  26.227  26.863  1.00  0.00     0.022 A 
BRANCH  73  77
ATOM     77  S   UNL A   1      42.643  27.687  25.510  1.00  0.00     0.124 S 
ATOM     78  O   UNL A   1      41.999  28.926  25.080  1.00  0.00    -0.237 OA
ATOM     79  O   UNL A   1      43.981  27.824  26.073  1.00  0.00    -0.237 OA
ATOM     80  O   UNL A   1      42.460  26.553  24.605  1.00  0.00    -0.744 OA
ENDBRANCH  73  77
ENDBRANCH  56  70
BRANCH  57  81
ATOM     81  C   UNL A   1      40.581  33.732  37.285  1.00  0.00     0.023 A 
ATOM     82  C   UNL A   1      41.544  34.719  37.551  1.00  0.00     0.031 A 
ATOM     83  C   UNL A   1      39.592  33.501  38.260  1.00  0.00     0.131 A 
ATOM     84  C   UNL A   1      41.528  35.402  38.779  1.00  0.00     0.055 A 
ATOM     85  C   UNL A   1      39.543  34.227  39.451  1.00  0.00     0.041 A 
ATOM     86  F   UNL A   1      38.654  32.559  38.066  1.00  0.00    -0.206 F 
ATOM     87  C   UNL A   1      40.524  35.174  39.722  1.00  0.00     0.022 A 
BRANCH  84  88
ATOM     88  S   UNL A   1      42.905  36.516  39.174  1.00  0.00     0.124 S 
ATOM     89  O   UNL A   1      43.144  36.206  40.579  1.00  0.00    -0.237 OA
ATOM     90  O   UNL A   1      43.932  36.077  38.235  1.00  0.00    -0.237 OA
ATOM     91  O   UNL A   1      42.354  37.845  38.913  1.00  0.00    -0.744 OA
ENDBRANCH  84  88
ENDBRANCH  57  81
BRANCH  69  92
ATOM     92  C   UNL A   1      44.579  28.324  35.404  1.00  0.00     0.023 A 
ATOM     93  C   UNL A   1      44.399  27.211  36.244  1.00  0.00     0.031 A 
ATOM     94  C   UNL A   1      45.891  28.793  35.207  1.00  0.00     0.131 A 
ATOM     95  C   UNL A   1      45.503  26.642  36.900  1.00  0.00     0.055 A 
ATOM     96  C   UNL A   1      46.992  28.181  35.807  1.00  0.00     0.041 A 
ATOM     97  F   UNL A   1      46.126  29.855  34.419  1.00  0.00    -0.206 F 
ATOM     98  C   UNL A   1      46.800  27.107  36.670  1.00  0.00     0.022 A 
BRANCH  95  99
ATOM     99  S   UNL A   1      45.211  25.349  38.138  1.00  0.00     0.124 S 
ATOM    100  O   UNL A   1      43.814  25.003  37.894  1.00  0.00    -0.237 OA
ATOM    101  O   UNL A   1      46.193  24.334  37.767  1.00  0.00    -0.237 OA
ATOM    102  O   UNL A   1      45.470  26.024  39.408  1.00  0.00    -0.744 OA
ENDBRANCH  95  99
ENDBRANCH  69  92
ENDBRANCH  43  44
ENDBRANCH  36  38
ENDBRANCH  35  36
ENDBRANCH  34  35
ENDBRANCH  33  34
ENDBRANCH  32  33
ENDBRANCH   1  32
TORSDOF 24
ENDMDL
