MODEL 1
REMARK VINA RESULT:      -7.1      0.000      0.000
REMARK SMILES CC[C@H](C)Oc1ccc(NC(=O)/C=C/C(=O)OCCOCCOCCOC(=O)c2ccc(-c3c4nc(c(-c5cc(S(=O)(=O)[O-])ccc5F)c5ccc([nH]5)c(-c5cc(S(=O)(=O)[O-])ccc5F)c5nc(c(-c6cc(S(=O)(=O)[O-])ccc6F)c6ccc3[nH]6)C=C5)C=C4)cc2)cc1
REMARK SMILES IDX 21 1 20 2 19 3 18 4 17 5 15 6 16 7 14 8 13 9 11 10 10 11
REMARK SMILES IDX 12 13 9 14 6 15 7 16 93 17 8 18 92 19 5 20 3 21 4 22 2 23
REMARK SMILES IDX 1 24 22 25 23 26 24 27 25 28 26 29 27 30 28 31 29 32 30 33
REMARK SMILES IDX 91 34 31 35 90 36 32 37 33 38 34 39 84 40 35 41 89 42 83 43
REMARK SMILES IDX 85 44 36 45 88 46 82 47 81 48 37 50 69 51 49 52 68 53 50 54
REMARK SMILES IDX 53 55 67 56 86 57 51 58 52 59 66 61 87 62 54 63 38 64 39 65
REMARK SMILES IDX 47 66 40 67 46 68 48 69 45 70 41 71 42 72 43 73 44 74 70 75
REMARK SMILES IDX 71 76 79 77 72 78 78 79 80 80 77 81 73 82 74 83 75 84 76 85
REMARK SMILES IDX 55 86 56 87 64 88 57 89 63 90 65 91 62 92 58 93 59 94 60 95
REMARK SMILES IDX 61 96
REMARK H PARENT 10 12 85 49 53 60
REMARK Flexibility Score: inf
ROOT
ATOM      1  C   UNL A   1      36.970  32.732  32.843  1.00  0.00     0.188 C 
ENDROOT
BRANCH   1   2
ATOM      2  O   UNL A   1      38.182  32.877  33.571  1.00  0.00    -0.376 OA
BRANCH   2   3
ATOM      3  C   UNL A   1      38.884  34.109  33.461  1.00  0.00     0.202 C 
BRANCH   3   4
ATOM      4  C   UNL A   1      39.319  34.596  32.069  1.00  0.00     0.261 C 
BRANCH   4   5
ATOM      5  O   UNL A   1      40.715  34.405  31.766  1.00  0.00    -0.460 OA
BRANCH   5   6
ATOM      6  C   UNL A   1      40.988  34.117  30.466  1.00  0.00     0.331 C 
ATOM      7  O   UNL A   1      40.199  33.662  29.651  1.00  0.00    -0.247 OA
BRANCH   6   8
ATOM      8  C   UNL A   1      42.356  34.510  30.068  1.00  0.00     0.099 C 
ATOM      9  C   UNL A   1      42.659  35.285  29.018  1.00  0.00     0.079 C 
BRANCH   9  10
ATOM     10  C   UNL A   1      44.055  35.597  28.641  1.00  0.00     0.248 C 
ATOM     11  N   UNL A   1      44.995  34.626  28.444  1.00  0.00    -0.323 N 
ATOM     12  H   UNL A   1      45.904  34.981  28.315  1.00  0.00     0.170 HD
ATOM     13  O   UNL A   1      44.367  36.782  28.512  1.00  0.00    -0.270 OA
BRANCH  11  14
ATOM     14  C   UNL A   1      44.931  33.222  28.388  1.00  0.00     0.041 A 
ATOM     15  C   UNL A   1      44.573  30.440  28.567  1.00  0.00     0.119 A 
ATOM     16  C   UNL A   1      44.167  31.128  27.432  1.00  0.00     0.048 A 
ATOM     17  C   UNL A   1      45.300  31.120  29.534  1.00  0.00     0.048 A 
ATOM     18  C   UNL A   1      44.370  32.506  27.340  1.00  0.00     0.030 A 
ATOM     19  C   UNL A   1      45.473  32.506  29.453  1.00  0.00     0.030 A 
BRANCH  15  20
ATOM     20  O   UNL A   1      44.241  29.121  28.595  1.00  0.00    -0.491 OA
BRANCH  20  21
ATOM     21  C   UNL A   1      44.760  28.243  27.576  1.00  0.00     0.170 C 
ATOM     22  C   UNL A   1      44.000  28.361  26.262  1.00  0.00     0.053 C 
BRANCH  21  23
ATOM     23  C   UNL A   1      46.301  28.203  27.539  1.00  0.00     0.041 C 
ATOM     24  C   UNL A   1      46.975  27.985  28.881  1.00  0.00     0.008 C 
ENDBRANCH  21  23
ENDBRANCH  20  21
ENDBRANCH  15  20
ENDBRANCH  11  14
ENDBRANCH   9  10
ENDBRANCH   6   8
ENDBRANCH   5   6
ENDBRANCH   4   5
ENDBRANCH   3   4
ENDBRANCH   2   3
ENDBRANCH   1   2
BRANCH   1  25
ATOM     25  C   UNL A   1      36.113  33.984  32.558  1.00  0.00     0.188 C 
BRANCH  25  26
ATOM     26  O   UNL A   1      35.893  34.235  31.182  1.00  0.00    -0.376 OA
BRANCH  26  27
ATOM     27  C   UNL A   1      34.710  33.668  30.639  1.00  0.00     0.202 C 
BRANCH  27  28
ATOM     28  C   UNL A   1      34.830  33.034  29.245  1.00  0.00     0.261 C 
BRANCH  28  29
ATOM     29  O   UNL A   1      34.307  31.699  29.098  1.00  0.00    -0.460 OA
BRANCH  29  30
ATOM     30  C   UNL A   1      34.692  31.001  28.008  1.00  0.00     0.338 C 
ATOM     31  O   UNL A   1      34.143  31.007  26.913  1.00  0.00    -0.246 OA
BRANCH  30  32
ATOM     32  C   UNL A   1      35.971  30.319  28.306  1.00  0.00     0.060 A 
ATOM     33  C   UNL A   1      36.118  29.623  29.511  1.00  0.00     0.016 A 
ATOM     34  C   UNL A   1      37.043  30.403  27.411  1.00  0.00     0.016 A 
ATOM     35  C   UNL A   1      37.348  29.034  29.834  1.00  0.00     0.010 A 
ATOM     36  C   UNL A   1      38.276  29.826  27.745  1.00  0.00     0.010 A 
ATOM     37  C   UNL A   1      38.449  29.162  28.971  1.00  0.00    -0.014 A 
BRANCH  37  38
ATOM     38  C   UNL A   1      39.797  28.703  29.415  1.00  0.00     0.031 A 
ATOM     39  C   UNL A   1      40.449  29.366  30.597  1.00  0.00     0.074 A 
ATOM     40  C   UNL A   1      40.450  27.720  28.766  1.00  0.00     0.049 A 
ATOM     41  N   UNL A   1      41.572  29.071  31.203  1.00  0.00    -0.248 NA
ATOM     42  C   UNL A   1      39.762  30.545  31.140  1.00  0.00     0.031 C 
ATOM     43  C   UNL A   1      39.972  27.076  27.550  1.00  0.00     0.029 A 
ATOM     44  N   UNL A   1      41.643  27.087  29.036  1.00  0.00    -0.354 N 
ATOM     45  C   UNL A   1      41.746  30.048  32.179  1.00  0.00     0.074 A 
ATOM     46  C   UNL A   1      40.617  30.950  32.067  1.00  0.00     0.031 C 
ATOM     47  C   UNL A   1      40.838  26.110  27.204  1.00  0.00     0.029 A 
ATOM     48  C   UNL A   1      41.918  26.037  28.183  1.00  0.00     0.049 A 
ATOM     49  H   UNL A   1      42.243  27.357  29.768  1.00  0.00     0.167 HD
ATOM     50  C   UNL A   1      42.758  30.186  33.072  1.00  0.00     0.034 A 
ATOM     51  C   UNL A   1      42.896  25.103  28.224  1.00  0.00     0.034 A 
ATOM     52  C   UNL A   1      43.886  29.288  33.158  1.00  0.00     0.049 A 
ATOM     53  C   UNL A   1      43.929  25.195  29.326  1.00  0.00     0.074 A 
ATOM     54  C   UNL A   1      44.966  29.335  34.024  1.00  0.00     0.029 A 
ATOM     55  N   UNL A   1      44.087  28.181  32.342  1.00  0.00    -0.354 N 
ATOM     56  N   UNL A   1      44.029  26.071  30.299  1.00  0.00    -0.248 NA
ATOM     57  C   UNL A   1      44.980  24.167  29.335  1.00  0.00     0.031 C 
ATOM     58  C   UNL A   1      45.845  28.295  33.693  1.00  0.00     0.029 A 
ATOM     59  C   UNL A   1      45.280  27.552  32.672  1.00  0.00     0.049 A 
ATOM     60  H   UNL A   1      43.471  27.885  31.633  1.00  0.00     0.167 HD
ATOM     61  C   UNL A   1      45.160  25.703  31.025  1.00  0.00     0.074 A 
ATOM     62  C   UNL A   1      45.647  24.473  30.435  1.00  0.00     0.031 C 
ATOM     63  C   UNL A   1      45.773  26.343  32.055  1.00  0.00     0.034 A 
BRANCH  50  64
ATOM     64  C   UNL A   1      42.716  31.396  33.976  1.00  0.00     0.023 A 
ATOM     65  C   UNL A   1      42.198  31.328  35.282  1.00  0.00     0.031 A 
ATOM     66  C   UNL A   1      43.154  32.647  33.507  1.00  0.00     0.131 A 
ATOM     67  C   UNL A   1      42.056  32.500  36.040  1.00  0.00     0.055 A 
ATOM     68  C   UNL A   1      43.089  33.795  34.299  1.00  0.00     0.041 A 
ATOM     69  F   UNL A   1      43.637  32.781  32.262  1.00  0.00    -0.206 F 
ATOM     70  C   UNL A   1      42.521  33.729  35.568  1.00  0.00     0.022 A 
BRANCH  67  71
ATOM     71  S   UNL A   1      41.111  32.421  37.586  1.00  0.00     0.124 S 
ATOM     72  O   UNL A   1      39.843  31.860  37.127  1.00  0.00    -0.237 OA
ATOM     73  O   UNL A   1      41.934  31.548  38.415  1.00  0.00    -0.237 OA
ATOM     74  O   UNL A   1      41.047  33.815  38.020  1.00  0.00    -0.744 OA
ENDBRANCH  67  71
ENDBRANCH  50  64
BRANCH  51  75
ATOM     75  C   UNL A   1      42.920  23.949  27.263  1.00  0.00     0.023 A 
ATOM     76  C   UNL A   1      41.979  22.906  27.373  1.00  0.00     0.031 A 
ATOM     77  C   UNL A   1      43.869  23.843  26.234  1.00  0.00     0.131 A 
ATOM     78  C   UNL A   1      41.995  21.820  26.482  1.00  0.00     0.055 A 
ATOM     79  C   UNL A   1      43.856  22.786  25.318  1.00  0.00     0.041 A 
ATOM     80  F   UNL A   1      44.816  24.783  26.084  1.00  0.00    -0.206 F 
ATOM     81  C   UNL A   1      42.918  21.765  25.440  1.00  0.00     0.022 A 
BRANCH  78  82
ATOM     82  S   UNL A   1      40.814  20.463  26.735  1.00  0.00     0.124 S 
ATOM     83  O   UNL A   1      39.565  21.065  26.282  1.00  0.00    -0.237 OA
ATOM     84  O   UNL A   1      41.361  19.414  25.880  1.00  0.00    -0.237 OA
ATOM     85  O   UNL A   1      40.902  20.200  28.170  1.00  0.00    -0.744 OA
ENDBRANCH  78  82
ENDBRANCH  51  75
BRANCH  63  86
ATOM     86  C   UNL A   1      47.051  25.720  32.574  1.00  0.00     0.023 A 
ATOM     87  C   UNL A   1      48.284  25.947  31.932  1.00  0.00     0.031 A 
ATOM     88  C   UNL A   1      47.037  24.850  33.677  1.00  0.00     0.131 A 
ATOM     89  C   UNL A   1      49.427  25.238  32.332  1.00  0.00     0.055 A 
ATOM     90  C   UNL A   1      48.196  24.207  34.120  1.00  0.00     0.041 A 
ATOM     91  F   UNL A   1      45.894  24.595  34.333  1.00  0.00    -0.206 F 
ATOM     92  C   UNL A   1      49.394  24.381  33.433  1.00  0.00     0.022 A 
BRANCH  89  93
ATOM     93  S   UNL A   1      50.916  25.341  31.299  1.00  0.00     0.124 S 
ATOM     94  O   UNL A   1      51.345  26.719  31.521  1.00  0.00    -0.237 OA
ATOM     95  O   UNL A   1      51.767  24.307  31.877  1.00  0.00    -0.237 OA
ATOM     96  O   UNL A   1      50.419  25.056  29.954  1.00  0.00    -0.744 OA
ENDBRANCH  89  93
ENDBRANCH  63  86
ENDBRANCH  37  38
ENDBRANCH  30  32
ENDBRANCH  29  30
ENDBRANCH  28  29
ENDBRANCH  27  28
ENDBRANCH  26  27
ENDBRANCH  25  26
ENDBRANCH   1  25
TORSDOF 25
ENDMDL
MODEL 2
REMARK VINA RESULT:      -6.5      4.662     10.820
REMARK SMILES CC[C@H](C)Oc1ccc(NC(=O)/C=C/C(=O)OCCOCCOCCOC(=O)c2ccc(-c3c4nc(c(-c5cc(S(=O)(=O)[O-])ccc5F)c5ccc([nH]5)c(-c5cc(S(=O)(=O)[O-])ccc5F)c5nc(c(-c6cc(S(=O)(=O)[O-])ccc6F)c6ccc3[nH]6)C=C5)C=C4)cc2)cc1
REMARK SMILES IDX 21 1 20 2 19 3 18 4 17 5 15 6 16 7 14 8 13 9 11 10 10 11
REMARK SMILES IDX 12 13 9 14 6 15 7 16 93 17 8 18 92 19 5 20 3 21 4 22 2 23
REMARK SMILES IDX 1 24 22 25 23 26 24 27 25 28 26 29 27 30 28 31 29 32 30 33
REMARK SMILES IDX 91 34 31 35 90 36 32 37 33 38 34 39 84 40 35 41 89 42 83 43
REMARK SMILES IDX 85 44 36 45 88 46 82 47 81 48 37 50 69 51 49 52 68 53 50 54
REMARK SMILES IDX 53 55 67 56 86 57 51 58 52 59 66 61 87 62 54 63 38 64 39 65
REMARK SMILES IDX 47 66 40 67 46 68 48 69 45 70 41 71 42 72 43 73 44 74 70 75
REMARK SMILES IDX 71 76 79 77 72 78 78 79 80 80 77 81 73 82 74 83 75 84 76 85
REMARK SMILES IDX 55 86 56 87 64 88 57 89 63 90 65 91 62 92 58 93 59 94 60 95
REMARK SMILES IDX 61 96
REMARK H PARENT 10 12 85 49 53 60
REMARK Flexibility Score: inf
ROOT
ATOM      1  C   UNL A   1      43.046  19.719  25.739  1.00  0.00     0.188 C 
ENDROOT
BRANCH   1   2
ATOM      2  O   UNL A   1      44.086  19.900  24.787  1.00  0.00    -0.376 OA
BRANCH   2   3
ATOM      3  C   UNL A   1      45.431  19.837  25.248  1.00  0.00     0.202 C 
BRANCH   3   4
ATOM      4  C   UNL A   1      46.444  20.870  24.727  1.00  0.00     0.261 C 
BRANCH   4   5
ATOM      5  O   UNL A   1      46.376  22.162  25.362  1.00  0.00    -0.460 OA
BRANCH   5   6
ATOM      6  C   UNL A   1      46.037  23.191  24.540  1.00  0.00     0.331 C 
ATOM      7  O   UNL A   1      45.392  23.101  23.507  1.00  0.00    -0.247 OA
BRANCH   6   8
ATOM      8  C   UNL A   1      46.445  24.508  25.074  1.00  0.00     0.099 C 
ATOM      9  C   UNL A   1      47.562  24.740  25.776  1.00  0.00     0.079 C 
BRANCH   9  10
ATOM     10  C   UNL A   1      47.885  26.074  26.330  1.00  0.00     0.248 C 
ATOM     11  N   UNL A   1      48.545  27.027  25.607  1.00  0.00    -0.323 N 
ATOM     12  H   UNL A   1      48.795  27.817  26.137  1.00  0.00     0.170 HD
ATOM     13  O   UNL A   1      47.545  26.316  27.489  1.00  0.00    -0.270 OA
BRANCH  11  14
ATOM     14  C   UNL A   1      48.942  27.110  24.260  1.00  0.00     0.041 A 
ATOM     15  C   UNL A   1      49.652  27.637  21.592  1.00  0.00     0.119 A 
ATOM     16  C   UNL A   1      50.605  27.186  22.496  1.00  0.00     0.048 A 
ATOM     17  C   UNL A   1      48.321  27.666  21.985  1.00  0.00     0.048 A 
ATOM     18  C   UNL A   1      50.239  26.903  23.813  1.00  0.00     0.030 A 
ATOM     19  C   UNL A   1      47.965  27.413  23.314  1.00  0.00     0.030 A 
BRANCH  15  20
ATOM     20  O   UNL A   1      50.132  27.975  20.365  1.00  0.00    -0.491 OA
BRANCH  20  21
ATOM     21  C   UNL A   1      51.493  28.434  20.243  1.00  0.00     0.170 C 
ATOM     22  C   UNL A   1      52.360  27.478  19.435  1.00  0.00     0.053 C 
BRANCH  21  23
ATOM     23  C   UNL A   1      51.600  29.946  19.965  1.00  0.00     0.041 C 
ATOM     24  C   UNL A   1      51.772  30.820  21.193  1.00  0.00     0.008 C 
ENDBRANCH  21  23
ENDBRANCH  20  21
ENDBRANCH  15  20
ENDBRANCH  11  14
ENDBRANCH   9  10
ENDBRANCH   6   8
ENDBRANCH   5   6
ENDBRANCH   4   5
ENDBRANCH   3   4
ENDBRANCH   2   3
ENDBRANCH   1   2
BRANCH   1  25
ATOM     25  C   UNL A   1      42.566  20.932  26.564  1.00  0.00     0.188 C 
BRANCH  25  26
ATOM     26  O   UNL A   1      41.865  21.905  25.811  1.00  0.00    -0.376 OA
BRANCH  26  27
ATOM     27  C   UNL A   1      42.674  22.851  25.129  1.00  0.00     0.202 C 
BRANCH  27  28
ATOM     28  C   UNL A   1      42.671  24.283  25.684  1.00  0.00     0.261 C 
BRANCH  28  29
ATOM     29  O   UNL A   1      41.385  24.920  25.815  1.00  0.00    -0.460 OA
BRANCH  29  30
ATOM     30  C   UNL A   1      40.972  25.228  27.063  1.00  0.00     0.338 C 
ATOM     31  O   UNL A   1      40.365  24.488  27.827  1.00  0.00    -0.246 OA
BRANCH  30  32
ATOM     32  C   UNL A   1      41.486  26.570  27.417  1.00  0.00     0.060 A 
ATOM     33  C   UNL A   1      42.487  26.692  28.387  1.00  0.00     0.016 A 
ATOM     34  C   UNL A   1      40.947  27.714  26.821  1.00  0.00     0.016 A 
ATOM     35  C   UNL A   1      42.930  27.962  28.781  1.00  0.00     0.010 A 
ATOM     36  C   UNL A   1      41.381  28.983  27.228  1.00  0.00     0.010 A 
ATOM     37  C   UNL A   1      42.355  29.120  28.232  1.00  0.00    -0.014 A 
BRANCH  37  38
ATOM     38  C   UNL A   1      42.693  30.457  28.800  1.00  0.00     0.031 A 
ATOM     39  C   UNL A   1      41.953  30.953  30.011  1.00  0.00     0.074 A 
ATOM     40  C   UNL A   1      43.635  31.237  28.236  1.00  0.00     0.049 A 
ATOM     41  N   UNL A   1      42.142  32.040  30.716  1.00  0.00    -0.248 NA
ATOM     42  C   UNL A   1      40.820  30.132  30.460  1.00  0.00     0.031 C 
ATOM     43  C   UNL A   1      44.344  30.916  27.005  1.00  0.00     0.029 A 
ATOM     44  N   UNL A   1      44.164  32.449  28.622  1.00  0.00    -0.354 N 
ATOM     45  C   UNL A   1      41.132  32.053  31.673  1.00  0.00     0.074 A 
ATOM     46  C   UNL A   1      40.326  30.871  31.442  1.00  0.00     0.031 C 
ATOM     47  C   UNL A   1      45.245  31.882  26.760  1.00  0.00     0.029 A 
ATOM     48  C   UNL A   1      45.208  32.877  27.828  1.00  0.00     0.049 A 
ATOM     49  H   UNL A   1      43.829  32.962  29.394  1.00  0.00     0.167 HD
ATOM     50  C   UNL A   1      40.892  32.973  32.642  1.00  0.00     0.034 A 
ATOM     51  C   UNL A   1      46.059  33.917  27.977  1.00  0.00     0.034 A 
ATOM     52  C   UNL A   1      41.694  34.156  32.848  1.00  0.00     0.049 A 
ATOM     53  C   UNL A   1      45.859  34.844  29.157  1.00  0.00     0.074 A 
ATOM     54  C   UNL A   1      41.541  35.152  33.799  1.00  0.00     0.029 A 
ATOM     55  N   UNL A   1      42.800  34.511  32.085  1.00  0.00    -0.354 N 
ATOM     56  N   UNL A   1      44.955  34.792  30.109  1.00  0.00    -0.248 NA
ATOM     57  C   UNL A   1      46.799  35.967  29.284  1.00  0.00     0.031 C 
ATOM     58  C   UNL A   1      42.514  36.134  33.573  1.00  0.00     0.029 A 
ATOM     59  C   UNL A   1      43.324  35.717  32.531  1.00  0.00     0.049 A 
ATOM     60  H   UNL A   1      43.161  33.983  31.337  1.00  0.00     0.167 HD
ATOM     61  C   UNL A   1      45.214  35.883  30.936  1.00  0.00     0.074 A 
ATOM     62  C   UNL A   1      46.414  36.513  30.426  1.00  0.00     0.031 C 
ATOM     63  C   UNL A   1      44.503  36.354  31.993  1.00  0.00     0.034 A 
BRANCH  50  64
ATOM     64  C   UNL A   1      39.668  32.759  33.503  1.00  0.00     0.023 A 
ATOM     65  C   UNL A   1      38.394  33.202  33.106  1.00  0.00     0.031 A 
ATOM     66  C   UNL A   1      39.788  32.148  34.764  1.00  0.00     0.131 A 
ATOM     67  C   UNL A   1      37.310  33.101  33.991  1.00  0.00     0.055 A 
ATOM     68  C   UNL A   1      38.687  31.974  35.606  1.00  0.00     0.041 A 
ATOM     69  F   UNL A   1      40.982  31.726  35.210  1.00  0.00    -0.206 F 
ATOM     70  C   UNL A   1      37.442  32.467  35.228  1.00  0.00     0.022 A 
BRANCH  67  71
ATOM     71  S   UNL A   1      35.765  33.951  33.567  1.00  0.00     0.124 S 
ATOM     72  O   UNL A   1      34.883  33.511  34.646  1.00  0.00    -0.237 OA
ATOM     73  O   UNL A   1      36.159  35.354  33.594  1.00  0.00    -0.237 OA
ATOM     74  O   UNL A   1      35.434  33.420  32.246  1.00  0.00    -0.744 OA
ENDBRANCH  67  71
ENDBRANCH  50  64
BRANCH  51  75
ATOM     75  C   UNL A   1      47.229  34.113  27.057  1.00  0.00     0.023 A 
ATOM     76  C   UNL A   1      48.343  33.251  27.121  1.00  0.00     0.031 A 
ATOM     77  C   UNL A   1      47.282  35.150  26.112  1.00  0.00     0.131 A 
ATOM     78  C   UNL A   1      49.444  33.428  26.267  1.00  0.00     0.055 A 
ATOM     79  C   UNL A   1      48.358  35.298  25.230  1.00  0.00     0.041 A 
ATOM     80  F   UNL A   1      46.272  36.029  26.011  1.00  0.00    -0.206 F 
ATOM     81  C   UNL A   1      49.449  34.436  25.306  1.00  0.00     0.022 A 
BRANCH  78  82
ATOM     82  S   UNL A   1      50.887  32.341  26.463  1.00  0.00     0.124 S 
ATOM     83  O   UNL A   1      51.343  32.198  25.086  1.00  0.00    -0.237 OA
ATOM     84  O   UNL A   1      51.749  33.126  27.342  1.00  0.00    -0.237 OA
ATOM     85  O   UNL A   1      50.322  31.136  27.068  1.00  0.00    -0.744 OA
ENDBRANCH  78  82
ENDBRANCH  51  75
BRANCH  63  86
ATOM     86  C   UNL A   1      45.008  37.628  32.635  1.00  0.00     0.023 A 
ATOM     87  C   UNL A   1      44.562  38.891  32.196  1.00  0.00     0.031 A 
ATOM     88  C   UNL A   1      45.982  37.593  33.647  1.00  0.00     0.131 A 
ATOM     89  C   UNL A   1      45.157  40.059  32.694  1.00  0.00     0.055 A 
ATOM     90  C   UNL A   1      46.515  38.763  34.195  1.00  0.00     0.041 A 
ATOM     91  F   UNL A   1      46.446  36.422  34.110  1.00  0.00    -0.206 F 
ATOM     92  C   UNL A   1      46.121  40.004  33.703  1.00  0.00     0.022 A 
BRANCH  89  93
ATOM     93  S   UNL A   1      44.761  41.641  31.896  1.00  0.00     0.124 S 
ATOM     94  O   UNL A   1      44.644  42.538  33.042  1.00  0.00    -0.237 OA
ATOM     95  O   UNL A   1      45.919  41.853  31.035  1.00  0.00    -0.237 OA
ATOM     96  O   UNL A   1      43.509  41.365  31.195  1.00  0.00    -0.744 OA
ENDBRANCH  89  93
ENDBRANCH  63  86
ENDBRANCH  37  38
ENDBRANCH  30  32
ENDBRANCH  29  30
ENDBRANCH  28  29
ENDBRANCH  27  28
ENDBRANCH  26  27
ENDBRANCH  25  26
ENDBRANCH   1  25
TORSDOF 25
ENDMDL
MODEL 3
REMARK VINA RESULT:      -6.5      4.511     11.139
REMARK SMILES CC[C@H](C)Oc1ccc(NC(=O)/C=C/C(=O)OCCOCCOCCOC(=O)c2ccc(-c3c4nc(c(-c5cc(S(=O)(=O)[O-])ccc5F)c5ccc([nH]5)c(-c5cc(S(=O)(=O)[O-])ccc5F)c5nc(c(-c6cc(S(=O)(=O)[O-])ccc6F)c6ccc3[nH]6)C=C5)C=C4)cc2)cc1
REMARK SMILES IDX 21 1 20 2 19 3 18 4 17 5 15 6 16 7 14 8 13 9 11 10 10 11
REMARK SMILES IDX 12 13 9 14 6 15 7 16 93 17 8 18 92 19 5 20 3 21 4 22 2 23
REMARK SMILES IDX 1 24 22 25 23 26 24 27 25 28 26 29 27 30 28 31 29 32 30 33
REMARK SMILES IDX 91 34 31 35 90 36 32 37 33 38 34 39 84 40 35 41 89 42 83 43
REMARK SMILES IDX 85 44 36 45 88 46 82 47 81 48 37 50 69 51 49 52 68 53 50 54
REMARK SMILES IDX 53 55 67 56 86 57 51 58 52 59 66 61 87 62 54 63 38 64 39 65
REMARK SMILES IDX 47 66 40 67 46 68 48 69 45 70 41 71 42 72 43 73 44 74 70 75
REMARK SMILES IDX 71 76 79 77 72 78 78 79 80 80 77 81 73 82 74 83 75 84 76 85
REMARK SMILES IDX 55 86 56 87 64 88 57 89 63 90 65 91 62 92 58 93 59 94 60 95
REMARK SMILES IDX 61 96
REMARK H PARENT 10 12 85 49 53 60
REMARK Flexibility Score: inf
ROOT
ATOM      1  C   UNL A   1      41.800  19.234  26.182  1.00  0.00     0.188 C 
ENDROOT
BRANCH   1   2
ATOM      2  O   UNL A   1      42.666  19.227  25.055  1.00  0.00    -0.376 OA
BRANCH   2   3
ATOM      3  C   UNL A   1      44.066  19.137  25.289  1.00  0.00     0.202 C 
BRANCH   3   4
ATOM      4  C   UNL A   1      45.002  20.143  24.597  1.00  0.00     0.261 C 
BRANCH   4   5
ATOM      5  O   UNL A   1      44.395  21.409  24.267  1.00  0.00    -0.460 OA
BRANCH   5   6
ATOM      6  C   UNL A   1      45.210  22.490  24.399  1.00  0.00     0.331 C 
ATOM      7  O   UNL A   1      45.609  23.202  23.490  1.00  0.00    -0.247 OA
BRANCH   6   8
ATOM      8  C   UNL A   1      45.509  22.812  25.810  1.00  0.00     0.099 C 
ATOM      9  C   UNL A   1      45.901  24.013  26.258  1.00  0.00     0.079 C 
BRANCH   9  10
ATOM     10  C   UNL A   1      46.237  24.256  27.678  1.00  0.00     0.248 C 
ATOM     11  N   UNL A   1      47.307  25.015  28.058  1.00  0.00    -0.323 N 
ATOM     12  H   UNL A   1      47.479  24.993  29.027  1.00  0.00     0.170 HD
ATOM     13  O   UNL A   1      45.520  23.741  28.537  1.00  0.00    -0.270 OA
BRANCH  11  14
ATOM     14  C   UNL A   1      48.215  25.821  27.348  1.00  0.00     0.041 A 
ATOM     15  C   UNL A   1      49.761  27.469  25.676  1.00  0.00     0.119 A 
ATOM     16  C   UNL A   1      49.428  27.886  26.958  1.00  0.00     0.048 A 
ATOM     17  C   UNL A   1      49.458  26.168  25.298  1.00  0.00     0.048 A 
ATOM     18  C   UNL A   1      48.680  27.052  27.791  1.00  0.00     0.030 A 
ATOM     19  C   UNL A   1      48.681  25.349  26.123  1.00  0.00     0.030 A 
BRANCH  15  20
ATOM     20  O   UNL A   1      50.406  28.395  24.915  1.00  0.00    -0.491 OA
BRANCH  20  21
ATOM     21  C   UNL A   1      51.371  27.953  23.938  1.00  0.00     0.170 C 
ATOM     22  C   UNL A   1      51.369  28.818  22.685  1.00  0.00     0.053 C 
BRANCH  21  23
ATOM     23  C   UNL A   1      52.723  27.554  24.561  1.00  0.00     0.041 C 
ATOM     24  C   UNL A   1      53.141  26.113  24.333  1.00  0.00     0.008 C 
ENDBRANCH  21  23
ENDBRANCH  20  21
ENDBRANCH  15  20
ENDBRANCH  11  14
ENDBRANCH   9  10
ENDBRANCH   6   8
ENDBRANCH   5   6
ENDBRANCH   4   5
ENDBRANCH   3   4
ENDBRANCH   2   3
ENDBRANCH   1   2
BRANCH   1  25
ATOM     25  C   UNL A   1      41.844  20.432  27.154  1.00  0.00     0.188 C 
BRANCH  25  26
ATOM     26  O   UNL A   1      41.079  21.548  26.735  1.00  0.00    -0.376 OA
BRANCH  26  27
ATOM     27  C   UNL A   1      41.820  22.627  26.185  1.00  0.00     0.202 C 
BRANCH  27  28
ATOM     28  C   UNL A   1      41.525  24.023  26.755  1.00  0.00     0.261 C 
BRANCH  28  29
ATOM     29  O   UNL A   1      42.639  24.933  26.839  1.00  0.00    -0.460 OA
BRANCH  29  30
ATOM     30  C   UNL A   1      42.612  26.018  26.035  1.00  0.00     0.338 C 
ATOM     31  O   UNL A   1      42.481  26.013  24.817  1.00  0.00    -0.246 OA
BRANCH  30  32
ATOM     32  C   UNL A   1      42.637  27.234  26.877  1.00  0.00     0.060 A 
ATOM     33  C   UNL A   1      41.746  28.280  26.607  1.00  0.00     0.016 A 
ATOM     34  C   UNL A   1      43.571  27.361  27.910  1.00  0.00     0.016 A 
ATOM     35  C   UNL A   1      41.810  29.465  27.352  1.00  0.00     0.010 A 
ATOM     36  C   UNL A   1      43.642  28.554  28.644  1.00  0.00     0.010 A 
ATOM     37  C   UNL A   1      42.782  29.627  28.353  1.00  0.00    -0.014 A 
BRANCH  37  38
ATOM     38  C   UNL A   1      42.966  30.958  29.000  1.00  0.00     0.031 A 
ATOM     39  C   UNL A   1      42.210  31.275  30.261  1.00  0.00     0.074 A 
ATOM     40  C   UNL A   1      43.780  31.888  28.467  1.00  0.00     0.049 A 
ATOM     41  N   UNL A   1      42.283  32.330  31.033  1.00  0.00    -0.248 NA
ATOM     42  C   UNL A   1      41.208  30.287  30.683  1.00  0.00     0.031 C 
ATOM     43  C   UNL A   1      44.481  31.741  27.198  1.00  0.00     0.029 A 
ATOM     44  N   UNL A   1      44.162  33.131  28.920  1.00  0.00    -0.354 N 
ATOM     45  C   UNL A   1      41.313  32.151  32.014  1.00  0.00     0.074 A 
ATOM     46  C   UNL A   1      40.658  30.892  31.725  1.00  0.00     0.031 C 
ATOM     47  C   UNL A   1      45.242  32.829  26.996  1.00  0.00     0.029 A 
ATOM     48  C   UNL A   1      45.115  33.741  28.129  1.00  0.00     0.049 A 
ATOM     49  H   UNL A   1      43.791  33.546  29.732  1.00  0.00     0.167 HD
ATOM     50  C   UNL A   1      40.991  32.968  33.049  1.00  0.00     0.034 A 
ATOM     51  C   UNL A   1      45.831  34.872  28.325  1.00  0.00     0.034 A 
ATOM     52  C   UNL A   1      41.642  34.231  33.314  1.00  0.00     0.049 A 
ATOM     53  C   UNL A   1      45.554  35.688  29.571  1.00  0.00     0.074 A 
ATOM     54  C   UNL A   1      41.395  35.135  34.333  1.00  0.00     0.029 A 
ATOM     55  N   UNL A   1      42.666  34.774  32.548  1.00  0.00    -0.354 N 
ATOM     56  N   UNL A   1      44.698  35.458  30.540  1.00  0.00    -0.248 NA
ATOM     57  C   UNL A   1      46.346  36.913  29.749  1.00  0.00     0.031 C 
ATOM     58  C   UNL A   1      42.226  36.248  34.149  1.00  0.00     0.029 A 
ATOM     59  C   UNL A   1      43.046  36.007  33.061  1.00  0.00     0.049 A 
ATOM     60  H   UNL A   1      43.066  34.346  31.757  1.00  0.00     0.167 HD
ATOM     61  C   UNL A   1      44.843  36.519  31.432  1.00  0.00     0.074 A 
ATOM     62  C   UNL A   1      45.934  37.330  30.935  1.00  0.00     0.031 C 
ATOM     63  C   UNL A   1      44.114  36.825  32.537  1.00  0.00     0.034 A 
BRANCH  50  64
ATOM     64  C   UNL A   1      39.835  32.543  33.926  1.00  0.00     0.023 A 
ATOM     65  C   UNL A   1      38.551  33.096  33.780  1.00  0.00     0.031 A 
ATOM     66  C   UNL A   1      40.035  31.606  34.955  1.00  0.00     0.131 A 
ATOM     67  C   UNL A   1      37.541  32.771  34.698  1.00  0.00     0.055 A 
ATOM     68  C   UNL A   1      39.002  31.222  35.813  1.00  0.00     0.041 A 
ATOM     69  F   UNL A   1      41.244  31.061  35.160  1.00  0.00    -0.206 F 
ATOM     70  C   UNL A   1      37.750  31.819  35.698  1.00  0.00     0.022 A 
BRANCH  67  71
ATOM     71  S   UNL A   1      36.000  33.727  34.664  1.00  0.00     0.124 S 
ATOM     72  O   UNL A   1      35.137  32.865  33.859  1.00  0.00    -0.237 OA
ATOM     73  O   UNL A   1      35.660  33.830  36.078  1.00  0.00    -0.237 OA
ATOM     74  O   UNL A   1      36.389  34.980  34.022  1.00  0.00    -0.744 OA
ENDBRANCH  67  71
ENDBRANCH  50  64
BRANCH  51  75
ATOM     75  C   UNL A   1      46.933  35.276  27.391  1.00  0.00     0.023 A 
ATOM     76  C   UNL A   1      48.176  34.612  27.419  1.00  0.00     0.031 A 
ATOM     77  C   UNL A   1      46.794  36.324  26.466  1.00  0.00     0.131 A 
ATOM     78  C   UNL A   1      49.215  34.985  26.551  1.00  0.00     0.055 A 
ATOM     79  C   UNL A   1      47.813  36.665  25.570  1.00  0.00     0.041 A 
ATOM     80  F   UNL A   1      45.650  37.024  26.400  1.00  0.00    -0.206 F 
ATOM     81  C   UNL A   1      49.033  35.996  25.611  1.00  0.00     0.022 A 
BRANCH  78  82
ATOM     82  S   UNL A   1      50.822  34.150  26.701  1.00  0.00     0.124 S 
ATOM     83  O   UNL A   1      51.166  34.410  28.094  1.00  0.00    -0.237 OA
ATOM     84  O   UNL A   1      50.485  32.768  26.376  1.00  0.00    -0.237 OA
ATOM     85  O   UNL A   1      51.652  34.832  25.710  1.00  0.00    -0.744 OA
ENDBRANCH  78  82
ENDBRANCH  51  75
BRANCH  63  86
ATOM     86  C   UNL A   1      44.475  38.111  33.250  1.00  0.00     0.023 A 
ATOM     87  C   UNL A   1      43.675  39.264  33.119  1.00  0.00     0.031 A 
ATOM     88  C   UNL A   1      45.648  38.210  34.016  1.00  0.00     0.131 A 
ATOM     89  C   UNL A   1      44.108  40.485  33.657  1.00  0.00     0.055 A 
ATOM     90  C   UNL A   1      46.034  39.412  34.616  1.00  0.00     0.041 A 
ATOM     91  F   UNL A   1      46.450  37.147  34.181  1.00  0.00    -0.206 F 
ATOM     92  C   UNL A   1      45.275  40.563  34.419  1.00  0.00     0.022 A 
BRANCH  89  93
ATOM     93  S   UNL A   1      43.201  41.995  33.219  1.00  0.00     0.124 S 
ATOM     94  O   UNL A   1      44.187  42.720  32.422  1.00  0.00    -0.237 OA
ATOM     95  O   UNL A   1      42.054  41.468  32.489  1.00  0.00    -0.237 OA
ATOM     96  O   UNL A   1      42.890  42.594  34.515  1.00  0.00    -0.744 OA
ENDBRANCH  89  93
ENDBRANCH  63  86
ENDBRANCH  37  38
ENDBRANCH  30  32
ENDBRANCH  29  30
ENDBRANCH  28  29
ENDBRANCH  27  28
ENDBRANCH  26  27
ENDBRANCH  25  26
ENDBRANCH   1  25
TORSDOF 25
ENDMDL
