MODEL 1
REMARK VINA RESULT:      -8.0      0.000      0.000
REMARK SMILES CC(C)C[C@H](NC(=O)CNC(=O)[C@@H](NC(=O)OCc1ccccc1)C(C)C)C(=O)N[C@@H](C)C(=O)OCCOCCOCCOC(=O)c1ccc(-c2c3nc(c(-c4cc(S(=O)(=O)[O-])ccc4F)c4ccc([nH]4)c(-c4cc(S(=O)(=O)[O-])ccc4F)c4nc(c(-c5cc(S(=O)(=O)[O-])ccc5F)c5ccc2[nH]5)C=C4)C=C3)cc1
REMARK SMILES IDX 36 1 35 2 33 3 34 4 31 5 32 6 30 7 28 8 29 9 5 11 4 12 2 13
REMARK SMILES IDX 1 14 3 15 6 16 7 17 8 19 9 20 10 21 11 22 12 24 13 25 14 26
REMARK SMILES IDX 15 27 16 29 17 30 18 31 19 32 20 33 24 34 21 35 23 36 22 37
REMARK SMILES IDX 25 38 26 39 27 40 37 41 38 42 39 43 40 44 41 45 42 46 43 47
REMARK SMILES IDX 44 48 45 49 46 50 47 51 48 52 109 53 49 54 108 55 50 56
REMARK SMILES IDX 51 57 52 58 102 59 53 60 107 61 101 62 103 63 54 64 106 65
REMARK SMILES IDX 100 66 99 67 55 69 87 70 67 71 86 72 68 73 71 74 85 75
REMARK SMILES IDX 104 76 69 77 70 78 84 80 105 81 72 82 56 83 57 84 65 85
REMARK SMILES IDX 58 86 64 87 66 88 63 89 59 90 60 91 61 92 62 93 88 94 89 95
REMARK SMILES IDX 97 96 90 97 96 98 98 99 95 100 91 101 92 102 93 103 94 104
REMARK SMILES IDX 73 105 74 106 82 107 75 108 81 109 83 110 80 111 76 112
REMARK SMILES IDX 77 113 78 114 79 115
REMARK H PARENT 30 10 6 18 10 23 14 28 103 68 71 79
REMARK Flexibility Score: inf
ROOT
ATOM      1  C   UNL A   1      42.406  22.931  26.584  1.00  0.00     0.261 C 
ENDROOT
BRANCH   1   2
ATOM      2  O   UNL A   1      40.971  22.971  26.485  1.00  0.00    -0.462 OA
BRANCH   2   3
ATOM      3  C   UNL A   1      40.306  21.792  26.583  1.00  0.00     0.328 C 
ATOM      4  O   UNL A   1      40.723  20.818  27.198  1.00  0.00    -0.250 OA
BRANCH   3   5
ATOM      5  C   UNL A   1      39.013  21.768  25.739  1.00  0.00     0.189 C 
ATOM      6  C   UNL A   1      37.884  22.433  26.506  1.00  0.00     0.043 C 
BRANCH   5   7
ATOM      7  N   UNL A   1      38.504  20.461  25.283  1.00  0.00    -0.341 N 
ATOM      8  C   UNL A   1      37.198  20.070  25.120  1.00  0.00     0.243 C 
ATOM      9  O   UNL A   1      36.946  18.870  25.002  1.00  0.00    -0.273 OA
ATOM     10  H   UNL A   1      39.187  19.785  25.067  1.00  0.00     0.164 HD
BRANCH   8  11
ATOM     11  C   UNL A   1      36.107  21.141  24.952  1.00  0.00     0.171 C 
BRANCH  11  12
ATOM     12  C   UNL A   1      34.811  20.382  24.793  1.00  0.00     0.038 C 
BRANCH  12  13
ATOM     13  C   UNL A   1      33.520  20.939  25.405  1.00  0.00    -0.015 C 
ATOM     14  C   UNL A   1      32.270  20.072  25.263  1.00  0.00     0.007 C 
ATOM     15  C   UNL A   1      33.774  21.269  26.881  1.00  0.00     0.007 C 
ENDBRANCH  12  13
ENDBRANCH  11  12
BRANCH  11  16
ATOM     16  N   UNL A   1      36.495  22.090  23.880  1.00  0.00    -0.343 N 
ATOM     17  C   UNL A   1      36.128  23.285  23.354  1.00  0.00     0.240 C 
ATOM     18  H   UNL A   1      37.274  21.738  23.390  1.00  0.00     0.164 HD
ATOM     19  O   UNL A   1      37.027  23.849  22.710  1.00  0.00    -0.273 OA
BRANCH  17  20
ATOM     20  C   UNL A   1      34.800  24.024  23.509  1.00  0.00     0.216 C 
BRANCH  20  21
ATOM     21  N   UNL A   1      34.327  24.218  24.844  1.00  0.00    -0.345 N 
ATOM     22  C   UNL A   1      33.219  24.851  25.272  1.00  0.00     0.243 C 
ATOM     23  H   UNL A   1      34.894  23.835  25.552  1.00  0.00     0.164 HD
ATOM     24  O   UNL A   1      32.967  24.657  26.466  1.00  0.00    -0.273 OA
BRANCH  22  25
ATOM     25  C   UNL A   1      32.401  25.864  24.386  1.00  0.00     0.177 C 
BRANCH  25  26
ATOM     26  N   UNL A   1      32.958  27.104  23.848  1.00  0.00    -0.309 N 
ATOM     27  C   UNL A   1      32.973  28.395  24.219  1.00  0.00     0.408 C 
ATOM     28  H   UNL A   1      33.441  26.957  23.003  1.00  0.00     0.167 HD
ATOM     29  O   UNL A   1      33.230  29.239  23.379  1.00  0.00    -0.225 OA
BRANCH  27  30
ATOM     30  O   UNL A   1      32.778  28.580  25.530  1.00  0.00    -0.445 OA
BRANCH  30  31
ATOM     31  C   UNL A   1      32.883  29.947  25.931  1.00  0.00     0.270 C 
BRANCH  31  32
ATOM     32  C   UNL A   1      33.940  30.224  26.992  1.00  0.00    -0.011 A 
ATOM     33  C   UNL A   1      34.993  29.341  27.293  1.00  0.00     0.007 A 
ATOM     34  C   UNL A   1      33.936  31.474  27.627  1.00  0.00     0.007 A 
ATOM     35  C   UNL A   1      36.013  29.702  28.178  1.00  0.00     0.000 A 
ATOM     36  C   UNL A   1      34.959  31.838  28.504  1.00  0.00     0.000 A 
ATOM     37  C   UNL A   1      36.005  30.959  28.769  1.00  0.00     0.000 A 
ENDBRANCH  31  32
ENDBRANCH  30  31
ENDBRANCH  27  30
ENDBRANCH  25  26
BRANCH  25  38
ATOM     38  C   UNL A   1      31.293  25.129  23.659  1.00  0.00     0.015 C 
ATOM     39  C   UNL A   1      31.615  25.358  22.171  1.00  0.00     0.010 C 
ATOM     40  C   UNL A   1      31.153  23.668  24.080  1.00  0.00     0.010 C 
ENDBRANCH  25  38
ENDBRANCH  22  25
ENDBRANCH  20  21
ENDBRANCH  17  20
ENDBRANCH  11  16
ENDBRANCH   8  11
ENDBRANCH   5   7
ENDBRANCH   3   5
ENDBRANCH   2   3
ENDBRANCH   1   2
BRANCH   1  41
ATOM     41  C   UNL A   1      43.166  23.255  25.278  1.00  0.00     0.202 C 
BRANCH  41  42
ATOM     42  O   UNL A   1      43.357  24.613  24.879  1.00  0.00    -0.376 OA
BRANCH  42  43
ATOM     43  C   UNL A   1      44.505  25.253  25.426  1.00  0.00     0.188 C 
BRANCH  43  44
ATOM     44  C   UNL A   1      44.253  26.677  25.940  1.00  0.00     0.188 C 
BRANCH  44  45
ATOM     45  O   UNL A   1      43.312  26.729  26.999  1.00  0.00    -0.376 OA
BRANCH  45  46
ATOM     46  C   UNL A   1      42.114  27.438  26.668  1.00  0.00     0.202 C 
BRANCH  46  47
ATOM     47  C   UNL A   1      42.203  28.983  26.754  1.00  0.00     0.261 C 
BRANCH  47  48
ATOM     48  O   UNL A   1      43.175  29.554  27.690  1.00  0.00    -0.460 OA
BRANCH  48  49
ATOM     49  C   UNL A   1      43.976  30.544  27.178  1.00  0.00     0.338 C 
ATOM     50  O   UNL A   1      44.598  30.438  26.128  1.00  0.00    -0.246 OA
BRANCH  49  51
ATOM     51  C   UNL A   1      44.039  31.838  27.968  1.00  0.00     0.060 A 
ATOM     52  C   UNL A   1      45.273  32.485  28.038  1.00  0.00     0.016 A 
ATOM     53  C   UNL A   1      42.997  32.407  28.720  1.00  0.00     0.016 A 
ATOM     54  C   UNL A   1      45.431  33.690  28.770  1.00  0.00     0.010 A 
ATOM     55  C   UNL A   1      43.175  33.618  29.495  1.00  0.00     0.010 A 
ATOM     56  C   UNL A   1      44.395  34.314  29.535  1.00  0.00    -0.014 A 
BRANCH  56  57
ATOM     57  C   UNL A   1      44.698  35.705  30.255  1.00  0.00     0.031 A 
ATOM     58  C   UNL A   1      44.385  36.945  29.421  1.00  0.00     0.074 A 
ATOM     59  C   UNL A   1      44.854  35.939  31.609  1.00  0.00     0.049 A 
ATOM     60  N   UNL A   1      44.150  38.176  29.800  1.00  0.00    -0.248 NA
ATOM     61  C   UNL A   1      44.247  36.731  27.971  1.00  0.00     0.031 C 
ATOM     62  C   UNL A   1      45.041  34.924  32.650  1.00  0.00     0.029 A 
ATOM     63  N   UNL A   1      44.645  37.095  32.392  1.00  0.00    -0.354 N 
ATOM     64  C   UNL A   1      43.810  38.867  28.643  1.00  0.00     0.074 A 
ATOM     65  C   UNL A   1      43.767  37.895  27.571  1.00  0.00     0.031 C 
ATOM     66  C   UNL A   1      44.656  35.413  33.844  1.00  0.00     0.029 A 
ATOM     67  C   UNL A   1      44.475  36.858  33.769  1.00  0.00     0.049 A 
ATOM     68  H   UNL A   1      44.620  37.999  32.004  1.00  0.00     0.167 HD
ATOM     69  C   UNL A   1      43.658  40.199  28.443  1.00  0.00     0.034 A 
ATOM     70  C   UNL A   1      44.253  37.670  34.853  1.00  0.00     0.034 A 
ATOM     71  C   UNL A   1      43.915  41.197  29.446  1.00  0.00     0.049 A 
ATOM     72  C   UNL A   1      44.299  39.167  34.597  1.00  0.00     0.074 A 
ATOM     73  C   UNL A   1      44.143  42.551  29.277  1.00  0.00     0.029 A 
ATOM     74  N   UNL A   1      44.023  40.943  30.804  1.00  0.00    -0.354 N 
ATOM     75  N   UNL A   1      44.189  39.809  33.457  1.00  0.00    -0.248 NA
ATOM     76  C   UNL A   1      44.542  40.049  35.753  1.00  0.00     0.031 C 
ATOM     77  C   UNL A   1      44.482  43.098  30.519  1.00  0.00     0.029 A 
ATOM     78  C   UNL A   1      44.362  42.106  31.477  1.00  0.00     0.049 A 
ATOM     79  H   UNL A   1      43.880  40.065  31.228  1.00  0.00     0.167 HD
ATOM     80  C   UNL A   1      44.407  41.152  33.755  1.00  0.00     0.074 A 
ATOM     81  C   UNL A   1      44.554  41.247  35.190  1.00  0.00     0.031 C 
ATOM     82  C   UNL A   1      44.529  42.203  32.906  1.00  0.00     0.034 A 
BRANCH  69  83
ATOM     83  C   UNL A   1      43.470  40.619  27.010  1.00  0.00     0.023 A 
ATOM     84  C   UNL A   1      44.548  41.006  26.199  1.00  0.00     0.031 A 
ATOM     85  C   UNL A   1      42.164  40.780  26.511  1.00  0.00     0.131 A 
ATOM     86  C   UNL A   1      44.294  41.593  24.950  1.00  0.00     0.055 A 
ATOM     87  C   UNL A   1      41.922  41.301  25.243  1.00  0.00     0.041 A 
ATOM     88  F   UNL A   1      41.102  40.479  27.274  1.00  0.00    -0.206 F 
ATOM     89  C   UNL A   1      42.990  41.723  24.459  1.00  0.00     0.022 A 
BRANCH  86  90
ATOM     90  S   UNL A   1      45.676  42.329  24.032  1.00  0.00     0.124 S 
ATOM     91  O   UNL A   1      45.786  43.640  24.667  1.00  0.00    -0.237 OA
ATOM     92  O   UNL A   1      46.765  41.396  24.298  1.00  0.00    -0.237 OA
ATOM     93  O   UNL A   1      45.197  42.350  22.651  1.00  0.00    -0.744 OA
ENDBRANCH  86  90
ENDBRANCH  69  83
BRANCH  70  94
ATOM     94  C   UNL A   1      44.173  37.183  36.316  1.00  0.00     0.023 A 
ATOM     95  C   UNL A   1      45.309  36.915  37.132  1.00  0.00     0.031 A 
ATOM     96  C   UNL A   1      42.933  36.820  36.884  1.00  0.00     0.131 A 
ATOM     97  C   UNL A   1      45.168  36.327  38.420  1.00  0.00     0.055 A 
ATOM     98  C   UNL A   1      42.792  36.345  38.193  1.00  0.00     0.041 A 
ATOM     99  F   UNL A   1      41.806  36.872  36.159  1.00  0.00    -0.206 F 
ATOM    100  C   UNL A   1      43.909  36.085  38.966  1.00  0.00     0.022 A 
BRANCH  97 101
ATOM    101  S   UNL A   1      46.625  35.705  39.335  1.00  0.00     0.124 S 
ATOM    102  O   UNL A   1      46.019  35.182  40.553  1.00  0.00    -0.237 OA
ATOM    103  O   UNL A   1      47.172  34.719  38.410  1.00  0.00    -0.237 OA
ATOM    104  O   UNL A   1      47.450  36.900  39.521  1.00  0.00    -0.744 OA
ENDBRANCH  97 101
ENDBRANCH  70  94
BRANCH  82 105
ATOM    105  C   UNL A   1      44.848  43.547  33.507  1.00  0.00     0.023 A 
ATOM    106  C   UNL A   1      46.106  43.814  34.078  1.00  0.00     0.031 A 
ATOM    107  C   UNL A   1      43.883  44.567  33.530  1.00  0.00     0.131 A 
ATOM    108  C   UNL A   1      46.339  45.042  34.714  1.00  0.00     0.055 A 
ATOM    109  C   UNL A   1      44.144  45.813  34.102  1.00  0.00     0.041 A 
ATOM    110  F   UNL A   1      42.665  44.367  32.999  1.00  0.00    -0.206 F 
ATOM    111  C   UNL A   1      45.372  46.050  34.713  1.00  0.00     0.022 A 
BRANCH 108 112
ATOM    112  S   UNL A   1      47.879  45.259  35.647  1.00  0.00     0.124 S 
ATOM    113  O   UNL A   1      48.873  44.745  34.710  1.00  0.00    -0.237 OA
ATOM    114  O   UNL A   1      47.906  46.699  35.880  1.00  0.00    -0.237 OA
ATOM    115  O   UNL A   1      47.674  44.441  36.842  1.00  0.00    -0.744 OA
ENDBRANCH 108 112
ENDBRANCH  82 105
ENDBRANCH  56  57
ENDBRANCH  49  51
ENDBRANCH  48  49
ENDBRANCH  47  48
ENDBRANCH  46  47
ENDBRANCH  45  46
ENDBRANCH  44  45
ENDBRANCH  43  44
ENDBRANCH  42  43
ENDBRANCH  41  42
ENDBRANCH   1  41
TORSDOF 33
ENDMDL
MODEL 2
REMARK VINA RESULT:      -7.2      1.826      2.535
REMARK SMILES CC(C)C[C@H](NC(=O)CNC(=O)[C@@H](NC(=O)OCc1ccccc1)C(C)C)C(=O)N[C@@H](C)C(=O)OCCOCCOCCOC(=O)c1ccc(-c2c3nc(c(-c4cc(S(=O)(=O)[O-])ccc4F)c4ccc([nH]4)c(-c4cc(S(=O)(=O)[O-])ccc4F)c4nc(c(-c5cc(S(=O)(=O)[O-])ccc5F)c5ccc2[nH]5)C=C4)C=C3)cc1
REMARK SMILES IDX 36 1 35 2 33 3 34 4 31 5 32 6 30 7 28 8 29 9 5 11 4 12 2 13
REMARK SMILES IDX 1 14 3 15 6 16 7 17 8 19 9 20 10 21 11 22 12 24 13 25 14 26
REMARK SMILES IDX 15 27 16 29 17 30 18 31 19 32 20 33 24 34 21 35 23 36 22 37
REMARK SMILES IDX 25 38 26 39 27 40 37 41 38 42 39 43 40 44 41 45 42 46 43 47
REMARK SMILES IDX 44 48 45 49 46 50 47 51 48 52 109 53 49 54 108 55 50 56
REMARK SMILES IDX 51 57 52 58 102 59 53 60 107 61 101 62 103 63 54 64 106 65
REMARK SMILES IDX 100 66 99 67 55 69 87 70 67 71 86 72 68 73 71 74 85 75
REMARK SMILES IDX 104 76 69 77 70 78 84 80 105 81 72 82 56 83 57 84 65 85
REMARK SMILES IDX 58 86 64 87 66 88 63 89 59 90 60 91 61 92 62 93 88 94 89 95
REMARK SMILES IDX 97 96 90 97 96 98 98 99 95 100 91 101 92 102 93 103 94 104
REMARK SMILES IDX 73 105 74 106 82 107 75 108 81 109 83 110 80 111 76 112
REMARK SMILES IDX 77 113 78 114 79 115
REMARK H PARENT 30 10 6 18 10 23 14 28 103 68 71 79
REMARK Flexibility Score: inf
ROOT
ATOM      1  C   UNL A   1      42.581  22.809  26.965  1.00  0.00     0.261 C 
ENDROOT
BRANCH   1   2
ATOM      2  O   UNL A   1      41.166  23.051  26.881  1.00  0.00    -0.462 OA
BRANCH   2   3
ATOM      3  C   UNL A   1      40.341  21.986  27.043  1.00  0.00     0.328 C 
ATOM      4  O   UNL A   1      40.501  21.116  27.891  1.00  0.00    -0.250 OA
BRANCH   3   5
ATOM      5  C   UNL A   1      39.234  21.923  25.967  1.00  0.00     0.189 C 
ATOM      6  C   UNL A   1      37.948  22.518  26.515  1.00  0.00     0.043 C 
BRANCH   5   7
ATOM      7  N   UNL A   1      38.886  20.605  25.404  1.00  0.00    -0.341 N 
ATOM      8  C   UNL A   1      37.637  20.100  25.139  1.00  0.00     0.243 C 
ATOM      9  O   UNL A   1      37.515  18.891  24.935  1.00  0.00    -0.273 OA
ATOM     10  H   UNL A   1      39.644  20.015  25.190  1.00  0.00     0.164 HD
BRANCH   8  11
ATOM     11  C   UNL A   1      36.454  21.068  24.970  1.00  0.00     0.171 C 
BRANCH  11  12
ATOM     12  C   UNL A   1      35.217  20.200  24.944  1.00  0.00     0.038 C 
BRANCH  12  13
ATOM     13  C   UNL A   1      33.829  20.847  25.024  1.00  0.00    -0.015 C 
ATOM     14  C   UNL A   1      32.984  20.802  23.753  1.00  0.00     0.007 C 
ATOM     15  C   UNL A   1      33.061  20.226  26.198  1.00  0.00     0.007 C 
ENDBRANCH  12  13
ENDBRANCH  11  12
BRANCH  11  16
ATOM     16  N   UNL A   1      36.700  21.965  23.815  1.00  0.00    -0.343 N 
ATOM     17  C   UNL A   1      36.255  23.129  23.278  1.00  0.00     0.240 C 
ATOM     18  H   UNL A   1      37.422  21.596  23.256  1.00  0.00     0.164 HD
ATOM     19  O   UNL A   1      37.065  23.668  22.507  1.00  0.00    -0.273 OA
BRANCH  17  20
ATOM     20  C   UNL A   1      34.943  23.861  23.551  1.00  0.00     0.216 C 
BRANCH  20  21
ATOM     21  N   UNL A   1      34.618  24.104  24.921  1.00  0.00    -0.345 N 
ATOM     22  C   UNL A   1      33.457  24.518  25.461  1.00  0.00     0.243 C 
ATOM     23  H   UNL A   1      35.349  23.946  25.562  1.00  0.00     0.164 HD
ATOM     24  O   UNL A   1      33.418  24.417  26.693  1.00  0.00    -0.273 OA
BRANCH  22  25
ATOM     25  C   UNL A   1      32.310  25.205  24.630  1.00  0.00     0.177 C 
BRANCH  25  26
ATOM     26  N   UNL A   1      32.552  26.104  23.502  1.00  0.00    -0.309 N 
ATOM     27  C   UNL A   1      32.370  27.412  23.255  1.00  0.00     0.408 C 
ATOM     28  H   UNL A   1      32.945  25.633  22.733  1.00  0.00     0.167 HD
ATOM     29  O   UNL A   1      32.358  27.789  22.097  1.00  0.00    -0.225 OA
BRANCH  27  30
ATOM     30  O   UNL A   1      32.310  28.164  24.360  1.00  0.00    -0.445 OA
BRANCH  30  31
ATOM     31  C   UNL A   1      31.584  29.381  24.178  1.00  0.00     0.270 C 
BRANCH  31  32
ATOM     32  C   UNL A   1      30.112  29.204  23.834  1.00  0.00    -0.011 A 
ATOM     33  C   UNL A   1      29.303  30.232  23.314  1.00  0.00     0.007 A 
ATOM     34  C   UNL A   1      29.552  27.922  23.930  1.00  0.00     0.007 A 
ATOM     35  C   UNL A   1      27.995  29.983  22.888  1.00  0.00     0.000 A 
ATOM     36  C   UNL A   1      28.249  27.671  23.496  1.00  0.00     0.000 A 
ATOM     37  C   UNL A   1      27.475  28.697  22.962  1.00  0.00     0.000 A 
ENDBRANCH  31  32
ENDBRANCH  30  31
ENDBRANCH  27  30
ENDBRANCH  25  26
BRANCH  25  38
ATOM     38  C   UNL A   1      31.053  24.361  24.696  1.00  0.00     0.015 C 
ATOM     39  C   UNL A   1      30.147  25.128  25.676  1.00  0.00     0.010 C 
ATOM     40  C   UNL A   1      30.441  24.073  23.327  1.00  0.00     0.010 C 
ENDBRANCH  25  38
ENDBRANCH  22  25
ENDBRANCH  20  21
ENDBRANCH  17  20
ENDBRANCH  11  16
ENDBRANCH   8  11
ENDBRANCH   5   7
ENDBRANCH   3   5
ENDBRANCH   2   3
ENDBRANCH   1   2
BRANCH   1  41
ATOM     41  C   UNL A   1      43.391  23.190  25.704  1.00  0.00     0.202 C 
BRANCH  41  42
ATOM     42  O   UNL A   1      43.702  24.559  25.440  1.00  0.00    -0.376 OA
BRANCH  42  43
ATOM     43  C   UNL A   1      44.728  25.119  26.253  1.00  0.00     0.188 C 
BRANCH  43  44
ATOM     44  C   UNL A   1      44.382  26.484  26.861  1.00  0.00     0.188 C 
BRANCH  44  45
ATOM     45  O   UNL A   1      43.320  26.423  27.800  1.00  0.00    -0.376 OA
BRANCH  45  46
ATOM     46  C   UNL A   1      42.154  27.147  27.394  1.00  0.00     0.202 C 
BRANCH  46  47
ATOM     47  C   UNL A   1      42.244  28.689  27.522  1.00  0.00     0.261 C 
BRANCH  47  48
ATOM     48  O   UNL A   1      43.346  29.240  28.316  1.00  0.00    -0.460 OA
BRANCH  48  49
ATOM     49  C   UNL A   1      44.077  30.228  27.705  1.00  0.00     0.338 C 
ATOM     50  O   UNL A   1      44.560  30.119  26.583  1.00  0.00    -0.246 OA
BRANCH  49  51
ATOM     51  C   UNL A   1      44.241  31.523  28.478  1.00  0.00     0.060 A 
ATOM     52  C   UNL A   1      45.479  32.162  28.399  1.00  0.00     0.016 A 
ATOM     53  C   UNL A   1      43.299  32.100  29.346  1.00  0.00     0.016 A 
ATOM     54  C   UNL A   1      45.730  33.368  29.103  1.00  0.00     0.010 A 
ATOM     55  C   UNL A   1      43.575  33.312  30.092  1.00  0.00     0.010 A 
ATOM     56  C   UNL A   1      44.795  34.000  29.985  1.00  0.00    -0.014 A 
BRANCH  56  57
ATOM     57  C   UNL A   1      45.190  35.391  30.659  1.00  0.00     0.031 A 
ATOM     58  C   UNL A   1      44.823  36.629  29.847  1.00  0.00     0.074 A 
ATOM     59  C   UNL A   1      45.476  35.632  31.990  1.00  0.00     0.049 A 
ATOM     60  N   UNL A   1      44.647  37.868  30.234  1.00  0.00    -0.248 NA
ATOM     61  C   UNL A   1      44.546  36.407  28.418  1.00  0.00     0.031 C 
ATOM     62  C   UNL A   1      45.742  34.621  33.019  1.00  0.00     0.029 A 
ATOM     63  N   UNL A   1      45.363  36.797  32.779  1.00  0.00    -0.354 N 
ATOM     64  C   UNL A   1      44.213  38.556  29.107  1.00  0.00     0.074 A 
ATOM     65  C   UNL A   1      44.052  37.577  28.054  1.00  0.00     0.031 C 
ATOM     66  C   UNL A   1      45.479  35.127  34.239  1.00  0.00     0.029 A 
ATOM     67  C   UNL A   1      45.320  36.575  34.167  1.00  0.00     0.049 A 
ATOM     68  H   UNL A   1      45.319  37.698  32.386  1.00  0.00     0.167 HD
ATOM     69  C   UNL A   1      44.067  39.889  28.910  1.00  0.00     0.034 A 
ATOM     70  C   UNL A   1      45.215  37.400  35.260  1.00  0.00     0.034 A 
ATOM     71  C   UNL A   1      44.436  40.890  29.875  1.00  0.00     0.049 A 
ATOM     72  C   UNL A   1      45.264  38.893  34.986  1.00  0.00     0.074 A 
ATOM     73  C   UNL A   1      44.673  42.238  29.672  1.00  0.00     0.029 A 
ATOM     74  N   UNL A   1      44.666  40.644  31.219  1.00  0.00    -0.354 N 
ATOM     75  N   UNL A   1      45.060  39.528  33.855  1.00  0.00    -0.248 NA
ATOM     76  C   UNL A   1      45.631  39.779  36.106  1.00  0.00     0.031 C 
ATOM     77  C   UNL A   1      45.136  42.788  30.872  1.00  0.00     0.029 A 
ATOM     78  C   UNL A   1      45.088  41.806  31.846  1.00  0.00     0.049 A 
ATOM     79  H   UNL A   1      44.547  39.773  31.663  1.00  0.00     0.167 HD
ATOM     80  C   UNL A   1      45.329  40.869  34.119  1.00  0.00     0.074 A 
ATOM     81  C   UNL A   1      45.612  40.973  35.533  1.00  0.00     0.031 C 
ATOM     82  C   UNL A   1      45.391  41.911  33.252  1.00  0.00     0.034 A 
BRANCH  69  83
ATOM     83  C   UNL A   1      43.754  40.301  27.497  1.00  0.00     0.023 A 
ATOM     84  C   UNL A   1      44.732  40.828  26.638  1.00  0.00     0.031 A 
ATOM     85  C   UNL A   1      42.413  40.308  27.069  1.00  0.00     0.131 A 
ATOM     86  C   UNL A   1      44.343  41.395  25.416  1.00  0.00     0.055 A 
ATOM     87  C   UNL A   1      42.042  40.812  25.825  1.00  0.00     0.041 A 
ATOM     88  F   UNL A   1      41.438  39.870  27.880  1.00  0.00    -0.206 F 
ATOM     89  C   UNL A   1      43.008  41.372  24.995  1.00  0.00     0.022 A 
BRANCH  86  90
ATOM     90  S   UNL A   1      45.573  42.307  24.442  1.00  0.00     0.124 S 
ATOM     91  O   UNL A   1      45.868  41.355  23.374  1.00  0.00    -0.237 OA
ATOM     92  O   UNL A   1      44.839  43.504  24.046  1.00  0.00    -0.237 OA
ATOM     93  O   UNL A   1      46.663  42.530  25.390  1.00  0.00    -0.744 OA
ENDBRANCH  86  90
ENDBRANCH  69  83
BRANCH  70  94
ATOM     94  C   UNL A   1      45.263  36.925  36.728  1.00  0.00     0.023 A 
ATOM     95  C   UNL A   1      44.113  36.750  37.550  1.00  0.00     0.031 A 
ATOM     96  C   UNL A   1      46.499  36.785  37.395  1.00  0.00     0.131 A 
ATOM     97  C   UNL A   1      44.238  36.455  38.936  1.00  0.00     0.055 A 
ATOM     98  C   UNL A   1      46.615  36.386  38.733  1.00  0.00     0.041 A 
ATOM     99  F   UNL A   1      47.650  37.081  36.775  1.00  0.00    -0.206 F 
ATOM    100  C   UNL A   1      45.484  36.230  39.515  1.00  0.00     0.022 A 
BRANCH  97 101
ATOM    101  S   UNL A   1      42.786  36.533  40.049  1.00  0.00     0.124 S 
ATOM    102  O   UNL A   1      42.414  35.129  40.162  1.00  0.00    -0.237 OA
ATOM    103  O   UNL A   1      43.347  37.152  41.243  1.00  0.00    -0.237 OA
ATOM    104  O   UNL A   1      41.834  37.365  39.312  1.00  0.00    -0.744 OA
ENDBRANCH  97 101
ENDBRANCH  70  94
BRANCH  82 105
ATOM    105  C   UNL A   1      45.790  43.254  33.808  1.00  0.00     0.023 A 
ATOM    106  C   UNL A   1      47.125  43.539  34.145  1.00  0.00     0.031 A 
ATOM    107  C   UNL A   1      44.826  44.252  34.022  1.00  0.00     0.131 A 
ATOM    108  C   UNL A   1      47.448  44.762  34.749  1.00  0.00     0.055 A 
ATOM    109  C   UNL A   1      45.165  45.496  34.558  1.00  0.00     0.041 A 
ATOM    110  F   UNL A   1      43.536  44.034  33.718  1.00  0.00    -0.206 F 
ATOM    111  C   UNL A   1      46.479  45.751  34.940  1.00  0.00     0.022 A 
BRANCH 108 112
ATOM    112  S   UNL A   1      49.128  44.999  35.391  1.00  0.00     0.124 S 
ATOM    113  O   UNL A   1      49.138  44.100  36.541  1.00  0.00    -0.237 OA
ATOM    114  O   UNL A   1      49.957  44.597  34.260  1.00  0.00    -0.237 OA
ATOM    115  O   UNL A   1      49.172  46.424  35.718  1.00  0.00    -0.744 OA
ENDBRANCH 108 112
ENDBRANCH  82 105
ENDBRANCH  56  57
ENDBRANCH  49  51
ENDBRANCH  48  49
ENDBRANCH  47  48
ENDBRANCH  46  47
ENDBRANCH  45  46
ENDBRANCH  44  45
ENDBRANCH  43  44
ENDBRANCH  42  43
ENDBRANCH  41  42
ENDBRANCH   1  41
TORSDOF 33
ENDMDL
MODEL 3
REMARK VINA RESULT:      -7.2      7.226     17.903
REMARK SMILES CC(C)C[C@H](NC(=O)CNC(=O)[C@@H](NC(=O)OCc1ccccc1)C(C)C)C(=O)N[C@@H](C)C(=O)OCCOCCOCCOC(=O)c1ccc(-c2c3nc(c(-c4cc(S(=O)(=O)[O-])ccc4F)c4ccc([nH]4)c(-c4cc(S(=O)(=O)[O-])ccc4F)c4nc(c(-c5cc(S(=O)(=O)[O-])ccc5F)c5ccc2[nH]5)C=C4)C=C3)cc1
REMARK SMILES IDX 36 1 35 2 33 3 34 4 31 5 32 6 30 7 28 8 29 9 5 11 4 12 2 13
REMARK SMILES IDX 1 14 3 15 6 16 7 17 8 19 9 20 10 21 11 22 12 24 13 25 14 26
REMARK SMILES IDX 15 27 16 29 17 30 18 31 19 32 20 33 24 34 21 35 23 36 22 37
REMARK SMILES IDX 25 38 26 39 27 40 37 41 38 42 39 43 40 44 41 45 42 46 43 47
REMARK SMILES IDX 44 48 45 49 46 50 47 51 48 52 109 53 49 54 108 55 50 56
REMARK SMILES IDX 51 57 52 58 102 59 53 60 107 61 101 62 103 63 54 64 106 65
REMARK SMILES IDX 100 66 99 67 55 69 87 70 67 71 86 72 68 73 71 74 85 75
REMARK SMILES IDX 104 76 69 77 70 78 84 80 105 81 72 82 56 83 57 84 65 85
REMARK SMILES IDX 58 86 64 87 66 88 63 89 59 90 60 91 61 92 62 93 88 94 89 95
REMARK SMILES IDX 97 96 90 97 96 98 98 99 95 100 91 101 92 102 93 103 94 104
REMARK SMILES IDX 73 105 74 106 82 107 75 108 81 109 83 110 80 111 76 112
REMARK SMILES IDX 77 113 78 114 79 115
REMARK H PARENT 30 10 6 18 10 23 14 28 103 68 71 79
REMARK Flexibility Score: inf
ROOT
ATOM      1  C   UNL A   1      44.908  43.132  31.933  1.00  0.00     0.261 C 
ENDROOT
BRANCH   1   2
ATOM      2  O   UNL A   1      44.446  43.114  30.570  1.00  0.00    -0.462 OA
BRANCH   2   3
ATOM      3  C   UNL A   1      44.391  44.301  29.915  1.00  0.00     0.328 C 
ATOM      4  O   UNL A   1      43.723  45.260  30.285  1.00  0.00    -0.250 OA
BRANCH   3   5
ATOM      5  C   UNL A   1      45.174  44.281  28.584  1.00  0.00     0.189 C 
ATOM      6  C   UNL A   1      45.608  45.690  28.220  1.00  0.00     0.043 C 
BRANCH   5   7
ATOM      7  N   UNL A   1      44.508  43.721  27.393  1.00  0.00    -0.341 N 
ATOM      8  C   UNL A   1      45.089  43.168  26.279  1.00  0.00     0.243 C 
ATOM      9  O   UNL A   1      44.404  43.007  25.268  1.00  0.00    -0.273 OA
ATOM     10  H   UNL A   1      43.524  43.745  27.399  1.00  0.00     0.164 HD
BRANCH   8  11
ATOM     11  C   UNL A   1      46.532  42.642  26.365  1.00  0.00     0.171 C 
BRANCH  11  12
ATOM     12  C   UNL A   1      46.589  41.811  27.624  1.00  0.00     0.038 C 
BRANCH  12  13
ATOM     13  C   UNL A   1      47.553  40.621  27.711  1.00  0.00    -0.015 C 
ATOM     14  C   UNL A   1      47.704  39.774  26.448  1.00  0.00     0.007 C 
ATOM     15  C   UNL A   1      48.923  41.128  28.179  1.00  0.00     0.007 C 
ENDBRANCH  12  13
ENDBRANCH  11  12
BRANCH  11  16
ATOM     16  N   UNL A   1      47.487  43.770  26.229  1.00  0.00    -0.343 N 
ATOM     17  C   UNL A   1      47.980  44.619  25.294  1.00  0.00     0.240 C 
ATOM     18  H   UNL A   1      47.895  43.966  27.104  1.00  0.00     0.164 HD
ATOM     19  O   UNL A   1      48.470  45.658  25.766  1.00  0.00    -0.273 OA
BRANCH  17  20
ATOM     20  C   UNL A   1      47.949  44.480  23.773  1.00  0.00     0.216 C 
BRANCH  20  21
ATOM     21  N   UNL A   1      49.193  44.647  23.090  1.00  0.00    -0.345 N 
ATOM     22  C   UNL A   1      49.429  45.124  21.853  1.00  0.00     0.243 C 
ATOM     23  H   UNL A   1      49.992  44.373  23.596  1.00  0.00     0.164 HD
ATOM     24  O   UNL A   1      50.623  45.357  21.631  1.00  0.00    -0.273 OA
BRANCH  22  25
ATOM     25  C   UNL A   1      48.321  45.236  20.740  1.00  0.00     0.177 C 
BRANCH  25  26
ATOM     26  N   UNL A   1      47.729  46.501  20.310  1.00  0.00    -0.309 N 
ATOM     27  C   UNL A   1      46.876  46.889  19.347  1.00  0.00     0.408 C 
ATOM     28  H   UNL A   1      48.031  47.258  20.862  1.00  0.00     0.167 HD
ATOM     29  O   UNL A   1      46.845  48.066  19.035  1.00  0.00    -0.225 OA
BRANCH  27  30
ATOM     30  O   UNL A   1      46.084  45.905  18.903  1.00  0.00    -0.445 OA
BRANCH  30  31
ATOM     31  C   UNL A   1      44.752  45.976  19.415  1.00  0.00     0.270 C 
BRANCH  31  32
ATOM     32  C   UNL A   1      44.171  44.647  19.875  1.00  0.00    -0.011 A 
ATOM     33  C   UNL A   1      44.625  43.948  21.010  1.00  0.00     0.007 A 
ATOM     34  C   UNL A   1      43.049  44.140  19.205  1.00  0.00     0.007 A 
ATOM     35  C   UNL A   1      43.969  42.802  21.468  1.00  0.00     0.000 A 
ATOM     36  C   UNL A   1      42.388  43.000  19.668  1.00  0.00     0.000 A 
ATOM     37  C   UNL A   1      42.839  42.339  20.806  1.00  0.00     0.000 A 
ENDBRANCH  31  32
ENDBRANCH  30  31
ENDBRANCH  27  30
ENDBRANCH  25  26
BRANCH  25  38
ATOM     38  C   UNL A   1      48.434  44.065  19.785  1.00  0.00     0.015 C 
ATOM     39  C   UNL A   1      49.610  44.450  18.869  1.00  0.00     0.010 C 
ATOM     40  C   UNL A   1      48.566  42.716  20.488  1.00  0.00     0.010 C 
ENDBRANCH  25  38
ENDBRANCH  22  25
ENDBRANCH  20  21
ENDBRANCH  17  20
ENDBRANCH  11  16
ENDBRANCH   8  11
ENDBRANCH   5   7
ENDBRANCH   3   5
ENDBRANCH   2   3
ENDBRANCH   1   2
BRANCH   1  41
ATOM     41  C   UNL A   1      44.886  41.765  32.654  1.00  0.00     0.202 C 
BRANCH  41  42
ATOM     42  O   UNL A   1      43.643  41.191  33.062  1.00  0.00    -0.376 OA
BRANCH  42  43
ATOM     43  C   UNL A   1      43.427  39.846  32.649  1.00  0.00     0.188 C 
BRANCH  43  44
ATOM     44  C   UNL A   1      44.157  39.452  31.357  1.00  0.00     0.188 C 
BRANCH  44  45
ATOM     45  O   UNL A   1      43.306  39.426  30.223  1.00  0.00    -0.376 OA
BRANCH  45  46
ATOM     46  C   UNL A   1      43.709  40.323  29.183  1.00  0.00     0.202 C 
BRANCH  46  47
ATOM     47  C   UNL A   1      43.343  39.886  27.742  1.00  0.00     0.261 C 
BRANCH  47  48
ATOM     48  O   UNL A   1      44.052  38.731  27.184  1.00  0.00    -0.460 OA
BRANCH  48  49
ATOM     49  C   UNL A   1      43.318  37.575  27.095  1.00  0.00     0.338 C 
ATOM     50  O   UNL A   1      42.336  37.448  26.373  1.00  0.00    -0.246 OA
BRANCH  49  51
ATOM     51  C   UNL A   1      43.804  36.400  27.924  1.00  0.00     0.060 A 
ATOM     52  C   UNL A   1      42.934  35.320  28.075  1.00  0.00     0.016 A 
ATOM     53  C   UNL A   1      45.012  36.329  28.639  1.00  0.00     0.016 A 
ATOM     54  C   UNL A   1      43.296  34.187  28.848  1.00  0.00     0.010 A 
ATOM     55  C   UNL A   1      45.360  35.185  29.457  1.00  0.00     0.010 A 
ATOM     56  C   UNL A   1      44.522  34.063  29.579  1.00  0.00    -0.014 A 
BRANCH  56  57
ATOM     57  C   UNL A   1      44.824  32.702  30.352  1.00  0.00     0.031 A 
ATOM     58  C   UNL A   1      44.174  32.583  31.728  1.00  0.00     0.074 A 
ATOM     59  C   UNL A   1      45.275  31.509  29.817  1.00  0.00     0.049 A 
ATOM     60  N   UNL A   1      43.894  31.518  32.437  1.00  0.00    -0.248 NA
ATOM     61  C   UNL A   1      43.715  33.842  32.337  1.00  0.00     0.031 C 
ATOM     62  C   UNL A   1      45.828  31.314  28.473  1.00  0.00     0.029 A 
ATOM     63  N   UNL A   1      45.127  30.172  30.246  1.00  0.00    -0.354 N 
ATOM     64  C   UNL A   1      43.204  31.979  33.552  1.00  0.00     0.074 A 
ATOM     65  C   UNL A   1      43.018  33.403  33.370  1.00  0.00     0.031 C 
ATOM     66  C   UNL A   1      45.689  30.027  28.101  1.00  0.00     0.029 A 
ATOM     67  C   UNL A   1      45.326  29.201  29.247  1.00  0.00     0.049 A 
ATOM     68  H   UNL A   1      44.903  29.937  31.174  1.00  0.00     0.167 HD
ATOM     69  C   UNL A   1      42.852  31.323  34.685  1.00  0.00     0.034 A 
ATOM     70  C   UNL A   1      45.280  27.829  29.232  1.00  0.00     0.034 A 
ATOM     71  C   UNL A   1      43.226  29.965  34.976  1.00  0.00     0.049 A 
ATOM     72  C   UNL A   1      45.086  27.145  30.574  1.00  0.00     0.074 A 
ATOM     73  C   UNL A   1      43.245  29.320  36.201  1.00  0.00     0.029 A 
ATOM     74  N   UNL A   1      43.689  29.055  34.041  1.00  0.00    -0.354 N 
ATOM     75  N   UNL A   1      44.627  27.651  31.695  1.00  0.00    -0.248 NA
ATOM     76  C   UNL A   1      45.496  25.733  30.684  1.00  0.00     0.031 C 
ATOM     77  C   UNL A   1      43.808  28.053  36.020  1.00  0.00     0.029 A 
ATOM     78  C   UNL A   1      44.042  27.871  34.668  1.00  0.00     0.049 A 
ATOM     79  H   UNL A   1      43.758  29.225  33.073  1.00  0.00     0.167 HD
ATOM     80  C   UNL A   1      44.751  26.641  32.646  1.00  0.00     0.074 A 
ATOM     81  C   UNL A   1      45.229  25.465  31.954  1.00  0.00     0.031 C 
ATOM     82  C   UNL A   1      44.539  26.702  33.985  1.00  0.00     0.034 A 
BRANCH  69  83
ATOM     83  C   UNL A   1      42.274  32.184  35.775  1.00  0.00     0.023 A 
ATOM     84  C   UNL A   1      40.908  32.503  35.828  1.00  0.00     0.031 A 
ATOM     85  C   UNL A   1      43.146  32.819  36.679  1.00  0.00     0.131 A 
ATOM     86  C   UNL A   1      40.463  33.481  36.732  1.00  0.00     0.055 A 
ATOM     87  C   UNL A   1      42.687  33.739  37.619  1.00  0.00     0.041 A 
ATOM     88  F   UNL A   1      44.467  32.590  36.625  1.00  0.00    -0.206 F 
ATOM     89  C   UNL A   1      41.340  34.084  37.640  1.00  0.00     0.022 A 
BRANCH  86  90
ATOM     90  S   UNL A   1      38.753  34.074  36.607  1.00  0.00     0.124 S 
ATOM     91  O   UNL A   1      38.891  35.175  35.658  1.00  0.00    -0.237 OA
ATOM     92  O   UNL A   1      38.044  32.896  36.120  1.00  0.00    -0.237 OA
ATOM     93  O   UNL A   1      38.429  34.474  37.975  1.00  0.00    -0.744 OA
ENDBRANCH  86  90
ENDBRANCH  69  83
BRANCH  70  94
ATOM     94  C   UNL A   1      45.615  26.951  28.007  1.00  0.00     0.023 A 
ATOM     95  C   UNL A   1      44.638  26.367  27.151  1.00  0.00     0.031 A 
ATOM     96  C   UNL A   1      46.944  26.545  27.759  1.00  0.00     0.131 A 
ATOM     97  C   UNL A   1      45.010  25.448  26.130  1.00  0.00     0.055 A 
ATOM     98  C   UNL A   1      47.314  25.728  26.684  1.00  0.00     0.041 A 
ATOM     99  F   UNL A   1      47.934  26.896  28.591  1.00  0.00    -0.206 F 
ATOM    100  C   UNL A   1      46.348  25.165  25.869  1.00  0.00     0.022 A 
BRANCH  97 101
ATOM    101  S   UNL A   1      43.745  24.470  25.239  1.00  0.00     0.124 S 
ATOM    102  O   UNL A   1      44.524  23.874  24.161  1.00  0.00    -0.237 OA
ATOM    103  O   UNL A   1      43.273  23.560  26.276  1.00  0.00    -0.237 OA
ATOM    104  O   UNL A   1      42.771  25.477  24.812  1.00  0.00    -0.744 OA
ENDBRANCH  97 101
ENDBRANCH  70  94
BRANCH  82 105
ATOM    105  C   UNL A   1      44.833  25.463  34.791  1.00  0.00     0.023 A 
ATOM    106  C   UNL A   1      46.118  25.213  35.305  1.00  0.00     0.031 A 
ATOM    107  C   UNL A   1      43.827  24.514  35.034  1.00  0.00     0.131 A 
ATOM    108  C   UNL A   1      46.383  24.006  35.968  1.00  0.00     0.055 A 
ATOM    109  C   UNL A   1      44.080  23.346  35.757  1.00  0.00     0.041 A 
ATOM    110  F   UNL A   1      42.582  24.702  34.567  1.00  0.00    -0.206 F 
ATOM    111  C   UNL A   1      45.367  23.080  36.215  1.00  0.00     0.022 A 
BRANCH 108 112
ATOM    112  S   UNL A   1      48.100  23.610  36.400  1.00  0.00     0.124 S 
ATOM    113  O   UNL A   1      47.990  22.215  36.815  1.00  0.00    -0.237 OA
ATOM    114  O   UNL A   1      48.803  23.848  35.144  1.00  0.00    -0.237 OA
ATOM    115  O   UNL A   1      48.411  24.554  37.473  1.00  0.00    -0.744 OA
ENDBRANCH 108 112
ENDBRANCH  82 105
ENDBRANCH  56  57
ENDBRANCH  49  51
ENDBRANCH  48  49
ENDBRANCH  47  48
ENDBRANCH  46  47
ENDBRANCH  45  46
ENDBRANCH  44  45
ENDBRANCH  43  44
ENDBRANCH  42  43
ENDBRANCH  41  42
ENDBRANCH   1  41
TORSDOF 33
ENDMDL
