MODEL 1
REMARK VINA RESULT:     -11.7      0.000      0.000
REMARK SMILES Cc1ccc(C[C@@H](Cc2cc(F)cc(Br)c2)C(=O)OCCOCCOCCOC(=O)c2ccc(-c3c4nc(c(-c5cc(S(=O)(=O)[O-])ccc5F)c5ccc([nH]5)c(-c5cc(S(=O)(=O)[O-])ccc5F)c5nc(c(-c6cc(S(=O)(=O)[O-])ccc6F)c6ccc3[nH]6)C=C5)C=C4)cc2)cc1
REMARK SMILES IDX 24 1 23 2 22 3 21 4 20 5 19 6 17 7 18 8 7 9 6 10 5 11 1 12
REMARK SMILES IDX 2 13 3 14 95 15 4 16 94 17 8 18 9 19 10 20 16 21 11 22 14 23
REMARK SMILES IDX 12 24 13 25 15 26 25 27 26 28 27 29 28 30 29 31 30 32 31 33
REMARK SMILES IDX 32 34 93 35 33 36 92 37 34 38 35 39 36 40 86 41 37 42 91 43
REMARK SMILES IDX 85 44 87 45 38 46 90 47 84 48 83 49 39 51 71 52 51 53 70 54
REMARK SMILES IDX 52 55 55 56 69 57 88 58 53 59 54 60 68 62 89 63 56 64 40 65
REMARK SMILES IDX 41 66 49 67 42 68 48 69 50 70 47 71 43 72 44 73 45 74 46 75
REMARK SMILES IDX 72 76 73 77 81 78 74 79 80 80 82 81 79 82 75 83 76 84 77 85
REMARK SMILES IDX 78 86 57 87 58 88 66 89 59 90 65 91 67 92 64 93 60 94 61 95
REMARK SMILES IDX 62 96 63 97
REMARK H PARENT 87 50 55 61
REMARK Flexibility Score: inf
ROOT
ATOM      1  C   UNL A   1      37.854  21.702  25.756  1.00  0.00     0.188 C 
ENDROOT
BRANCH   1   2
ATOM      2  C   UNL A   1      37.354  23.135  25.632  1.00  0.00     0.188 C 
BRANCH   2   3
ATOM      3  O   UNL A   1      36.096  23.581  26.201  1.00  0.00    -0.376 OA
BRANCH   3   4
ATOM      4  C   UNL A   1      34.898  22.846  26.561  1.00  0.00     0.202 C 
BRANCH   4   5
ATOM      5  C   UNL A   1      33.532  23.052  27.706  1.00  0.00     0.261 C 
BRANCH   5   6
ATOM      6  O   UNL A   1      31.811  22.900  27.631  1.00  0.00    -0.463 OA
BRANCH   6   7
ATOM      7  C   UNL A   1      30.729  23.025  26.700  1.00  0.00     0.309 C 
ATOM      8  O   UNL A   1      29.915  22.160  26.377  1.00  0.00    -0.252 OA
BRANCH   7   9
ATOM      9  C   UNL A   1      30.474  24.277  25.917  1.00  0.00     0.108 C 
BRANCH   9  10
ATOM     10  C   UNL A   1      30.817  25.494  26.747  1.00  0.00     0.051 C 
BRANCH  10  11
ATOM     11  C   UNL A   1      31.625  26.436  25.899  1.00  0.00    -0.047 A 
ATOM     12  C   UNL A   1      34.026  28.537  23.040  1.00  0.00     0.044 C 
ATOM     13  C   UNL A   1      33.174  27.804  24.023  1.00  0.00    -0.051 A 
ATOM     14  C   UNL A   1      33.792  27.016  24.997  1.00  0.00     0.004 A 
ATOM     15  C   UNL A   1      31.776  27.880  23.975  1.00  0.00     0.004 A 
ATOM     16  C   UNL A   1      33.025  26.388  25.963  1.00  0.00     0.004 A 
ATOM     17  C   UNL A   1      31.002  27.180  24.894  1.00  0.00     0.004 A 
ENDBRANCH  10  11
ENDBRANCH   9  10
BRANCH   9  18
ATOM     18  C   UNL A   1      31.019  24.368  24.408  1.00  0.00     0.051 C 
BRANCH  18  19
ATOM     19  C   UNL A   1      32.002  23.464  23.718  1.00  0.00    -0.043 A 
ATOM     20  C   UNL A   1      33.227  23.986  23.261  1.00  0.00     0.043 A 
ATOM     21  C   UNL A   1      31.809  22.109  23.660  1.00  0.00     0.019 A 
ATOM     22  C   UNL A   1      34.339  23.165  23.182  1.00  0.00     0.124 A 
ATOM     23  C   UNL A   1      32.944  21.325  23.696  1.00  0.00     0.021 A 
ATOM     24  F   UNL A   1      35.547  23.700  22.967  1.00  0.00    -0.207 F 
ATOM     25  C   UNL A   1      34.220  21.837  23.507  1.00  0.00     0.055 A 
ATOM     26  Br  UNL A   1      32.655  19.658  24.422  1.00  0.00    -0.051 Br
ENDBRANCH  18  19
ENDBRANCH   9  18
ENDBRANCH   7   9
ENDBRANCH   6   7
ENDBRANCH   5   6
ENDBRANCH   4   5
ENDBRANCH   3   4
ENDBRANCH   2   3
ENDBRANCH   1   2
BRANCH   1  27
ATOM     27  O   UNL A   1      39.261  21.700  25.660  1.00  0.00    -0.376 OA
BRANCH  27  28
ATOM     28  C   UNL A   1      39.916  20.564  26.167  1.00  0.00     0.202 C 
BRANCH  28  29
ATOM     29  C   UNL A   1      41.446  20.688  26.165  1.00  0.00     0.261 C 
BRANCH  29  30
ATOM     30  O   UNL A   1      41.877  21.885  25.474  1.00  0.00    -0.460 OA
BRANCH  30  31
ATOM     31  C   UNL A   1      42.659  22.779  26.211  1.00  0.00     0.338 C 
ATOM     32  O   UNL A   1      43.829  22.797  26.196  1.00  0.00    -0.246 OA
BRANCH  31  33
ATOM     33  C   UNL A   1      41.729  23.640  27.060  1.00  0.00     0.060 A 
ATOM     34  C   UNL A   1      40.903  24.671  26.588  1.00  0.00     0.016 A 
ATOM     35  C   UNL A   1      41.995  23.656  28.383  1.00  0.00     0.016 A 
ATOM     36  C   UNL A   1      40.584  25.846  27.407  1.00  0.00     0.010 A 
ATOM     37  C   UNL A   1      41.926  24.913  28.984  1.00  0.00     0.010 A 
ATOM     38  C   UNL A   1      41.202  26.106  28.643  1.00  0.00    -0.014 A 
BRANCH  38  39
ATOM     39  C   UNL A   1      41.178  27.634  29.519  1.00  0.00     0.031 A 
ATOM     40  C   UNL A   1      40.124  29.044  29.517  1.00  0.00     0.074 A 
ATOM     41  C   UNL A   1      42.187  27.882  30.388  1.00  0.00     0.049 A 
ATOM     42  N   UNL A   1      39.870  29.891  30.516  1.00  0.00    -0.248 NA
ATOM     43  C   UNL A   1      39.312  29.562  28.377  1.00  0.00     0.031 C 
ATOM     44  C   UNL A   1      42.179  28.829  31.499  1.00  0.00     0.029 A 
ATOM     45  N   UNL A   1      43.506  27.470  30.314  1.00  0.00    -0.354 N 
ATOM     46  C   UNL A   1      38.922  30.864  30.126  1.00  0.00     0.074 A 
ATOM     47  C   UNL A   1      38.508  30.505  28.824  1.00  0.00     0.031 C 
ATOM     48  C   UNL A   1      43.432  29.189  31.777  1.00  0.00     0.029 A 
ATOM     49  C   UNL A   1      44.284  28.523  30.830  1.00  0.00     0.049 A 
ATOM     50  H   UNL A   1      43.836  26.609  29.968  1.00  0.00     0.167 HD
ATOM     51  C   UNL A   1      38.757  32.167  30.514  1.00  0.00     0.034 A 
ATOM     52  C   UNL A   1      45.347  29.048  30.173  1.00  0.00     0.034 A 
ATOM     53  C   UNL A   1      40.008  32.731  31.022  1.00  0.00     0.049 A 
ATOM     54  C   UNL A   1      45.319  30.580  30.087  1.00  0.00     0.074 A 
ATOM     55  C   UNL A   1      40.675  32.658  32.224  1.00  0.00     0.029 A 
ATOM     56  N   UNL A   1      40.934  33.300  30.143  1.00  0.00    -0.354 N 
ATOM     57  N   UNL A   1      44.453  31.409  30.649  1.00  0.00    -0.248 NA
ATOM     58  C   UNL A   1      46.300  31.290  29.274  1.00  0.00     0.031 C 
ATOM     59  C   UNL A   1      42.054  32.965  31.982  1.00  0.00     0.029 A 
ATOM     60  C   UNL A   1      42.243  33.274  30.637  1.00  0.00     0.049 A 
ATOM     61  H   UNL A   1      40.690  33.681  29.268  1.00  0.00     0.167 HD
ATOM     62  C   UNL A   1      44.539  32.641  29.998  1.00  0.00     0.074 A 
ATOM     63  C   UNL A   1      45.857  32.551  29.381  1.00  0.00     0.031 C 
ATOM     64  C   UNL A   1      43.465  33.516  29.790  1.00  0.00     0.034 A 
BRANCH  51  65
ATOM     65  C   UNL A   1      37.410  32.945  30.276  1.00  0.00     0.023 A 
ATOM     66  C   UNL A   1      36.717  33.449  31.398  1.00  0.00     0.031 A 
ATOM     67  C   UNL A   1      36.673  33.085  29.051  1.00  0.00     0.131 A 
ATOM     68  C   UNL A   1      35.421  34.030  31.284  1.00  0.00     0.055 A 
ATOM     69  C   UNL A   1      35.434  33.746  28.933  1.00  0.00     0.041 A 
ATOM     70  F   UNL A   1      37.054  32.524  27.894  1.00  0.00    -0.206 F 
ATOM     71  C   UNL A   1      34.789  34.209  30.057  1.00  0.00     0.022 A 
BRANCH  68  72
ATOM     72  S   UNL A   1      34.474  34.415  32.788  1.00  0.00     0.124 S 
ATOM     73  O   UNL A   1      35.340  35.381  33.457  1.00  0.00    -0.237 OA
ATOM     74  O   UNL A   1      33.226  34.930  32.239  1.00  0.00    -0.237 OA
ATOM     75  O   UNL A   1      34.367  33.124  33.468  1.00  0.00    -0.744 OA
ENDBRANCH  68  72
ENDBRANCH  51  65
BRANCH  52  76
ATOM     76  C   UNL A   1      45.948  28.010  29.247  1.00  0.00     0.023 A 
ATOM     77  C   UNL A   1      45.666  28.204  27.865  1.00  0.00     0.031 A 
ATOM     78  C   UNL A   1      47.106  27.273  29.553  1.00  0.00     0.131 A 
ATOM     79  C   UNL A   1      46.610  27.869  26.877  1.00  0.00     0.055 A 
ATOM     80  C   UNL A   1      47.992  26.835  28.546  1.00  0.00     0.041 A 
ATOM     81  F   UNL A   1      47.478  27.073  30.824  1.00  0.00    -0.206 F 
ATOM     82  C   UNL A   1      47.770  27.172  27.208  1.00  0.00     0.022 A 
BRANCH  79  83
ATOM     83  S   UNL A   1      46.511  28.705  25.253  1.00  0.00     0.124 S 
ATOM     84  O   UNL A   1      45.326  28.095  24.664  1.00  0.00    -0.237 OA
ATOM     85  O   UNL A   1      46.394  30.115  25.622  1.00  0.00    -0.237 OA
ATOM     86  O   UNL A   1      47.783  28.363  24.619  1.00  0.00    -0.744 OA
ENDBRANCH  79  83
ENDBRANCH  52  76
BRANCH  64  87
ATOM     87  C   UNL A   1      43.507  34.622  28.670  1.00  0.00     0.023 A 
ATOM     88  C   UNL A   1      43.571  36.003  28.948  1.00  0.00     0.031 A 
ATOM     89  C   UNL A   1      43.490  34.362  27.279  1.00  0.00     0.131 A 
ATOM     90  C   UNL A   1      43.392  37.015  27.983  1.00  0.00     0.055 A 
ATOM     91  C   UNL A   1      43.424  35.371  26.288  1.00  0.00     0.041 A 
ATOM     92  F   UNL A   1      43.584  33.119  26.791  1.00  0.00    -0.206 F 
ATOM     93  C   UNL A   1      43.314  36.708  26.638  1.00  0.00     0.022 A 
BRANCH  90  94
ATOM     94  S   UNL A   1      43.112  38.712  28.574  1.00  0.00     0.124 S 
ATOM     95  O   UNL A   1      43.376  38.585  30.006  1.00  0.00    -0.237 OA
ATOM     96  O   UNL A   1      44.100  39.474  27.817  1.00  0.00    -0.237 OA
ATOM     97  O   UNL A   1      41.718  38.974  28.227  1.00  0.00    -0.744 OA
ENDBRANCH  90  94
ENDBRANCH  64  87
ENDBRANCH  38  39
ENDBRANCH  31  33
ENDBRANCH  30  31
ENDBRANCH  29  30
ENDBRANCH  28  29
ENDBRANCH  27  28
ENDBRANCH   1  27
TORSDOF 24
ENDMDL
MODEL 2
REMARK VINA RESULT:     -11.7      2.540      3.532
REMARK SMILES Cc1ccc(C[C@@H](Cc2cc(F)cc(Br)c2)C(=O)OCCOCCOCCOC(=O)c2ccc(-c3c4nc(c(-c5cc(S(=O)(=O)[O-])ccc5F)c5ccc([nH]5)c(-c5cc(S(=O)(=O)[O-])ccc5F)c5nc(c(-c6cc(S(=O)(=O)[O-])ccc6F)c6ccc3[nH]6)C=C5)C=C4)cc2)cc1
REMARK SMILES IDX 24 1 23 2 22 3 21 4 20 5 19 6 17 7 18 8 7 9 6 10 5 11 1 12
REMARK SMILES IDX 2 13 3 14 95 15 4 16 94 17 8 18 9 19 10 20 16 21 11 22 14 23
REMARK SMILES IDX 12 24 13 25 15 26 25 27 26 28 27 29 28 30 29 31 30 32 31 33
REMARK SMILES IDX 32 34 93 35 33 36 92 37 34 38 35 39 36 40 86 41 37 42 91 43
REMARK SMILES IDX 85 44 87 45 38 46 90 47 84 48 83 49 39 51 71 52 51 53 70 54
REMARK SMILES IDX 52 55 55 56 69 57 88 58 53 59 54 60 68 62 89 63 56 64 40 65
REMARK SMILES IDX 41 66 49 67 42 68 48 69 50 70 47 71 43 72 44 73 45 74 46 75
REMARK SMILES IDX 72 76 73 77 81 78 74 79 80 80 82 81 79 82 75 83 76 84 77 85
REMARK SMILES IDX 78 86 57 87 58 88 66 89 59 90 65 91 67 92 64 93 60 94 61 95
REMARK SMILES IDX 62 96 63 97
REMARK H PARENT 87 50 55 61
REMARK Flexibility Score: inf
ROOT
ATOM      1  C   UNL A   1      40.100  22.221  26.522  1.00  0.00     0.188 C 
ENDROOT
BRANCH   1   2
ATOM      2  C   UNL A   1      38.665  21.862  26.161  1.00  0.00     0.188 C 
BRANCH   2   3
ATOM      3  O   UNL A   1      37.651  22.861  25.885  1.00  0.00    -0.376 OA
BRANCH   3   4
ATOM      4  C   UNL A   1      36.311  22.736  25.343  1.00  0.00     0.202 C 
BRANCH   4   5
ATOM      5  C   UNL A   1      35.095  23.824  24.596  1.00  0.00     0.261 C 
BRANCH   5   6
ATOM      6  O   UNL A   1      34.684  25.500  24.716  1.00  0.00    -0.463 OA
BRANCH   6   7
ATOM      7  C   UNL A   1      33.767  26.369  25.391  1.00  0.00     0.309 C 
ATOM      8  O   UNL A   1      33.984  27.060  26.386  1.00  0.00    -0.252 OA
BRANCH   7   9
ATOM      9  C   UNL A   1      32.332  26.509  24.981  1.00  0.00     0.108 C 
BRANCH   9  10
ATOM     10  C   UNL A   1      32.232  27.229  23.655  1.00  0.00     0.051 C 
BRANCH  10  11
ATOM     11  C   UNL A   1      31.006  28.098  23.676  1.00  0.00    -0.047 A 
ATOM     12  C   UNL A   1      27.833  30.931  23.173  1.00  0.00     0.044 C 
ATOM     13  C   UNL A   1      28.934  29.934  23.331  1.00  0.00    -0.051 A 
ATOM     14  C   UNL A   1      30.073  30.296  24.053  1.00  0.00     0.004 A 
ATOM     15  C   UNL A   1      28.849  28.659  22.758  1.00  0.00     0.004 A 
ATOM     16  C   UNL A   1      31.073  29.364  24.274  1.00  0.00     0.004 A 
ATOM     17  C   UNL A   1      29.892  27.751  22.908  1.00  0.00     0.004 A 
ENDBRANCH  10  11
ENDBRANCH   9  10
BRANCH   9  18
ATOM     18  C   UNL A   1      31.374  25.222  25.074  1.00  0.00     0.051 C 
BRANCH  18  19
ATOM     19  C   UNL A   1      31.462  23.939  24.296  1.00  0.00    -0.043 A 
ATOM     20  C   UNL A   1      31.797  23.974  22.929  1.00  0.00     0.043 A 
ATOM     21  C   UNL A   1      31.378  22.719  24.914  1.00  0.00     0.019 A 
ATOM     22  C   UNL A   1      32.446  22.897  22.350  1.00  0.00     0.124 A 
ATOM     23  C   UNL A   1      32.131  21.700  24.367  1.00  0.00     0.021 A 
ATOM     24  F   UNL A   1      32.964  23.014  21.122  1.00  0.00    -0.207 F 
ATOM     25  C   UNL A   1      32.711  21.785  23.109  1.00  0.00     0.055 A 
ATOM     26  Br  UNL A   1      32.635  20.426  25.595  1.00  0.00    -0.051 Br
ENDBRANCH  18  19
ENDBRANCH   9  18
ENDBRANCH   7   9
ENDBRANCH   6   7
ENDBRANCH   5   6
ENDBRANCH   4   5
ENDBRANCH   3   4
ENDBRANCH   2   3
ENDBRANCH   1   2
BRANCH   1  27
ATOM     27  O   UNL A   1      40.506  21.435  27.620  1.00  0.00    -0.376 OA
BRANCH  27  28
ATOM     28  C   UNL A   1      41.234  20.272  27.315  1.00  0.00     0.202 C 
BRANCH  28  29
ATOM     29  C   UNL A   1      41.929  20.327  25.947  1.00  0.00     0.261 C 
BRANCH  29  30
ATOM     30  O   UNL A   1      43.359  20.511  26.089  1.00  0.00    -0.460 OA
BRANCH  30  31
ATOM     31  C   UNL A   1      44.048  20.921  24.944  1.00  0.00     0.338 C 
ATOM     32  O   UNL A   1      44.307  20.219  24.045  1.00  0.00    -0.246 OA
BRANCH  31  33
ATOM     33  C   UNL A   1      44.443  22.384  25.123  1.00  0.00     0.060 A 
ATOM     34  C   UNL A   1      45.528  22.857  25.877  1.00  0.00     0.016 A 
ATOM     35  C   UNL A   1      43.479  23.286  24.846  1.00  0.00     0.016 A 
ATOM     36  C   UNL A   1      45.489  24.153  26.563  1.00  0.00     0.010 A 
ATOM     37  C   UNL A   1      43.373  24.336  25.759  1.00  0.00     0.010 A 
ATOM     38  C   UNL A   1      44.323  24.934  26.655  1.00  0.00    -0.014 A 
BRANCH  38  39
ATOM     39  C   UNL A   1      44.064  26.294  27.744  1.00  0.00     0.031 A 
ATOM     40  C   UNL A   1      42.681  27.303  28.154  1.00  0.00     0.074 A 
ATOM     41  C   UNL A   1      45.128  26.761  28.438  1.00  0.00     0.049 A 
ATOM     42  N   UNL A   1      42.427  27.937  29.300  1.00  0.00    -0.248 NA
ATOM     43  C   UNL A   1      41.523  27.647  27.278  1.00  0.00     0.031 C 
ATOM     44  C   UNL A   1      45.101  27.555  29.663  1.00  0.00     0.029 A 
ATOM     45  N   UNL A   1      46.459  26.786  28.058  1.00  0.00    -0.354 N 
ATOM     46  C   UNL A   1      41.181  28.601  29.248  1.00  0.00     0.074 A 
ATOM     47  C   UNL A   1      40.605  28.250  28.005  1.00  0.00     0.031 C 
ATOM     48  C   UNL A   1      46.230  28.258  29.756  1.00  0.00     0.029 A 
ATOM     49  C   UNL A   1      47.002  27.976  28.576  1.00  0.00     0.049 A 
ATOM     50  H   UNL A   1      46.933  26.104  27.529  1.00  0.00     0.167 HD
ATOM     51  C   UNL A   1      40.745  29.748  29.854  1.00  0.00     0.034 A 
ATOM     52  C   UNL A   1      47.698  28.861  27.822  1.00  0.00     0.034 A 
ATOM     53  C   UNL A   1      41.865  30.622  30.202  1.00  0.00     0.049 A 
ATOM     54  C   UNL A   1      47.219  30.310  27.978  1.00  0.00     0.074 A 
ATOM     55  C   UNL A   1      42.776  30.650  31.234  1.00  0.00     0.029 A 
ATOM     56  N   UNL A   1      42.371  31.527  29.263  1.00  0.00    -0.354 N 
ATOM     57  N   UNL A   1      46.302  30.777  28.811  1.00  0.00    -0.248 NA
ATOM     58  C   UNL A   1      47.752  31.360  27.116  1.00  0.00     0.031 C 
ATOM     59  C   UNL A   1      43.922  31.389  30.789  1.00  0.00     0.029 A 
ATOM     60  C   UNL A   1      43.710  31.861  29.496  1.00  0.00     0.049 A 
ATOM     61  H   UNL A   1      41.842  31.891  28.518  1.00  0.00     0.167 HD
ATOM     62  C   UNL A   1      45.888  32.029  28.353  1.00  0.00     0.074 A 
ATOM     63  C   UNL A   1      47.006  32.408  27.496  1.00  0.00     0.031 C 
ATOM     64  C   UNL A   1      44.593  32.545  28.484  1.00  0.00     0.034 A 
BRANCH  51  65
ATOM     65  C   UNL A   1      39.215  30.090  29.993  1.00  0.00     0.023 A 
ATOM     66  C   UNL A   1      38.814  31.439  29.892  1.00  0.00     0.031 A 
ATOM     67  C   UNL A   1      38.144  29.214  30.381  1.00  0.00     0.131 A 
ATOM     68  C   UNL A   1      37.475  31.849  30.155  1.00  0.00     0.055 A 
ATOM     69  C   UNL A   1      36.802  29.612  30.546  1.00  0.00     0.041 A 
ATOM     70  F   UNL A   1      38.327  27.926  30.707  1.00  0.00    -0.206 F 
ATOM     71  C   UNL A   1      36.461  30.942  30.451  1.00  0.00     0.022 A 
BRANCH  68  72
ATOM     72  S   UNL A   1      37.085  33.622  30.269  1.00  0.00     0.124 S 
ATOM     73  O   UNL A   1      36.102  33.652  31.348  1.00  0.00    -0.237 OA
ATOM     74  O   UNL A   1      38.390  34.203  30.560  1.00  0.00    -0.237 OA
ATOM     75  O   UNL A   1      36.544  33.942  28.948  1.00  0.00    -0.744 OA
ENDBRANCH  68  72
ENDBRANCH  51  65
BRANCH  52  76
ATOM     76  C   UNL A   1      48.346  28.147  26.652  1.00  0.00     0.023 A 
ATOM     77  C   UNL A   1      49.577  27.499  26.953  1.00  0.00     0.031 A 
ATOM     78  C   UNL A   1      47.627  27.648  25.552  1.00  0.00     0.131 A 
ATOM     79  C   UNL A   1      49.935  26.293  26.323  1.00  0.00     0.055 A 
ATOM     80  C   UNL A   1      48.055  26.503  24.846  1.00  0.00     0.041 A 
ATOM     81  F   UNL A   1      46.438  28.164  25.216  1.00  0.00    -0.206 F 
ATOM     82  C   UNL A   1      49.187  25.795  25.259  1.00  0.00     0.022 A 
BRANCH  79  83
ATOM     83  S   UNL A   1      51.124  25.185  27.165  1.00  0.00     0.124 S 
ATOM     84  O   UNL A   1      51.826  24.576  26.042  1.00  0.00    -0.237 OA
ATOM     85  O   UNL A   1      51.903  26.111  27.985  1.00  0.00    -0.237 OA
ATOM     86  O   UNL A   1      50.263  24.291  27.936  1.00  0.00    -0.744 OA
ENDBRANCH  79  83
ENDBRANCH  52  76
BRANCH  64  87
ATOM     87  C   UNL A   1      44.069  33.707  27.560  1.00  0.00     0.023 A 
ATOM     88  C   UNL A   1      43.727  34.986  28.043  1.00  0.00     0.031 A 
ATOM     89  C   UNL A   1      43.889  33.603  26.159  1.00  0.00     0.131 A 
ATOM     90  C   UNL A   1      43.056  35.966  27.283  1.00  0.00     0.055 A 
ATOM     91  C   UNL A   1      43.321  34.623  25.359  1.00  0.00     0.041 A 
ATOM     92  F   UNL A   1      44.297  32.529  25.472  1.00  0.00    -0.206 F 
ATOM     93  C   UNL A   1      42.844  35.794  25.929  1.00  0.00     0.022 A 
BRANCH  90  94
ATOM     94  S   UNL A   1      42.346  37.388  28.169  1.00  0.00     0.124 S 
ATOM     95  O   UNL A   1      41.427  36.740  29.102  1.00  0.00    -0.237 OA
ATOM     96  O   UNL A   1      43.526  38.001  28.771  1.00  0.00    -0.237 OA
ATOM     97  O   UNL A   1      41.705  38.168  27.114  1.00  0.00    -0.744 OA
ENDBRANCH  90  94
ENDBRANCH  64  87
ENDBRANCH  38  39
ENDBRANCH  31  33
ENDBRANCH  30  31
ENDBRANCH  29  30
ENDBRANCH  28  29
ENDBRANCH  27  28
ENDBRANCH   1  27
TORSDOF 24
ENDMDL
MODEL 3
REMARK VINA RESULT:     -11.5      2.523      4.178
REMARK SMILES Cc1ccc(C[C@@H](Cc2cc(F)cc(Br)c2)C(=O)OCCOCCOCCOC(=O)c2ccc(-c3c4nc(c(-c5cc(S(=O)(=O)[O-])ccc5F)c5ccc([nH]5)c(-c5cc(S(=O)(=O)[O-])ccc5F)c5nc(c(-c6cc(S(=O)(=O)[O-])ccc6F)c6ccc3[nH]6)C=C5)C=C4)cc2)cc1
REMARK SMILES IDX 24 1 23 2 22 3 21 4 20 5 19 6 17 7 18 8 7 9 6 10 5 11 1 12
REMARK SMILES IDX 2 13 3 14 95 15 4 16 94 17 8 18 9 19 10 20 16 21 11 22 14 23
REMARK SMILES IDX 12 24 13 25 15 26 25 27 26 28 27 29 28 30 29 31 30 32 31 33
REMARK SMILES IDX 32 34 93 35 33 36 92 37 34 38 35 39 36 40 86 41 37 42 91 43
REMARK SMILES IDX 85 44 87 45 38 46 90 47 84 48 83 49 39 51 71 52 51 53 70 54
REMARK SMILES IDX 52 55 55 56 69 57 88 58 53 59 54 60 68 62 89 63 56 64 40 65
REMARK SMILES IDX 41 66 49 67 42 68 48 69 50 70 47 71 43 72 44 73 45 74 46 75
REMARK SMILES IDX 72 76 73 77 81 78 74 79 80 80 82 81 79 82 75 83 76 84 77 85
REMARK SMILES IDX 78 86 57 87 58 88 66 89 59 90 65 91 67 92 64 93 60 94 61 95
REMARK SMILES IDX 62 96 63 97
REMARK H PARENT 87 50 55 61
REMARK Flexibility Score: inf
ROOT
ATOM      1  C   UNL A   1      44.457  20.498  25.041  1.00  0.00     0.188 C 
ENDROOT
BRANCH   1   2
ATOM      2  C   UNL A   1      43.323  20.794  26.014  1.00  0.00     0.188 C 
BRANCH   2   3
ATOM      3  O   UNL A   1      42.076  20.053  26.017  1.00  0.00    -0.376 OA
BRANCH   3   4
ATOM      4  C   UNL A   1      40.741  20.433  26.437  1.00  0.00     0.202 C 
BRANCH   4   5
ATOM      5  C   UNL A   1      39.704  21.894  26.335  1.00  0.00     0.261 C 
BRANCH   5   6
ATOM      6  O   UNL A   1      38.023  22.213  26.083  1.00  0.00    -0.463 OA
BRANCH   6   7
ATOM      7  C   UNL A   1      36.993  22.014  25.108  1.00  0.00     0.309 C 
ATOM      8  O   UNL A   1      37.097  21.475  24.007  1.00  0.00    -0.252 OA
BRANCH   7   9
ATOM      9  C   UNL A   1      35.593  22.517  25.294  1.00  0.00     0.108 C 
BRANCH   9  10
ATOM     10  C   UNL A   1      34.818  21.590  26.204  1.00  0.00     0.051 C 
BRANCH  10  11
ATOM     11  C   UNL A   1      34.014  20.648  25.352  1.00  0.00    -0.047 A 
ATOM     12  C   UNL A   1      32.145  18.209  22.368  1.00  0.00     0.044 C 
ATOM     13  C   UNL A   1      32.814  19.048  23.407  1.00  0.00    -0.051 A 
ATOM     14  C   UNL A   1      32.431  20.384  23.545  1.00  0.00     0.004 A 
ATOM     15  C   UNL A   1      33.821  18.525  24.228  1.00  0.00     0.004 A 
ATOM     16  C   UNL A   1      32.984  21.159  24.550  1.00  0.00     0.004 A 
ATOM     17  C   UNL A   1      34.438  19.328  25.182  1.00  0.00     0.004 A 
ENDBRANCH  10  11
ENDBRANCH   9  10
BRANCH   9  18
ATOM     18  C   UNL A   1      35.371  24.071  25.638  1.00  0.00     0.051 C 
BRANCH  18  19
ATOM     19  C   UNL A   1      34.279  24.984  25.155  1.00  0.00    -0.043 A 
ATOM     20  C   UNL A   1      34.114  26.249  25.748  1.00  0.00     0.043 A 
ATOM     21  C   UNL A   1      33.535  24.683  24.044  1.00  0.00     0.019 A 
ATOM     22  C   UNL A   1      33.582  27.293  25.010  1.00  0.00     0.124 A 
ATOM     23  C   UNL A   1      33.120  25.752  23.276  1.00  0.00     0.021 A 
ATOM     24  F   UNL A   1      33.632  28.541  25.491  1.00  0.00    -0.207 F 
ATOM     25  C   UNL A   1      33.177  27.066  23.718  1.00  0.00     0.055 A 
ATOM     26  Br  UNL A   1      32.888  25.326  21.500  1.00  0.00    -0.051 Br
ENDBRANCH  18  19
ENDBRANCH   9  18
ENDBRANCH   7   9
ENDBRANCH   6   7
ENDBRANCH   5   6
ENDBRANCH   4   5
ENDBRANCH   3   4
ENDBRANCH   2   3
ENDBRANCH   1   2
BRANCH   1  27
ATOM     27  O   UNL A   1      45.528  21.376  25.308  1.00  0.00    -0.376 OA
BRANCH  27  28
ATOM     28  C   UNL A   1      45.269  22.409  26.226  1.00  0.00     0.202 C 
BRANCH  28  29
ATOM     29  C   UNL A   1      45.081  23.782  25.565  1.00  0.00     0.261 C 
BRANCH  29  30
ATOM     30  O   UNL A   1      44.045  24.548  26.226  1.00  0.00    -0.460 OA
BRANCH  30  31
ATOM     31  C   UNL A   1      42.732  24.298  25.818  1.00  0.00     0.338 C 
ATOM     32  O   UNL A   1      42.441  23.587  24.936  1.00  0.00    -0.246 OA
BRANCH  31  33
ATOM     33  C   UNL A   1      41.797  25.156  26.665  1.00  0.00     0.060 A 
ATOM     34  C   UNL A   1      41.118  26.305  26.234  1.00  0.00     0.016 A 
ATOM     35  C   UNL A   1      41.924  25.012  28.000  1.00  0.00     0.016 A 
ATOM     36  C   UNL A   1      40.819  27.416  27.144  1.00  0.00     0.010 A 
ATOM     37  C   UNL A   1      41.903  26.202  28.728  1.00  0.00     0.010 A 
ATOM     38  C   UNL A   1      41.326  27.488  28.454  1.00  0.00    -0.014 A 
BRANCH  38  39
ATOM     39  C   UNL A   1      41.344  28.916  29.487  1.00  0.00     0.031 A 
ATOM     40  C   UNL A   1      40.186  30.187  29.859  1.00  0.00     0.074 A 
ATOM     41  C   UNL A   1      42.486  29.197  30.157  1.00  0.00     0.049 A 
ATOM     42  N   UNL A   1      40.071  30.903  30.979  1.00  0.00    -0.248 NA
ATOM     43  C   UNL A   1      39.104  30.711  28.974  1.00  0.00     0.031 C 
ATOM     44  C   UNL A   1      42.626  30.030  31.347  1.00  0.00     0.029 A 
ATOM     45  N   UNL A   1      43.793  28.951  29.771  1.00  0.00    -0.354 N 
ATOM     46  C   UNL A   1      38.974  31.791  30.904  1.00  0.00     0.074 A 
ATOM     47  C   UNL A   1      38.328  31.508  29.679  1.00  0.00     0.031 C 
ATOM     48  C   UNL A   1      43.870  30.506  31.407  1.00  0.00     0.029 A 
ATOM     49  C   UNL A   1      44.559  30.035  30.237  1.00  0.00     0.049 A 
ATOM     50  H   UNL A   1      44.121  28.170  29.269  1.00  0.00     0.167 HD
ATOM     51  C   UNL A   1      38.773  33.024  31.463  1.00  0.00     0.034 A 
ATOM     52  C   UNL A   1      45.404  30.739  29.445  1.00  0.00     0.034 A 
ATOM     53  C   UNL A   1      40.044  33.680  31.771  1.00  0.00     0.049 A 
ATOM     54  C   UNL A   1      45.213  32.258  29.542  1.00  0.00     0.074 A 
ATOM     55  C   UNL A   1      40.955  33.573  32.797  1.00  0.00     0.029 A 
ATOM     56  N   UNL A   1      40.703  34.432  30.794  1.00  0.00    -0.354 N 
ATOM     57  N   UNL A   1      44.412  32.925  30.359  1.00  0.00    -0.248 NA
ATOM     58  C   UNL A   1      45.927  33.150  28.636  1.00  0.00     0.031 C 
ATOM     59  C   UNL A   1      42.216  34.060  32.318  1.00  0.00     0.029 A 
ATOM     60  C   UNL A   1      42.084  34.513  31.008  1.00  0.00     0.049 A 
ATOM     61  H   UNL A   1      40.244  34.861  30.036  1.00  0.00     0.167 HD
ATOM     62  C   UNL A   1      44.241  34.214  29.850  1.00  0.00     0.074 A 
ATOM     63  C   UNL A   1      45.400  34.336  28.974  1.00  0.00     0.031 C 
ATOM     64  C   UNL A   1      43.070  34.974  29.965  1.00  0.00     0.034 A 
BRANCH  51  65
ATOM     65  C   UNL A   1      37.338  33.658  31.594  1.00  0.00     0.023 A 
ATOM     66  C   UNL A   1      36.437  33.511  30.518  1.00  0.00     0.031 A 
ATOM     67  C   UNL A   1      36.848  34.534  32.622  1.00  0.00     0.131 A 
ATOM     68  C   UNL A   1      35.178  34.179  30.493  1.00  0.00     0.055 A 
ATOM     69  C   UNL A   1      35.564  35.115  32.634  1.00  0.00     0.041 A 
ATOM     70  F   UNL A   1      37.599  34.958  33.649  1.00  0.00    -0.206 F 
ATOM     71  C   UNL A   1      34.724  34.955  31.556  1.00  0.00     0.022 A 
BRANCH  68  72
ATOM     72  S   UNL A   1      34.183  34.163  28.970  1.00  0.00     0.124 S 
ATOM     73  O   UNL A   1      32.876  34.597  29.453  1.00  0.00    -0.237 OA
ATOM     74  O   UNL A   1      34.910  35.101  28.123  1.00  0.00    -0.237 OA
ATOM     75  O   UNL A   1      34.237  32.766  28.538  1.00  0.00    -0.744 OA
ENDBRANCH  68  72
ENDBRANCH  51  65
BRANCH  52  76
ATOM     76  C   UNL A   1      45.889  29.868  28.303  1.00  0.00     0.023 A 
ATOM     77  C   UNL A   1      46.821  28.857  28.675  1.00  0.00     0.031 A 
ATOM     78  C   UNL A   1      45.146  29.636  27.132  1.00  0.00     0.131 A 
ATOM     79  C   UNL A   1      46.831  27.606  28.030  1.00  0.00     0.055 A 
ATOM     80  C   UNL A   1      45.247  28.421  26.420  1.00  0.00     0.041 A 
ATOM     81  F   UNL A   1      44.215  30.507  26.724  1.00  0.00    -0.206 F 
ATOM     82  C   UNL A   1      46.057  27.385  26.893  1.00  0.00     0.022 A 
BRANCH  79  83
ATOM     83  S   UNL A   1      47.530  26.169  28.920  1.00  0.00     0.124 S 
ATOM     84  O   UNL A   1      47.274  25.076  27.989  1.00  0.00    -0.237 OA
ATOM     85  O   UNL A   1      48.931  26.549  29.097  1.00  0.00    -0.237 OA
ATOM     86  O   UNL A   1      46.763  26.137  30.163  1.00  0.00    -0.744 OA
ENDBRANCH  79  83
ENDBRANCH  52  76
BRANCH  64  87
ATOM     87  C   UNL A   1      42.767  36.176  28.995  1.00  0.00     0.023 A 
ATOM     88  C   UNL A   1      43.022  37.522  29.328  1.00  0.00     0.031 A 
ATOM     89  C   UNL A   1      42.219  36.046  27.697  1.00  0.00     0.131 A 
ATOM     90  C   UNL A   1      42.566  38.624  28.576  1.00  0.00     0.055 A 
ATOM     91  C   UNL A   1      41.858  37.144  26.878  1.00  0.00     0.041 A 
ATOM     92  F   UNL A   1      42.043  34.850  27.120  1.00  0.00    -0.206 F 
ATOM     93  C   UNL A   1      41.975  38.446  27.340  1.00  0.00     0.022 A 
BRANCH  90  94
ATOM     94  S   UNL A   1      42.639  40.269  29.351  1.00  0.00     0.124 S 
ATOM     95  O   UNL A   1      43.105  39.951  30.700  1.00  0.00    -0.237 OA
ATOM     96  O   UNL A   1      43.596  40.972  28.503  1.00  0.00    -0.237 OA
ATOM     97  O   UNL A   1      41.262  40.749  29.274  1.00  0.00    -0.744 OA
ENDBRANCH  90  94
ENDBRANCH  64  87
ENDBRANCH  38  39
ENDBRANCH  31  33
ENDBRANCH  30  31
ENDBRANCH  29  30
ENDBRANCH  28  29
ENDBRANCH  27  28
ENDBRANCH   1  27
TORSDOF 24
ENDMDL
