MODEL 1
REMARK VINA RESULT:     -10.1      0.000      0.000
REMARK SMILES CCC[C@@H](C(=O)N1CC[C@@](C)(C(=O)OCCOCCOCCOC(=O)c2ccc(-c3c4nc(c(-c5cc(S(=O)(=O)[O-])ccc5F)c5ccc([nH]5)c(-c5cc(S(=O)(=O)[O-])ccc5F)c5nc(c(-c6cc(S(=O)(=O)[O-])ccc6F)c6ccc3[nH]6)C=C5)C=C4)cc2)C1)c1ccccc1
REMARK SMILES IDX 18 1 17 2 16 3 15 4 14 5 12 6 13 7 10 8 7 9 8 10 89 11 9 12
REMARK SMILES IDX 11 13 5 14 6 15 4 16 3 17 2 18 1 19 90 20 91 21 95 22 92 23
REMARK SMILES IDX 94 24 93 25 19 26 20 27 21 28 22 29 23 30 24 31 25 32 26 33
REMARK SMILES IDX 27 34 88 35 28 36 87 37 29 38 30 39 31 40 81 41 32 42 86 43
REMARK SMILES IDX 80 44 82 45 33 46 85 47 79 48 78 49 34 51 66 52 46 53 65 54
REMARK SMILES IDX 47 55 50 56 64 57 83 58 48 59 49 60 63 62 84 63 51 64 35 65
REMARK SMILES IDX 36 66 44 67 37 68 43 69 45 70 42 71 38 72 39 73 40 74 41 75
REMARK SMILES IDX 67 76 68 77 76 78 69 79 75 80 77 81 74 82 70 83 71 84 72 85
REMARK SMILES IDX 73 86 52 87 53 88 61 89 54 90 60 91 62 92 59 93 55 94 56 95
REMARK SMILES IDX 57 96 58 97
REMARK H PARENT 82 50 50 61
REMARK Flexibility Score: inf
ROOT
ATOM      1  C   UNL A   1      36.729  21.825  24.516  1.00  0.00     0.188 C 
ENDROOT
BRANCH   1   2
ATOM      2  O   UNL A   1      35.542  21.080  24.757  1.00  0.00    -0.376 OA
BRANCH   2   3
ATOM      3  C   UNL A   1      34.789  21.311  25.940  1.00  0.00     0.202 C 
BRANCH   3   4
ATOM      4  C   UNL A   1      33.810  22.495  25.993  1.00  0.00     0.261 C 
BRANCH   4   5
ATOM      5  O   UNL A   1      32.446  22.222  25.591  1.00  0.00    -0.463 OA
BRANCH   5   6
ATOM      6  C   UNL A   1      32.296  21.542  24.427  1.00  0.00     0.313 C 
ATOM      7  O   UNL A   1      32.170  20.321  24.368  1.00  0.00    -0.252 OA
BRANCH   6   8
ATOM      8  C   UNL A   1      32.332  22.395  23.152  1.00  0.00     0.084 C 
ATOM      9  N   UNL A   1      31.976  24.772  22.916  1.00  0.00    -0.341 N 
ATOM     10  C   UNL A   1      33.392  24.571  22.674  1.00  0.00     0.120 C 
ATOM     11  C   UNL A   1      31.367  23.569  23.399  1.00  0.00     0.138 C 
ATOM     12  C   UNL A   1      33.640  23.061  22.682  1.00  0.00     0.042 C 
ATOM     13  C   UNL A   1      31.815  21.478  22.033  1.00  0.00     0.026 C 
BRANCH   9  14
ATOM     14  C   UNL A   1      31.401  26.009  22.691  1.00  0.00     0.230 C 
ATOM     15  O   UNL A   1      31.251  26.333  21.502  1.00  0.00    -0.274 OA
BRANCH  14  16
ATOM     16  C   UNL A   1      31.117  27.072  23.832  1.00  0.00     0.108 C 
BRANCH  16  17
ATOM     17  C   UNL A   1      30.790  26.678  25.301  1.00  0.00     0.018 C 
BRANCH  17  18
ATOM     18  C   UNL A   1      31.723  26.973  26.487  1.00  0.00    -0.002 C 
ATOM     19  C   UNL A   1      31.577  28.307  27.183  1.00  0.00     0.004 C 
ENDBRANCH  17  18
ENDBRANCH  16  17
BRANCH  16  20
ATOM     20  C   UNL A   1      29.998  28.038  23.322  1.00  0.00    -0.036 A 
ATOM     21  C   UNL A   1      28.629  27.714  23.380  1.00  0.00     0.004 A 
ATOM     22  C   UNL A   1      30.350  29.266  22.728  1.00  0.00     0.004 A 
ATOM     23  C   UNL A   1      27.655  28.585  22.884  1.00  0.00     0.000 A 
ATOM     24  C   UNL A   1      29.375  30.125  22.209  1.00  0.00     0.000 A 
ATOM     25  C   UNL A   1      28.027  29.786  22.290  1.00  0.00     0.000 A 
ENDBRANCH  16  20
ENDBRANCH  14  16
ENDBRANCH   9  14
ENDBRANCH   6   8
ENDBRANCH   5   6
ENDBRANCH   4   5
ENDBRANCH   3   4
ENDBRANCH   2   3
ENDBRANCH   1   2
BRANCH   1  26
ATOM     26  C   UNL A   1      37.559  22.309  25.712  1.00  0.00     0.188 C 
BRANCH  26  27
ATOM     27  O   UNL A   1      38.632  21.469  26.062  1.00  0.00    -0.376 OA
BRANCH  27  28
ATOM     28  C   UNL A   1      38.819  20.261  25.352  1.00  0.00     0.202 C 
BRANCH  28  29
ATOM     29  C   UNL A   1      39.834  19.200  25.814  1.00  0.00     0.261 C 
BRANCH  29  30
ATOM     30  O   UNL A   1      40.760  19.561  26.848  1.00  0.00    -0.460 OA
BRANCH  30  31
ATOM     31  C   UNL A   1      41.979  20.003  26.459  1.00  0.00     0.338 C 
ATOM     32  O   UNL A   1      42.790  19.384  25.783  1.00  0.00    -0.246 OA
BRANCH  31  33
ATOM     33  C   UNL A   1      42.071  21.443  26.793  1.00  0.00     0.060 A 
ATOM     34  C   UNL A   1      41.866  22.394  25.784  1.00  0.00     0.016 A 
ATOM     35  C   UNL A   1      42.351  21.854  28.098  1.00  0.00     0.016 A 
ATOM     36  C   UNL A   1      41.963  23.756  26.078  1.00  0.00     0.010 A 
ATOM     37  C   UNL A   1      42.472  23.220  28.383  1.00  0.00     0.010 A 
ATOM     38  C   UNL A   1      42.299  24.179  27.371  1.00  0.00    -0.014 A 
BRANCH  38  39
ATOM     39  C   UNL A   1      42.640  25.607  27.611  1.00  0.00     0.031 A 
ATOM     40  C   UNL A   1      43.956  26.123  27.112  1.00  0.00     0.074 A 
ATOM     41  C   UNL A   1      41.792  26.441  28.239  1.00  0.00     0.049 A 
ATOM     42  N   UNL A   1      44.494  27.304  27.262  1.00  0.00    -0.248 NA
ATOM     43  C   UNL A   1      44.784  25.166  26.366  1.00  0.00     0.031 C 
ATOM     44  C   UNL A   1      40.487  26.054  28.756  1.00  0.00     0.029 A 
ATOM     45  N   UNL A   1      41.890  27.778  28.542  1.00  0.00    -0.354 N 
ATOM     46  C   UNL A   1      45.745  27.225  26.663  1.00  0.00     0.074 A 
ATOM     47  C   UNL A   1      45.882  25.875  26.157  1.00  0.00     0.031 C 
ATOM     48  C   UNL A   1      39.885  27.138  29.275  1.00  0.00     0.029 A 
ATOM     49  C   UNL A   1      40.788  28.282  29.195  1.00  0.00     0.049 A 
ATOM     50  H   UNL A   1      42.676  28.324  28.313  1.00  0.00     0.167 HD
ATOM     51  C   UNL A   1      46.696  28.187  26.565  1.00  0.00     0.034 A 
ATOM     52  C   UNL A   1      40.544  29.510  29.704  1.00  0.00     0.034 A 
ATOM     53  C   UNL A   1      46.543  29.522  27.092  1.00  0.00     0.049 A 
ATOM     54  C   UNL A   1      41.631  30.554  29.614  1.00  0.00     0.074 A 
ATOM     55  C   UNL A   1      47.441  30.574  27.042  1.00  0.00     0.029 A 
ATOM     56  N   UNL A   1      45.428  29.989  27.781  1.00  0.00    -0.354 N 
ATOM     57  N   UNL A   1      42.821  30.463  29.064  1.00  0.00    -0.248 NA
ATOM     58  C   UNL A   1      41.357  31.855  30.238  1.00  0.00     0.031 C 
ATOM     59  C   UNL A   1      46.911  31.640  27.776  1.00  0.00     0.029 A 
ATOM     60  C   UNL A   1      45.636  31.296  28.197  1.00  0.00     0.049 A 
ATOM     61  H   UNL A   1      44.610  29.468  27.948  1.00  0.00     0.167 HD
ATOM     62  C   UNL A   1      43.433  31.697  29.270  1.00  0.00     0.074 A 
ATOM     63  C   UNL A   1      42.470  32.524  29.971  1.00  0.00     0.031 C 
ATOM     64  C   UNL A   1      44.679  32.108  28.917  1.00  0.00     0.034 A 
BRANCH  51  65
ATOM     65  C   UNL A   1      48.015  27.785  25.950  1.00  0.00     0.023 A 
ATOM     66  C   UNL A   1      48.271  27.917  24.575  1.00  0.00     0.031 A 
ATOM     67  C   UNL A   1      49.009  27.190  26.749  1.00  0.00     0.131 A 
ATOM     68  C   UNL A   1      49.445  27.377  24.027  1.00  0.00     0.055 A 
ATOM     69  C   UNL A   1      50.216  26.743  26.213  1.00  0.00     0.041 A 
ATOM     70  F   UNL A   1      48.810  27.008  28.065  1.00  0.00    -0.206 F 
ATOM     71  C   UNL A   1      50.432  26.816  24.841  1.00  0.00     0.022 A 
BRANCH  68  72
ATOM     72  S   UNL A   1      49.578  27.248  22.223  1.00  0.00     0.124 S 
ATOM     73  O   UNL A   1      51.013  27.039  22.048  1.00  0.00    -0.237 OA
ATOM     74  O   UNL A   1      48.724  26.105  21.925  1.00  0.00    -0.237 OA
ATOM     75  O   UNL A   1      49.083  28.540  21.749  1.00  0.00    -0.744 OA
ENDBRANCH  68  72
ENDBRANCH  51  65
BRANCH  52  76
ATOM     76  C   UNL A   1      39.260  29.801  30.415  1.00  0.00     0.023 A 
ATOM     77  C   UNL A   1      38.249  30.585  29.828  1.00  0.00     0.031 A 
ATOM     78  C   UNL A   1      39.041  29.331  31.724  1.00  0.00     0.131 A 
ATOM     79  C   UNL A   1      37.088  30.895  30.557  1.00  0.00     0.055 A 
ATOM     80  C   UNL A   1      37.858  29.586  32.418  1.00  0.00     0.041 A 
ATOM     81  F   UNL A   1      39.976  28.596  32.345  1.00  0.00    -0.206 F 
ATOM     82  C   UNL A   1      36.876  30.381  31.839  1.00  0.00     0.022 A 
BRANCH  79  83
ATOM     83  S   UNL A   1      35.884  32.053  29.846  1.00  0.00     0.124 S 
ATOM     84  O   UNL A   1      35.537  31.389  28.595  1.00  0.00    -0.237 OA
ATOM     85  O   UNL A   1      34.845  32.080  30.869  1.00  0.00    -0.237 OA
ATOM     86  O   UNL A   1      36.647  33.293  29.703  1.00  0.00    -0.744 OA
ENDBRANCH  79  83
ENDBRANCH  52  76
BRANCH  64  87
ATOM     87  C   UNL A   1      45.059  33.532  29.252  1.00  0.00     0.023 A 
ATOM     88  C   UNL A   1      44.930  34.578  28.321  1.00  0.00     0.031 A 
ATOM     89  C   UNL A   1      45.560  33.845  30.529  1.00  0.00     0.131 A 
ATOM     90  C   UNL A   1      45.348  35.875  28.662  1.00  0.00     0.055 A 
ATOM     91  C   UNL A   1      45.911  35.148  30.884  1.00  0.00     0.041 A 
ATOM     92  F   UNL A   1      45.713  32.887  31.458  1.00  0.00    -0.206 F 
ATOM     93  C   UNL A   1      45.817  36.170  29.945  1.00  0.00     0.022 A 
BRANCH  90  94
ATOM     94  S   UNL A   1      45.367  37.154  27.376  1.00  0.00     0.124 S 
ATOM     95  O   UNL A   1      43.949  37.289  27.061  1.00  0.00    -0.237 OA
ATOM     96  O   UNL A   1      45.979  38.284  28.067  1.00  0.00    -0.237 OA
ATOM     97  O   UNL A   1      46.183  36.562  26.317  1.00  0.00    -0.744 OA
ENDBRANCH  90  94
ENDBRANCH  64  87
ENDBRANCH  38  39
ENDBRANCH  31  33
ENDBRANCH  30  31
ENDBRANCH  29  30
ENDBRANCH  28  29
ENDBRANCH  27  28
ENDBRANCH  26  27
ENDBRANCH   1  26
TORSDOF 25
ENDMDL
MODEL 2
REMARK VINA RESULT:     -10.0      1.842      2.148
REMARK SMILES CCC[C@@H](C(=O)N1CC[C@@](C)(C(=O)OCCOCCOCCOC(=O)c2ccc(-c3c4nc(c(-c5cc(S(=O)(=O)[O-])ccc5F)c5ccc([nH]5)c(-c5cc(S(=O)(=O)[O-])ccc5F)c5nc(c(-c6cc(S(=O)(=O)[O-])ccc6F)c6ccc3[nH]6)C=C5)C=C4)cc2)C1)c1ccccc1
REMARK SMILES IDX 18 1 17 2 16 3 15 4 14 5 12 6 13 7 10 8 7 9 8 10 89 11 9 12
REMARK SMILES IDX 11 13 5 14 6 15 4 16 3 17 2 18 1 19 90 20 91 21 95 22 92 23
REMARK SMILES IDX 94 24 93 25 19 26 20 27 21 28 22 29 23 30 24 31 25 32 26 33
REMARK SMILES IDX 27 34 88 35 28 36 87 37 29 38 30 39 31 40 81 41 32 42 86 43
REMARK SMILES IDX 80 44 82 45 33 46 85 47 79 48 78 49 34 51 66 52 46 53 65 54
REMARK SMILES IDX 47 55 50 56 64 57 83 58 48 59 49 60 63 62 84 63 51 64 35 65
REMARK SMILES IDX 36 66 44 67 37 68 43 69 45 70 42 71 38 72 39 73 40 74 41 75
REMARK SMILES IDX 67 76 68 77 76 78 69 79 75 80 77 81 74 82 70 83 71 84 72 85
REMARK SMILES IDX 73 86 52 87 53 88 61 89 54 90 60 91 62 92 59 93 55 94 56 95
REMARK SMILES IDX 57 96 58 97
REMARK H PARENT 82 50 50 61
REMARK Flexibility Score: inf
ROOT
ATOM      1  C   UNL A   1      36.982  21.347  24.710  1.00  0.00     0.188 C 
ENDROOT
BRANCH   1   2
ATOM      2  O   UNL A   1      35.661  20.944  25.050  1.00  0.00    -0.376 OA
BRANCH   2   3
ATOM      3  C   UNL A   1      35.046  21.454  26.226  1.00  0.00     0.202 C 
BRANCH   3   4
ATOM      4  C   UNL A   1      34.029  22.602  26.112  1.00  0.00     0.261 C 
BRANCH   4   5
ATOM      5  O   UNL A   1      32.657  22.223  25.845  1.00  0.00    -0.463 OA
BRANCH   5   6
ATOM      6  C   UNL A   1      32.436  21.584  24.669  1.00  0.00     0.313 C 
ATOM      7  O   UNL A   1      32.237  20.374  24.582  1.00  0.00    -0.252 OA
BRANCH   6   8
ATOM      8  C   UNL A   1      32.489  22.468  23.416  1.00  0.00     0.084 C 
ATOM      9  N   UNL A   1      32.118  24.847  23.229  1.00  0.00    -0.341 N 
ATOM     10  C   UNL A   1      33.539  24.663  23.009  1.00  0.00     0.120 C 
ATOM     11  C   UNL A   1      31.509  23.627  23.672  1.00  0.00     0.138 C 
ATOM     12  C   UNL A   1      33.799  23.155  22.986  1.00  0.00     0.042 C 
ATOM     13  C   UNL A   1      32.000  21.574  22.265  1.00  0.00     0.026 C 
BRANCH   9  14
ATOM     14  C   UNL A   1      31.536  26.084  23.023  1.00  0.00     0.230 C 
ATOM     15  O   UNL A   1      31.413  26.439  21.840  1.00  0.00    -0.274 OA
BRANCH  14  16
ATOM     16  C   UNL A   1      31.214  27.114  24.185  1.00  0.00     0.108 C 
BRANCH  16  17
ATOM     17  C   UNL A   1      30.921  26.681  25.649  1.00  0.00     0.018 C 
BRANCH  17  18
ATOM     18  C   UNL A   1      31.734  27.172  26.859  1.00  0.00    -0.002 C 
ATOM     19  C   UNL A   1      31.794  28.662  27.109  1.00  0.00     0.004 C 
ENDBRANCH  17  18
ENDBRANCH  16  17
BRANCH  16  20
ATOM     20  C   UNL A   1      30.045  28.034  23.701  1.00  0.00    -0.036 A 
ATOM     21  C   UNL A   1      30.192  29.424  23.537  1.00  0.00     0.004 A 
ATOM     22  C   UNL A   1      28.772  27.482  23.463  1.00  0.00     0.004 A 
ATOM     23  C   UNL A   1      29.118  30.225  23.137  1.00  0.00     0.000 A 
ATOM     24  C   UNL A   1      27.692  28.288  23.086  1.00  0.00     0.000 A 
ATOM     25  C   UNL A   1      27.866  29.659  22.920  1.00  0.00     0.000 A 
ENDBRANCH  16  20
ENDBRANCH  14  16
ENDBRANCH   9  14
ENDBRANCH   6   8
ENDBRANCH   5   6
ENDBRANCH   4   5
ENDBRANCH   3   4
ENDBRANCH   2   3
ENDBRANCH   1   2
BRANCH   1  26
ATOM     26  C   UNL A   1      37.828  22.081  25.758  1.00  0.00     0.188 C 
BRANCH  26  27
ATOM     27  O   UNL A   1      39.064  21.475  26.046  1.00  0.00    -0.376 OA
BRANCH  27  28
ATOM     28  C   UNL A   1      39.315  20.166  25.571  1.00  0.00     0.202 C 
BRANCH  28  29
ATOM     29  C   UNL A   1      40.495  19.328  26.095  1.00  0.00     0.261 C 
BRANCH  29  30
ATOM     30  O   UNL A   1      41.464  19.979  26.928  1.00  0.00    -0.460 OA
BRANCH  30  31
ATOM     31  C   UNL A   1      42.480  20.621  26.307  1.00  0.00     0.338 C 
ATOM     32  O   UNL A   1      43.175  20.173  25.405  1.00  0.00    -0.246 OA
BRANCH  31  33
ATOM     33  C   UNL A   1      42.460  22.037  26.742  1.00  0.00     0.060 A 
ATOM     34  C   UNL A   1      42.375  23.049  25.776  1.00  0.00     0.016 A 
ATOM     35  C   UNL A   1      42.517  22.365  28.099  1.00  0.00     0.016 A 
ATOM     36  C   UNL A   1      42.369  24.390  26.167  1.00  0.00     0.010 A 
ATOM     37  C   UNL A   1      42.535  23.711  28.485  1.00  0.00     0.010 A 
ATOM     38  C   UNL A   1      42.482  24.733  27.522  1.00  0.00    -0.014 A 
BRANCH  38  39
ATOM     39  C   UNL A   1      42.722  26.150  27.903  1.00  0.00     0.031 A 
ATOM     40  C   UNL A   1      44.109  26.704  27.765  1.00  0.00     0.074 A 
ATOM     41  C   UNL A   1      41.728  26.943  28.340  1.00  0.00     0.049 A 
ATOM     42  N   UNL A   1      44.568  27.882  28.097  1.00  0.00    -0.248 NA
ATOM     43  C   UNL A   1      45.115  25.793  27.203  1.00  0.00     0.031 C 
ATOM     44  C   UNL A   1      40.345  26.518  28.503  1.00  0.00     0.029 A 
ATOM     45  N   UNL A   1      41.719  28.264  28.719  1.00  0.00    -0.354 N 
ATOM     46  C   UNL A   1      45.928  27.845  27.820  1.00  0.00     0.074 A 
ATOM     47  C   UNL A   1      46.215  26.523  27.302  1.00  0.00     0.031 C 
ATOM     48  C   UNL A   1      39.611  27.568  28.907  1.00  0.00     0.029 A 
ATOM     49  C   UNL A   1      40.481  28.723  29.104  1.00  0.00     0.049 A 
ATOM     50  H   UNL A   1      42.526  28.829  28.715  1.00  0.00     0.167 HD
ATOM     51  C   UNL A   1      46.853  28.821  28.002  1.00  0.00     0.034 A 
ATOM     52  C   UNL A   1      40.092  29.922  29.593  1.00  0.00     0.034 A 
ATOM     53  C   UNL A   1      46.546  30.126  28.535  1.00  0.00     0.049 A 
ATOM     54  C   UNL A   1      41.145  30.981  29.820  1.00  0.00     0.074 A 
ATOM     55  C   UNL A   1      47.406  31.188  28.756  1.00  0.00     0.029 A 
ATOM     56  N   UNL A   1      45.286  30.547  28.951  1.00  0.00    -0.354 N 
ATOM     57  N   UNL A   1      42.434  30.930  29.575  1.00  0.00    -0.248 NA
ATOM     58  C   UNL A   1      40.698  32.247  30.417  1.00  0.00     0.031 C 
ATOM     59  C   UNL A   1      46.688  32.211  29.384  1.00  0.00     0.029 A 
ATOM     60  C   UNL A   1      45.357  31.834  29.464  1.00  0.00     0.049 A 
ATOM     61  H   UNL A   1      44.464  30.009  28.888  1.00  0.00     0.167 HD
ATOM     62  C   UNL A   1      42.950  32.159  29.981  1.00  0.00     0.074 A 
ATOM     63  C   UNL A   1      41.827  32.939  30.461  1.00  0.00     0.031 C 
ATOM     64  C   UNL A   1      44.235  32.598  29.963  1.00  0.00     0.034 A 
BRANCH  51  65
ATOM     65  C   UNL A   1      48.290  28.463  27.712  1.00  0.00     0.023 A 
ATOM     66  C   UNL A   1      48.859  28.623  26.437  1.00  0.00     0.031 A 
ATOM     67  C   UNL A   1      49.085  27.882  28.718  1.00  0.00     0.131 A 
ATOM     68  C   UNL A   1      50.144  28.123  26.177  1.00  0.00     0.055 A 
ATOM     69  C   UNL A   1      50.397  27.476  28.477  1.00  0.00     0.041 A 
ATOM     70  F   UNL A   1      48.588  27.675  29.948  1.00  0.00    -0.206 F 
ATOM     71  C   UNL A   1      50.928  27.576  27.195  1.00  0.00     0.022 A 
BRANCH  68  72
ATOM     72  S   UNL A   1      50.702  28.025  24.454  1.00  0.00     0.124 S 
ATOM     73  O   UNL A   1      51.546  26.833  24.485  1.00  0.00    -0.237 OA
ATOM     74  O   UNL A   1      49.447  27.901  23.722  1.00  0.00    -0.237 OA
ATOM     75  O   UNL A   1      51.421  29.282  24.254  1.00  0.00    -0.744 OA
ENDBRANCH  68  72
ENDBRANCH  51  65
BRANCH  52  76
ATOM     76  C   UNL A   1      38.667  30.165  29.980  1.00  0.00     0.023 A 
ATOM     77  C   UNL A   1      37.776  30.848  29.132  1.00  0.00     0.031 A 
ATOM     78  C   UNL A   1      38.183  29.749  31.235  1.00  0.00     0.131 A 
ATOM     79  C   UNL A   1      36.464  31.119  29.563  1.00  0.00     0.055 A 
ATOM     80  C   UNL A   1      36.862  29.962  31.630  1.00  0.00     0.041 A 
ATOM     81  F   UNL A   1      38.991  29.111  32.096  1.00  0.00    -0.206 F 
ATOM     82  C   UNL A   1      35.996  30.659  30.796  1.00  0.00     0.022 A 
BRANCH  79  83
ATOM     83  S   UNL A   1      35.394  32.156  28.527  1.00  0.00     0.124 S 
ATOM     84  O   UNL A   1      34.426  32.648  29.501  1.00  0.00    -0.237 OA
ATOM     85  O   UNL A   1      36.335  33.140  28.004  1.00  0.00    -0.237 OA
ATOM     86  O   UNL A   1      34.863  31.219  27.539  1.00  0.00    -0.744 OA
ENDBRANCH  79  83
ENDBRANCH  52  76
BRANCH  64  87
ATOM     87  C   UNL A   1      44.490  34.008  30.446  1.00  0.00     0.023 A 
ATOM     88  C   UNL A   1      44.813  34.292  31.785  1.00  0.00     0.031 A 
ATOM     89  C   UNL A   1      44.408  35.086  29.545  1.00  0.00     0.131 A 
ATOM     90  C   UNL A   1      44.988  35.625  32.195  1.00  0.00     0.055 A 
ATOM     91  C   UNL A   1      44.649  36.401  29.945  1.00  0.00     0.041 A 
ATOM     92  F   UNL A   1      44.097  34.878  28.255  1.00  0.00    -0.206 F 
ATOM     93  C   UNL A   1      44.929  36.678  31.279  1.00  0.00     0.022 A 
BRANCH  90  94
ATOM     94  S   UNL A   1      45.192  35.975  33.964  1.00  0.00     0.124 S 
ATOM     95  O   UNL A   1      46.644  35.953  34.111  1.00  0.00    -0.237 OA
ATOM     96  O   UNL A   1      44.555  37.280  34.101  1.00  0.00    -0.237 OA
ATOM     97  O   UNL A   1      44.488  34.871  34.615  1.00  0.00    -0.744 OA
ENDBRANCH  90  94
ENDBRANCH  64  87
ENDBRANCH  38  39
ENDBRANCH  31  33
ENDBRANCH  30  31
ENDBRANCH  29  30
ENDBRANCH  28  29
ENDBRANCH  27  28
ENDBRANCH  26  27
ENDBRANCH   1  26
TORSDOF 25
ENDMDL
MODEL 3
REMARK VINA RESULT:      -9.8      1.584      7.622
REMARK SMILES CCC[C@@H](C(=O)N1CC[C@@](C)(C(=O)OCCOCCOCCOC(=O)c2ccc(-c3c4nc(c(-c5cc(S(=O)(=O)[O-])ccc5F)c5ccc([nH]5)c(-c5cc(S(=O)(=O)[O-])ccc5F)c5nc(c(-c6cc(S(=O)(=O)[O-])ccc6F)c6ccc3[nH]6)C=C5)C=C4)cc2)C1)c1ccccc1
REMARK SMILES IDX 18 1 17 2 16 3 15 4 14 5 12 6 13 7 10 8 7 9 8 10 89 11 9 12
REMARK SMILES IDX 11 13 5 14 6 15 4 16 3 17 2 18 1 19 90 20 91 21 95 22 92 23
REMARK SMILES IDX 94 24 93 25 19 26 20 27 21 28 22 29 23 30 24 31 25 32 26 33
REMARK SMILES IDX 27 34 88 35 28 36 87 37 29 38 30 39 31 40 81 41 32 42 86 43
REMARK SMILES IDX 80 44 82 45 33 46 85 47 79 48 78 49 34 51 66 52 46 53 65 54
REMARK SMILES IDX 47 55 50 56 64 57 83 58 48 59 49 60 63 62 84 63 51 64 35 65
REMARK SMILES IDX 36 66 44 67 37 68 43 69 45 70 42 71 38 72 39 73 40 74 41 75
REMARK SMILES IDX 67 76 68 77 76 78 69 79 75 80 77 81 74 82 70 83 71 84 72 85
REMARK SMILES IDX 73 86 52 87 53 88 61 89 54 90 60 91 62 92 59 93 55 94 56 95
REMARK SMILES IDX 57 96 58 97
REMARK H PARENT 82 50 50 61
REMARK Flexibility Score: inf
ROOT
ATOM      1  C   UNL A   1      35.457  21.521  26.081  1.00  0.00     0.188 C 
ENDROOT
BRANCH   1   2
ATOM      2  O   UNL A   1      34.615  22.058  27.093  1.00  0.00    -0.376 OA
BRANCH   2   3
ATOM      3  C   UNL A   1      33.888  23.254  26.847  1.00  0.00     0.202 C 
BRANCH   3   4
ATOM      4  C   UNL A   1      32.560  23.185  26.074  1.00  0.00     0.261 C 
BRANCH   4   5
ATOM      5  O   UNL A   1      32.630  22.688  24.716  1.00  0.00    -0.463 OA
BRANCH   5   6
ATOM      6  C   UNL A   1      33.157  23.539  23.800  1.00  0.00     0.313 C 
ATOM      7  O   UNL A   1      34.362  23.631  23.576  1.00  0.00    -0.252 OA
BRANCH   6   8
ATOM      8  C   UNL A   1      32.147  24.431  23.066  1.00  0.00     0.084 C 
ATOM      9  N   UNL A   1      32.222  26.817  22.704  1.00  0.00    -0.341 N 
ATOM     10  C   UNL A   1      32.458  26.225  21.402  1.00  0.00     0.120 C 
ATOM     11  C   UNL A   1      32.242  25.816  23.730  1.00  0.00     0.138 C 
ATOM     12  C   UNL A   1      32.287  24.712  21.558  1.00  0.00     0.042 C 
ATOM     13  C   UNL A   1      30.775  23.787  23.322  1.00  0.00     0.026 C 
BRANCH   9  14
ATOM     14  C   UNL A   1      32.030  28.181  22.824  1.00  0.00     0.230 C 
ATOM     15  O   UNL A   1      32.985  28.899  22.489  1.00  0.00    -0.274 OA
BRANCH  14  16
ATOM     16  C   UNL A   1      30.769  28.837  23.528  1.00  0.00     0.108 C 
BRANCH  16  17
ATOM     17  C   UNL A   1      29.800  29.812  22.803  1.00  0.00     0.018 C 
BRANCH  17  18
ATOM     18  C   UNL A   1      28.274  29.800  23.004  1.00  0.00    -0.002 C 
ATOM     19  C   UNL A   1      27.625  31.060  23.532  1.00  0.00     0.004 C 
ENDBRANCH  17  18
ENDBRANCH  16  17
BRANCH  16  20
ATOM     20  C   UNL A   1      31.258  29.520  24.848  1.00  0.00    -0.036 A 
ATOM     21  C   UNL A   1      31.983  28.830  25.837  1.00  0.00     0.004 A 
ATOM     22  C   UNL A   1      30.927  30.865  25.103  1.00  0.00     0.004 A 
ATOM     23  C   UNL A   1      32.376  29.461  27.022  1.00  0.00     0.000 A 
ATOM     24  C   UNL A   1      31.299  31.487  26.300  1.00  0.00     0.000 A 
ATOM     25  C   UNL A   1      32.026  30.786  27.258  1.00  0.00     0.000 A 
ENDBRANCH  16  20
ENDBRANCH  14  16
ENDBRANCH   9  14
ENDBRANCH   6   8
ENDBRANCH   5   6
ENDBRANCH   4   5
ENDBRANCH   3   4
ENDBRANCH   2   3
ENDBRANCH   1   2
BRANCH   1  26
ATOM     26  C   UNL A   1      36.694  22.316  25.642  1.00  0.00     0.188 C 
BRANCH  26  27
ATOM     27  O   UNL A   1      37.612  21.593  24.859  1.00  0.00    -0.376 OA
BRANCH  27  28
ATOM     28  C   UNL A   1      37.582  20.180  24.895  1.00  0.00     0.202 C 
BRANCH  28  29
ATOM     29  C   UNL A   1      38.818  19.355  25.299  1.00  0.00     0.261 C 
BRANCH  29  30
ATOM     30  O   UNL A   1      39.526  19.742  26.485  1.00  0.00    -0.460 OA
BRANCH  30  31
ATOM     31  C   UNL A   1      40.868  19.879  26.385  1.00  0.00     0.338 C 
ATOM     32  O   UNL A   1      41.642  19.072  25.889  1.00  0.00    -0.246 OA
BRANCH  31  33
ATOM     33  C   UNL A   1      41.215  21.267  26.768  1.00  0.00     0.060 A 
ATOM     34  C   UNL A   1      40.900  22.318  25.895  1.00  0.00     0.016 A 
ATOM     35  C   UNL A   1      41.842  21.533  27.988  1.00  0.00     0.016 A 
ATOM     36  C   UNL A   1      41.233  23.632  26.234  1.00  0.00     0.010 A 
ATOM     37  C   UNL A   1      42.196  22.849  28.312  1.00  0.00     0.010 A 
ATOM     38  C   UNL A   1      41.912  23.904  27.429  1.00  0.00    -0.014 A 
BRANCH  38  39
ATOM     39  C   UNL A   1      42.476  25.261  27.660  1.00  0.00     0.031 A 
ATOM     40  C   UNL A   1      41.646  26.264  28.406  1.00  0.00     0.074 A 
ATOM     41  C   UNL A   1      43.708  25.596  27.240  1.00  0.00     0.049 A 
ATOM     42  N   UNL A   1      41.898  27.519  28.665  1.00  0.00    -0.248 NA
ATOM     43  C   UNL A   1      40.347  25.788  28.899  1.00  0.00     0.031 C 
ATOM     44  C   UNL A   1      44.604  24.705  26.518  1.00  0.00     0.029 A 
ATOM     45  N   UNL A   1      44.423  26.764  27.362  1.00  0.00    -0.354 N 
ATOM     46  C   UNL A   1      40.771  28.000  29.320  1.00  0.00     0.074 A 
ATOM     47  C   UNL A   1      39.836  26.898  29.408  1.00  0.00     0.031 C 
ATOM     48  C   UNL A   1      45.767  25.340  26.298  1.00  0.00     0.029 A 
ATOM     49  C   UNL A   1      45.677  26.709  26.797  1.00  0.00     0.049 A 
ATOM     50  H   UNL A   1      44.071  27.565  27.813  1.00  0.00     0.167 HD
ATOM     51  C   UNL A   1      40.536  29.252  29.786  1.00  0.00     0.034 A 
ATOM     52  C   UNL A   1      46.630  27.657  26.661  1.00  0.00     0.034 A 
ATOM     53  C   UNL A   1      41.479  30.339  29.674  1.00  0.00     0.049 A 
ATOM     54  C   UNL A   1      46.332  29.052  27.155  1.00  0.00     0.074 A 
ATOM     55  C   UNL A   1      41.342  31.643  30.116  1.00  0.00     0.029 A 
ATOM     56  N   UNL A   1      42.725  30.259  29.061  1.00  0.00    -0.354 N 
ATOM     57  N   UNL A   1      45.254  29.503  27.756  1.00  0.00    -0.248 NA
ATOM     58  C   UNL A   1      47.364  30.073  26.930  1.00  0.00     0.031 C 
ATOM     59  C   UNL A   1      42.461  32.370  29.693  1.00  0.00     0.029 A 
ATOM     60  C   UNL A   1      43.346  31.500  29.077  1.00  0.00     0.049 A 
ATOM     61  H   UNL A   1      43.111  29.441  28.674  1.00  0.00     0.167 HD
ATOM     62  C   UNL A   1      45.482  30.858  27.985  1.00  0.00     0.074 A 
ATOM     63  C   UNL A   1      46.811  31.143  27.483  1.00  0.00     0.031 C 
ATOM     64  C   UNL A   1      44.665  31.783  28.553  1.00  0.00     0.034 A 
BRANCH  51  65
ATOM     65  C   UNL A   1      39.169  29.520  30.366  1.00  0.00     0.023 A 
ATOM     66  C   UNL A   1      38.169  30.197  29.645  1.00  0.00     0.031 A 
ATOM     67  C   UNL A   1      38.886  29.154  31.695  1.00  0.00     0.131 A 
ATOM     68  C   UNL A   1      36.976  30.568  30.284  1.00  0.00     0.055 A 
ATOM     69  C   UNL A   1      37.659  29.440  32.293  1.00  0.00     0.041 A 
ATOM     70  F   UNL A   1      39.811  28.533  32.444  1.00  0.00    -0.206 F 
ATOM     71  C   UNL A   1      36.702  30.169  31.595  1.00  0.00     0.022 A 
BRANCH  68  72
ATOM     72  S   UNL A   1      35.873  31.736  29.444  1.00  0.00     0.124 S 
ATOM     73  O   UNL A   1      35.396  30.934  28.320  1.00  0.00    -0.237 OA
ATOM     74  O   UNL A   1      34.889  32.040  30.476  1.00  0.00    -0.237 OA
ATOM     75  O   UNL A   1      36.757  32.841  29.078  1.00  0.00    -0.744 OA
ENDBRANCH  68  72
ENDBRANCH  51  65
BRANCH  52  76
ATOM     76  C   UNL A   1      47.917  27.353  25.960  1.00  0.00     0.023 A 
ATOM     77  C   UNL A   1      48.070  27.546  24.575  1.00  0.00     0.031 A 
ATOM     78  C   UNL A   1      49.011  26.818  26.667  1.00  0.00     0.131 A 
ATOM     79  C   UNL A   1      49.271  27.181  23.942  1.00  0.00     0.055 A 
ATOM     80  C   UNL A   1      50.224  26.518  26.045  1.00  0.00     0.041 A 
ATOM     81  F   UNL A   1      48.920  26.591  27.986  1.00  0.00    -0.206 F 
ATOM     82  C   UNL A   1      50.357  26.690  24.673  1.00  0.00     0.022 A 
BRANCH  79  83
ATOM     83  S   UNL A   1      49.377  27.272  22.132  1.00  0.00     0.124 S 
ATOM     84  O   UNL A   1      48.727  28.549  21.860  1.00  0.00    -0.237 OA
ATOM     85  O   UNL A   1      50.817  27.225  21.908  1.00  0.00    -0.237 OA
ATOM     86  O   UNL A   1      48.641  26.089  21.688  1.00  0.00    -0.744 OA
ENDBRANCH  79  83
ENDBRANCH  52  76
BRANCH  64  87
ATOM     87  C   UNL A   1      45.204  33.188  28.696  1.00  0.00     0.023 A 
ATOM     88  C   UNL A   1      45.801  33.641  29.886  1.00  0.00     0.031 A 
ATOM     89  C   UNL A   1      45.115  34.089  27.619  1.00  0.00     0.131 A 
ATOM     90  C   UNL A   1      46.238  34.972  29.988  1.00  0.00     0.055 A 
ATOM     91  C   UNL A   1      45.612  35.390  27.704  1.00  0.00     0.041 A 
ATOM     92  F   UNL A   1      44.548  33.716  26.460  1.00  0.00    -0.206 F 
ATOM     93  C   UNL A   1      46.166  35.843  28.897  1.00  0.00     0.022 A 
BRANCH  90  94
ATOM     94  S   UNL A   1      46.808  35.584  31.597  1.00  0.00     0.124 S 
ATOM     95  O   UNL A   1      46.830  37.028  31.382  1.00  0.00    -0.237 OA
ATOM     96  O   UNL A   1      45.779  35.089  32.504  1.00  0.00    -0.237 OA
ATOM     97  O   UNL A   1      48.122  34.963  31.754  1.00  0.00    -0.744 OA
ENDBRANCH  90  94
ENDBRANCH  64  87
ENDBRANCH  38  39
ENDBRANCH  31  33
ENDBRANCH  30  31
ENDBRANCH  29  30
ENDBRANCH  28  29
ENDBRANCH  27  28
ENDBRANCH  26  27
ENDBRANCH   1  26
TORSDOF 25
ENDMDL
