MODEL 1
REMARK VINA RESULT:     -10.2      0.000      0.000
REMARK SMILES C[NH2+][C@]1(C(=O)OCCOCCOCCOC(=O)c2ccc(-c3c4nc(c(-c5cc(S(=O)(=O)[O-])ccc5F)c5ccc([nH]5)c(-c5cc(S(=O)(=O)[O-])ccc5F)c5nc(c(-c6cc(S(=O)(=O)[O-])ccc6F)c6ccc3[nH]6)C=C5)C=C4)cc2)CCC[C@H](Sc2n[nH]c(=O)n2C)C1
REMARK SMILES IDX 11 1 10 2 9 3 8 4 7 5 6 6 4 7 5 8 3 9 81 10 93 11 82 12
REMARK SMILES IDX 84 13 83 14 2 15 1 16 85 19 86 20 87 21 91 22 88 23 89 24
REMARK SMILES IDX 92 25 90 27 12 28 13 29 14 30 15 31 16 32 17 33 18 34 19 35
REMARK SMILES IDX 80 36 20 37 79 38 21 39 22 40 23 41 73 42 24 43 78 44 72 45
REMARK SMILES IDX 74 46 25 47 77 48 71 49 70 50 26 52 58 53 38 54 57 55 39 56
REMARK SMILES IDX 42 57 56 58 75 59 40 60 41 61 55 63 76 64 43 65 27 66 28 67
REMARK SMILES IDX 36 68 29 69 35 70 37 71 34 72 30 73 31 74 32 75 33 76 59 77
REMARK SMILES IDX 60 78 68 79 61 80 67 81 69 82 66 83 62 84 63 85 64 86 65 87
REMARK SMILES IDX 44 88 45 89 53 90 46 91 52 92 54 93 51 94 47 95 48 96 49 97
REMARK SMILES IDX 50 98
REMARK H PARENT 2 17 2 18 88 26 74 51 42 62
REMARK Flexibility Score: inf
ROOT
ATOM      1  C   UNL A   1      33.504  28.827  23.235  1.00  0.00     0.188 C 
ENDROOT
BRANCH   1   2
ATOM      2  C   UNL A   1      32.318  28.063  22.635  1.00  0.00     0.188 C 
BRANCH   2   3
ATOM      3  O   UNL A   1      31.068  28.733  22.532  1.00  0.00    -0.376 OA
BRANCH   3   4
ATOM      4  C   UNL A   1      29.879  27.971  22.721  1.00  0.00     0.202 C 
BRANCH   4   5
ATOM      5  C   UNL A   1      29.592  27.263  24.062  1.00  0.00     0.261 C 
BRANCH   5   6
ATOM      6  O   UNL A   1      30.019  25.889  24.144  1.00  0.00    -0.459 OA
BRANCH   6   7
ATOM      7  C   UNL A   1      30.640  25.515  25.298  1.00  0.00     0.368 C 
ATOM      8  O   UNL A   1      30.320  25.939  26.406  1.00  0.00    -0.245 OA
BRANCH   7   9
ATOM      9  C   UNL A   1      31.746  24.421  25.097  1.00  0.00     0.195 C 
ATOM     10  C   UNL A   1      31.608  23.684  23.731  1.00  0.00     0.081 C 
ATOM     11  C   UNL A   1      33.114  25.171  25.047  1.00  0.00     0.096 C 
ATOM     12  C   UNL A   1      32.782  22.751  23.417  1.00  0.00     0.008 C 
ATOM     13  C   UNL A   1      34.349  24.315  24.697  1.00  0.00     0.061 C 
ATOM     14  C   UNL A   1      34.097  23.517  23.412  1.00  0.00     0.015 C 
BRANCH   9  15
ATOM     15  N   UNL A   1      31.650  23.404  26.193  1.00  0.00    -0.335 N 
ATOM     16  C   UNL A   1      30.439  22.580  26.193  1.00  0.00     0.331 C 
ATOM     17  H   UNL A   1      32.454  22.781  26.113  1.00  0.00     0.347 HD
ATOM     18  H   UNL A   1      31.625  23.935  27.064  1.00  0.00     0.347 HD
ENDBRANCH   9  15
BRANCH  13  19
ATOM     19  S   UNL A   1      34.769  23.282  26.136  1.00  0.00    -0.082 SA
BRANCH  19  20
ATOM     20  C   UNL A   1      36.261  22.542  25.731  1.00  0.00     0.191 A 
ATOM     21  N   UNL A   1      37.429  23.103  25.824  1.00  0.00    -0.146 NA
ATOM     22  N   UNL A   1      36.261  21.271  25.268  1.00  0.00    -0.273 N 
ATOM     23  N   UNL A   1      38.280  22.131  25.377  1.00  0.00    -0.226 N 
ATOM     24  C   UNL A   1      37.575  20.986  25.030  1.00  0.00     0.343 A 
ATOM     25  C   UNL A   1      35.182  20.327  25.053  1.00  0.00     0.157 C 
ATOM     26  H   UNL A   1      39.257  22.229  25.310  1.00  0.00     0.195 HD
ATOM     27  O   UNL A   1      38.064  19.952  24.599  1.00  0.00    -0.246 OA
ENDBRANCH  19  20
ENDBRANCH  13  19
ENDBRANCH   7   9
ENDBRANCH   6   7
ENDBRANCH   5   6
ENDBRANCH   4   5
ENDBRANCH   3   4
ENDBRANCH   2   3
ENDBRANCH   1   2
BRANCH   1  28
ATOM     28  O   UNL A   1      33.744  28.578  24.599  1.00  0.00    -0.376 OA
BRANCH  28  29
ATOM     29  C   UNL A   1      32.690  28.794  25.520  1.00  0.00     0.202 C 
BRANCH  29  30
ATOM     30  C   UNL A   1      32.177  30.193  25.931  1.00  0.00     0.261 C 
BRANCH  30  31
ATOM     31  O   UNL A   1      32.451  30.670  27.256  1.00  0.00    -0.460 OA
BRANCH  31  32
ATOM     32  C   UNL A   1      33.194  31.801  27.367  1.00  0.00     0.338 C 
ATOM     33  O   UNL A   1      32.792  32.945  27.251  1.00  0.00    -0.246 OA
BRANCH  32  34
ATOM     34  C   UNL A   1      34.527  31.417  27.893  1.00  0.00     0.060 A 
ATOM     35  C   UNL A   1      34.755  30.087  28.281  1.00  0.00     0.016 A 
ATOM     36  C   UNL A   1      35.550  32.360  27.992  1.00  0.00     0.016 A 
ATOM     37  C   UNL A   1      35.999  29.703  28.789  1.00  0.00     0.010 A 
ATOM     38  C   UNL A   1      36.787  31.979  28.526  1.00  0.00     0.010 A 
ATOM     39  C   UNL A   1      37.011  30.656  28.953  1.00  0.00    -0.014 A 
BRANCH  39  40
ATOM     40  C   UNL A   1      38.225  30.332  29.748  1.00  0.00     0.031 A 
ATOM     41  C   UNL A   1      39.202  29.338  29.180  1.00  0.00     0.074 A 
ATOM     42  C   UNL A   1      38.464  30.904  30.942  1.00  0.00     0.049 A 
ATOM     43  N   UNL A   1      40.267  28.809  29.724  1.00  0.00    -0.248 NA
ATOM     44  C   UNL A   1      38.929  28.874  27.811  1.00  0.00     0.031 C 
ATOM     45  C   UNL A   1      37.630  31.923  31.575  1.00  0.00     0.029 A 
ATOM     46  N   UNL A   1      39.478  30.690  31.846  1.00  0.00    -0.354 N 
ATOM     47  C   UNL A   1      40.787  27.942  28.769  1.00  0.00     0.074 A 
ATOM     48  C   UNL A   1      39.896  27.990  27.629  1.00  0.00     0.031 C 
ATOM     49  C   UNL A   1      38.156  32.233  32.774  1.00  0.00     0.029 A 
ATOM     50  C   UNL A   1      39.335  31.400  33.016  1.00  0.00     0.049 A 
ATOM     51  H   UNL A   1      40.237  30.088  31.671  1.00  0.00     0.167 HD
ATOM     52  C   UNL A   1      41.908  27.181  28.834  1.00  0.00     0.034 A 
ATOM     53  C   UNL A   1      40.047  31.352  34.161  1.00  0.00     0.034 A 
ATOM     54  C   UNL A   1      42.777  27.131  29.985  1.00  0.00     0.049 A 
ATOM     55  C   UNL A   1      41.231  30.415  34.256  1.00  0.00     0.074 A 
ATOM     56  C   UNL A   1      43.940  26.398  30.155  1.00  0.00     0.029 A 
ATOM     57  N   UNL A   1      42.574  27.828  31.169  1.00  0.00    -0.354 N 
ATOM     58  N   UNL A   1      41.713  29.595  33.349  1.00  0.00    -0.248 NA
ATOM     59  C   UNL A   1      41.969  30.400  35.527  1.00  0.00     0.031 C 
ATOM     60  C   UNL A   1      44.389  26.586  31.465  1.00  0.00     0.029 A 
ATOM     61  C   UNL A   1      43.566  27.513  32.085  1.00  0.00     0.049 A 
ATOM     62  H   UNL A   1      41.832  28.454  31.334  1.00  0.00     0.167 HD
ATOM     63  C   UNL A   1      42.832  28.999  33.930  1.00  0.00     0.074 A 
ATOM     64  C   UNL A   1      42.959  29.561  35.258  1.00  0.00     0.031 C 
ATOM     65  C   UNL A   1      43.682  28.075  33.411  1.00  0.00     0.034 A 
BRANCH  52  66
ATOM     66  C   UNL A   1      42.218  26.301  27.647  1.00  0.00     0.023 A 
ATOM     67  C   UNL A   1      41.931  24.924  27.649  1.00  0.00     0.031 A 
ATOM     68  C   UNL A   1      42.841  26.839  26.506  1.00  0.00     0.131 A 
ATOM     69  C   UNL A   1      42.334  24.123  26.571  1.00  0.00     0.055 A 
ATOM     70  C   UNL A   1      43.160  26.052  25.399  1.00  0.00     0.041 A 
ATOM     71  F   UNL A   1      43.165  28.141  26.454  1.00  0.00    -0.206 F 
ATOM     72  C   UNL A   1      42.921  24.681  25.433  1.00  0.00     0.022 A 
BRANCH  69  73
ATOM     73  S   UNL A   1      42.224  22.321  26.743  1.00  0.00     0.124 S 
ATOM     74  O   UNL A   1      43.495  21.891  26.162  1.00  0.00    -0.237 OA
ATOM     75  O   UNL A   1      42.091  22.149  28.185  1.00  0.00    -0.237 OA
ATOM     76  O   UNL A   1      41.041  21.972  25.960  1.00  0.00    -0.744 OA
ENDBRANCH  69  73
ENDBRANCH  52  66
BRANCH  53  77
ATOM     77  C   UNL A   1      39.642  32.173  35.341  1.00  0.00     0.023 A 
ATOM     78  C   UNL A   1      38.861  31.632  36.375  1.00  0.00     0.031 A 
ATOM     79  C   UNL A   1      39.976  33.539  35.419  1.00  0.00     0.131 A 
ATOM     80  C   UNL A   1      38.401  32.458  37.413  1.00  0.00     0.055 A 
ATOM     81  C   UNL A   1      39.566  34.342  36.485  1.00  0.00     0.041 A 
ATOM     82  F   UNL A   1      40.711  34.114  34.454  1.00  0.00    -0.206 F 
ATOM     83  C   UNL A   1      38.762  33.805  37.484  1.00  0.00     0.022 A 
BRANCH  80  84
ATOM     84  S   UNL A   1      37.236  31.767  38.621  1.00  0.00     0.124 S 
ATOM     85  O   UNL A   1      36.107  32.682  38.500  1.00  0.00    -0.237 OA
ATOM     86  O   UNL A   1      37.028  30.419  38.104  1.00  0.00    -0.237 OA
ATOM     87  O   UNL A   1      37.970  31.842  39.883  1.00  0.00    -0.744 OA
ENDBRANCH  80  84
ENDBRANCH  53  77
BRANCH  65  88
ATOM     88  C   UNL A   1      44.862  27.658  34.259  1.00  0.00     0.023 A 
ATOM     89  C   UNL A   1      46.072  28.375  34.263  1.00  0.00     0.031 A 
ATOM     90  C   UNL A   1      44.773  26.516  35.077  1.00  0.00     0.131 A 
ATOM     91  C   UNL A   1      47.158  27.912  35.024  1.00  0.00     0.055 A 
ATOM     92  C   UNL A   1      45.832  26.101  35.885  1.00  0.00     0.041 A 
ATOM     93  F   UNL A   1      43.646  25.787  35.112  1.00  0.00    -0.206 F 
ATOM     94  C   UNL A   1      47.039  26.791  35.849  1.00  0.00     0.022 A 
BRANCH  91  95
ATOM     95  S   UNL A   1      48.765  28.733  34.839  1.00  0.00     0.124 S 
ATOM     96  O   UNL A   1      49.682  27.598  34.789  1.00  0.00    -0.237 OA
ATOM     97  O   UNL A   1      48.597  29.473  33.593  1.00  0.00    -0.237 OA
ATOM     98  O   UNL A   1      48.868  29.561  36.040  1.00  0.00    -0.744 OA
ENDBRANCH  91  95
ENDBRANCH  65  88
ENDBRANCH  39  40
ENDBRANCH  32  34
ENDBRANCH  31  32
ENDBRANCH  30  31
ENDBRANCH  29  30
ENDBRANCH  28  29
ENDBRANCH   1  28
TORSDOF 23
ENDMDL
MODEL 2
REMARK VINA RESULT:      -9.9      4.833     10.139
REMARK SMILES C[NH2+][C@]1(C(=O)OCCOCCOCCOC(=O)c2ccc(-c3c4nc(c(-c5cc(S(=O)(=O)[O-])ccc5F)c5ccc([nH]5)c(-c5cc(S(=O)(=O)[O-])ccc5F)c5nc(c(-c6cc(S(=O)(=O)[O-])ccc6F)c6ccc3[nH]6)C=C5)C=C4)cc2)CCC[C@H](Sc2n[nH]c(=O)n2C)C1
REMARK SMILES IDX 11 1 10 2 9 3 8 4 7 5 6 6 4 7 5 8 3 9 81 10 93 11 82 12
REMARK SMILES IDX 84 13 83 14 2 15 1 16 85 19 86 20 87 21 91 22 88 23 89 24
REMARK SMILES IDX 92 25 90 27 12 28 13 29 14 30 15 31 16 32 17 33 18 34 19 35
REMARK SMILES IDX 80 36 20 37 79 38 21 39 22 40 23 41 73 42 24 43 78 44 72 45
REMARK SMILES IDX 74 46 25 47 77 48 71 49 70 50 26 52 58 53 38 54 57 55 39 56
REMARK SMILES IDX 42 57 56 58 75 59 40 60 41 61 55 63 76 64 43 65 27 66 28 67
REMARK SMILES IDX 36 68 29 69 35 70 37 71 34 72 30 73 31 74 32 75 33 76 59 77
REMARK SMILES IDX 60 78 68 79 61 80 67 81 69 82 66 83 62 84 63 85 64 86 65 87
REMARK SMILES IDX 44 88 45 89 53 90 46 91 52 92 54 93 51 94 47 95 48 96 49 97
REMARK SMILES IDX 50 98
REMARK H PARENT 2 17 2 18 88 26 74 51 42 62
REMARK Flexibility Score: inf
ROOT
ATOM      1  C   UNL A   1      34.416  17.990  24.928  1.00  0.00     0.188 C 
ENDROOT
BRANCH   1   2
ATOM      2  C   UNL A   1      33.400  17.607  23.845  1.00  0.00     0.188 C 
BRANCH   2   3
ATOM      3  O   UNL A   1      32.202  18.366  23.747  1.00  0.00    -0.376 OA
BRANCH   3   4
ATOM      4  C   UNL A   1      32.263  19.762  24.031  1.00  0.00     0.202 C 
BRANCH   4   5
ATOM      5  C   UNL A   1      32.297  20.804  22.893  1.00  0.00     0.261 C 
BRANCH   5   6
ATOM      6  O   UNL A   1      32.749  22.120  23.269  1.00  0.00    -0.459 OA
BRANCH   6   7
ATOM      7  C   UNL A   1      31.782  23.063  23.453  1.00  0.00     0.368 C 
ATOM      8  O   UNL A   1      30.662  22.990  22.955  1.00  0.00    -0.245 OA
BRANCH   7   9
ATOM      9  C   UNL A   1      32.198  24.212  24.436  1.00  0.00     0.195 C 
ATOM     10  C   UNL A   1      33.691  24.109  24.871  1.00  0.00     0.081 C 
ATOM     11  C   UNL A   1      32.072  25.550  23.641  1.00  0.00     0.096 C 
ATOM     12  C   UNL A   1      34.182  25.320  25.671  1.00  0.00     0.008 C 
ATOM     13  C   UNL A   1      32.581  26.819  24.355  1.00  0.00     0.061 C 
ATOM     14  C   UNL A   1      34.010  26.604  24.871  1.00  0.00     0.015 C 
BRANCH   9  15
ATOM     15  N   UNL A   1      31.344  24.154  25.666  1.00  0.00    -0.335 N 
ATOM     16  C   UNL A   1      31.236  22.839  26.303  1.00  0.00     0.331 C 
ATOM     17  H   UNL A   1      31.734  24.803  26.349  1.00  0.00     0.347 HD
ATOM     18  H   UNL A   1      30.401  24.394  25.360  1.00  0.00     0.347 HD
ENDBRANCH   9  15
BRANCH  13  19
ATOM     19  S   UNL A   1      31.389  27.275  25.654  1.00  0.00    -0.082 SA
BRANCH  19  20
ATOM     20  C   UNL A   1      32.115  28.589  26.480  1.00  0.00     0.191 A 
ATOM     21  N   UNL A   1      32.944  28.487  27.476  1.00  0.00    -0.146 NA
ATOM     22  N   UNL A   1      31.821  29.853  26.096  1.00  0.00    -0.273 N 
ATOM     23  N   UNL A   1      33.219  29.789  27.790  1.00  0.00    -0.226 N 
ATOM     24  C   UNL A   1      32.534  30.650  26.944  1.00  0.00     0.343 A 
ATOM     25  C   UNL A   1      30.976  30.361  25.034  1.00  0.00     0.157 C 
ATOM     26  H   UNL A   1      33.820  30.075  28.515  1.00  0.00     0.195 HD
ATOM     27  O   UNL A   1      32.582  31.872  26.981  1.00  0.00    -0.246 OA
ENDBRANCH  19  20
ENDBRANCH  13  19
ENDBRANCH   7   9
ENDBRANCH   6   7
ENDBRANCH   5   6
ENDBRANCH   4   5
ENDBRANCH   3   4
ENDBRANCH   2   3
ENDBRANCH   1   2
BRANCH   1  28
ATOM     28  O   UNL A   1      35.663  18.429  24.447  1.00  0.00    -0.376 OA
BRANCH  28  29
ATOM     29  C   UNL A   1      36.183  19.652  24.938  1.00  0.00     0.202 C 
BRANCH  29  30
ATOM     30  C   UNL A   1      37.623  20.146  24.670  1.00  0.00     0.261 C 
BRANCH  30  31
ATOM     31  O   UNL A   1      38.171  21.171  25.510  1.00  0.00    -0.460 OA
BRANCH  31  32
ATOM     32  C   UNL A   1      39.345  20.900  26.136  1.00  0.00     0.338 C 
ATOM     33  O   UNL A   1      39.956  19.847  26.104  1.00  0.00    -0.246 OA
BRANCH  32  34
ATOM     34  C   UNL A   1      39.880  22.178  26.667  1.00  0.00     0.060 A 
ATOM     35  C   UNL A   1      39.369  23.391  26.180  1.00  0.00     0.016 A 
ATOM     36  C   UNL A   1      40.870  22.179  27.650  1.00  0.00     0.016 A 
ATOM     37  C   UNL A   1      39.864  24.608  26.658  1.00  0.00     0.010 A 
ATOM     38  C   UNL A   1      41.384  23.398  28.108  1.00  0.00     0.010 A 
ATOM     39  C   UNL A   1      40.903  24.619  27.596  1.00  0.00    -0.014 A 
BRANCH  39  40
ATOM     40  C   UNL A   1      41.629  25.883  27.895  1.00  0.00     0.031 A 
ATOM     41  C   UNL A   1      40.902  26.954  28.663  1.00  0.00     0.074 A 
ATOM     42  C   UNL A   1      42.901  26.079  27.505  1.00  0.00     0.049 A 
ATOM     43  N   UNL A   1      41.274  28.175  28.949  1.00  0.00    -0.248 NA
ATOM     44  C   UNL A   1      39.568  26.595  29.169  1.00  0.00     0.031 C 
ATOM     45  C   UNL A   1      43.734  25.101  26.810  1.00  0.00     0.029 A 
ATOM     46  N   UNL A   1      43.710  27.185  27.626  1.00  0.00    -0.354 N 
ATOM     47  C   UNL A   1      40.216  28.735  29.658  1.00  0.00     0.074 A 
ATOM     48  C   UNL A   1      39.176  27.731  29.724  1.00  0.00     0.031 C 
ATOM     49  C   UNL A   1      44.931  25.657  26.548  1.00  0.00     0.029 A 
ATOM     50  C   UNL A   1      44.933  27.045  27.011  1.00  0.00     0.049 A 
ATOM     51  H   UNL A   1      43.440  28.000  28.108  1.00  0.00     0.167 HD
ATOM     52  C   UNL A   1      40.125  29.970  30.210  1.00  0.00     0.034 A 
ATOM     53  C   UNL A   1      45.920  27.943  26.812  1.00  0.00     0.034 A 
ATOM     54  C   UNL A   1      41.164  30.968  30.120  1.00  0.00     0.049 A 
ATOM     55  C   UNL A   1      45.754  29.351  27.339  1.00  0.00     0.074 A 
ATOM     56  C   UNL A   1      41.176  32.249  30.646  1.00  0.00     0.029 A 
ATOM     57  N   UNL A   1      42.369  30.805  29.450  1.00  0.00    -0.354 N 
ATOM     58  N   UNL A   1      44.749  29.873  28.005  1.00  0.00    -0.248 NA
ATOM     59  C   UNL A   1      46.857  30.290  27.091  1.00  0.00     0.031 C 
ATOM     60  C   UNL A   1      42.346  32.886  30.223  1.00  0.00     0.029 A 
ATOM     61  C   UNL A   1      43.114  31.973  29.517  1.00  0.00     0.049 A 
ATOM     62  H   UNL A   1      42.654  29.981  28.994  1.00  0.00     0.167 HD
ATOM     63  C   UNL A   1      45.120  31.188  28.287  1.00  0.00     0.074 A 
ATOM     64  C   UNL A   1      46.442  31.374  27.729  1.00  0.00     0.031 C 
ATOM     65  C   UNL A   1      44.432  32.153  28.952  1.00  0.00     0.034 A 
BRANCH  52  66
ATOM     66  C   UNL A   1      38.832  30.325  30.905  1.00  0.00     0.023 A 
ATOM     67  C   UNL A   1      37.787  30.987  30.236  1.00  0.00     0.031 A 
ATOM     68  C   UNL A   1      38.653  30.025  32.267  1.00  0.00     0.131 A 
ATOM     69  C   UNL A   1      36.648  31.395  30.945  1.00  0.00     0.055 A 
ATOM     70  C   UNL A   1      37.479  30.355  32.947  1.00  0.00     0.041 A 
ATOM     71  F   UNL A   1      39.624  29.418  32.968  1.00  0.00    -0.206 F 
ATOM     72  C   UNL A   1      36.474  31.059  32.290  1.00  0.00     0.022 A 
BRANCH  69  73
ATOM     73  S   UNL A   1      35.470  32.505  30.128  1.00  0.00     0.124 S 
ATOM     74  O   UNL A   1      34.349  32.487  31.066  1.00  0.00    -0.237 OA
ATOM     75  O   UNL A   1      36.217  33.755  30.050  1.00  0.00    -0.237 OA
ATOM     76  O   UNL A   1      35.212  31.851  28.848  1.00  0.00    -0.744 OA
ENDBRANCH  69  73
ENDBRANCH  52  66
BRANCH  53  77
ATOM     77  C   UNL A   1      47.140  27.570  26.034  1.00  0.00     0.023 A 
ATOM     78  C   UNL A   1      47.247  27.855  24.663  1.00  0.00     0.031 A 
ATOM     79  C   UNL A   1      48.193  26.860  26.640  1.00  0.00     0.131 A 
ATOM     80  C   UNL A   1      48.354  27.391  23.935  1.00  0.00     0.055 A 
ATOM     81  C   UNL A   1      49.321  26.454  25.925  1.00  0.00     0.041 A 
ATOM     82  F   UNL A   1      48.140  26.550  27.946  1.00  0.00    -0.206 F 
ATOM     83  C   UNL A   1      49.400  26.707  24.560  1.00  0.00     0.022 A 
BRANCH  80  84
ATOM     84  S   UNL A   1      48.362  27.607  22.134  1.00  0.00     0.124 S 
ATOM     85  O   UNL A   1      49.490  28.513  21.950  1.00  0.00    -0.237 OA
ATOM     86  O   UNL A   1      48.554  26.238  21.666  1.00  0.00    -0.237 OA
ATOM     87  O   UNL A   1      47.047  28.180  21.854  1.00  0.00    -0.744 OA
ENDBRANCH  80  84
ENDBRANCH  53  77
BRANCH  65  88
ATOM     88  C   UNL A   1      45.123  33.480  29.167  1.00  0.00     0.023 A 
ATOM     89  C   UNL A   1      44.968  34.558  28.278  1.00  0.00     0.031 A 
ATOM     90  C   UNL A   1      45.957  33.667  30.286  1.00  0.00     0.131 A 
ATOM     91  C   UNL A   1      45.678  35.751  28.491  1.00  0.00     0.055 A 
ATOM     92  C   UNL A   1      46.605  34.878  30.531  1.00  0.00     0.041 A 
ATOM     93  F   UNL A   1      46.150  32.673  31.169  1.00  0.00    -0.206 F 
ATOM     94  C   UNL A   1      46.480  35.924  29.622  1.00  0.00     0.022 A 
BRANCH  91  95
ATOM     95  S   UNL A   1      45.624  37.038  27.214  1.00  0.00     0.124 S 
ATOM     96  O   UNL A   1      46.286  38.155  27.882  1.00  0.00    -0.237 OA
ATOM     97  O   UNL A   1      46.364  36.422  26.118  1.00  0.00    -0.237 OA
ATOM     98  O   UNL A   1      44.194  37.220  26.970  1.00  0.00    -0.744 OA
ENDBRANCH  91  95
ENDBRANCH  65  88
ENDBRANCH  39  40
ENDBRANCH  32  34
ENDBRANCH  31  32
ENDBRANCH  30  31
ENDBRANCH  29  30
ENDBRANCH  28  29
ENDBRANCH   1  28
TORSDOF 23
ENDMDL
MODEL 3
REMARK VINA RESULT:      -9.7      5.804      9.642
REMARK SMILES C[NH2+][C@]1(C(=O)OCCOCCOCCOC(=O)c2ccc(-c3c4nc(c(-c5cc(S(=O)(=O)[O-])ccc5F)c5ccc([nH]5)c(-c5cc(S(=O)(=O)[O-])ccc5F)c5nc(c(-c6cc(S(=O)(=O)[O-])ccc6F)c6ccc3[nH]6)C=C5)C=C4)cc2)CCC[C@H](Sc2n[nH]c(=O)n2C)C1
REMARK SMILES IDX 11 1 10 2 9 3 8 4 7 5 6 6 4 7 5 8 3 9 81 10 93 11 82 12
REMARK SMILES IDX 84 13 83 14 2 15 1 16 85 19 86 20 87 21 91 22 88 23 89 24
REMARK SMILES IDX 92 25 90 27 12 28 13 29 14 30 15 31 16 32 17 33 18 34 19 35
REMARK SMILES IDX 80 36 20 37 79 38 21 39 22 40 23 41 73 42 24 43 78 44 72 45
REMARK SMILES IDX 74 46 25 47 77 48 71 49 70 50 26 52 58 53 38 54 57 55 39 56
REMARK SMILES IDX 42 57 56 58 75 59 40 60 41 61 55 63 76 64 43 65 27 66 28 67
REMARK SMILES IDX 36 68 29 69 35 70 37 71 34 72 30 73 31 74 32 75 33 76 59 77
REMARK SMILES IDX 60 78 68 79 61 80 67 81 69 82 66 83 62 84 63 85 64 86 65 87
REMARK SMILES IDX 44 88 45 89 53 90 46 91 52 92 54 93 51 94 47 95 48 96 49 97
REMARK SMILES IDX 50 98
REMARK H PARENT 2 17 2 18 88 26 74 51 42 62
REMARK Flexibility Score: inf
ROOT
ATOM      1  C   UNL A   1      41.531  21.660  26.577  1.00  0.00     0.188 C 
ENDROOT
BRANCH   1   2
ATOM      2  C   UNL A   1      40.064  22.042  26.808  1.00  0.00     0.188 C 
BRANCH   2   3
ATOM      3  O   UNL A   1      39.058  21.283  26.150  1.00  0.00    -0.376 OA
BRANCH   3   4
ATOM      4  C   UNL A   1      38.035  21.985  25.449  1.00  0.00     0.202 C 
BRANCH   4   5
ATOM      5  C   UNL A   1      36.859  21.230  24.793  1.00  0.00     0.261 C 
BRANCH   5   6
ATOM      6  O   UNL A   1      35.865  22.059  24.158  1.00  0.00    -0.459 OA
BRANCH   6   7
ATOM      7  C   UNL A   1      34.578  21.889  24.575  1.00  0.00     0.368 C 
ATOM      8  O   UNL A   1      34.133  20.817  24.977  1.00  0.00    -0.245 OA
BRANCH   7   9
ATOM      9  C   UNL A   1      33.735  23.211  24.580  1.00  0.00     0.195 C 
ATOM     10  C   UNL A   1      32.627  23.203  25.677  1.00  0.00     0.081 C 
ATOM     11  C   UNL A   1      34.713  24.366  24.962  1.00  0.00     0.096 C 
ATOM     12  C   UNL A   1      31.916  24.551  25.839  1.00  0.00     0.008 C 
ATOM     13  C   UNL A   1      34.077  25.754  25.186  1.00  0.00     0.061 C 
ATOM     14  C   UNL A   1      32.912  25.652  26.178  1.00  0.00     0.015 C 
BRANCH   9  15
ATOM     15  N   UNL A   1      33.076  23.391  23.246  1.00  0.00    -0.335 N 
ATOM     16  C   UNL A   1      32.560  22.169  22.622  1.00  0.00     0.331 C 
ATOM     17  H   UNL A   1      32.295  24.035  23.367  1.00  0.00     0.347 HD
ATOM     18  H   UNL A   1      33.804  23.736  22.621  1.00  0.00     0.347 HD
ENDBRANCH   9  15
BRANCH  13  19
ATOM     19  S   UNL A   1      33.611  26.449  23.569  1.00  0.00    -0.082 SA
BRANCH  19  20
ATOM     20  C   UNL A   1      32.792  27.910  23.934  1.00  0.00     0.191 A 
ATOM     21  N   UNL A   1      33.336  28.967  24.458  1.00  0.00    -0.146 NA
ATOM     22  N   UNL A   1      31.468  28.005  23.673  1.00  0.00    -0.273 N 
ATOM     23  N   UNL A   1      32.288  29.838  24.566  1.00  0.00    -0.226 N 
ATOM     24  C   UNL A   1      31.122  29.261  24.082  1.00  0.00     0.343 A 
ATOM     25  C   UNL A   1      30.536  27.067  23.081  1.00  0.00     0.157 C 
ATOM     26  H   UNL A   1      32.352  30.748  24.935  1.00  0.00     0.195 HD
ATOM     27  O   UNL A   1      30.023  29.798  24.047  1.00  0.00    -0.246 OA
ENDBRANCH  19  20
ENDBRANCH  13  19
ENDBRANCH   7   9
ENDBRANCH   6   7
ENDBRANCH   5   6
ENDBRANCH   4   5
ENDBRANCH   3   4
ENDBRANCH   2   3
ENDBRANCH   1   2
BRANCH   1  28
ATOM     28  O   UNL A   1      41.737  20.630  25.641  1.00  0.00    -0.376 OA
BRANCH  28  29
ATOM     29  C   UNL A   1      42.245  19.391  26.103  1.00  0.00     0.202 C 
BRANCH  29  30
ATOM     30  C   UNL A   1      43.436  18.651  25.453  1.00  0.00     0.261 C 
BRANCH  30  31
ATOM     31  O   UNL A   1      43.998  19.172  24.241  1.00  0.00    -0.460 OA
BRANCH  31  32
ATOM     32  C   UNL A   1      45.241  19.713  24.315  1.00  0.00     0.338 C 
ATOM     33  O   UNL A   1      46.271  19.223  23.888  1.00  0.00    -0.246 OA
BRANCH  32  34
ATOM     34  C   UNL A   1      45.097  21.113  24.788  1.00  0.00     0.060 A 
ATOM     35  C   UNL A   1      44.674  22.102  23.887  1.00  0.00     0.016 A 
ATOM     36  C   UNL A   1      45.365  21.444  26.116  1.00  0.00     0.016 A 
ATOM     37  C   UNL A   1      44.540  23.428  24.306  1.00  0.00     0.010 A 
ATOM     38  C   UNL A   1      45.256  22.778  26.528  1.00  0.00     0.010 A 
ATOM     39  C   UNL A   1      44.870  23.782  25.619  1.00  0.00    -0.014 A 
BRANCH  39  40
ATOM     40  C   UNL A   1      45.009  25.214  25.998  1.00  0.00     0.031 A 
ATOM     41  C   UNL A   1      46.376  25.839  25.922  1.00  0.00     0.074 A 
ATOM     42  C   UNL A   1      43.954  25.949  26.393  1.00  0.00     0.049 A 
ATOM     43  N   UNL A   1      46.774  27.026  26.301  1.00  0.00    -0.248 NA
ATOM     44  C   UNL A   1      47.439  25.002  25.344  1.00  0.00     0.031 C 
ATOM     45  C   UNL A   1      42.571  25.481  26.452  1.00  0.00     0.029 A 
ATOM     46  N   UNL A   1      43.889  27.248  26.840  1.00  0.00    -0.354 N 
ATOM     47  C   UNL A   1      48.136  27.075  26.019  1.00  0.00     0.074 A 
ATOM     48  C   UNL A   1      48.498  25.784  25.473  1.00  0.00     0.031 C 
ATOM     49  C   UNL A   1      41.796  26.473  26.928  1.00  0.00     0.029 A 
ATOM     50  C   UNL A   1      42.633  27.628  27.253  1.00  0.00     0.049 A 
ATOM     51  H   UNL A   1      44.668  27.850  26.860  1.00  0.00     0.167 HD
ATOM     52  C   UNL A   1      49.002  28.104  26.192  1.00  0.00     0.034 A 
ATOM     53  C   UNL A   1      42.217  28.759  27.860  1.00  0.00     0.034 A 
ATOM     54  C   UNL A   1      48.629  29.380  26.755  1.00  0.00     0.049 A 
ATOM     55  C   UNL A   1      43.220  29.855  28.146  1.00  0.00     0.074 A 
ATOM     56  C   UNL A   1      49.425  30.491  26.971  1.00  0.00     0.029 A 
ATOM     57  N   UNL A   1      47.357  29.711  27.205  1.00  0.00    -0.354 N 
ATOM     58  N   UNL A   1      44.506  29.891  27.880  1.00  0.00    -0.248 NA
ATOM     59  C   UNL A   1      42.714  31.064  28.812  1.00  0.00     0.031 C 
ATOM     60  C   UNL A   1      48.658  31.459  27.627  1.00  0.00     0.029 A 
ATOM     61  C   UNL A   1      47.357  30.994  27.732  1.00  0.00     0.049 A 
ATOM     62  H   UNL A   1      46.570  29.121  27.157  1.00  0.00     0.167 HD
ATOM     63  C   UNL A   1      44.950  31.141  28.312  1.00  0.00     0.074 A 
ATOM     64  C   UNL A   1      43.794  31.831  28.843  1.00  0.00     0.031 C 
ATOM     65  C   UNL A   1      46.199  31.674  28.266  1.00  0.00     0.034 A 
BRANCH  52  66
ATOM     66  C   UNL A   1      50.446  27.864  25.823  1.00  0.00     0.023 A 
ATOM     67  C   UNL A   1      50.898  27.958  24.495  1.00  0.00     0.031 A 
ATOM     68  C   UNL A   1      51.381  27.503  26.811  1.00  0.00     0.131 A 
ATOM     69  C   UNL A   1      52.223  27.622  24.180  1.00  0.00     0.055 A 
ATOM     70  C   UNL A   1      52.720  27.255  26.503  1.00  0.00     0.041 A 
ATOM     71  F   UNL A   1      51.005  27.370  28.092  1.00  0.00    -0.206 F 
ATOM     72  C   UNL A   1      53.144  27.298  25.179  1.00  0.00     0.022 A 
BRANCH  69  73
ATOM     73  S   UNL A   1      52.683  27.459  22.434  1.00  0.00     0.124 S 
ATOM     74  O   UNL A   1      51.396  27.139  21.819  1.00  0.00    -0.237 OA
ATOM     75  O   UNL A   1      53.227  28.776  22.127  1.00  0.00    -0.237 OA
ATOM     76  O   UNL A   1      53.653  26.367  22.434  1.00  0.00    -0.744 OA
ENDBRANCH  69  73
ENDBRANCH  52  66
BRANCH  53  77
ATOM     77  C   UNL A   1      40.795  28.910  28.292  1.00  0.00     0.023 A 
ATOM     78  C   UNL A   1      40.414  28.721  29.630  1.00  0.00     0.031 A 
ATOM     79  C   UNL A   1      39.780  29.180  27.355  1.00  0.00     0.131 A 
ATOM     80  C   UNL A   1      39.056  28.755  29.985  1.00  0.00     0.055 A 
ATOM     81  C   UNL A   1      38.437  29.274  27.723  1.00  0.00     0.041 A 
ATOM     82  F   UNL A   1      40.083  29.359  26.058  1.00  0.00    -0.206 F 
ATOM     83  C   UNL A   1      38.067  29.047  29.044  1.00  0.00     0.022 A 
BRANCH  80  84
ATOM     84  S   UNL A   1      38.590  28.314  31.682  1.00  0.00     0.124 S 
ATOM     85  O   UNL A   1      37.292  28.965  31.812  1.00  0.00    -0.237 OA
ATOM     86  O   UNL A   1      38.574  26.856  31.621  1.00  0.00    -0.237 OA
ATOM     87  O   UNL A   1      39.663  28.889  32.491  1.00  0.00    -0.744 OA
ENDBRANCH  80  84
ENDBRANCH  53  77
BRANCH  65  88
ATOM     88  C   UNL A   1      46.370  33.096  28.751  1.00  0.00     0.023 A 
ATOM     89  C   UNL A   1      46.073  34.204  27.939  1.00  0.00     0.031 A 
ATOM     90  C   UNL A   1      46.843  33.343  30.053  1.00  0.00     0.131 A 
ATOM     91  C   UNL A   1      46.305  35.505  28.415  1.00  0.00     0.055 A 
ATOM     92  C   UNL A   1      47.005  34.639  30.546  1.00  0.00     0.041 A 
ATOM     93  F   UNL A   1      47.149  32.326  30.874  1.00  0.00    -0.206 F 
ATOM     94  C   UNL A   1      46.750  35.729  29.721  1.00  0.00     0.022 A 
BRANCH  91  95
ATOM     95  S   UNL A   1      46.119  36.900  27.271  1.00  0.00     0.124 S 
ATOM     96  O   UNL A   1      46.851  36.431  26.099  1.00  0.00    -0.237 OA
ATOM     97  O   UNL A   1      44.670  36.992  27.124  1.00  0.00    -0.237 OA
ATOM     98  O   UNL A   1      46.740  38.015  27.985  1.00  0.00    -0.744 OA
ENDBRANCH  91  95
ENDBRANCH  65  88
ENDBRANCH  39  40
ENDBRANCH  32  34
ENDBRANCH  31  32
ENDBRANCH  30  31
ENDBRANCH  29  30
ENDBRANCH  28  29
ENDBRANCH   1  28
TORSDOF 23
ENDMDL
