MODEL 1
REMARK VINA RESULT:      -9.6      0.000      0.000
REMARK SMILES O=C1CC[C@H](CNC(=O)N[C@@H]2C=C[C@@H](C(=O)OCCOCCOCCOC(=O)c3ccc(-c4c5nc(c(-c6cc(S(=O)(=O)[O-])ccc6F)c6ccc([nH]6)c(-c6cc(S(=O)(=O)[O-])ccc6F)c6nc(c(-c7cc(S(=O)(=O)[O-])ccc7F)c7ccc4[nH]7)C=C6)C=C5)cc3)C2)N1
REMARK SMILES IDX 21 1 20 2 19 3 18 4 17 5 15 6 16 7 14 8 11 9 12 10 92 11
REMARK SMILES IDX 13 12 10 13 7 14 8 15 9 17 6 19 5 20 1 21 2 22 3 23 93 24
REMARK SMILES IDX 4 25 22 27 23 28 24 29 25 30 26 31 27 32 28 33 29 34 30 35
REMARK SMILES IDX 91 36 31 37 90 38 32 39 33 40 34 41 84 42 35 43 89 44 83 45
REMARK SMILES IDX 85 46 36 47 88 48 82 49 81 50 37 52 69 53 49 54 68 55 50 56
REMARK SMILES IDX 53 57 67 58 86 59 51 60 52 61 66 63 87 64 54 65 38 66 39 67
REMARK SMILES IDX 47 68 40 69 46 70 48 71 45 72 41 73 42 74 43 75 44 76 70 77
REMARK SMILES IDX 71 78 79 79 72 80 78 81 80 82 77 83 73 84 74 85 75 86 76 87
REMARK SMILES IDX 55 88 56 89 64 90 57 91 63 92 65 93 62 94 58 95 59 96 60 97
REMARK SMILES IDX 61 98
REMARK H PARENT 7 16 10 18 93 26 85 51 53 62
REMARK Flexibility Score: inf
ROOT
ATOM      1  C   UNL A   1      36.876  33.436  29.477  1.00  0.00     0.188 C 
ENDROOT
BRANCH   1   2
ATOM      2  O   UNL A   1      35.658  33.048  30.094  1.00  0.00    -0.376 OA
BRANCH   2   3
ATOM      3  C   UNL A   1      34.559  32.670  29.277  1.00  0.00     0.202 C 
BRANCH   3   4
ATOM      4  C   UNL A   1      34.870  32.082  27.899  1.00  0.00     0.261 C 
BRANCH   4   5
ATOM      5  O   UNL A   1      33.954  31.035  27.549  1.00  0.00    -0.463 OA
BRANCH   5   6
ATOM      6  C   UNL A   1      34.467  29.776  27.521  1.00  0.00     0.312 C 
ATOM      7  O   UNL A   1      35.493  29.442  28.103  1.00  0.00    -0.252 OA
BRANCH   6   8
ATOM      8  C   UNL A   1      33.559  28.803  26.754  1.00  0.00     0.124 C 
ATOM      9  C   UNL A   1      31.805  29.014  24.995  1.00  0.00     0.107 C 
ATOM     10  C   UNL A   1      33.140  28.637  24.438  1.00  0.00    -0.006 C 
ATOM     11  C   UNL A   1      32.146  29.319  26.453  1.00  0.00     0.048 C 
ATOM     12  C   UNL A   1      34.085  28.527  25.379  1.00  0.00    -0.014 C 
BRANCH   9  13
ATOM     13  N   UNL A   1      30.889  27.911  24.823  1.00  0.00    -0.332 N 
ATOM     14  N   UNL A   1      29.937  28.128  22.655  1.00  0.00    -0.336 N 
ATOM     15  C   UNL A   1      30.144  27.465  23.802  1.00  0.00     0.315 C 
ATOM     16  H   UNL A   1      29.487  27.584  21.969  1.00  0.00     0.165 HD
ATOM     17  O   UNL A   1      29.608  26.362  23.926  1.00  0.00    -0.249 OA
ATOM     18  H   UNL A   1      30.787  27.368  25.638  1.00  0.00     0.165 HD
BRANCH  14  19
ATOM     19  C   UNL A   1      30.236  29.475  22.211  1.00  0.00     0.142 C 
BRANCH  19  20
ATOM     20  C   UNL A   1      28.999  30.362  21.976  1.00  0.00     0.101 C 
ATOM     21  O   UNL A   1      28.754  33.754  22.889  1.00  0.00    -0.275 OA
ATOM     22  C   UNL A   1      28.611  32.559  22.770  1.00  0.00     0.220 C 
ATOM     23  C   UNL A   1      27.545  31.711  23.410  1.00  0.00     0.102 C 
ATOM     24  N   UNL A   1      29.376  31.752  21.963  1.00  0.00    -0.352 N 
ATOM     25  C   UNL A   1      27.938  30.270  23.073  1.00  0.00     0.036 C 
ATOM     26  H   UNL A   1      30.122  32.096  21.421  1.00  0.00     0.163 HD
ENDBRANCH  19  20
ENDBRANCH  14  19
ENDBRANCH   9  13
ENDBRANCH   6   8
ENDBRANCH   5   6
ENDBRANCH   4   5
ENDBRANCH   3   4
ENDBRANCH   2   3
ENDBRANCH   1   2
BRANCH   1  27
ATOM     27  C   UNL A   1      38.134  32.561  29.619  1.00  0.00     0.188 C 
BRANCH  27  28
ATOM     28  O   UNL A   1      38.230  31.271  29.049  1.00  0.00    -0.376 OA
BRANCH  28  29
ATOM     29  C   UNL A   1      39.209  30.377  29.552  1.00  0.00     0.202 C 
BRANCH  29  30
ATOM     30  C   UNL A   1      38.721  29.151  30.324  1.00  0.00     0.261 C 
BRANCH  30  31
ATOM     31  O   UNL A   1      37.578  29.423  31.153  1.00  0.00    -0.460 OA
BRANCH  31  32
ATOM     32  C   UNL A   1      37.721  29.056  32.449  1.00  0.00     0.338 C 
ATOM     33  O   UNL A   1      37.636  27.931  32.911  1.00  0.00    -0.246 OA
BRANCH  32  34
ATOM     34  C   UNL A   1      38.178  30.183  33.269  1.00  0.00     0.060 A 
ATOM     35  C   UNL A   1      39.317  30.002  34.067  1.00  0.00     0.016 A 
ATOM     36  C   UNL A   1      37.414  31.344  33.357  1.00  0.00     0.016 A 
ATOM     37  C   UNL A   1      39.683  30.982  34.984  1.00  0.00     0.010 A 
ATOM     38  C   UNL A   1      37.776  32.318  34.287  1.00  0.00     0.010 A 
ATOM     39  C   UNL A   1      38.895  32.130  35.118  1.00  0.00    -0.014 A 
BRANCH  39  40
ATOM     40  C   UNL A   1      39.183  33.113  36.184  1.00  0.00     0.031 A 
ATOM     41  C   UNL A   1      40.259  34.136  35.964  1.00  0.00     0.074 A 
ATOM     42  C   UNL A   1      38.509  33.046  37.346  1.00  0.00     0.049 A 
ATOM     43  N   UNL A   1      40.795  34.971  36.813  1.00  0.00    -0.248 NA
ATOM     44  C   UNL A   1      40.813  34.222  34.602  1.00  0.00     0.031 C 
ATOM     45  C   UNL A   1      37.415  32.115  37.630  1.00  0.00     0.029 A 
ATOM     46  N   UNL A   1      38.662  33.750  38.511  1.00  0.00    -0.354 N 
ATOM     47  C   UNL A   1      41.768  35.665  36.101  1.00  0.00     0.074 A 
ATOM     48  C   UNL A   1      41.753  35.146  34.750  1.00  0.00     0.031 C 
ATOM     49  C   UNL A   1      37.019  32.283  38.902  1.00  0.00     0.029 A 
ATOM     50  C   UNL A   1      37.867  33.290  39.535  1.00  0.00     0.049 A 
ATOM     51  H   UNL A   1      39.281  34.510  38.607  1.00  0.00     0.167 HD
ATOM     52  C   UNL A   1      42.599  36.637  36.548  1.00  0.00     0.034 A 
ATOM     53  C   UNL A   1      37.864  33.609  40.844  1.00  0.00     0.034 A 
ATOM     54  C   UNL A   1      42.587  37.126  37.906  1.00  0.00     0.049 A 
ATOM     55  C   UNL A   1      38.841  34.654  41.328  1.00  0.00     0.074 A 
ATOM     56  C   UNL A   1      43.361  38.126  38.470  1.00  0.00     0.029 A 
ATOM     57  N   UNL A   1      41.766  36.643  38.917  1.00  0.00    -0.354 N 
ATOM     58  N   UNL A   1      39.751  35.312  40.645  1.00  0.00    -0.248 NA
ATOM     59  C   UNL A   1      38.787  35.003  42.752  1.00  0.00     0.031 C 
ATOM     60  C   UNL A   1      43.061  38.195  39.834  1.00  0.00     0.029 A 
ATOM     61  C   UNL A   1      42.041  37.297  40.107  1.00  0.00     0.049 A 
ATOM     62  H   UNL A   1      41.090  35.937  38.804  1.00  0.00     0.167 HD
ATOM     63  C   UNL A   1      40.356  36.175  41.555  1.00  0.00     0.074 A 
ATOM     64  C   UNL A   1      39.694  35.965  42.826  1.00  0.00     0.031 C 
ATOM     65  C   UNL A   1      41.366  37.062  41.362  1.00  0.00     0.034 A 
BRANCH  52  66
ATOM     66  C   UNL A   1      43.628  37.183  35.590  1.00  0.00     0.023 A 
ATOM     67  C   UNL A   1      43.331  38.208  34.674  1.00  0.00     0.031 A 
ATOM     68  C   UNL A   1      44.938  36.669  35.598  1.00  0.00     0.131 A 
ATOM     69  C   UNL A   1      44.316  38.652  33.777  1.00  0.00     0.055 A 
ATOM     70  C   UNL A   1      45.932  37.162  34.751  1.00  0.00     0.041 A 
ATOM     71  F   UNL A   1      45.273  35.672  36.434  1.00  0.00    -0.206 F 
ATOM     72  C   UNL A   1      45.621  38.154  33.828  1.00  0.00     0.022 A 
BRANCH  69  73
ATOM     73  S   UNL A   1      43.846  39.822  32.472  1.00  0.00     0.124 S 
ATOM     74  O   UNL A   1      44.992  40.729  32.465  1.00  0.00    -0.237 OA
ATOM     75  O   UNL A   1      43.709  38.957  31.306  1.00  0.00    -0.237 OA
ATOM     76  O   UNL A   1      42.602  40.406  32.965  1.00  0.00    -0.744 OA
ENDBRANCH  69  73
ENDBRANCH  52  66
BRANCH  53  77
ATOM     77  C   UNL A   1      36.963  32.900  41.798  1.00  0.00     0.023 A 
ATOM     78  C   UNL A   1      35.641  33.326  42.002  1.00  0.00     0.031 A 
ATOM     79  C   UNL A   1      37.431  31.819  42.567  1.00  0.00     0.131 A 
ATOM     80  C   UNL A   1      34.854  32.714  42.989  1.00  0.00     0.055 A 
ATOM     81  C   UNL A   1      36.623  31.172  43.503  1.00  0.00     0.041 A 
ATOM     82  F   UNL A   1      38.687  31.369  42.415  1.00  0.00    -0.206 F 
ATOM     83  C   UNL A   1      35.330  31.631  43.732  1.00  0.00     0.022 A 
BRANCH  80  84
ATOM     84  S   UNL A   1      33.232  33.432  43.370  1.00  0.00     0.124 S 
ATOM     85  O   UNL A   1      32.507  33.204  42.125  1.00  0.00    -0.237 OA
ATOM     86  O   UNL A   1      32.811  32.631  44.514  1.00  0.00    -0.237 OA
ATOM     87  O   UNL A   1      33.540  34.829  43.667  1.00  0.00    -0.744 OA
ENDBRANCH  80  84
ENDBRANCH  53  77
BRANCH  65  88
ATOM     88  C   UNL A   1      41.768  37.902  42.549  1.00  0.00     0.023 A 
ATOM     89  C   UNL A   1      42.814  37.517  43.406  1.00  0.00     0.031 A 
ATOM     90  C   UNL A   1      41.084  39.098  42.831  1.00  0.00     0.131 A 
ATOM     91  C   UNL A   1      43.105  38.290  44.539  1.00  0.00     0.055 A 
ATOM     92  C   UNL A   1      41.422  39.895  43.925  1.00  0.00     0.041 A 
ATOM     93  F   UNL A   1      40.077  39.511  42.046  1.00  0.00    -0.206 F 
ATOM     94  C   UNL A   1      42.428  39.486  44.794  1.00  0.00     0.022 A 
BRANCH  91  95
ATOM     95  S   UNL A   1      44.320  37.662  45.730  1.00  0.00     0.124 S 
ATOM     96  O   UNL A   1      44.362  38.735  46.717  1.00  0.00    -0.237 OA
ATOM     97  O   UNL A   1      43.708  36.413  46.172  1.00  0.00    -0.237 OA
ATOM     98  O   UNL A   1      45.535  37.506  44.930  1.00  0.00    -0.744 OA
ENDBRANCH  91  95
ENDBRANCH  65  88
ENDBRANCH  39  40
ENDBRANCH  32  34
ENDBRANCH  31  32
ENDBRANCH  30  31
ENDBRANCH  29  30
ENDBRANCH  28  29
ENDBRANCH  27  28
ENDBRANCH   1  27
TORSDOF 23
ENDMDL
MODEL 2
REMARK VINA RESULT:      -8.8      2.023      2.313
REMARK SMILES O=C1CC[C@H](CNC(=O)N[C@@H]2C=C[C@@H](C(=O)OCCOCCOCCOC(=O)c3ccc(-c4c5nc(c(-c6cc(S(=O)(=O)[O-])ccc6F)c6ccc([nH]6)c(-c6cc(S(=O)(=O)[O-])ccc6F)c6nc(c(-c7cc(S(=O)(=O)[O-])ccc7F)c7ccc4[nH]7)C=C6)C=C5)cc3)C2)N1
REMARK SMILES IDX 21 1 20 2 19 3 18 4 17 5 15 6 16 7 14 8 11 9 12 10 92 11
REMARK SMILES IDX 13 12 10 13 7 14 8 15 9 17 6 19 5 20 1 21 2 22 3 23 93 24
REMARK SMILES IDX 4 25 22 27 23 28 24 29 25 30 26 31 27 32 28 33 29 34 30 35
REMARK SMILES IDX 91 36 31 37 90 38 32 39 33 40 34 41 84 42 35 43 89 44 83 45
REMARK SMILES IDX 85 46 36 47 88 48 82 49 81 50 37 52 69 53 49 54 68 55 50 56
REMARK SMILES IDX 53 57 67 58 86 59 51 60 52 61 66 63 87 64 54 65 38 66 39 67
REMARK SMILES IDX 47 68 40 69 46 70 48 71 45 72 41 73 42 74 43 75 44 76 70 77
REMARK SMILES IDX 71 78 79 79 72 80 78 81 80 82 77 83 73 84 74 85 75 86 76 87
REMARK SMILES IDX 55 88 56 89 64 90 57 91 63 92 65 93 62 94 58 95 59 96 60 97
REMARK SMILES IDX 61 98
REMARK H PARENT 7 16 10 18 93 26 85 51 53 62
REMARK Flexibility Score: inf
ROOT
ATOM      1  C   UNL A   1      36.705  33.315  29.366  1.00  0.00     0.188 C 
ENDROOT
BRANCH   1   2
ATOM      2  O   UNL A   1      35.534  32.850  30.021  1.00  0.00    -0.376 OA
BRANCH   2   3
ATOM      3  C   UNL A   1      34.415  32.454  29.240  1.00  0.00     0.202 C 
BRANCH   3   4
ATOM      4  C   UNL A   1      34.688  31.919  27.833  1.00  0.00     0.261 C 
BRANCH   4   5
ATOM      5  O   UNL A   1      33.804  30.840  27.494  1.00  0.00    -0.463 OA
BRANCH   5   6
ATOM      6  C   UNL A   1      34.380  29.616  27.359  1.00  0.00     0.312 C 
ATOM      7  O   UNL A   1      35.446  29.300  27.875  1.00  0.00    -0.252 OA
BRANCH   6   8
ATOM      8  C   UNL A   1      33.490  28.649  26.564  1.00  0.00     0.124 C 
ATOM      9  C   UNL A   1      31.628  28.881  24.923  1.00  0.00     0.107 C 
ATOM     10  C   UNL A   1      32.949  28.636  24.267  1.00  0.00    -0.006 C 
ATOM     11  C   UNL A   1      32.033  29.093  26.380  1.00  0.00     0.048 C 
ATOM     12  C   UNL A   1      33.952  28.515  25.146  1.00  0.00    -0.014 C 
BRANCH   9  13
ATOM     13  N   UNL A   1      30.772  27.738  24.710  1.00  0.00    -0.332 N 
ATOM     14  N   UNL A   1      29.691  28.057  22.616  1.00  0.00    -0.336 N 
ATOM     15  C   UNL A   1      30.000  27.324  23.696  1.00  0.00     0.315 C 
ATOM     16  H   UNL A   1      29.238  27.539  21.912  1.00  0.00     0.165 HD
ATOM     17  O   UNL A   1      29.539  26.182  23.758  1.00  0.00    -0.249 OA
ATOM     18  H   UNL A   1      30.748  27.129  25.483  1.00  0.00     0.165 HD
BRANCH  14  19
ATOM     19  C   UNL A   1      29.883  29.450  22.266  1.00  0.00     0.142 C 
BRANCH  19  20
ATOM     20  C   UNL A   1      28.733  30.382  22.688  1.00  0.00     0.101 C 
ATOM     21  O   UNL A   1      27.724  33.259  20.926  1.00  0.00    -0.275 OA
ATOM     22  C   UNL A   1      28.131  32.471  21.749  1.00  0.00     0.220 C 
ATOM     23  C   UNL A   1      28.537  32.775  23.165  1.00  0.00     0.102 C 
ATOM     24  N   UNL A   1      28.240  31.116  21.551  1.00  0.00    -0.352 N 
ATOM     25  C   UNL A   1      29.134  31.467  23.690  1.00  0.00     0.036 C 
ATOM     26  H   UNL A   1      28.001  30.681  20.701  1.00  0.00     0.163 HD
ENDBRANCH  19  20
ENDBRANCH  14  19
ENDBRANCH   9  13
ENDBRANCH   6   8
ENDBRANCH   5   6
ENDBRANCH   4   5
ENDBRANCH   3   4
ENDBRANCH   2   3
ENDBRANCH   1   2
BRANCH   1  27
ATOM     27  C   UNL A   1      37.974  32.445  29.331  1.00  0.00     0.188 C 
BRANCH  27  28
ATOM     28  O   UNL A   1      37.944  31.072  28.999  1.00  0.00    -0.376 OA
BRANCH  28  29
ATOM     29  C   UNL A   1      39.085  30.279  29.284  1.00  0.00     0.202 C 
BRANCH  29  30
ATOM     30  C   UNL A   1      38.883  29.025  30.135  1.00  0.00     0.261 C 
BRANCH  30  31
ATOM     31  O   UNL A   1      37.686  29.069  30.931  1.00  0.00    -0.460 OA
BRANCH  31  32
ATOM     32  C   UNL A   1      37.868  28.775  32.240  1.00  0.00     0.338 C 
ATOM     33  O   UNL A   1      37.774  27.681  32.771  1.00  0.00    -0.246 OA
BRANCH  32  34
ATOM     34  C   UNL A   1      38.381  29.936  32.975  1.00  0.00     0.060 A 
ATOM     35  C   UNL A   1      39.517  29.762  33.780  1.00  0.00     0.016 A 
ATOM     36  C   UNL A   1      37.671  31.134  32.983  1.00  0.00     0.016 A 
ATOM     37  C   UNL A   1      39.934  30.787  34.622  1.00  0.00     0.010 A 
ATOM     38  C   UNL A   1      38.083  32.155  33.838  1.00  0.00     0.010 A 
ATOM     39  C   UNL A   1      39.199  31.977  34.676  1.00  0.00    -0.014 A 
BRANCH  39  40
ATOM     40  C   UNL A   1      39.538  33.019  35.668  1.00  0.00     0.031 A 
ATOM     41  C   UNL A   1      40.628  34.002  35.351  1.00  0.00     0.074 A 
ATOM     42  C   UNL A   1      38.898  33.042  36.850  1.00  0.00     0.049 A 
ATOM     43  N   UNL A   1      41.206  34.877  36.129  1.00  0.00    -0.248 NA
ATOM     44  C   UNL A   1      41.143  33.987  33.972  1.00  0.00     0.031 C 
ATOM     45  C   UNL A   1      37.794  32.157  37.224  1.00  0.00     0.029 A 
ATOM     46  N   UNL A   1      39.100  33.817  37.962  1.00  0.00    -0.354 N 
ATOM     47  C   UNL A   1      42.172  35.502  35.346  1.00  0.00     0.074 A 
ATOM     48  C   UNL A   1      42.106  34.897  34.032  1.00  0.00     0.031 C 
ATOM     49  C   UNL A   1      37.439  32.416  38.493  1.00  0.00     0.029 A 
ATOM     50  C   UNL A   1      38.325  33.441  39.035  1.00  0.00     0.049 A 
ATOM     51  H   UNL A   1      39.737  34.567  37.990  1.00  0.00     0.167 HD
ATOM     52  C   UNL A   1      43.036  36.482  35.705  1.00  0.00     0.034 A 
ATOM     53  C   UNL A   1      38.368  33.845  40.320  1.00  0.00     0.034 A 
ATOM     54  C   UNL A   1      43.074  37.058  37.028  1.00  0.00     0.049 A 
ATOM     55  C   UNL A   1      39.380  34.896  40.707  1.00  0.00     0.074 A 
ATOM     56  C   UNL A   1      43.885  38.074  37.503  1.00  0.00     0.029 A 
ATOM     57  N   UNL A   1      42.273  36.659  38.091  1.00  0.00    -0.354 N 
ATOM     58  N   UNL A   1      40.283  35.488  39.958  1.00  0.00    -0.248 NA
ATOM     59  C   UNL A   1      39.375  35.338  42.106  1.00  0.00     0.031 C 
ATOM     60  C   UNL A   1      43.626  38.238  38.867  1.00  0.00     0.029 A 
ATOM     61  C   UNL A   1      42.596  37.383  39.227  1.00  0.00     0.049 A 
ATOM     62  H   UNL A   1      41.579  35.963  38.043  1.00  0.00     0.167 HD
ATOM     63  C   UNL A   1      40.932  36.395  40.792  1.00  0.00     0.074 A 
ATOM     64  C   UNL A   1      40.304  36.282  42.092  1.00  0.00     0.031 C 
ATOM     65  C   UNL A   1      41.954  37.245  40.514  1.00  0.00     0.034 A 
BRANCH  52  66
ATOM     66  C   UNL A   1      44.047  36.942  34.684  1.00  0.00     0.023 A 
ATOM     67  C   UNL A   1      45.257  36.260  34.468  1.00  0.00     0.031 A 
ATOM     68  C   UNL A   1      43.788  38.086  33.906  1.00  0.00     0.131 A 
ATOM     69  C   UNL A   1      46.181  36.754  33.532  1.00  0.00     0.055 A 
ATOM     70  C   UNL A   1      44.679  38.533  32.929  1.00  0.00     0.041 A 
ATOM     71  F   UNL A   1      42.660  38.792  34.087  1.00  0.00    -0.206 F 
ATOM     72  C   UNL A   1      45.888  37.870  32.743  1.00  0.00     0.022 A 
BRANCH  69  73
ATOM     73  S   UNL A   1      47.817  35.978  33.425  1.00  0.00     0.124 S 
ATOM     74  O   UNL A   1      48.699  37.116  33.670  1.00  0.00    -0.237 OA
ATOM     75  O   UNL A   1      47.761  34.975  34.482  1.00  0.00    -0.237 OA
ATOM     76  O   UNL A   1      47.858  35.449  32.064  1.00  0.00    -0.744 OA
ENDBRANCH  69  73
ENDBRANCH  52  66
BRANCH  53  77
ATOM     77  C   UNL A   1      37.481  33.219  41.343  1.00  0.00     0.023 A 
ATOM     78  C   UNL A   1      36.143  33.618  41.486  1.00  0.00     0.031 A 
ATOM     79  C   UNL A   1      37.977  32.252  42.237  1.00  0.00     0.131 A 
ATOM     80  C   UNL A   1      35.366  33.096  42.532  1.00  0.00     0.055 A 
ATOM     81  C   UNL A   1      37.181  31.690  43.236  1.00  0.00     0.041 A 
ATOM     82  F   UNL A   1      39.250  31.834  42.148  1.00  0.00    -0.206 F 
ATOM     83  C   UNL A   1      35.870  32.125  43.399  1.00  0.00     0.022 A 
BRANCH  80  84
ATOM     84  S   UNL A   1      33.716  33.794  42.814  1.00  0.00     0.124 S 
ATOM     85  O   UNL A   1      33.942  34.626  43.990  1.00  0.00    -0.237 OA
ATOM     86  O   UNL A   1      33.472  34.504  41.563  1.00  0.00    -0.237 OA
ATOM     87  O   UNL A   1      32.880  32.615  43.034  1.00  0.00    -0.744 OA
ENDBRANCH  80  84
ENDBRANCH  53  77
BRANCH  65  88
ATOM     88  C   UNL A   1      42.409  38.150  41.632  1.00  0.00     0.023 A 
ATOM     89  C   UNL A   1      41.844  39.422  41.830  1.00  0.00     0.031 A 
ATOM     90  C   UNL A   1      43.432  37.735  42.502  1.00  0.00     0.131 A 
ATOM     91  C   UNL A   1      42.348  40.258  42.835  1.00  0.00     0.055 A 
ATOM     92  C   UNL A   1      43.886  38.548  43.541  1.00  0.00     0.041 A 
ATOM     93  F   UNL A   1      44.007  36.531  42.356  1.00  0.00    -0.206 F 
ATOM     94  C   UNL A   1      43.352  39.823  43.703  1.00  0.00     0.022 A 
BRANCH  91  95
ATOM     95  S   UNL A   1      41.737  41.963  42.934  1.00  0.00     0.124 S 
ATOM     96  O   UNL A   1      42.971  42.734  42.835  1.00  0.00    -0.237 OA
ATOM     97  O   UNL A   1      40.842  42.042  41.783  1.00  0.00    -0.237 OA
ATOM     98  O   UNL A   1      41.075  42.015  44.237  1.00  0.00    -0.744 OA
ENDBRANCH  91  95
ENDBRANCH  65  88
ENDBRANCH  39  40
ENDBRANCH  32  34
ENDBRANCH  31  32
ENDBRANCH  30  31
ENDBRANCH  29  30
ENDBRANCH  28  29
ENDBRANCH  27  28
ENDBRANCH   1  27
TORSDOF 23
ENDMDL
MODEL 3
REMARK VINA RESULT:      -8.8     10.190     17.832
REMARK SMILES O=C1CC[C@H](CNC(=O)N[C@@H]2C=C[C@@H](C(=O)OCCOCCOCCOC(=O)c3ccc(-c4c5nc(c(-c6cc(S(=O)(=O)[O-])ccc6F)c6ccc([nH]6)c(-c6cc(S(=O)(=O)[O-])ccc6F)c6nc(c(-c7cc(S(=O)(=O)[O-])ccc7F)c7ccc4[nH]7)C=C6)C=C5)cc3)C2)N1
REMARK SMILES IDX 21 1 20 2 19 3 18 4 17 5 15 6 16 7 14 8 11 9 12 10 92 11
REMARK SMILES IDX 13 12 10 13 7 14 8 15 9 17 6 19 5 20 1 21 2 22 3 23 93 24
REMARK SMILES IDX 4 25 22 27 23 28 24 29 25 30 26 31 27 32 28 33 29 34 30 35
REMARK SMILES IDX 91 36 31 37 90 38 32 39 33 40 34 41 84 42 35 43 89 44 83 45
REMARK SMILES IDX 85 46 36 47 88 48 82 49 81 50 37 52 69 53 49 54 68 55 50 56
REMARK SMILES IDX 53 57 67 58 86 59 51 60 52 61 66 63 87 64 54 65 38 66 39 67
REMARK SMILES IDX 47 68 40 69 46 70 48 71 45 72 41 73 42 74 43 75 44 76 70 77
REMARK SMILES IDX 71 78 79 79 72 80 78 81 80 82 77 83 73 84 74 85 75 86 76 87
REMARK SMILES IDX 55 88 56 89 64 90 57 91 63 92 65 93 62 94 58 95 59 96 60 97
REMARK SMILES IDX 61 98
REMARK H PARENT 7 16 10 18 93 26 85 51 53 62
REMARK Flexibility Score: inf
ROOT
ATOM      1  C   UNL A   1      47.815  35.221  29.678  1.00  0.00     0.188 C 
ENDROOT
BRANCH   1   2
ATOM      2  O   UNL A   1      47.232  34.324  28.744  1.00  0.00    -0.376 OA
BRANCH   2   3
ATOM      3  C   UNL A   1      46.306  34.824  27.790  1.00  0.00     0.202 C 
BRANCH   3   4
ATOM      4  C   UNL A   1      45.868  33.881  26.667  1.00  0.00     0.261 C 
BRANCH   4   5
ATOM      5  O   UNL A   1      45.297  32.669  27.182  1.00  0.00    -0.463 OA
BRANCH   5   6
ATOM      6  C   UNL A   1      45.821  31.510  26.702  1.00  0.00     0.312 C 
ATOM      7  O   UNL A   1      46.936  31.419  26.199  1.00  0.00    -0.252 OA
BRANCH   6   8
ATOM      8  C   UNL A   1      44.890  30.314  26.951  1.00  0.00     0.124 C 
ATOM      9  C   UNL A   1      43.938  29.185  28.959  1.00  0.00     0.107 C 
ATOM     10  C   UNL A   1      42.982  30.147  28.329  1.00  0.00    -0.006 C 
ATOM     11  C   UNL A   1      45.224  29.465  28.183  1.00  0.00     0.048 C 
ATOM     12  C   UNL A   1      43.493  30.759  27.253  1.00  0.00    -0.014 C 
BRANCH   9  13
ATOM     13  N   UNL A   1      43.434  27.841  28.800  1.00  0.00    -0.332 N 
ATOM     14  N   UNL A   1      41.850  27.481  30.536  1.00  0.00    -0.336 N 
ATOM     15  C   UNL A   1      42.482  27.122  29.409  1.00  0.00     0.315 C 
ATOM     16  H   UNL A   1      41.085  26.901  30.753  1.00  0.00     0.165 HD
ATOM     17  O   UNL A   1      42.162  26.047  28.896  1.00  0.00    -0.249 OA
ATOM     18  H   UNL A   1      43.894  27.342  28.086  1.00  0.00     0.165 HD
BRANCH  14  19
ATOM     19  C   UNL A   1      42.055  28.541  31.502  1.00  0.00     0.142 C 
BRANCH  19  20
ATOM     20  C   UNL A   1      40.786  29.336  31.861  1.00  0.00     0.101 C 
ATOM     21  O   UNL A   1      37.762  27.908  32.962  1.00  0.00    -0.275 OA
ATOM     22  C   UNL A   1      38.630  28.491  32.354  1.00  0.00     0.220 C 
ATOM     23  C   UNL A   1      38.459  29.308  31.103  1.00  0.00     0.102 C 
ATOM     24  N   UNL A   1      39.946  28.566  32.742  1.00  0.00    -0.352 N 
ATOM     25  C   UNL A   1      39.885  29.660  30.669  1.00  0.00     0.036 C 
ATOM     26  H   UNL A   1      40.287  28.127  33.554  1.00  0.00     0.163 HD
ENDBRANCH  19  20
ENDBRANCH  14  19
ENDBRANCH   9  13
ENDBRANCH   6   8
ENDBRANCH   5   6
ENDBRANCH   4   5
ENDBRANCH   3   4
ENDBRANCH   2   3
ENDBRANCH   1   2
BRANCH   1  27
ATOM     27  C   UNL A   1      49.256  35.724  29.479  1.00  0.00     0.188 C 
BRANCH  27  28
ATOM     28  O   UNL A   1      49.909  36.550  30.421  1.00  0.00    -0.376 OA
BRANCH  28  29
ATOM     29  C   UNL A   1      50.523  35.944  31.546  1.00  0.00     0.202 C 
BRANCH  29  30
ATOM     30  C   UNL A   1      51.981  35.506  31.410  1.00  0.00     0.261 C 
BRANCH  30  31
ATOM     31  O   UNL A   1      52.125  34.188  30.852  1.00  0.00    -0.460 OA
BRANCH  31  32
ATOM     32  C   UNL A   1      52.166  33.190  31.767  1.00  0.00     0.338 C 
ATOM     33  O   UNL A   1      52.790  33.175  32.815  1.00  0.00    -0.246 OA
BRANCH  32  34
ATOM     34  C   UNL A   1      51.203  32.134  31.439  1.00  0.00     0.060 A 
ATOM     35  C   UNL A   1      51.673  30.815  31.347  1.00  0.00     0.016 A 
ATOM     36  C   UNL A   1      49.896  32.458  31.087  1.00  0.00     0.016 A 
ATOM     37  C   UNL A   1      50.834  29.812  30.874  1.00  0.00     0.010 A 
ATOM     38  C   UNL A   1      49.061  31.454  30.600  1.00  0.00     0.010 A 
ATOM     39  C   UNL A   1      49.534  30.135  30.469  1.00  0.00    -0.014 A 
BRANCH  39  40
ATOM     40  C   UNL A   1      48.677  29.114  29.828  1.00  0.00     0.031 A 
ATOM     41  C   UNL A   1      47.726  28.321  30.677  1.00  0.00     0.074 A 
ATOM     42  C   UNL A   1      48.794  28.885  28.509  1.00  0.00     0.049 A 
ATOM     43  N   UNL A   1      47.016  27.270  30.365  1.00  0.00    -0.248 NA
ATOM     44  C   UNL A   1      47.562  28.768  32.070  1.00  0.00     0.031 C 
ATOM     45  C   UNL A   1      49.657  29.640  27.599  1.00  0.00     0.029 A 
ATOM     46  N   UNL A   1      48.212  27.936  27.710  1.00  0.00    -0.354 N 
ATOM     47  C   UNL A   1      46.340  26.910  31.527  1.00  0.00     0.074 A 
ATOM     48  C   UNL A   1      46.732  27.853  32.553  1.00  0.00     0.031 C 
ATOM     49  C   UNL A   1      49.573  29.102  26.372  1.00  0.00     0.029 A 
ATOM     50  C   UNL A   1      48.698  27.934  26.423  1.00  0.00     0.049 A 
ATOM     51  H   UNL A   1      47.515  27.316  28.026  1.00  0.00     0.167 HD
ATOM     52  C   UNL A   1      45.481  25.879  31.710  1.00  0.00     0.034 A 
ATOM     53  C   UNL A   1      48.498  27.056  25.421  1.00  0.00     0.034 A 
ATOM     54  C   UNL A   1      45.116  24.956  30.661  1.00  0.00     0.049 A 
ATOM     55  C   UNL A   1      47.582  25.882  25.669  1.00  0.00     0.074 A 
ATOM     56  C   UNL A   1      44.236  23.890  30.718  1.00  0.00     0.029 A 
ATOM     57  N   UNL A   1      45.622  24.984  29.368  1.00  0.00    -0.354 N 
ATOM     58  N   UNL A   1      46.939  25.554  26.768  1.00  0.00    -0.248 NA
ATOM     59  C   UNL A   1      47.359  24.966  24.545  1.00  0.00     0.031 C 
ATOM     60  C   UNL A   1      44.266  23.232  29.485  1.00  0.00     0.029 A 
ATOM     61  C   UNL A   1      45.101  23.934  28.630  1.00  0.00     0.049 A 
ATOM     62  H   UNL A   1      46.259  25.652  29.026  1.00  0.00     0.167 HD
ATOM     63  C   UNL A   1      46.211  24.410  26.454  1.00  0.00     0.074 A 
ATOM     64  C   UNL A   1      46.482  24.117  25.062  1.00  0.00     0.031 C 
ATOM     65  C   UNL A   1      45.393  23.665  27.241  1.00  0.00     0.034 A 
BRANCH  52  66
ATOM     66  C   UNL A   1      44.934  25.652  33.097  1.00  0.00     0.023 A 
ATOM     67  C   UNL A   1      43.782  26.308  33.565  1.00  0.00     0.031 A 
ATOM     68  C   UNL A   1      45.579  24.754  33.968  1.00  0.00     0.131 A 
ATOM     69  C   UNL A   1      43.338  26.090  34.880  1.00  0.00     0.055 A 
ATOM     70  C   UNL A   1      45.094  24.490  35.250  1.00  0.00     0.041 A 
ATOM     71  F   UNL A   1      46.699  24.119  33.585  1.00  0.00    -0.206 F 
ATOM     72  C   UNL A   1      43.971  25.166  35.716  1.00  0.00     0.022 A 
BRANCH  69  73
ATOM     73  S   UNL A   1      41.977  27.104  35.523  1.00  0.00     0.124 S 
ATOM     74  O   UNL A   1      42.086  26.864  36.960  1.00  0.00    -0.237 OA
ATOM     75  O   UNL A   1      42.339  28.442  35.070  1.00  0.00    -0.237 OA
ATOM     76  O   UNL A   1      40.792  26.530  34.890  1.00  0.00    -0.744 OA
ENDBRANCH  69  73
ENDBRANCH  52  66
BRANCH  53  77
ATOM     77  C   UNL A   1      49.216  27.208  24.122  1.00  0.00     0.023 A 
ATOM     78  C   UNL A   1      50.594  26.960  24.021  1.00  0.00     0.031 A 
ATOM     79  C   UNL A   1      48.544  27.662  22.973  1.00  0.00     0.131 A 
ATOM     80  C   UNL A   1      51.265  27.222  22.817  1.00  0.00     0.055 A 
ATOM     81  C   UNL A   1      49.205  27.862  21.759  1.00  0.00     0.041 A 
ATOM     82  F   UNL A   1      47.226  27.917  23.011  1.00  0.00    -0.206 F 
ATOM     83  C   UNL A   1      50.578  27.658  21.681  1.00  0.00     0.022 A 
BRANCH  80  84
ATOM     84  S   UNL A   1      53.074  27.095  22.789  1.00  0.00     0.124 S 
ATOM     85  O   UNL A   1      53.380  27.507  21.424  1.00  0.00    -0.237 OA
ATOM     86  O   UNL A   1      53.456  28.029  23.843  1.00  0.00    -0.237 OA
ATOM     87  O   UNL A   1      53.321  25.686  23.086  1.00  0.00    -0.744 OA
ENDBRANCH  80  84
ENDBRANCH  53  77
BRANCH  65  88
ATOM     88  C   UNL A   1      44.698  22.497  26.585  1.00  0.00     0.023 A 
ATOM     89  C   UNL A   1      45.406  21.362  26.155  1.00  0.00     0.031 A 
ATOM     90  C   UNL A   1      43.308  22.531  26.378  1.00  0.00     0.131 A 
ATOM     91  C   UNL A   1      44.731  20.333  25.485  1.00  0.00     0.055 A 
ATOM     92  C   UNL A   1      42.632  21.475  25.767  1.00  0.00     0.041 A 
ATOM     93  F   UNL A   1      42.584  23.592  26.768  1.00  0.00    -0.206 F 
ATOM     94  C   UNL A   1      43.346  20.373  25.304  1.00  0.00     0.022 A 
BRANCH  91  95
ATOM     95  S   UNL A   1      45.702  18.980  24.767  1.00  0.00     0.124 S 
ATOM     96  O   UNL A   1      47.069  19.413  25.033  1.00  0.00    -0.237 OA
ATOM     97  O   UNL A   1      45.240  17.824  25.529  1.00  0.00    -0.237 OA
ATOM     98  O   UNL A   1      45.311  18.989  23.358  1.00  0.00    -0.744 OA
ENDBRANCH  91  95
ENDBRANCH  65  88
ENDBRANCH  39  40
ENDBRANCH  32  34
ENDBRANCH  31  32
ENDBRANCH  30  31
ENDBRANCH  29  30
ENDBRANCH  28  29
ENDBRANCH  27  28
ENDBRANCH   1  27
TORSDOF 23
ENDMDL
