MODEL 1
REMARK VINA RESULT:     -10.3      0.000      0.000
REMARK SMILES O=C(OCCOCCOCCOC(=O)[C@@H]1[C@H](C(=O)NCc2ccccc2Cl)[C@@H]2C=C[C@H]1C2)c1ccc(-c2c3nc(c(-c4cc(S(=O)(=O)[O-])ccc4F)c4ccc([nH]4)c(-c4cc(S(=O)(=O)[O-])ccc4F)c4nc(c(-c5cc(S(=O)(=O)[O-])ccc5F)c5ccc2[nH]5)C=C4)C=C3)cc1
REMARK SMILES IDX 7 1 6 2 5 3 4 4 3 5 2 6 1 7 33 8 34 9 95 10 35 11 94 12
REMARK SMILES IDX 36 13 37 14 38 15 88 16 39 17 93 18 87 19 89 20 40 21 92 22
REMARK SMILES IDX 86 23 85 24 41 26 73 27 53 28 72 29 54 30 57 31 71 32 90 33
REMARK SMILES IDX 55 34 56 35 70 37 91 38 58 39 42 40 43 41 51 42 44 43 50 44
REMARK SMILES IDX 52 45 49 46 45 47 46 48 47 49 48 50 74 51 75 52 83 53 76 54
REMARK SMILES IDX 82 55 84 56 81 57 77 58 78 59 79 60 80 61 59 62 60 63 68 64
REMARK SMILES IDX 61 65 67 66 69 67 66 68 62 69 63 70 64 71 65 72 8 73 9 74
REMARK SMILES IDX 10 75 11 76 12 77 13 78 14 79 15 80 16 81 31 82 28 83 30 84
REMARK SMILES IDX 32 85 29 86 17 87 18 88 19 89 20 91 21 92 22 93 26 94 23 95
REMARK SMILES IDX 25 96 27 97 24 98
REMARK H PARENT 89 25 57 36 19 90
REMARK Flexibility Score: inf
ROOT
ATOM      1  C   UNL A   1      40.320  21.270  26.308  1.00  0.00     0.188 C 
ENDROOT
BRANCH   1   2
ATOM      2  O   UNL A   1      40.525  19.852  26.247  1.00  0.00    -0.376 OA
BRANCH   2   3
ATOM      3  C   UNL A   1      41.652  19.421  27.024  1.00  0.00     0.202 C 
BRANCH   3   4
ATOM      4  C   UNL A   1      42.713  18.591  26.279  1.00  0.00     0.261 C 
BRANCH   4   5
ATOM      5  O   UNL A   1      43.009  19.082  24.964  1.00  0.00    -0.460 OA
BRANCH   5   6
ATOM      6  C   UNL A   1      43.942  19.987  24.579  1.00  0.00     0.338 C 
ATOM      7  O   UNL A   1      44.797  19.609  23.776  1.00  0.00    -0.246 OA
BRANCH   6   8
ATOM      8  C   UNL A   1      44.023  21.405  25.068  1.00  0.00     0.060 A 
ATOM      9  C   UNL A   1      43.525  22.537  24.418  1.00  0.00     0.016 A 
ATOM     10  C   UNL A   1      44.619  21.594  26.331  1.00  0.00     0.016 A 
ATOM     11  C   UNL A   1      43.698  23.817  24.954  1.00  0.00     0.010 A 
ATOM     12  C   UNL A   1      44.755  22.867  26.895  1.00  0.00     0.010 A 
ATOM     13  C   UNL A   1      44.327  23.992  26.187  1.00  0.00    -0.014 A 
BRANCH  13  14
ATOM     14  C   UNL A   1      44.608  25.366  26.675  1.00  0.00     0.031 A 
ATOM     15  C   UNL A   1      45.950  25.941  26.429  1.00  0.00     0.074 A 
ATOM     16  C   UNL A   1      43.661  26.094  27.287  1.00  0.00     0.049 A 
ATOM     17  N   UNL A   1      46.386  27.134  26.711  1.00  0.00    -0.248 NA
ATOM     18  C   UNL A   1      46.929  25.054  25.790  1.00  0.00     0.031 C 
ATOM     19  C   UNL A   1      42.341  25.573  27.527  1.00  0.00     0.029 A 
ATOM     20  N   UNL A   1      43.598  27.363  27.792  1.00  0.00    -0.354 N 
ATOM     21  C   UNL A   1      47.704  27.147  26.296  1.00  0.00     0.074 A 
ATOM     22  C   UNL A   1      47.998  25.831  25.765  1.00  0.00     0.031 C 
ATOM     23  C   UNL A   1      41.568  26.496  28.114  1.00  0.00     0.029 A 
ATOM     24  C   UNL A   1      42.344  27.710  28.264  1.00  0.00     0.049 A 
ATOM     25  H   UNL A   1      44.371  27.973  27.817  1.00  0.00     0.167 HD
ATOM     26  C   UNL A   1      48.583  28.174  26.376  1.00  0.00     0.034 A 
ATOM     27  C   UNL A   1      41.865  28.884  28.722  1.00  0.00     0.034 A 
ATOM     28  C   UNL A   1      48.254  29.435  26.992  1.00  0.00     0.049 A 
ATOM     29  C   UNL A   1      42.859  30.008  28.791  1.00  0.00     0.074 A 
ATOM     30  C   UNL A   1      49.077  30.512  27.257  1.00  0.00     0.029 A 
ATOM     31  N   UNL A   1      46.987  29.778  27.465  1.00  0.00    -0.354 N 
ATOM     32  N   UNL A   1      44.118  30.003  28.411  1.00  0.00    -0.248 NA
ATOM     33  C   UNL A   1      42.399  31.274  29.363  1.00  0.00     0.031 C 
ATOM     34  C   UNL A   1      48.324  31.479  27.937  1.00  0.00     0.029 A 
ATOM     35  C   UNL A   1      47.012  31.039  28.039  1.00  0.00     0.049 A 
ATOM     36  H   UNL A   1      46.188  29.206  27.399  1.00  0.00     0.167 HD
ATOM     37  C   UNL A   1      44.611  31.261  28.718  1.00  0.00     0.074 A 
ATOM     38  C   UNL A   1      43.491  32.017  29.256  1.00  0.00     0.031 C 
ATOM     39  C   UNL A   1      45.875  31.741  28.599  1.00  0.00     0.034 A 
BRANCH  26  40
ATOM     40  C   UNL A   1      49.975  27.862  25.897  1.00  0.00     0.023 A 
ATOM     41  C   UNL A   1      50.331  28.014  24.542  1.00  0.00     0.031 A 
ATOM     42  C   UNL A   1      50.883  27.213  26.750  1.00  0.00     0.131 A 
ATOM     43  C   UNL A   1      51.498  27.406  24.058  1.00  0.00     0.055 A 
ATOM     44  C   UNL A   1      52.093  26.699  26.278  1.00  0.00     0.041 A 
ATOM     45  F   UNL A   1      50.579  27.003  28.040  1.00  0.00    -0.206 F 
ATOM     46  C   UNL A   1      52.394  26.771  24.921  1.00  0.00     0.022 A 
BRANCH  43  47
ATOM     47  S   UNL A   1      51.711  27.264  22.260  1.00  0.00     0.124 S 
ATOM     48  O   UNL A   1      50.388  26.793  21.846  1.00  0.00    -0.237 OA
ATOM     49  O   UNL A   1      52.057  28.617  21.868  1.00  0.00    -0.237 OA
ATOM     50  O   UNL A   1      52.784  26.274  22.121  1.00  0.00    -0.744 OA
ENDBRANCH  43  47
ENDBRANCH  26  40
BRANCH  27  51
ATOM     51  C   UNL A   1      40.427  29.058  29.119  1.00  0.00     0.023 A 
ATOM     52  C   UNL A   1      40.026  28.991  30.466  1.00  0.00     0.031 A 
ATOM     53  C   UNL A   1      39.420  29.282  28.160  1.00  0.00     0.131 A 
ATOM     54  C   UNL A   1      38.666  29.114  30.812  1.00  0.00     0.055 A 
ATOM     55  C   UNL A   1      38.079  29.467  28.513  1.00  0.00     0.041 A 
ATOM     56  F   UNL A   1      39.725  29.344  26.853  1.00  0.00    -0.206 F 
ATOM     57  C   UNL A   1      37.693  29.370  29.845  1.00  0.00     0.022 A 
BRANCH  54  58
ATOM     58  S   UNL A   1      38.164  28.829  32.536  1.00  0.00     0.124 S 
ATOM     59  O   UNL A   1      36.820  29.396  32.555  1.00  0.00    -0.237 OA
ATOM     60  O   UNL A   1      38.247  27.377  32.647  1.00  0.00    -0.237 OA
ATOM     61  O   UNL A   1      39.158  29.570  33.311  1.00  0.00    -0.744 OA
ENDBRANCH  54  58
ENDBRANCH  27  51
BRANCH  39  62
ATOM     62  C   UNL A   1      46.086  33.144  29.095  1.00  0.00     0.023 A 
ATOM     63  C   UNL A   1      45.971  34.244  28.226  1.00  0.00     0.031 A 
ATOM     64  C   UNL A   1      46.434  33.380  30.433  1.00  0.00     0.131 A 
ATOM     65  C   UNL A   1      46.266  35.530  28.693  1.00  0.00     0.055 A 
ATOM     66  C   UNL A   1      46.665  34.671  30.908  1.00  0.00     0.041 A 
ATOM     67  F   UNL A   1      46.559  32.360  31.297  1.00  0.00    -0.206 F 
ATOM     68  C   UNL A   1      46.595  35.752  30.033  1.00  0.00     0.022 A 
BRANCH  65  69
ATOM     69  S   UNL A   1      46.300  36.898  27.504  1.00  0.00     0.124 S 
ATOM     70  O   UNL A   1      44.892  37.277  27.439  1.00  0.00    -0.237 OA
ATOM     71  O   UNL A   1      47.189  37.856  28.154  1.00  0.00    -0.237 OA
ATOM     72  O   UNL A   1      46.835  36.282  26.291  1.00  0.00    -0.744 OA
ENDBRANCH  65  69
ENDBRANCH  39  62
ENDBRANCH  13  14
ENDBRANCH   6   8
ENDBRANCH   5   6
ENDBRANCH   4   5
ENDBRANCH   3   4
ENDBRANCH   2   3
ENDBRANCH   1   2
BRANCH   1  73
ATOM     73  C   UNL A   1      38.973  21.748  25.765  1.00  0.00     0.188 C 
BRANCH  73  74
ATOM     74  O   UNL A   1      38.422  22.917  26.373  1.00  0.00    -0.376 OA
BRANCH  74  75
ATOM     75  C   UNL A   1      37.568  23.715  25.555  1.00  0.00     0.202 C 
BRANCH  75  76
ATOM     76  C   UNL A   1      36.067  23.448  25.693  1.00  0.00     0.261 C 
BRANCH  76  77
ATOM     77  O   UNL A   1      35.287  24.139  24.703  1.00  0.00    -0.463 OA
BRANCH  77  78
ATOM     78  C   UNL A   1      34.210  24.763  25.222  1.00  0.00     0.310 C 
ATOM     79  O   UNL A   1      34.278  25.717  25.996  1.00  0.00    -0.252 OA
BRANCH  78  80
ATOM     80  C   UNL A   1      32.888  24.331  24.653  1.00  0.00     0.119 C 
ATOM     81  C   UNL A   1      32.645  24.724  23.182  1.00  0.00     0.100 C 
ATOM     82  C   UNL A   1      31.492  24.487  25.289  1.00  0.00     0.027 C 
ATOM     83  C   UNL A   1      31.090  24.740  23.086  1.00  0.00     0.025 C 
ATOM     84  C   UNL A   1      30.839  25.833  25.093  1.00  0.00    -0.027 C 
ATOM     85  C   UNL A   1      30.683  23.744  24.185  1.00  0.00     0.017 C 
ATOM     86  C   UNL A   1      30.516  25.921  23.793  1.00  0.00    -0.027 C 
BRANCH  81  87
ATOM     87  C   UNL A   1      33.426  25.899  22.569  1.00  0.00     0.224 C 
ATOM     88  O   UNL A   1      33.728  25.866  21.376  1.00  0.00    -0.275 OA
ATOM     89  N   UNL A   1      33.866  26.956  23.345  1.00  0.00    -0.352 N 
ATOM     90  H   UNL A   1      34.703  26.888  23.858  1.00  0.00     0.163 HD
BRANCH  89  91
ATOM     91  C   UNL A   1      33.066  28.168  23.384  1.00  0.00     0.153 C 
BRANCH  91  92
ATOM     92  C   UNL A   1      32.973  28.924  24.690  1.00  0.00    -0.010 A 
ATOM     93  C   UNL A   1      34.017  28.823  25.622  1.00  0.00     0.007 A 
ATOM     94  C   UNL A   1      31.800  29.584  25.109  1.00  0.00     0.046 A 
ATOM     95  C   UNL A   1      33.923  29.382  26.900  1.00  0.00     0.000 A 
ATOM     96  C   UNL A   1      31.693  30.117  26.403  1.00  0.00     0.021 A 
ATOM     97  Cl  UNL A   1      30.411  29.751  24.100  1.00  0.00    -0.084 Cl
ATOM     98  C   UNL A   1      32.754  30.020  27.297  1.00  0.00     0.002 A 
ENDBRANCH  91  92
ENDBRANCH  89  91
ENDBRANCH  81  87
ENDBRANCH  78  80
ENDBRANCH  77  78
ENDBRANCH  76  77
ENDBRANCH  75  76
ENDBRANCH  74  75
ENDBRANCH  73  74
ENDBRANCH   1  73
TORSDOF 23
ENDMDL
MODEL 2
REMARK VINA RESULT:     -10.3      5.909     11.751
REMARK SMILES O=C(OCCOCCOCCOC(=O)[C@@H]1[C@H](C(=O)NCc2ccccc2Cl)[C@@H]2C=C[C@H]1C2)c1ccc(-c2c3nc(c(-c4cc(S(=O)(=O)[O-])ccc4F)c4ccc([nH]4)c(-c4cc(S(=O)(=O)[O-])ccc4F)c4nc(c(-c5cc(S(=O)(=O)[O-])ccc5F)c5ccc2[nH]5)C=C4)C=C3)cc1
REMARK SMILES IDX 7 1 6 2 5 3 4 4 3 5 2 6 1 7 33 8 34 9 95 10 35 11 94 12
REMARK SMILES IDX 36 13 37 14 38 15 88 16 39 17 93 18 87 19 89 20 40 21 92 22
REMARK SMILES IDX 86 23 85 24 41 26 73 27 53 28 72 29 54 30 57 31 71 32 90 33
REMARK SMILES IDX 55 34 56 35 70 37 91 38 58 39 42 40 43 41 51 42 44 43 50 44
REMARK SMILES IDX 52 45 49 46 45 47 46 48 47 49 48 50 74 51 75 52 83 53 76 54
REMARK SMILES IDX 82 55 84 56 81 57 77 58 78 59 79 60 80 61 59 62 60 63 68 64
REMARK SMILES IDX 61 65 67 66 69 67 66 68 62 69 63 70 64 71 65 72 8 73 9 74
REMARK SMILES IDX 10 75 11 76 12 77 13 78 14 79 15 80 16 81 31 82 28 83 30 84
REMARK SMILES IDX 32 85 29 86 17 87 18 88 19 89 20 91 21 92 22 93 26 94 23 95
REMARK SMILES IDX 25 96 27 97 24 98
REMARK H PARENT 89 25 57 36 19 90
REMARK Flexibility Score: inf
ROOT
ATOM      1  C   UNL A   1      35.317  32.594  27.960  1.00  0.00     0.188 C 
ENDROOT
BRANCH   1   2
ATOM      2  O   UNL A   1      35.015  33.975  28.203  1.00  0.00    -0.376 OA
BRANCH   2   3
ATOM      3  C   UNL A   1      33.606  34.225  28.299  1.00  0.00     0.202 C 
BRANCH   3   4
ATOM      4  C   UNL A   1      33.193  35.513  29.037  1.00  0.00     0.261 C 
BRANCH   4   5
ATOM      5  O   UNL A   1      32.593  35.275  30.317  1.00  0.00    -0.460 OA
BRANCH   5   6
ATOM      6  C   UNL A   1      33.189  35.086  31.520  1.00  0.00     0.338 C 
ATOM      7  O   UNL A   1      32.694  35.661  32.491  1.00  0.00    -0.246 OA
BRANCH   6   8
ATOM      8  C   UNL A   1      34.412  34.247  31.755  1.00  0.00     0.060 A 
ATOM      9  C   UNL A   1      34.436  32.896  32.109  1.00  0.00     0.016 A 
ATOM     10  C   UNL A   1      35.652  34.883  31.547  1.00  0.00     0.016 A 
ATOM     11  C   UNL A   1      35.642  32.227  32.343  1.00  0.00     0.010 A 
ATOM     12  C   UNL A   1      36.864  34.209  31.735  1.00  0.00     0.010 A 
ATOM     13  C   UNL A   1      36.862  32.882  32.173  1.00  0.00    -0.014 A 
BRANCH  13  14
ATOM     14  C   UNL A   1      38.121  32.190  32.546  1.00  0.00     0.031 A 
ATOM     15  C   UNL A   1      38.707  32.461  33.878  1.00  0.00     0.074 A 
ATOM     16  C   UNL A   1      38.699  31.304  31.720  1.00  0.00     0.049 A 
ATOM     17  N   UNL A   1      39.757  31.924  34.428  1.00  0.00    -0.248 NA
ATOM     18  C   UNL A   1      38.026  33.475  34.692  1.00  0.00     0.031 C 
ATOM     19  C   UNL A   1      38.147  31.003  30.425  1.00  0.00     0.029 A 
ATOM     20  N   UNL A   1      39.799  30.495  31.792  1.00  0.00    -0.354 N 
ATOM     21  C   UNL A   1      39.881  32.542  35.658  1.00  0.00     0.074 A 
ATOM     22  C   UNL A   1      38.808  33.511  35.758  1.00  0.00     0.031 C 
ATOM     23  C   UNL A   1      38.876  30.066  29.806  1.00  0.00     0.029 A 
ATOM     24  C   UNL A   1      39.951  29.667  30.693  1.00  0.00     0.049 A 
ATOM     25  H   UNL A   1      40.424  30.500  32.553  1.00  0.00     0.167 HD
ATOM     26  C   UNL A   1      40.824  32.318  36.602  1.00  0.00     0.034 A 
ATOM     27  C   UNL A   1      40.826  28.670  30.450  1.00  0.00     0.034 A 
ATOM     28  C   UNL A   1      41.917  31.398  36.408  1.00  0.00     0.049 A 
ATOM     29  C   UNL A   1      41.856  28.437  31.518  1.00  0.00     0.074 A 
ATOM     30  C   UNL A   1      43.010  31.165  37.220  1.00  0.00     0.029 A 
ATOM     31  N   UNL A   1      42.062  30.564  35.298  1.00  0.00    -0.354 N 
ATOM     32  N   UNL A   1      41.975  29.046  32.679  1.00  0.00    -0.248 NA
ATOM     33  C   UNL A   1      42.876  27.422  31.254  1.00  0.00     0.031 C 
ATOM     34  C   UNL A   1      43.841  30.238  36.576  1.00  0.00     0.029 A 
ATOM     35  C   UNL A   1      43.237  29.835  35.393  1.00  0.00     0.049 A 
ATOM     36  H   UNL A   1      41.421  30.502  34.554  1.00  0.00     0.167 HD
ATOM     37  C   UNL A   1      43.100  28.502  33.277  1.00  0.00     0.074 A 
ATOM     38  C   UNL A   1      43.584  27.470  32.374  1.00  0.00     0.031 C 
ATOM     39  C   UNL A   1      43.700  28.841  34.447  1.00  0.00     0.034 A 
BRANCH  26  40
ATOM     40  C   UNL A   1      40.733  33.198  37.819  1.00  0.00     0.023 A 
ATOM     41  C   UNL A   1      40.100  32.751  38.995  1.00  0.00     0.031 A 
ATOM     42  C   UNL A   1      41.089  34.554  37.734  1.00  0.00     0.131 A 
ATOM     43  C   UNL A   1      39.724  33.679  39.977  1.00  0.00     0.055 A 
ATOM     44  C   UNL A   1      40.801  35.454  38.762  1.00  0.00     0.041 A 
ATOM     45  F   UNL A   1      41.657  35.044  36.621  1.00  0.00    -0.206 F 
ATOM     46  C   UNL A   1      40.092  35.023  39.881  1.00  0.00     0.022 A 
BRANCH  43  47
ATOM     47  S   UNL A   1      38.558  33.147  41.263  1.00  0.00     0.124 S 
ATOM     48  O   UNL A   1      37.506  34.158  41.140  1.00  0.00    -0.237 OA
ATOM     49  O   UNL A   1      38.203  31.805  40.842  1.00  0.00    -0.237 OA
ATOM     50  O   UNL A   1      39.347  33.232  42.496  1.00  0.00    -0.744 OA
ENDBRANCH  43  47
ENDBRANCH  26  40
BRANCH  27  51
ATOM     51  C   UNL A   1      40.761  27.838  29.203  1.00  0.00     0.023 A 
ATOM     52  C   UNL A   1      41.653  28.048  28.135  1.00  0.00     0.031 A 
ATOM     53  C   UNL A   1      39.797  26.822  29.043  1.00  0.00     0.131 A 
ATOM     54  C   UNL A   1      41.546  27.285  26.956  1.00  0.00     0.055 A 
ATOM     55  C   UNL A   1      39.735  26.025  27.896  1.00  0.00     0.041 A 
ATOM     56  F   UNL A   1      38.902  26.574  30.014  1.00  0.00    -0.206 F 
ATOM     57  C   UNL A   1      40.605  26.262  26.838  1.00  0.00     0.022 A 
BRANCH  54  58
ATOM     58  S   UNL A   1      42.587  27.714  25.529  1.00  0.00     0.124 S 
ATOM     59  O   UNL A   1      41.922  28.909  25.020  1.00  0.00    -0.237 OA
ATOM     60  O   UNL A   1      43.892  27.923  26.149  1.00  0.00    -0.237 OA
ATOM     61  O   UNL A   1      42.491  26.538  24.666  1.00  0.00    -0.744 OA
ENDBRANCH  54  58
ENDBRANCH  27  51
BRANCH  39  62
ATOM     62  C   UNL A   1      44.960  28.088  34.772  1.00  0.00     0.023 A 
ATOM     63  C   UNL A   1      44.915  26.872  35.477  1.00  0.00     0.031 A 
ATOM     64  C   UNL A   1      46.212  28.605  34.405  1.00  0.00     0.131 A 
ATOM     65  C   UNL A   1      46.108  26.242  35.849  1.00  0.00     0.055 A 
ATOM     66  C   UNL A   1      47.395  27.940  34.724  1.00  0.00     0.041 A 
ATOM     67  F   UNL A   1      46.301  29.765  33.735  1.00  0.00    -0.206 F 
ATOM     68  C   UNL A   1      47.348  26.760  35.461  1.00  0.00     0.022 A 
BRANCH  65  69
ATOM     69  S   UNL A   1      46.021  24.785  36.923  1.00  0.00     0.124 S 
ATOM     70  O   UNL A   1      45.127  25.242  37.982  1.00  0.00    -0.237 OA
ATOM     71  O   UNL A   1      45.479  23.767  36.027  1.00  0.00    -0.237 OA
ATOM     72  O   UNL A   1      47.409  24.576  37.328  1.00  0.00    -0.744 OA
ENDBRANCH  65  69
ENDBRANCH  39  62
ENDBRANCH  13  14
ENDBRANCH   6   8
ENDBRANCH   5   6
ENDBRANCH   4   5
ENDBRANCH   3   4
ENDBRANCH   2   3
ENDBRANCH   1   2
BRANCH   1  73
ATOM     73  C   UNL A   1      34.217  31.614  28.372  1.00  0.00     0.188 C 
BRANCH  73  74
ATOM     74  O   UNL A   1      33.597  30.877  27.318  1.00  0.00    -0.376 OA
BRANCH  74  75
ATOM     75  C   UNL A   1      34.168  29.606  27.012  1.00  0.00     0.202 C 
BRANCH  75  76
ATOM     76  C   UNL A   1      33.249  28.396  27.196  1.00  0.00     0.261 C 
BRANCH  76  77
ATOM     77  O   UNL A   1      33.665  27.259  26.422  1.00  0.00    -0.463 OA
BRANCH  77  78
ATOM     78  C   UNL A   1      32.672  26.743  25.668  1.00  0.00     0.310 C 
ATOM     79  O   UNL A   1      31.483  27.018  25.822  1.00  0.00    -0.252 OA
BRANCH  78  80
ATOM     80  C   UNL A   1      33.126  25.929  24.489  1.00  0.00     0.119 C 
ATOM     81  C   UNL A   1      33.731  26.738  23.324  1.00  0.00     0.100 C 
ATOM     82  C   UNL A   1      32.353  24.806  23.767  1.00  0.00     0.027 C 
ATOM     83  C   UNL A   1      33.505  25.799  22.102  1.00  0.00     0.025 C 
ATOM     84  C   UNL A   1      31.358  25.269  22.731  1.00  0.00    -0.027 C 
ATOM     85  C   UNL A   1      33.473  24.408  22.759  1.00  0.00     0.017 C 
ATOM     86  C   UNL A   1      32.068  25.764  21.706  1.00  0.00    -0.027 C 
BRANCH  81  87
ATOM     87  C   UNL A   1      33.385  28.229  23.173  1.00  0.00     0.224 C 
ATOM     88  O   UNL A   1      34.248  29.011  22.772  1.00  0.00    -0.275 OA
ATOM     89  N   UNL A   1      32.152  28.726  23.551  1.00  0.00    -0.352 N 
ATOM     90  H   UNL A   1      31.968  28.953  24.492  1.00  0.00     0.163 HD
BRANCH  89  91
ATOM     91  C   UNL A   1      31.133  28.906  22.531  1.00  0.00     0.153 C 
BRANCH  91  92
ATOM     92  C   UNL A   1      29.681  28.803  22.940  1.00  0.00    -0.010 A 
ATOM     93  C   UNL A   1      29.186  27.583  23.427  1.00  0.00     0.007 A 
ATOM     94  C   UNL A   1      28.741  29.821  22.684  1.00  0.00     0.046 A 
ATOM     95  C   UNL A   1      27.826  27.389  23.685  1.00  0.00     0.000 A 
ATOM     96  C   UNL A   1      27.372  29.615  22.913  1.00  0.00     0.021 A 
ATOM     97  Cl  UNL A   1      29.182  31.360  22.041  1.00  0.00    -0.084 Cl
ATOM     98  C   UNL A   1      26.914  28.402  23.416  1.00  0.00     0.002 A 
ENDBRANCH  91  92
ENDBRANCH  89  91
ENDBRANCH  81  87
ENDBRANCH  78  80
ENDBRANCH  77  78
ENDBRANCH  76  77
ENDBRANCH  75  76
ENDBRANCH  74  75
ENDBRANCH  73  74
ENDBRANCH   1  73
TORSDOF 23
ENDMDL
MODEL 3
REMARK VINA RESULT:     -10.2      2.064      3.510
REMARK SMILES O=C(OCCOCCOCCOC(=O)[C@@H]1[C@H](C(=O)NCc2ccccc2Cl)[C@@H]2C=C[C@H]1C2)c1ccc(-c2c3nc(c(-c4cc(S(=O)(=O)[O-])ccc4F)c4ccc([nH]4)c(-c4cc(S(=O)(=O)[O-])ccc4F)c4nc(c(-c5cc(S(=O)(=O)[O-])ccc5F)c5ccc2[nH]5)C=C4)C=C3)cc1
REMARK SMILES IDX 7 1 6 2 5 3 4 4 3 5 2 6 1 7 33 8 34 9 95 10 35 11 94 12
REMARK SMILES IDX 36 13 37 14 38 15 88 16 39 17 93 18 87 19 89 20 40 21 92 22
REMARK SMILES IDX 86 23 85 24 41 26 73 27 53 28 72 29 54 30 57 31 71 32 90 33
REMARK SMILES IDX 55 34 56 35 70 37 91 38 58 39 42 40 43 41 51 42 44 43 50 44
REMARK SMILES IDX 52 45 49 46 45 47 46 48 47 49 48 50 74 51 75 52 83 53 76 54
REMARK SMILES IDX 82 55 84 56 81 57 77 58 78 59 79 60 80 61 59 62 60 63 68 64
REMARK SMILES IDX 61 65 67 66 69 67 66 68 62 69 63 70 64 71 65 72 8 73 9 74
REMARK SMILES IDX 10 75 11 76 12 77 13 78 14 79 15 80 16 81 31 82 28 83 30 84
REMARK SMILES IDX 32 85 29 86 17 87 18 88 19 89 20 91 21 92 22 93 26 94 23 95
REMARK SMILES IDX 25 96 27 97 24 98
REMARK H PARENT 89 25 57 36 19 90
REMARK Flexibility Score: inf
ROOT
ATOM      1  C   UNL A   1      40.369  22.560  26.646  1.00  0.00     0.188 C 
ENDROOT
BRANCH   1   2
ATOM      2  O   UNL A   1      40.452  21.257  27.242  1.00  0.00    -0.376 OA
BRANCH   2   3
ATOM      3  C   UNL A   1      40.682  20.221  26.277  1.00  0.00     0.202 C 
BRANCH   3   4
ATOM      4  C   UNL A   1      42.030  19.484  26.381  1.00  0.00     0.261 C 
BRANCH   4   5
ATOM      5  O   UNL A   1      42.725  19.376  25.132  1.00  0.00    -0.460 OA
BRANCH   5   6
ATOM      6  C   UNL A   1      43.806  20.066  24.692  1.00  0.00     0.338 C 
ATOM      7  O   UNL A   1      44.492  19.539  23.814  1.00  0.00    -0.246 OA
BRANCH   6   8
ATOM      8  C   UNL A   1      44.239  21.410  25.203  1.00  0.00     0.060 A 
ATOM      9  C   UNL A   1      45.062  21.654  26.305  1.00  0.00     0.016 A 
ATOM     10  C   UNL A   1      43.806  22.527  24.460  1.00  0.00     0.016 A 
ATOM     11  C   UNL A   1      45.364  22.957  26.713  1.00  0.00     0.010 A 
ATOM     12  C   UNL A   1      44.142  23.833  24.835  1.00  0.00     0.010 A 
ATOM     13  C   UNL A   1      44.894  24.054  25.991  1.00  0.00    -0.014 A 
BRANCH  13  14
ATOM     14  C   UNL A   1      45.123  25.425  26.513  1.00  0.00     0.031 A 
ATOM     15  C   UNL A   1      46.457  26.038  26.324  1.00  0.00     0.074 A 
ATOM     16  C   UNL A   1      44.138  26.117  27.105  1.00  0.00     0.049 A 
ATOM     17  N   UNL A   1      46.853  27.236  26.642  1.00  0.00    -0.248 NA
ATOM     18  C   UNL A   1      47.480  25.188  25.703  1.00  0.00     0.031 C 
ATOM     19  C   UNL A   1      42.823  25.559  27.289  1.00  0.00     0.029 A 
ATOM     20  N   UNL A   1      44.025  27.374  27.630  1.00  0.00    -0.354 N 
ATOM     21  C   UNL A   1      48.184  27.290  26.274  1.00  0.00     0.074 A 
ATOM     22  C   UNL A   1      48.528  25.992  25.729  1.00  0.00     0.031 C 
ATOM     23  C   UNL A   1      42.008  26.451  27.866  1.00  0.00     0.029 A 
ATOM     24  C   UNL A   1      42.747  27.681  28.065  1.00  0.00     0.049 A 
ATOM     25  H   UNL A   1      44.780  28.003  27.693  1.00  0.00     0.167 HD
ATOM     26  C   UNL A   1      49.032  28.336  26.402  1.00  0.00     0.034 A 
ATOM     27  C   UNL A   1      42.222  28.834  28.528  1.00  0.00     0.034 A 
ATOM     28  C   UNL A   1      48.651  29.577  27.030  1.00  0.00     0.049 A 
ATOM     29  C   UNL A   1      43.184  29.981  28.651  1.00  0.00     0.074 A 
ATOM     30  C   UNL A   1      49.436  30.669  27.341  1.00  0.00     0.029 A 
ATOM     31  N   UNL A   1      47.359  29.880  27.464  1.00  0.00    -0.354 N 
ATOM     32  N   UNL A   1      44.455  30.015  28.314  1.00  0.00    -0.248 NA
ATOM     33  C   UNL A   1      42.673  31.224  29.229  1.00  0.00     0.031 C 
ATOM     34  C   UNL A   1      48.636  31.604  28.013  1.00  0.00     0.029 A 
ATOM     35  C   UNL A   1      47.332  31.130  28.061  1.00  0.00     0.049 A 
ATOM     36  H   UNL A   1      46.578  29.289  27.360  1.00  0.00     0.167 HD
ATOM     37  C   UNL A   1      44.905  31.278  28.660  1.00  0.00     0.074 A 
ATOM     38  C   UNL A   1      43.749  31.996  29.173  1.00  0.00     0.031 C 
ATOM     39  C   UNL A   1      46.160  31.792  28.594  1.00  0.00     0.034 A 
BRANCH  26  40
ATOM     40  C   UNL A   1      50.448  28.069  25.966  1.00  0.00     0.023 A 
ATOM     41  C   UNL A   1      50.810  28.105  24.604  1.00  0.00     0.031 A 
ATOM     42  C   UNL A   1      51.384  27.571  26.886  1.00  0.00     0.131 A 
ATOM     43  C   UNL A   1      52.020  27.528  24.192  1.00  0.00     0.055 A 
ATOM     44  C   UNL A   1      52.630  27.091  26.477  1.00  0.00     0.041 A 
ATOM     45  F   UNL A   1      51.078  27.474  28.189  1.00  0.00    -0.206 F 
ATOM     46  C   UNL A   1      52.943  27.044  25.121  1.00  0.00     0.022 A 
BRANCH  43  47
ATOM     47  S   UNL A   1      52.265  27.218  22.420  1.00  0.00     0.124 S 
ATOM     48  O   UNL A   1      53.206  26.096  22.448  1.00  0.00    -0.237 OA
ATOM     49  O   UNL A   1      50.924  26.912  21.957  1.00  0.00    -0.237 OA
ATOM     50  O   UNL A   1      52.829  28.478  21.927  1.00  0.00    -0.744 OA
ENDBRANCH  43  47
ENDBRANCH  26  40
BRANCH  27  51
ATOM     51  C   UNL A   1      40.768  28.965  28.877  1.00  0.00     0.023 A 
ATOM     52  C   UNL A   1      40.332  28.943  30.215  1.00  0.00     0.031 A 
ATOM     53  C   UNL A   1      39.780  29.101  27.882  1.00  0.00     0.131 A 
ATOM     54  C   UNL A   1      38.959  29.023  30.518  1.00  0.00     0.055 A 
ATOM     55  C   UNL A   1      38.423  29.244  28.191  1.00  0.00     0.041 A 
ATOM     56  F   UNL A   1      40.119  29.114  26.583  1.00  0.00    -0.206 F 
ATOM     57  C   UNL A   1      38.004  29.192  29.516  1.00  0.00     0.022 A 
BRANCH  54  58
ATOM     58  S   UNL A   1      38.420  28.798  32.240  1.00  0.00     0.124 S 
ATOM     59  O   UNL A   1      36.981  29.016  32.137  1.00  0.00    -0.237 OA
ATOM     60  O   UNL A   1      38.841  27.429  32.520  1.00  0.00    -0.237 OA
ATOM     61  O   UNL A   1      39.152  29.834  32.968  1.00  0.00    -0.744 OA
ENDBRANCH  54  58
ENDBRANCH  27  51
BRANCH  39  62
ATOM     62  C   UNL A   1      46.317  33.191  29.122  1.00  0.00     0.023 A 
ATOM     63  C   UNL A   1      46.197  34.303  28.272  1.00  0.00     0.031 A 
ATOM     64  C   UNL A   1      46.621  33.410  30.475  1.00  0.00     0.131 A 
ATOM     65  C   UNL A   1      46.442  35.588  28.771  1.00  0.00     0.055 A 
ATOM     66  C   UNL A   1      46.803  34.696  30.980  1.00  0.00     0.041 A 
ATOM     67  F   UNL A   1      46.750  32.376  31.322  1.00  0.00    -0.206 F 
ATOM     68  C   UNL A   1      46.727  35.793  30.124  1.00  0.00     0.022 A 
BRANCH  65  69
ATOM     69  S   UNL A   1      46.472  36.979  27.610  1.00  0.00     0.124 S 
ATOM     70  O   UNL A   1      47.861  37.419  27.700  1.00  0.00    -0.237 OA
ATOM     71  O   UNL A   1      46.084  36.346  26.352  1.00  0.00    -0.237 OA
ATOM     72  O   UNL A   1      45.489  37.908  28.164  1.00  0.00    -0.744 OA
ENDBRANCH  65  69
ENDBRANCH  39  62
ENDBRANCH  13  14
ENDBRANCH   6   8
ENDBRANCH   5   6
ENDBRANCH   4   5
ENDBRANCH   3   4
ENDBRANCH   2   3
ENDBRANCH   1   2
BRANCH   1  73
ATOM     73  C   UNL A   1      39.074  23.319  26.940  1.00  0.00     0.188 C 
BRANCH  73  74
ATOM     74  O   UNL A   1      38.552  24.119  25.879  1.00  0.00    -0.376 OA
BRANCH  74  75
ATOM     75  C   UNL A   1      37.373  23.634  25.240  1.00  0.00     0.202 C 
BRANCH  75  76
ATOM     76  C   UNL A   1      36.052  23.944  25.947  1.00  0.00     0.261 C 
BRANCH  76  77
ATOM     77  O   UNL A   1      35.117  24.633  25.100  1.00  0.00    -0.463 OA
BRANCH  77  78
ATOM     78  C   UNL A   1      33.832  24.394  25.430  1.00  0.00     0.310 C 
ATOM     79  O   UNL A   1      33.486  23.761  26.427  1.00  0.00    -0.252 OA
BRANCH  78  80
ATOM     80  C   UNL A   1      32.814  25.109  24.586  1.00  0.00     0.119 C 
ATOM     81  C   UNL A   1      32.078  24.229  23.555  1.00  0.00     0.100 C 
ATOM     82  C   UNL A   1      32.983  26.449  23.840  1.00  0.00     0.027 C 
ATOM     83  C   UNL A   1      31.631  25.265  22.480  1.00  0.00     0.025 C 
ATOM     84  C   UNL A   1      33.652  26.359  22.491  1.00  0.00    -0.027 C 
ATOM     85  C   UNL A   1      31.526  26.562  23.299  1.00  0.00     0.017 C 
ATOM     86  C   UNL A   1      32.789  25.740  21.671  1.00  0.00    -0.027 C 
BRANCH  81  87
ATOM     87  C   UNL A   1      32.722  22.916  23.079  1.00  0.00     0.224 C 
ATOM     88  O   UNL A   1      33.864  22.935  22.618  1.00  0.00    -0.275 OA
ATOM     89  N   UNL A   1      32.018  21.725  23.080  1.00  0.00    -0.352 N 
ATOM     90  H   UNL A   1      31.411  21.498  22.339  1.00  0.00     0.163 HD
BRANCH  89  91
ATOM     91  C   UNL A   1      32.196  20.816  24.199  1.00  0.00     0.153 C 
BRANCH  91  92
ATOM     92  C   UNL A   1      33.013  19.562  23.983  1.00  0.00    -0.010 A 
ATOM     93  C   UNL A   1      32.422  18.453  23.358  1.00  0.00     0.007 A 
ATOM     94  C   UNL A   1      34.292  19.377  24.545  1.00  0.00     0.046 A 
ATOM     95  C   UNL A   1      33.080  17.223  23.260  1.00  0.00     0.000 A 
ATOM     96  C   UNL A   1      34.939  18.134  24.475  1.00  0.00     0.021 A 
ATOM     97  Cl  UNL A   1      35.132  20.626  25.387  1.00  0.00    -0.084 Cl
ATOM     98  C   UNL A   1      34.336  17.058  23.830  1.00  0.00     0.002 A 
ENDBRANCH  91  92
ENDBRANCH  89  91
ENDBRANCH  81  87
ENDBRANCH  78  80
ENDBRANCH  77  78
ENDBRANCH  76  77
ENDBRANCH  75  76
ENDBRANCH  74  75
ENDBRANCH  73  74
ENDBRANCH   1  73
TORSDOF 23
ENDMDL
