MODEL 1
REMARK VINA RESULT:     -13.9      0.000      0.000
REMARK SMILES CC(=O)Nc1cnc(N2CC=C(c3ccccc3C)CC2)c(C(=O)OCCOCCOCCOC(=O)c2ccc(-c3c4nc(c(-c5cc(S(=O)(=O)[O-])ccc5F)c5ccc([nH]5)c(-c5cc(S(=O)(=O)[O-])ccc5F)c5nc(c(-c6cc(S(=O)(=O)[O-])ccc6F)c6ccc3[nH]6)C=C5)C=C4)cc2)c1
REMARK SMILES IDX 30 1 29 2 28 3 27 4 26 5 25 6 23 7 24 8 22 9 5 10 6 11
REMARK SMILES IDX 100 12 7 13 8 14 4 15 1 16 2 17 3 18 9 20 10 21 21 22 11 23
REMARK SMILES IDX 20 24 12 25 13 26 14 27 18 28 15 29 17 30 19 31 16 32 31 33
REMARK SMILES IDX 32 34 33 35 34 36 35 37 36 38 37 39 38 40 99 41 39 42 98 43
REMARK SMILES IDX 40 44 41 45 42 46 92 47 43 48 97 49 91 50 93 51 44 52 96 53
REMARK SMILES IDX 90 54 89 55 45 57 77 58 57 59 76 60 58 61 61 62 75 63 94 64
REMARK SMILES IDX 59 65 60 66 74 68 95 69 62 70 46 71 47 72 55 73 48 74 54 75
REMARK SMILES IDX 56 76 53 77 49 78 50 79 51 80 52 81 78 82 79 83 87 84 80 85
REMARK SMILES IDX 86 86 88 87 85 88 81 89 82 90 83 91 84 92 63 93 64 94 72 95
REMARK SMILES IDX 65 96 71 97 73 98 70 99 66 100 67 101 68 102 69 103
REMARK H PARENT 4 19 93 56 61 67
REMARK Flexibility Score: inf
ROOT
ATOM      1  C   UNL A   1      41.264  20.660  27.685  1.00  0.00     0.188 C 
ENDROOT
BRANCH   1   2
ATOM      2  C   UNL A   1      41.342  22.169  27.956  1.00  0.00     0.188 C 
BRANCH   2   3
ATOM      3  O   UNL A   1      40.290  23.092  27.591  1.00  0.00    -0.376 OA
BRANCH   3   4
ATOM      4  C   UNL A   1      39.623  23.176  26.326  1.00  0.00     0.202 C 
BRANCH   4   5
ATOM      5  C   UNL A   1      37.943  23.176  25.999  1.00  0.00     0.261 C 
BRANCH   5   6
ATOM      6  O   UNL A   1      36.656  21.947  26.195  1.00  0.00    -0.460 OA
BRANCH   6   7
ATOM      7  C   UNL A   1      35.199  21.803  26.387  1.00  0.00     0.342 C 
ATOM      8  O   UNL A   1      34.539  21.961  27.414  1.00  0.00    -0.246 OA
BRANCH   7   9
ATOM      9  C   UNL A   1      34.328  21.174  25.384  1.00  0.00     0.104 A 
ATOM     10  C   UNL A   1      33.377  19.003  24.966  1.00  0.00     0.060 A 
ATOM     11  C   UNL A   1      32.375  19.641  24.258  1.00  0.00     0.139 A 
ATOM     12  C   UNL A   1      34.400  19.779  25.474  1.00  0.00     0.047 A 
ATOM     13  N   UNL A   1      32.252  20.982  24.159  1.00  0.00    -0.236 NA
ATOM     14  C   UNL A   1      33.156  21.777  24.791  1.00  0.00     0.143 A 
BRANCH  10  15
ATOM     15  N   UNL A   1      33.342  17.616  25.137  1.00  0.00    -0.325 N 
ATOM     16  C   UNL A   1      34.170  16.972  22.879  1.00  0.00     0.114 C 
ATOM     17  C   UNL A   1      33.503  16.634  24.193  1.00  0.00     0.221 C 
ATOM     18  O   UNL A   1      33.189  15.477  24.478  1.00  0.00    -0.275 OA
ATOM     19  H   UNL A   1      33.182  17.303  26.056  1.00  0.00     0.169 HD
ENDBRANCH  10  15
BRANCH  14  20
ATOM     20  N   UNL A   1      32.811  23.137  24.740  1.00  0.00    -0.352 N 
ATOM     21  C   UNL A   1      33.859  24.086  24.294  1.00  0.00     0.146 C 
ATOM     22  C   UNL A   1      31.849  23.569  25.747  1.00  0.00     0.123 C 
ATOM     23  C   UNL A   1      33.588  25.554  24.634  1.00  0.00    -0.002 C 
ATOM     24  C   UNL A   1      32.141  24.907  26.457  1.00  0.00     0.057 C 
ATOM     25  C   UNL A   1      32.771  25.988  25.617  1.00  0.00    -0.041 C 
BRANCH  25  26
ATOM     26  C   UNL A   1      32.389  27.435  25.864  1.00  0.00    -0.020 A 
ATOM     27  C   UNL A   1      33.024  28.163  26.894  1.00  0.00     0.008 A 
ATOM     28  C   UNL A   1      31.515  28.180  25.033  1.00  0.00    -0.044 A 
ATOM     29  C   UNL A   1      32.943  29.562  27.000  1.00  0.00     0.001 A 
ATOM     30  C   UNL A   1      31.425  29.590  25.161  1.00  0.00     0.004 A 
ATOM     31  C   UNL A   1      30.656  27.553  23.973  1.00  0.00     0.045 C 
ATOM     32  C   UNL A   1      32.155  30.281  26.120  1.00  0.00     0.000 A 
ENDBRANCH  25  26
ENDBRANCH  14  20
ENDBRANCH   7   9
ENDBRANCH   6   7
ENDBRANCH   5   6
ENDBRANCH   4   5
ENDBRANCH   3   4
ENDBRANCH   2   3
ENDBRANCH   1   2
BRANCH   1  33
ATOM     33  O   UNL A   1      42.354  20.238  26.892  1.00  0.00    -0.376 OA
BRANCH  33  34
ATOM     34  C   UNL A   1      42.527  18.848  26.730  1.00  0.00     0.202 C 
BRANCH  34  35
ATOM     35  C   UNL A   1      43.243  18.513  25.419  1.00  0.00     0.261 C 
BRANCH  35  36
ATOM     36  O   UNL A   1      44.563  19.103  25.344  1.00  0.00    -0.460 OA
BRANCH  36  37
ATOM     37  C   UNL A   1      44.799  19.926  24.266  1.00  0.00     0.338 C 
ATOM     38  O   UNL A   1      44.722  19.547  23.106  1.00  0.00    -0.246 OA
BRANCH  37  39
ATOM     39  C   UNL A   1      45.018  21.335  24.710  1.00  0.00     0.060 A 
ATOM     40  C   UNL A   1      45.885  21.819  25.699  1.00  0.00     0.016 A 
ATOM     41  C   UNL A   1      44.103  22.214  24.254  1.00  0.00     0.016 A 
ATOM     42  C   UNL A   1      45.707  23.146  26.326  1.00  0.00     0.010 A 
ATOM     43  C   UNL A   1      43.849  23.311  25.076  1.00  0.00     0.010 A 
ATOM     44  C   UNL A   1      44.602  23.981  26.118  1.00  0.00    -0.014 A 
BRANCH  44  45
ATOM     45  C   UNL A   1      44.176  25.414  27.086  1.00  0.00     0.031 A 
ATOM     46  C   UNL A   1      42.753  26.543  27.115  1.00  0.00     0.074 A 
ATOM     47  C   UNL A   1      45.094  25.916  27.960  1.00  0.00     0.049 A 
ATOM     48  N   UNL A   1      42.695  27.706  27.759  1.00  0.00    -0.248 NA
ATOM     49  C   UNL A   1      41.382  26.450  26.458  1.00  0.00     0.031 C 
ATOM     50  C   UNL A   1      44.802  26.812  29.087  1.00  0.00     0.029 A 
ATOM     51  N   UNL A   1      46.468  25.812  28.068  1.00  0.00    -0.354 N 
ATOM     52  C   UNL A   1      41.380  28.222  27.778  1.00  0.00     0.074 A 
ATOM     53  C   UNL A   1      40.629  27.426  26.912  1.00  0.00     0.031 C 
ATOM     54  C   UNL A   1      45.926  27.415  29.490  1.00  0.00     0.029 A 
ATOM     55  C   UNL A   1      46.972  27.013  28.585  1.00  0.00     0.049 A 
ATOM     56  H   UNL A   1      47.003  25.024  27.822  1.00  0.00     0.167 HD
ATOM     57  C   UNL A   1      40.918  29.219  28.584  1.00  0.00     0.034 A 
ATOM     58  C   UNL A   1      47.876  27.843  27.981  1.00  0.00     0.034 A 
ATOM     59  C   UNL A   1      42.018  29.896  29.207  1.00  0.00     0.049 A 
ATOM     60  C   UNL A   1      47.432  29.306  27.891  1.00  0.00     0.074 A 
ATOM     61  C   UNL A   1      42.645  29.864  30.433  1.00  0.00     0.029 A 
ATOM     62  N   UNL A   1      42.828  30.610  28.366  1.00  0.00    -0.354 N 
ATOM     63  N   UNL A   1      46.411  29.825  28.515  1.00  0.00    -0.248 NA
ATOM     64  C   UNL A   1      48.050  30.269  26.966  1.00  0.00     0.031 C 
ATOM     65  C   UNL A   1      43.886  30.554  30.288  1.00  0.00     0.029 A 
ATOM     66  C   UNL A   1      43.972  31.028  28.991  1.00  0.00     0.049 A 
ATOM     67  H   UNL A   1      42.614  30.801  27.425  1.00  0.00     0.167 HD
ATOM     68  C   UNL A   1      46.117  31.044  27.948  1.00  0.00     0.074 A 
ATOM     69  C   UNL A   1      47.208  31.313  27.035  1.00  0.00     0.031 C 
ATOM     70  C   UNL A   1      44.947  31.708  28.164  1.00  0.00     0.034 A 
BRANCH  57  71
ATOM     71  C   UNL A   1      39.445  29.479  28.944  1.00  0.00     0.023 A 
ATOM     72  C   UNL A   1      39.114  29.564  30.311  1.00  0.00     0.031 A 
ATOM     73  C   UNL A   1      38.327  29.564  28.078  1.00  0.00     0.131 A 
ATOM     74  C   UNL A   1      37.774  29.564  30.756  1.00  0.00     0.055 A 
ATOM     75  C   UNL A   1      36.995  29.464  28.517  1.00  0.00     0.041 A 
ATOM     76  F   UNL A   1      38.441  29.850  26.776  1.00  0.00    -0.206 F 
ATOM     77  C   UNL A   1      36.713  29.440  29.868  1.00  0.00     0.022 A 
BRANCH  74  78
ATOM     78  S   UNL A   1      37.436  29.751  32.524  1.00  0.00     0.124 S 
ATOM     79  O   UNL A   1      37.391  28.366  32.980  1.00  0.00    -0.237 OA
ATOM     80  O   UNL A   1      38.576  30.546  32.966  1.00  0.00    -0.237 OA
ATOM     81  O   UNL A   1      36.151  30.450  32.552  1.00  0.00    -0.744 OA
ENDBRANCH  74  78
ENDBRANCH  57  71
BRANCH  58  82
ATOM     82  C   UNL A   1      48.629  27.147  26.903  1.00  0.00     0.023 A 
ATOM     83  C   UNL A   1      48.108  27.140  25.586  1.00  0.00     0.031 A 
ATOM     84  C   UNL A   1      50.010  27.047  27.083  1.00  0.00     0.131 A 
ATOM     85  C   UNL A   1      48.984  27.178  24.490  1.00  0.00     0.055 A 
ATOM     86  C   UNL A   1      50.849  27.155  25.992  1.00  0.00     0.041 A 
ATOM     87  F   UNL A   1      50.564  27.065  28.303  1.00  0.00    -0.206 F 
ATOM     88  C   UNL A   1      50.357  27.209  24.692  1.00  0.00     0.022 A 
BRANCH  85  89
ATOM     89  S   UNL A   1      48.352  27.542  22.826  1.00  0.00     0.124 S 
ATOM     90  O   UNL A   1      47.032  28.087  23.117  1.00  0.00    -0.237 OA
ATOM     91  O   UNL A   1      49.343  28.483  22.315  1.00  0.00    -0.237 OA
ATOM     92  O   UNL A   1      48.368  26.238  22.164  1.00  0.00    -0.744 OA
ENDBRANCH  85  89
ENDBRANCH  58  82
BRANCH  70  93
ATOM     93  C   UNL A   1      44.598  33.039  27.540  1.00  0.00     0.023 A 
ATOM     94  C   UNL A   1      44.445  34.179  28.337  1.00  0.00     0.031 A 
ATOM     95  C   UNL A   1      44.255  33.178  26.172  1.00  0.00     0.131 A 
ATOM     96  C   UNL A   1      43.958  35.376  27.782  1.00  0.00     0.055 A 
ATOM     97  C   UNL A   1      43.680  34.336  25.648  1.00  0.00     0.041 A 
ATOM     98  F   UNL A   1      44.501  32.207  25.278  1.00  0.00    -0.206 F 
ATOM     99  C   UNL A   1      43.523  35.447  26.458  1.00  0.00     0.022 A 
BRANCH  96 100
ATOM    100  S   UNL A   1      43.945  36.866  28.807  1.00  0.00     0.124 S 
ATOM    101  O   UNL A   1      45.365  37.140  28.999  1.00  0.00    -0.237 OA
ATOM    102  O   UNL A   1      43.227  37.803  27.948  1.00  0.00    -0.237 OA
ATOM    103  O   UNL A   1      43.223  36.450  30.009  1.00  0.00    -0.744 OA
ENDBRANCH  96 100
ENDBRANCH  70  93
ENDBRANCH  44  45
ENDBRANCH  37  39
ENDBRANCH  36  37
ENDBRANCH  35  36
ENDBRANCH  34  35
ENDBRANCH  33  34
ENDBRANCH   1  33
TORSDOF 23
ENDMDL
MODEL 2
REMARK VINA RESULT:     -13.1      1.819      2.284
REMARK SMILES CC(=O)Nc1cnc(N2CC=C(c3ccccc3C)CC2)c(C(=O)OCCOCCOCCOC(=O)c2ccc(-c3c4nc(c(-c5cc(S(=O)(=O)[O-])ccc5F)c5ccc([nH]5)c(-c5cc(S(=O)(=O)[O-])ccc5F)c5nc(c(-c6cc(S(=O)(=O)[O-])ccc6F)c6ccc3[nH]6)C=C5)C=C4)cc2)c1
REMARK SMILES IDX 30 1 29 2 28 3 27 4 26 5 25 6 23 7 24 8 22 9 5 10 6 11
REMARK SMILES IDX 100 12 7 13 8 14 4 15 1 16 2 17 3 18 9 20 10 21 21 22 11 23
REMARK SMILES IDX 20 24 12 25 13 26 14 27 18 28 15 29 17 30 19 31 16 32 31 33
REMARK SMILES IDX 32 34 33 35 34 36 35 37 36 38 37 39 38 40 99 41 39 42 98 43
REMARK SMILES IDX 40 44 41 45 42 46 92 47 43 48 97 49 91 50 93 51 44 52 96 53
REMARK SMILES IDX 90 54 89 55 45 57 77 58 57 59 76 60 58 61 61 62 75 63 94 64
REMARK SMILES IDX 59 65 60 66 74 68 95 69 62 70 46 71 47 72 55 73 48 74 54 75
REMARK SMILES IDX 56 76 53 77 49 78 50 79 51 80 52 81 78 82 79 83 87 84 80 85
REMARK SMILES IDX 86 86 88 87 85 88 81 89 82 90 83 91 84 92 63 93 64 94 72 95
REMARK SMILES IDX 65 96 71 97 73 98 70 99 66 100 67 101 68 102 69 103
REMARK H PARENT 4 19 93 56 61 67
REMARK Flexibility Score: inf
ROOT
ATOM      1  C   UNL A   1      41.187  20.878  27.507  1.00  0.00     0.188 C 
ENDROOT
BRANCH   1   2
ATOM      2  C   UNL A   1      40.786  22.253  26.952  1.00  0.00     0.188 C 
BRANCH   2   3
ATOM      3  O   UNL A   1      39.416  22.714  26.901  1.00  0.00    -0.376 OA
BRANCH   3   4
ATOM      4  C   UNL A   1      38.482  22.511  25.834  1.00  0.00     0.202 C 
BRANCH   4   5
ATOM      5  C   UNL A   1      36.773  22.588  25.879  1.00  0.00     0.261 C 
BRANCH   5   6
ATOM      6  O   UNL A   1      35.496  21.358  26.131  1.00  0.00    -0.460 OA
BRANCH   6   7
ATOM      7  C   UNL A   1      34.061  21.102  25.899  1.00  0.00     0.342 C 
ATOM      8  O   UNL A   1      33.112  21.303  26.656  1.00  0.00    -0.246 OA
BRANCH   7   9
ATOM      9  C   UNL A   1      33.575  20.296  24.771  1.00  0.00     0.104 A 
ATOM     10  C   UNL A   1      32.685  18.087  24.415  1.00  0.00     0.060 A 
ATOM     11  C   UNL A   1      32.063  18.582  23.283  1.00  0.00     0.139 A 
ATOM     12  C   UNL A   1      33.505  18.943  25.125  1.00  0.00     0.047 A 
ATOM     13  N   UNL A   1      32.085  19.879  22.913  1.00  0.00    -0.236 NA
ATOM     14  C   UNL A   1      32.750  20.778  23.686  1.00  0.00     0.143 A 
BRANCH  10  15
ATOM     15  N   UNL A   1      32.487  16.758  24.801  1.00  0.00    -0.325 N 
ATOM     16  C   UNL A   1      34.878  16.123  25.076  1.00  0.00     0.114 C 
ATOM     17  C   UNL A   1      33.418  15.760  24.935  1.00  0.00     0.221 C 
ATOM     18  O   UNL A   1      33.030  14.595  25.037  1.00  0.00    -0.275 OA
ATOM     19  H   UNL A   1      31.558  16.507  25.005  1.00  0.00     0.169 HD
ENDBRANCH  10  15
BRANCH  14  20
ATOM     20  N   UNL A   1      32.549  22.105  23.272  1.00  0.00    -0.352 N 
ATOM     21  C   UNL A   1      33.756  22.905  22.953  1.00  0.00     0.146 C 
ATOM     22  C   UNL A   1      31.397  22.771  23.867  1.00  0.00     0.123 C 
ATOM     23  C   UNL A   1      33.532  24.418  22.905  1.00  0.00    -0.002 C 
ATOM     24  C   UNL A   1      31.606  24.220  24.348  1.00  0.00     0.057 C 
ATOM     25  C   UNL A   1      32.526  25.078  23.517  1.00  0.00    -0.041 C 
BRANCH  25  26
ATOM     26  C   UNL A   1      32.218  26.553  23.355  1.00  0.00    -0.020 A 
ATOM     27  C   UNL A   1      31.320  26.977  22.350  1.00  0.00     0.008 A 
ATOM     28  C   UNL A   1      32.669  27.563  24.242  1.00  0.00    -0.044 A 
ATOM     29  C   UNL A   1      30.764  28.268  22.320  1.00  0.00     0.001 A 
ATOM     30  C   UNL A   1      32.117  28.868  24.190  1.00  0.00     0.004 A 
ATOM     31  C   UNL A   1      33.723  27.328  25.285  1.00  0.00     0.045 C 
ATOM     32  C   UNL A   1      31.150  29.212  23.253  1.00  0.00     0.000 A 
ENDBRANCH  25  26
ENDBRANCH  14  20
ENDBRANCH   7   9
ENDBRANCH   6   7
ENDBRANCH   5   6
ENDBRANCH   4   5
ENDBRANCH   3   4
ENDBRANCH   2   3
ENDBRANCH   1   2
BRANCH   1  33
ATOM     33  O   UNL A   1      42.418  20.458  26.955  1.00  0.00    -0.376 OA
BRANCH  33  34
ATOM     34  C   UNL A   1      42.605  19.070  26.791  1.00  0.00     0.202 C 
BRANCH  34  35
ATOM     35  C   UNL A   1      42.777  18.688  25.319  1.00  0.00     0.261 C 
BRANCH  35  36
ATOM     36  O   UNL A   1      44.166  18.665  24.913  1.00  0.00    -0.460 OA
BRANCH  36  37
ATOM     37  C   UNL A   1      44.532  19.577  23.949  1.00  0.00     0.338 C 
ATOM     38  O   UNL A   1      44.465  19.344  22.750  1.00  0.00    -0.246 OA
BRANCH  37  39
ATOM     39  C   UNL A   1      44.877  20.893  24.564  1.00  0.00     0.060 A 
ATOM     40  C   UNL A   1      45.748  21.163  25.629  1.00  0.00     0.016 A 
ATOM     41  C   UNL A   1      44.079  21.912  24.189  1.00  0.00     0.016 A 
ATOM     42  C   UNL A   1      45.682  22.421  26.404  1.00  0.00     0.010 A 
ATOM     43  C   UNL A   1      43.906  22.929  25.127  1.00  0.00     0.010 A 
ATOM     44  C   UNL A   1      44.680  23.388  26.263  1.00  0.00    -0.014 A 
BRANCH  44  45
ATOM     45  C   UNL A   1      44.365  24.738  27.382  1.00  0.00     0.031 A 
ATOM     46  C   UNL A   1      43.023  25.950  27.554  1.00  0.00     0.074 A 
ATOM     47  C   UNL A   1      45.326  25.084  28.286  1.00  0.00     0.049 A 
ATOM     48  N   UNL A   1      43.053  27.041  28.316  1.00  0.00    -0.248 NA
ATOM     49  C   UNL A   1      41.641  26.019  26.918  1.00  0.00     0.031 C 
ATOM     50  C   UNL A   1      45.109  25.874  29.505  1.00  0.00     0.029 A 
ATOM     51  N   UNL A   1      46.690  24.878  28.356  1.00  0.00    -0.354 N 
ATOM     52  C   UNL A   1      41.776  27.640  28.414  1.00  0.00     0.074 A 
ATOM     53  C   UNL A   1      40.962  26.990  27.485  1.00  0.00     0.031 C 
ATOM     54  C   UNL A   1      46.276  26.356  29.946  1.00  0.00     0.029 A 
ATOM     55  C   UNL A   1      47.281  25.982  28.985  1.00  0.00     0.049 A 
ATOM     56  H   UNL A   1      47.167  24.085  28.021  1.00  0.00     0.167 HD
ATOM     57  C   UNL A   1      41.393  28.575  29.327  1.00  0.00     0.034 A 
ATOM     58  C   UNL A   1      48.233  26.808  28.453  1.00  0.00     0.034 A 
ATOM     59  C   UNL A   1      42.545  29.109  29.996  1.00  0.00     0.049 A 
ATOM     60  C   UNL A   1      47.889  28.298  28.523  1.00  0.00     0.074 A 
ATOM     61  C   UNL A   1      43.183  28.907  31.200  1.00  0.00     0.029 A 
ATOM     62  N   UNL A   1      43.392  29.851  29.218  1.00  0.00    -0.354 N 
ATOM     63  N   UNL A   1      46.914  28.817  29.216  1.00  0.00    -0.248 NA
ATOM     64  C   UNL A   1      48.561  29.309  27.691  1.00  0.00     0.031 C 
ATOM     65  C   UNL A   1      44.467  29.524  31.103  1.00  0.00     0.029 A 
ATOM     66  C   UNL A   1      44.569  30.124  29.860  1.00  0.00     0.049 A 
ATOM     67  H   UNL A   1      43.180  30.153  28.305  1.00  0.00     0.167 HD
ATOM     68  C   UNL A   1      46.698  30.105  28.784  1.00  0.00     0.074 A 
ATOM     69  C   UNL A   1      47.793  30.394  27.883  1.00  0.00     0.031 C 
ATOM     70  C   UNL A   1      45.578  30.820  29.089  1.00  0.00     0.034 A 
BRANCH  57  71
ATOM     71  C   UNL A   1      39.947  28.895  29.740  1.00  0.00     0.023 A 
ATOM     72  C   UNL A   1      39.533  30.240  29.675  1.00  0.00     0.031 A 
ATOM     73  C   UNL A   1      38.967  28.021  30.272  1.00  0.00     0.131 A 
ATOM     74  C   UNL A   1      38.318  30.676  30.247  1.00  0.00     0.055 A 
ATOM     75  C   UNL A   1      37.805  28.463  30.929  1.00  0.00     0.041 A 
ATOM     76  F   UNL A   1      39.014  26.694  30.103  1.00  0.00    -0.206 F 
ATOM     77  C   UNL A   1      37.486  29.806  30.939  1.00  0.00     0.022 A 
BRANCH  74  78
ATOM     78  S   UNL A   1      37.829  32.409  30.053  1.00  0.00     0.124 S 
ATOM     79  O   UNL A   1      37.289  32.428  28.699  1.00  0.00    -0.237 OA
ATOM     80  O   UNL A   1      36.871  32.575  31.140  1.00  0.00    -0.237 OA
ATOM     81  O   UNL A   1      39.086  33.137  30.225  1.00  0.00    -0.744 OA
ENDBRANCH  74  78
ENDBRANCH  57  71
BRANCH  58  82
ATOM     82  C   UNL A   1      48.923  26.179  27.295  1.00  0.00     0.023 A 
ATOM     83  C   UNL A   1      48.430  26.405  25.986  1.00  0.00     0.031 A 
ATOM     84  C   UNL A   1      50.281  25.899  27.465  1.00  0.00     0.131 A 
ATOM     85  C   UNL A   1      49.326  26.488  24.908  1.00  0.00     0.055 A 
ATOM     86  C   UNL A   1      51.147  26.055  26.402  1.00  0.00     0.041 A 
ATOM     87  F   UNL A   1      50.811  25.693  28.679  1.00  0.00    -0.206 F 
ATOM     88  C   UNL A   1      50.689  26.335  25.119  1.00  0.00     0.022 A 
BRANCH  85  89
ATOM     89  S   UNL A   1      48.771  27.137  23.306  1.00  0.00     0.124 S 
ATOM     90  O   UNL A   1      48.448  25.915  22.580  1.00  0.00    -0.237 OA
ATOM     91  O   UNL A   1      47.643  27.982  23.686  1.00  0.00    -0.237 OA
ATOM     92  O   UNL A   1      49.934  27.877  22.818  1.00  0.00    -0.744 OA
ENDBRANCH  85  89
ENDBRANCH  58  82
BRANCH  70  93
ATOM     93  C   UNL A   1      45.314  32.229  28.613  1.00  0.00     0.023 A 
ATOM     94  C   UNL A   1      44.917  32.468  27.292  1.00  0.00     0.031 A 
ATOM     95  C   UNL A   1      45.600  33.371  29.400  1.00  0.00     0.131 A 
ATOM     96  C   UNL A   1      44.833  33.784  26.802  1.00  0.00     0.055 A 
ATOM     97  C   UNL A   1      45.612  34.667  28.882  1.00  0.00     0.041 A 
ATOM     98  F   UNL A   1      45.841  33.281  30.717  1.00  0.00    -0.206 F 
ATOM     99  C   UNL A   1      45.230  34.880  27.568  1.00  0.00     0.022 A 
BRANCH  96 100
ATOM    100  S   UNL A   1      44.148  34.052  25.149  1.00  0.00     0.124 S 
ATOM    101  O   UNL A   1      43.683  32.721  24.772  1.00  0.00    -0.237 OA
ATOM    102  O   UNL A   1      43.104  35.035  25.424  1.00  0.00    -0.237 OA
ATOM    103  O   UNL A   1      45.286  34.555  24.382  1.00  0.00    -0.744 OA
ENDBRANCH  96 100
ENDBRANCH  70  93
ENDBRANCH  44  45
ENDBRANCH  37  39
ENDBRANCH  36  37
ENDBRANCH  35  36
ENDBRANCH  34  35
ENDBRANCH  33  34
ENDBRANCH   1  33
TORSDOF 23
ENDMDL
MODEL 3
REMARK VINA RESULT:     -12.5      2.024      4.748
REMARK SMILES CC(=O)Nc1cnc(N2CC=C(c3ccccc3C)CC2)c(C(=O)OCCOCCOCCOC(=O)c2ccc(-c3c4nc(c(-c5cc(S(=O)(=O)[O-])ccc5F)c5ccc([nH]5)c(-c5cc(S(=O)(=O)[O-])ccc5F)c5nc(c(-c6cc(S(=O)(=O)[O-])ccc6F)c6ccc3[nH]6)C=C5)C=C4)cc2)c1
REMARK SMILES IDX 30 1 29 2 28 3 27 4 26 5 25 6 23 7 24 8 22 9 5 10 6 11
REMARK SMILES IDX 100 12 7 13 8 14 4 15 1 16 2 17 3 18 9 20 10 21 21 22 11 23
REMARK SMILES IDX 20 24 12 25 13 26 14 27 18 28 15 29 17 30 19 31 16 32 31 33
REMARK SMILES IDX 32 34 33 35 34 36 35 37 36 38 37 39 38 40 99 41 39 42 98 43
REMARK SMILES IDX 40 44 41 45 42 46 92 47 43 48 97 49 91 50 93 51 44 52 96 53
REMARK SMILES IDX 90 54 89 55 45 57 77 58 57 59 76 60 58 61 61 62 75 63 94 64
REMARK SMILES IDX 59 65 60 66 74 68 95 69 62 70 46 71 47 72 55 73 48 74 54 75
REMARK SMILES IDX 56 76 53 77 49 78 50 79 51 80 52 81 78 82 79 83 87 84 80 85
REMARK SMILES IDX 86 86 88 87 85 88 81 89 82 90 83 91 84 92 63 93 64 94 72 95
REMARK SMILES IDX 65 96 71 97 73 98 70 99 66 100 67 101 68 102 69 103
REMARK H PARENT 4 19 93 56 61 67
REMARK Flexibility Score: inf
ROOT
ATOM      1  C   UNL A   1      40.710  20.752  26.929  1.00  0.00     0.188 C 
ENDROOT
BRANCH   1   2
ATOM      2  C   UNL A   1      39.817  21.419  25.874  1.00  0.00     0.188 C 
BRANCH   2   3
ATOM      3  O   UNL A   1      38.408  21.674  26.079  1.00  0.00    -0.376 OA
BRANCH   3   4
ATOM      4  C   UNL A   1      37.720  22.912  25.865  1.00  0.00     0.202 C 
BRANCH   4   5
ATOM      5  C   UNL A   1      36.352  23.220  24.884  1.00  0.00     0.261 C 
BRANCH   5   6
ATOM      6  O   UNL A   1      35.400  24.696  24.537  1.00  0.00    -0.460 OA
BRANCH   6   7
ATOM      7  C   UNL A   1      34.103  25.147  23.993  1.00  0.00     0.342 C 
ATOM      8  O   UNL A   1      33.831  25.501  22.847  1.00  0.00    -0.246 OA
BRANCH   7   9
ATOM      9  C   UNL A   1      32.963  25.493  24.854  1.00  0.00     0.104 A 
ATOM     10  C   UNL A   1      31.328  27.251  25.019  1.00  0.00     0.060 A 
ATOM     11  C   UNL A   1      30.503  26.346  25.662  1.00  0.00     0.139 A 
ATOM     12  C   UNL A   1      32.599  26.832  24.675  1.00  0.00     0.047 A 
ATOM     13  N   UNL A   1      30.802  25.043  25.841  1.00  0.00    -0.236 NA
ATOM     14  C   UNL A   1      31.982  24.562  25.364  1.00  0.00     0.143 A 
BRANCH  10  15
ATOM     15  N   UNL A   1      30.875  28.546  24.749  1.00  0.00    -0.325 N 
ATOM     16  C   UNL A   1      29.184  27.961  23.018  1.00  0.00     0.114 C 
ATOM     17  C   UNL A   1      30.052  28.969  23.737  1.00  0.00     0.221 C 
ATOM     18  O   UNL A   1      29.965  30.176  23.506  1.00  0.00    -0.275 OA
ATOM     19  H   UNL A   1      31.187  29.246  25.367  1.00  0.00     0.169 HD
ENDBRANCH  10  15
BRANCH  14  20
ATOM     20  N   UNL A   1      32.083  23.166  25.473  1.00  0.00    -0.352 N 
ATOM     21  C   UNL A   1      33.010  22.633  26.500  1.00  0.00     0.146 C 
ATOM     22  C   UNL A   1      31.916  22.434  24.223  1.00  0.00     0.123 C 
ATOM     23  C   UNL A   1      33.395  21.162  26.319  1.00  0.00    -0.002 C 
ATOM     24  C   UNL A   1      32.904  21.281  23.958  1.00  0.00     0.057 C 
ATOM     25  C   UNL A   1      33.336  20.477  25.158  1.00  0.00    -0.041 C 
BRANCH  25  26
ATOM     26  C   UNL A   1      33.578  18.988  25.005  1.00  0.00    -0.020 A 
ATOM     27  C   UNL A   1      32.487  18.093  25.040  1.00  0.00     0.008 A 
ATOM     28  C   UNL A   1      34.834  18.415  24.685  1.00  0.00    -0.044 A 
ATOM     29  C   UNL A   1      32.585  16.754  24.622  1.00  0.00     0.001 A 
ATOM     30  C   UNL A   1      34.927  17.057  24.285  1.00  0.00     0.004 A 
ATOM     31  C   UNL A   1      36.123  19.184  24.729  1.00  0.00     0.045 C 
ATOM     32  C   UNL A   1      33.806  16.239  24.227  1.00  0.00     0.000 A 
ENDBRANCH  25  26
ENDBRANCH  14  20
ENDBRANCH   7   9
ENDBRANCH   6   7
ENDBRANCH   5   6
ENDBRANCH   4   5
ENDBRANCH   3   4
ENDBRANCH   2   3
ENDBRANCH   1   2
BRANCH   1  33
ATOM     33  O   UNL A   1      42.022  20.579  26.435  1.00  0.00    -0.376 OA
BRANCH  33  34
ATOM     34  C   UNL A   1      42.530  19.263  26.414  1.00  0.00     0.202 C 
BRANCH  34  35
ATOM     35  C   UNL A   1      43.463  19.031  25.223  1.00  0.00     0.261 C 
BRANCH  35  36
ATOM     36  O   UNL A   1      44.669  19.827  25.303  1.00  0.00    -0.460 OA
BRANCH  36  37
ATOM     37  C   UNL A   1      44.778  20.857  24.396  1.00  0.00     0.338 C 
ATOM     38  O   UNL A   1      44.574  20.717  23.199  1.00  0.00    -0.246 OA
BRANCH  37  39
ATOM     39  C   UNL A   1      45.038  22.153  25.090  1.00  0.00     0.060 A 
ATOM     40  C   UNL A   1      45.639  22.376  26.337  1.00  0.00     0.016 A 
ATOM     41  C   UNL A   1      44.414  23.215  24.544  1.00  0.00     0.016 A 
ATOM     42  C   UNL A   1      45.459  23.638  27.086  1.00  0.00     0.010 A 
ATOM     43  C   UNL A   1      44.077  24.243  25.424  1.00  0.00     0.010 A 
ATOM     44  C   UNL A   1      44.577  24.661  26.718  1.00  0.00    -0.014 A 
BRANCH  44  45
ATOM     45  C   UNL A   1      44.078  26.030  27.742  1.00  0.00     0.031 A 
ATOM     46  C   UNL A   1      42.636  27.136  27.760  1.00  0.00     0.074 A 
ATOM     47  C   UNL A   1      44.941  26.494  28.690  1.00  0.00     0.049 A 
ATOM     48  N   UNL A   1      42.525  28.260  28.464  1.00  0.00    -0.248 NA
ATOM     49  C   UNL A   1      41.303  27.062  27.028  1.00  0.00     0.031 C 
ATOM     50  C   UNL A   1      44.575  27.320  29.849  1.00  0.00     0.029 A 
ATOM     51  N   UNL A   1      46.308  26.404  28.865  1.00  0.00    -0.354 N 
ATOM     52  C   UNL A   1      41.203  28.755  28.444  1.00  0.00     0.074 A 
ATOM     53  C   UNL A   1      40.511  28.000  27.495  1.00  0.00     0.031 C 
ATOM     54  C   UNL A   1      45.667  27.914  30.344  1.00  0.00     0.029 A 
ATOM     55  C   UNL A   1      46.764  27.580  29.475  1.00  0.00     0.049 A 
ATOM     56  H   UNL A   1      46.869  25.638  28.604  1.00  0.00     0.167 HD
ATOM     57  C   UNL A   1      40.682  29.698  29.279  1.00  0.00     0.034 A 
ATOM     58  C   UNL A   1      47.684  28.455  28.967  1.00  0.00     0.034 A 
ATOM     59  C   UNL A   1      41.737  30.354  29.997  1.00  0.00     0.049 A 
ATOM     60  C   UNL A   1      47.221  29.915  28.937  1.00  0.00     0.074 A 
ATOM     61  C   UNL A   1      42.301  30.259  31.250  1.00  0.00     0.029 A 
ATOM     62  N   UNL A   1      42.578  31.126  29.241  1.00  0.00    -0.354 N 
ATOM     63  N   UNL A   1      46.161  30.383  29.534  1.00  0.00    -0.248 NA
ATOM     64  C   UNL A   1      47.871  30.938  28.102  1.00  0.00     0.031 C 
ATOM     65  C   UNL A   1      43.536  30.974  31.210  1.00  0.00     0.029 A 
ATOM     66  C   UNL A   1      43.681  31.522  29.948  1.00  0.00     0.049 A 
ATOM     67  H   UNL A   1      42.409  31.368  28.302  1.00  0.00     0.167 HD
ATOM     68  C   UNL A   1      45.877  31.628  29.022  1.00  0.00     0.074 A 
ATOM     69  C   UNL A   1      47.008  31.964  28.185  1.00  0.00     0.031 C 
ATOM     70  C   UNL A   1      44.685  32.263  29.214  1.00  0.00     0.034 A 
BRANCH  57  71
ATOM     71  C   UNL A   1      39.189  29.917  29.575  1.00  0.00     0.023 A 
ATOM     72  C   UNL A   1      38.701  31.237  29.521  1.00  0.00     0.031 A 
ATOM     73  C   UNL A   1      38.223  28.967  29.989  1.00  0.00     0.131 A 
ATOM     74  C   UNL A   1      37.418  31.580  29.999  1.00  0.00     0.055 A 
ATOM     75  C   UNL A   1      36.985  29.315  30.557  1.00  0.00     0.041 A 
ATOM     76  F   UNL A   1      38.365  27.653  29.780  1.00  0.00    -0.206 F 
ATOM     77  C   UNL A   1      36.584  30.636  30.585  1.00  0.00     0.022 A 
BRANCH  74  78
ATOM     78  S   UNL A   1      36.842  33.287  29.823  1.00  0.00     0.124 S 
ATOM     79  O   UNL A   1      37.409  33.674  28.536  1.00  0.00    -0.237 OA
ATOM     80  O   UNL A   1      35.395  33.124  29.876  1.00  0.00    -0.237 OA
ATOM     81  O   UNL A   1      37.428  33.963  30.980  1.00  0.00    -0.744 OA
ENDBRANCH  74  78
ENDBRANCH  57  71
BRANCH  58  82
ATOM     82  C   UNL A   1      48.504  27.833  27.893  1.00  0.00     0.023 A 
ATOM     83  C   UNL A   1      47.895  27.504  26.657  1.00  0.00     0.031 A 
ATOM     84  C   UNL A   1      49.870  28.120  27.916  1.00  0.00     0.131 A 
ATOM     85  C   UNL A   1      48.631  27.612  25.467  1.00  0.00     0.055 A 
ATOM     86  C   UNL A   1      50.552  28.286  26.727  1.00  0.00     0.041 A 
ATOM     87  F   UNL A   1      50.501  28.454  29.051  1.00  0.00    -0.206 F 
ATOM     88  C   UNL A   1      49.955  28.026  25.498  1.00  0.00     0.022 A 
BRANCH  85  89
ATOM     89  S   UNL A   1      47.784  27.560  23.860  1.00  0.00     0.124 S 
ATOM     90  O   UNL A   1      48.879  27.819  22.933  1.00  0.00    -0.237 OA
ATOM     91  O   UNL A   1      47.228  26.211  23.845  1.00  0.00    -0.237 OA
ATOM     92  O   UNL A   1      46.782  28.619  23.970  1.00  0.00    -0.744 OA
ENDBRANCH  85  89
ENDBRANCH  58  82
BRANCH  70  93
ATOM     93  C   UNL A   1      44.347  33.622  28.648  1.00  0.00     0.023 A 
ATOM     94  C   UNL A   1      44.353  34.754  29.471  1.00  0.00     0.031 A 
ATOM     95  C   UNL A   1      43.860  33.804  27.330  1.00  0.00     0.131 A 
ATOM     96  C   UNL A   1      43.878  35.987  28.987  1.00  0.00     0.055 A 
ATOM     97  C   UNL A   1      43.298  35.003  26.888  1.00  0.00     0.041 A 
ATOM     98  F   UNL A   1      43.945  32.837  26.403  1.00  0.00    -0.206 F 
ATOM     99  C   UNL A   1      43.300  36.107  27.723  1.00  0.00     0.022 A 
BRANCH  96 100
ATOM    100  S   UNL A   1      44.069  37.457  30.024  1.00  0.00     0.124 S 
ATOM    101  O   UNL A   1      43.117  38.394  29.436  1.00  0.00    -0.237 OA
ATOM    102  O   UNL A   1      43.714  36.932  31.340  1.00  0.00    -0.237 OA
ATOM    103  O   UNL A   1      45.477  37.814  29.860  1.00  0.00    -0.744 OA
ENDBRANCH  96 100
ENDBRANCH  70  93
ENDBRANCH  44  45
ENDBRANCH  37  39
ENDBRANCH  36  37
ENDBRANCH  35  36
ENDBRANCH  34  35
ENDBRANCH  33  34
ENDBRANCH   1  33
TORSDOF 23
ENDMDL
