MODEL 1
REMARK VINA RESULT:      -7.8      0.000      0.000
REMARK SMILES CC(C)[C@@H](CO)Nc1ccc(C(=O)OCCOCCOCCOC(=O)c2ccc(-c3c4nc(c(-c5cc(S(=O)(=O)[O-])ccc5F)c5ccc([nH]5)c(-c5cc(S(=O)(=O)[O-])ccc5F)c5nc(c(-c6cc(S(=O)(=O)[O-])ccc6F)c6ccc3[nH]6)C=C5)C=C4)cc2)nn1
REMARK SMILES IDX 18 1 17 2 16 3 15 4 14 5 12 6 13 7 11 8 8 9 9 10 90 11 10 12
REMARK SMILES IDX 89 13 7 14 4 16 2 17 1 18 3 19 5 20 6 21 19 23 20 24 21 25
REMARK SMILES IDX 22 26 23 27 24 28 25 29 26 30 27 31 88 32 28 33 87 34 29 35
REMARK SMILES IDX 30 36 31 37 81 38 32 39 86 40 80 41 82 42 33 43 85 44 79 45
REMARK SMILES IDX 78 46 34 48 66 49 46 50 65 51 47 52 50 53 64 54 83 55 48 56
REMARK SMILES IDX 49 57 63 59 84 60 51 61 35 62 36 63 44 64 37 65 43 66 45 67
REMARK SMILES IDX 42 68 38 69 39 70 40 71 41 72 67 73 68 74 76 75 69 76 75 77
REMARK SMILES IDX 77 78 74 79 70 80 71 81 72 82 73 83 52 84 53 85 61 86 54 87
REMARK SMILES IDX 60 88 62 89 59 90 55 91 56 92 57 93 58 94
REMARK H PARENT 7 15 6 22 82 47 50 58
REMARK Flexibility Score: inf
ROOT
ATOM      1  C   UNL A   1      33.721  33.465  42.080  1.00  0.00     0.188 C 
ENDROOT
BRANCH   1   2
ATOM      2  O   UNL A   1      32.827  33.037  43.103  1.00  0.00    -0.376 OA
BRANCH   2   3
ATOM      3  C   UNL A   1      31.638  33.773  43.362  1.00  0.00     0.202 C 
BRANCH   3   4
ATOM      4  C   UNL A   1      30.638  33.978  42.217  1.00  0.00     0.261 C 
BRANCH   4   5
ATOM      5  O   UNL A   1      30.213  35.341  42.058  1.00  0.00    -0.458 OA
BRANCH   5   6
ATOM      6  C   UNL A   1      31.156  36.186  41.561  1.00  0.00     0.358 C 
ATOM      7  O   UNL A   1      31.746  36.066  40.500  1.00  0.00    -0.244 OA
BRANCH   6   8
ATOM      8  C   UNL A   1      31.309  37.351  42.463  1.00  0.00     0.171 A 
ATOM      9  C   UNL A   1      31.850  39.496  44.059  1.00  0.00     0.148 A 
ATOM     10  C   UNL A   1      30.873  38.588  44.446  1.00  0.00     0.051 A 
ATOM     11  N   UNL A   1      32.458  39.364  42.867  1.00  0.00    -0.132 NA
ATOM     12  C   UNL A   1      30.581  37.496  43.630  1.00  0.00     0.042 A 
ATOM     13  N   UNL A   1      32.217  38.269  42.073  1.00  0.00    -0.141 NA
BRANCH   9  14
ATOM     14  N   UNL A   1      32.296  40.500  44.908  1.00  0.00    -0.363 N 
ATOM     15  H   UNL A   1      31.667  41.054  45.427  1.00  0.00     0.162 HD
BRANCH  14  16
ATOM     16  C   UNL A   1      33.750  40.701  44.999  1.00  0.00     0.108 C 
BRANCH  16  17
ATOM     17  C   UNL A   1      34.072  42.089  45.630  1.00  0.00     0.007 C 
ATOM     18  C   UNL A   1      35.002  42.904  44.723  1.00  0.00     0.009 C 
ATOM     19  C   UNL A   1      32.811  42.923  45.899  1.00  0.00     0.009 C 
ENDBRANCH  16  17
BRANCH  16  20
ATOM     20  C   UNL A   1      34.372  39.505  45.764  1.00  0.00     0.181 C 
BRANCH  20  21
ATOM     21  O   UNL A   1      35.756  39.296  45.501  1.00  0.00    -0.394 OA
ATOM     22  H   UNL A   1      36.077  38.549  46.031  1.00  0.00     0.210 HD
ENDBRANCH  20  21
ENDBRANCH  16  20
ENDBRANCH  14  16
ENDBRANCH   9  14
ENDBRANCH   6   8
ENDBRANCH   5   6
ENDBRANCH   4   5
ENDBRANCH   3   4
ENDBRANCH   2   3
ENDBRANCH   1   2
BRANCH   1  23
ATOM     23  C   UNL A   1      35.140  32.864  42.002  1.00  0.00     0.188 C 
BRANCH  23  24
ATOM     24  O   UNL A   1      35.971  33.180  43.108  1.00  0.00    -0.376 OA
BRANCH  24  25
ATOM     25  C   UNL A   1      37.323  33.497  42.801  1.00  0.00     0.202 C 
BRANCH  25  26
ATOM     26  C   UNL A   1      37.935  34.709  43.520  1.00  0.00     0.261 C 
BRANCH  26  27
ATOM     27  O   UNL A   1      39.270  35.070  43.127  1.00  0.00    -0.460 OA
BRANCH  27  28
ATOM     28  C   UNL A   1      39.439  36.286  42.559  1.00  0.00     0.338 C 
ATOM     29  O   UNL A   1      39.551  37.350  43.140  1.00  0.00    -0.246 OA
BRANCH  28  30
ATOM     30  C   UNL A   1      39.644  36.078  41.107  1.00  0.00     0.060 A 
ATOM     31  C   UNL A   1      40.248  34.894  40.668  1.00  0.00     0.016 A 
ATOM     32  C   UNL A   1      39.227  37.041  40.184  1.00  0.00     0.016 A 
ATOM     33  C   UNL A   1      40.451  34.679  39.301  1.00  0.00     0.010 A 
ATOM     34  C   UNL A   1      39.447  36.831  38.817  1.00  0.00     0.010 A 
ATOM     35  C   UNL A   1      40.081  35.658  38.367  1.00  0.00    -0.014 A 
BRANCH  35  36
ATOM     36  C   UNL A   1      40.484  35.520  36.942  1.00  0.00     0.031 A 
ATOM     37  C   UNL A   1      41.868  35.955  36.537  1.00  0.00     0.074 A 
ATOM     38  C   UNL A   1      39.646  35.002  36.026  1.00  0.00     0.049 A 
ATOM     39  N   UNL A   1      42.430  35.950  35.356  1.00  0.00    -0.248 NA
ATOM     40  C   UNL A   1      42.729  36.468  37.614  1.00  0.00     0.031 C 
ATOM     41  C   UNL A   1      38.296  34.512  36.297  1.00  0.00     0.029 A 
ATOM     42  N   UNL A   1      39.809  34.805  34.675  1.00  0.00    -0.354 N 
ATOM     43  C   UNL A   1      43.713  36.454  35.546  1.00  0.00     0.074 A 
ATOM     44  C   UNL A   1      43.827  36.792  36.949  1.00  0.00     0.031 C 
ATOM     45  C   UNL A   1      37.749  34.080  35.147  1.00  0.00     0.029 A 
ATOM     46  C   UNL A   1      38.695  34.291  34.052  1.00  0.00     0.049 A 
ATOM     47  H   UNL A   1      40.644  35.014  34.198  1.00  0.00     0.167 HD
ATOM     48  C   UNL A   1      44.708  36.611  34.636  1.00  0.00     0.034 A 
ATOM     49  C   UNL A   1      38.459  34.041  32.747  1.00  0.00     0.034 A 
ATOM     50  C   UNL A   1      44.576  36.289  33.236  1.00  0.00     0.049 A 
ATOM     51  C   UNL A   1      39.552  34.310  31.737  1.00  0.00     0.074 A 
ATOM     52  C   UNL A   1      45.527  36.391  32.234  1.00  0.00     0.029 A 
ATOM     53  N   UNL A   1      43.417  35.819  32.631  1.00  0.00    -0.354 N 
ATOM     54  N   UNL A   1      40.768  34.764  31.932  1.00  0.00    -0.248 NA
ATOM     55  C   UNL A   1      39.238  34.022  30.330  1.00  0.00     0.031 C 
ATOM     56  C   UNL A   1      44.922  36.057  31.017  1.00  0.00     0.029 A 
ATOM     57  C   UNL A   1      43.617  35.666  31.267  1.00  0.00     0.049 A 
ATOM     58  H   UNL A   1      42.575  35.623  33.103  1.00  0.00     0.167 HD
ATOM     59  C   UNL A   1      41.373  34.787  30.677  1.00  0.00     0.074 A 
ATOM     60  C   UNL A   1      40.393  34.285  29.736  1.00  0.00     0.031 C 
ATOM     61  C   UNL A   1      42.626  35.181  30.333  1.00  0.00     0.034 A 
BRANCH  48  62
ATOM     62  C   UNL A   1      46.005  37.208  35.128  1.00  0.00     0.023 A 
ATOM     63  C   UNL A   1      47.054  36.406  35.612  1.00  0.00     0.031 A 
ATOM     64  C   UNL A   1      46.184  38.603  35.137  1.00  0.00     0.131 A 
ATOM     65  C   UNL A   1      48.203  37.008  36.150  1.00  0.00     0.055 A 
ATOM     66  C   UNL A   1      47.362  39.192  35.601  1.00  0.00     0.041 A 
ATOM     67  F   UNL A   1      45.208  39.420  34.709  1.00  0.00    -0.206 F 
ATOM     68  C   UNL A   1      48.374  38.393  36.125  1.00  0.00     0.022 A 
BRANCH  65  69
ATOM     69  S   UNL A   1      49.411  35.960  37.007  1.00  0.00     0.124 S 
ATOM     70  O   UNL A   1      48.658  35.545  38.188  1.00  0.00    -0.237 OA
ATOM     71  O   UNL A   1      49.683  34.920  36.022  1.00  0.00    -0.237 OA
ATOM     72  O   UNL A   1      50.524  36.870  37.277  1.00  0.00    -0.744 OA
ENDBRANCH  65  69
ENDBRANCH  48  62
BRANCH  49  73
ATOM     73  C   UNL A   1      37.123  33.550  32.298  1.00  0.00     0.023 A 
ATOM     74  C   UNL A   1      36.067  34.438  32.035  1.00  0.00     0.031 A 
ATOM     75  C   UNL A   1      36.863  32.171  32.192  1.00  0.00     0.131 A 
ATOM     76  C   UNL A   1      34.790  33.938  31.727  1.00  0.00     0.055 A 
ATOM     77  C   UNL A   1      35.608  31.681  31.831  1.00  0.00     0.041 A 
ATOM     78  F   UNL A   1      37.834  31.277  32.441  1.00  0.00    -0.206 F 
ATOM     79  C   UNL A   1      34.559  32.566  31.609  1.00  0.00     0.022 A 
BRANCH  76  80
ATOM     80  S   UNL A   1      33.411  35.106  31.574  1.00  0.00     0.124 S 
ATOM     81  O   UNL A   1      32.533  34.675  32.656  1.00  0.00    -0.237 OA
ATOM     82  O   UNL A   1      34.076  36.392  31.762  1.00  0.00    -0.237 OA
ATOM     83  O   UNL A   1      32.904  34.862  30.225  1.00  0.00    -0.744 OA
ENDBRANCH  76  80
ENDBRANCH  49  73
BRANCH  61  84
ATOM     84  C   UNL A   1      43.018  35.044  28.879  1.00  0.00     0.023 A 
ATOM     85  C   UNL A   1      43.779  33.956  28.414  1.00  0.00     0.031 A 
ATOM     86  C   UNL A   1      42.637  36.027  27.948  1.00  0.00     0.131 A 
ATOM     87  C   UNL A   1      44.184  33.909  27.071  1.00  0.00     0.055 A 
ATOM     88  C   UNL A   1      42.990  35.942  26.601  1.00  0.00     0.041 A 
ATOM     89  F   UNL A   1      41.912  37.090  28.334  1.00  0.00    -0.206 F 
ATOM     90  C   UNL A   1      43.781  34.886  26.158  1.00  0.00     0.022 A 
BRANCH  87  91
ATOM     91  S   UNL A   1      45.332  32.602  26.550  1.00  0.00     0.124 S 
ATOM     92  O   UNL A   1      46.311  33.352  25.770  1.00  0.00    -0.237 OA
ATOM     93  O   UNL A   1      45.802  32.074  27.827  1.00  0.00    -0.237 OA
ATOM     94  O   UNL A   1      44.489  31.693  25.777  1.00  0.00    -0.744 OA
ENDBRANCH  87  91
ENDBRANCH  61  84
ENDBRANCH  35  36
ENDBRANCH  28  30
ENDBRANCH  27  28
ENDBRANCH  26  27
ENDBRANCH  25  26
ENDBRANCH  24  25
ENDBRANCH  23  24
ENDBRANCH   1  23
TORSDOF 25
ENDMDL
MODEL 2
REMARK VINA RESULT:      -7.8      9.320     13.254
REMARK SMILES CC(C)[C@@H](CO)Nc1ccc(C(=O)OCCOCCOCCOC(=O)c2ccc(-c3c4nc(c(-c5cc(S(=O)(=O)[O-])ccc5F)c5ccc([nH]5)c(-c5cc(S(=O)(=O)[O-])ccc5F)c5nc(c(-c6cc(S(=O)(=O)[O-])ccc6F)c6ccc3[nH]6)C=C5)C=C4)cc2)nn1
REMARK SMILES IDX 18 1 17 2 16 3 15 4 14 5 12 6 13 7 11 8 8 9 9 10 90 11 10 12
REMARK SMILES IDX 89 13 7 14 4 16 2 17 1 18 3 19 5 20 6 21 19 23 20 24 21 25
REMARK SMILES IDX 22 26 23 27 24 28 25 29 26 30 27 31 88 32 28 33 87 34 29 35
REMARK SMILES IDX 30 36 31 37 81 38 32 39 86 40 80 41 82 42 33 43 85 44 79 45
REMARK SMILES IDX 78 46 34 48 66 49 46 50 65 51 47 52 50 53 64 54 83 55 48 56
REMARK SMILES IDX 49 57 63 59 84 60 51 61 35 62 36 63 44 64 37 65 43 66 45 67
REMARK SMILES IDX 42 68 38 69 39 70 40 71 41 72 67 73 68 74 76 75 69 76 75 77
REMARK SMILES IDX 77 78 74 79 70 80 71 81 72 82 73 83 52 84 53 85 61 86 54 87
REMARK SMILES IDX 60 88 62 89 59 90 55 91 56 92 57 93 58 94
REMARK H PARENT 7 15 6 22 82 47 50 58
REMARK Flexibility Score: inf
ROOT
ATOM      1  C   UNL A   1      40.860  29.331  34.446  1.00  0.00     0.188 C 
ENDROOT
BRANCH   1   2
ATOM      2  O   UNL A   1      40.783  30.252  33.362  1.00  0.00    -0.376 OA
BRANCH   2   3
ATOM      3  C   UNL A   1      40.245  29.836  32.113  1.00  0.00     0.202 C 
BRANCH   3   4
ATOM      4  C   UNL A   1      39.017  30.570  31.562  1.00  0.00     0.261 C 
BRANCH   4   5
ATOM      5  O   UNL A   1      37.782  30.180  32.183  1.00  0.00    -0.458 OA
BRANCH   5   6
ATOM      6  C   UNL A   1      36.702  30.156  31.357  1.00  0.00     0.358 C 
ATOM      7  O   UNL A   1      36.276  29.186  30.752  1.00  0.00    -0.244 OA
BRANCH   6   8
ATOM      8  C   UNL A   1      36.039  31.481  31.362  1.00  0.00     0.171 A 
ATOM      9  C   UNL A   1      34.933  33.964  31.133  1.00  0.00     0.148 A 
ATOM     10  C   UNL A   1      35.297  33.493  32.388  1.00  0.00     0.051 A 
ATOM     11  N   UNL A   1      35.043  33.166  30.056  1.00  0.00    -0.132 NA
ATOM     12  C   UNL A   1      35.852  32.220  32.516  1.00  0.00     0.042 A 
ATOM     13  N   UNL A   1      35.631  31.928  30.157  1.00  0.00    -0.141 NA
BRANCH   9  14
ATOM     14  N   UNL A   1      34.536  35.278  30.929  1.00  0.00    -0.363 N 
ATOM     15  H   UNL A   1      35.187  36.017  30.915  1.00  0.00     0.162 HD
BRANCH  14  16
ATOM     16  C   UNL A   1      33.098  35.518  30.734  1.00  0.00     0.108 C 
BRANCH  16  17
ATOM     17  C   UNL A   1      32.566  36.538  31.785  1.00  0.00     0.007 C 
ATOM     18  C   UNL A   1      31.452  35.920  32.639  1.00  0.00     0.009 C 
ATOM     19  C   UNL A   1      33.668  37.044  32.728  1.00  0.00     0.009 C 
ENDBRANCH  16  17
BRANCH  16  20
ATOM     20  C   UNL A   1      32.859  35.951  29.265  1.00  0.00     0.181 C 
BRANCH  20  21
ATOM     21  O   UNL A   1      32.796  34.871  28.338  1.00  0.00    -0.394 OA
ATOM     22  H   UNL A   1      32.180  34.197  28.669  1.00  0.00     0.210 HD
ENDBRANCH  20  21
ENDBRANCH  16  20
ENDBRANCH  14  16
ENDBRANCH   9  14
ENDBRANCH   6   8
ENDBRANCH   5   6
ENDBRANCH   4   5
ENDBRANCH   3   4
ENDBRANCH   2   3
ENDBRANCH   1   2
BRANCH   1  23
ATOM     23  C   UNL A   1      41.189  27.849  34.169  1.00  0.00     0.188 C 
BRANCH  23  24
ATOM     24  O   UNL A   1      42.038  27.248  35.133  1.00  0.00    -0.376 OA
BRANCH  24  25
ATOM     25  C   UNL A   1      41.410  26.366  36.055  1.00  0.00     0.202 C 
BRANCH  25  26
ATOM     26  C   UNL A   1      42.331  25.497  36.926  1.00  0.00     0.261 C 
BRANCH  26  27
ATOM     27  O   UNL A   1      43.449  24.891  36.257  1.00  0.00    -0.460 OA
BRANCH  27  28
ATOM     28  C   UNL A   1      44.686  25.262  36.660  1.00  0.00     0.338 C 
ATOM     29  O   UNL A   1      45.108  25.264  37.801  1.00  0.00    -0.246 OA
BRANCH  28  30
ATOM     30  C   UNL A   1      45.500  25.500  35.446  1.00  0.00     0.060 A 
ATOM     31  C   UNL A   1      45.294  26.671  34.706  1.00  0.00     0.016 A 
ATOM     32  C   UNL A   1      46.474  24.579  35.050  1.00  0.00     0.016 A 
ATOM     33  C   UNL A   1      46.052  26.913  33.556  1.00  0.00     0.010 A 
ATOM     34  C   UNL A   1      47.220  24.816  33.889  1.00  0.00     0.010 A 
ATOM     35  C   UNL A   1      47.000  25.974  33.122  1.00  0.00    -0.014 A 
BRANCH  35  36
ATOM     36  C   UNL A   1      47.653  26.133  31.795  1.00  0.00     0.031 A 
ATOM     37  C   UNL A   1      48.981  26.837  31.723  1.00  0.00     0.074 A 
ATOM     38  C   UNL A   1      47.087  25.645  30.675  1.00  0.00     0.049 A 
ATOM     39  N   UNL A   1      49.724  27.110  30.681  1.00  0.00    -0.248 NA
ATOM     40  C   UNL A   1      49.543  27.297  33.001  1.00  0.00     0.031 C 
ATOM     41  C   UNL A   1      45.823  24.915  30.617  1.00  0.00     0.029 A 
ATOM     42  N   UNL A   1      47.505  25.697  29.367  1.00  0.00    -0.354 N 
ATOM     43  C   UNL A   1      50.844  27.770  31.177  1.00  0.00     0.074 A 
ATOM     44  C   UNL A   1      50.659  27.892  32.607  1.00  0.00     0.031 C 
ATOM     45  C   UNL A   1      45.563  24.594  29.337  1.00  0.00     0.029 A 
ATOM     46  C   UNL A   1      46.623  25.123  28.480  1.00  0.00     0.049 A 
ATOM     47  H   UNL A   1      48.356  26.107  29.091  1.00  0.00     0.167 HD
ATOM     48  C   UNL A   1      51.930  28.225  30.502  1.00  0.00     0.034 A 
ATOM     49  C   UNL A   1      46.657  25.053  27.133  1.00  0.00     0.034 A 
ATOM     50  C   UNL A   1      52.094  28.116  29.073  1.00  0.00     0.049 A 
ATOM     51  C   UNL A   1      47.835  25.648  26.395  1.00  0.00     0.074 A 
ATOM     52  C   UNL A   1      53.163  28.526  28.294  1.00  0.00     0.029 A 
ATOM     53  N   UNL A   1      51.157  27.576  28.202  1.00  0.00    -0.354 N 
ATOM     54  N   UNL A   1      48.899  26.248  26.877  1.00  0.00    -0.248 NA
ATOM     55  C   UNL A   1      47.818  25.545  24.929  1.00  0.00     0.031 C 
ATOM     56  C   UNL A   1      52.841  28.302  26.951  1.00  0.00     0.029 A 
ATOM     57  C   UNL A   1      51.606  27.677  26.893  1.00  0.00     0.049 A 
ATOM     58  H   UNL A   1      50.298  27.177  28.474  1.00  0.00     0.167 HD
ATOM     59  C   UNL A   1      49.689  26.567  25.775  1.00  0.00     0.074 A 
ATOM     60  C   UNL A   1      48.988  26.077  24.606  1.00  0.00     0.031 C 
ATOM     61  C   UNL A   1      50.889  27.201  25.732  1.00  0.00     0.034 A 
BRANCH  48  62
ATOM     62  C   UNL A   1      52.997  28.929  31.307  1.00  0.00     0.023 A 
ATOM     63  C   UNL A   1      54.035  28.223  31.941  1.00  0.00     0.031 A 
ATOM     64  C   UNL A   1      52.959  30.326  31.464  1.00  0.00     0.131 A 
ATOM     65  C   UNL A   1      54.948  28.908  32.759  1.00  0.00     0.055 A 
ATOM     66  C   UNL A   1      53.917  31.010  32.215  1.00  0.00     0.041 A 
ATOM     67  F   UNL A   1      51.978  31.051  30.901  1.00  0.00    -0.206 F 
ATOM     68  C   UNL A   1      54.911  30.298  32.880  1.00  0.00     0.022 A 
BRANCH  65  69
ATOM     69  S   UNL A   1      56.102  27.940  33.771  1.00  0.00     0.124 S 
ATOM     70  O   UNL A   1      55.432  27.944  35.069  1.00  0.00    -0.237 OA
ATOM     71  O   UNL A   1      56.139  26.661  33.073  1.00  0.00    -0.237 OA
ATOM     72  O   UNL A   1      57.340  28.717  33.717  1.00  0.00    -0.744 OA
ENDBRANCH  65  69
ENDBRANCH  48  62
BRANCH  49  73
ATOM     73  C   UNL A   1      45.527  24.439  26.376  1.00  0.00     0.023 A 
ATOM     74  C   UNL A   1      45.493  23.061  26.100  1.00  0.00     0.031 A 
ATOM     75  C   UNL A   1      44.493  25.238  25.855  1.00  0.00     0.131 A 
ATOM     76  C   UNL A   1      44.476  22.534  25.288  1.00  0.00     0.055 A 
ATOM     77  C   UNL A   1      43.454  24.700  25.095  1.00  0.00     0.041 A 
ATOM     78  F   UNL A   1      44.480  26.562  26.081  1.00  0.00    -0.206 F 
ATOM     79  C   UNL A   1      43.448  23.342  24.796  1.00  0.00     0.022 A 
BRANCH  76  80
ATOM     80  S   UNL A   1      44.566  20.788  24.803  1.00  0.00     0.124 S 
ATOM     81  O   UNL A   1      45.839  20.381  25.387  1.00  0.00    -0.237 OA
ATOM     82  O   UNL A   1      43.368  20.235  25.430  1.00  0.00    -0.237 OA
ATOM     83  O   UNL A   1      44.536  20.836  23.344  1.00  0.00    -0.744 OA
ENDBRANCH  76  80
ENDBRANCH  49  73
BRANCH  61  84
ATOM     84  C   UNL A   1      51.535  27.363  24.374  1.00  0.00     0.023 A 
ATOM     85  C   UNL A   1      51.183  28.410  23.504  1.00  0.00     0.031 A 
ATOM     86  C   UNL A   1      52.507  26.443  23.939  1.00  0.00     0.131 A 
ATOM     87  C   UNL A   1      51.753  28.477  22.223  1.00  0.00     0.055 A 
ATOM     88  C   UNL A   1      53.115  26.552  22.688  1.00  0.00     0.041 A 
ATOM     89  F   UNL A   1      52.881  25.421  24.725  1.00  0.00    -0.206 F 
ATOM     90  C   UNL A   1      52.729  27.565  21.815  1.00  0.00     0.022 A 
BRANCH  87  91
ATOM     91  S   UNL A   1      51.129  29.718  21.053  1.00  0.00     0.124 S 
ATOM     92  O   UNL A   1      49.699  29.429  21.039  1.00  0.00    -0.237 OA
ATOM     93  O   UNL A   1      51.520  30.971  21.690  1.00  0.00    -0.237 OA
ATOM     94  O   UNL A   1      51.836  29.406  19.812  1.00  0.00    -0.744 OA
ENDBRANCH  87  91
ENDBRANCH  61  84
ENDBRANCH  35  36
ENDBRANCH  28  30
ENDBRANCH  27  28
ENDBRANCH  26  27
ENDBRANCH  25  26
ENDBRANCH  24  25
ENDBRANCH  23  24
ENDBRANCH   1  23
TORSDOF 25
ENDMDL
MODEL 3
REMARK VINA RESULT:      -7.7      7.930     14.637
REMARK SMILES CC(C)[C@@H](CO)Nc1ccc(C(=O)OCCOCCOCCOC(=O)c2ccc(-c3c4nc(c(-c5cc(S(=O)(=O)[O-])ccc5F)c5ccc([nH]5)c(-c5cc(S(=O)(=O)[O-])ccc5F)c5nc(c(-c6cc(S(=O)(=O)[O-])ccc6F)c6ccc3[nH]6)C=C5)C=C4)cc2)nn1
REMARK SMILES IDX 18 1 17 2 16 3 15 4 14 5 12 6 13 7 11 8 8 9 9 10 90 11 10 12
REMARK SMILES IDX 89 13 7 14 4 16 2 17 1 18 3 19 5 20 6 21 19 23 20 24 21 25
REMARK SMILES IDX 22 26 23 27 24 28 25 29 26 30 27 31 88 32 28 33 87 34 29 35
REMARK SMILES IDX 30 36 31 37 81 38 32 39 86 40 80 41 82 42 33 43 85 44 79 45
REMARK SMILES IDX 78 46 34 48 66 49 46 50 65 51 47 52 50 53 64 54 83 55 48 56
REMARK SMILES IDX 49 57 63 59 84 60 51 61 35 62 36 63 44 64 37 65 43 66 45 67
REMARK SMILES IDX 42 68 38 69 39 70 40 71 41 72 67 73 68 74 76 75 69 76 75 77
REMARK SMILES IDX 77 78 74 79 70 80 71 81 72 82 73 83 52 84 53 85 61 86 54 87
REMARK SMILES IDX 60 88 62 89 59 90 55 91 56 92 57 93 58 94
REMARK H PARENT 7 15 6 22 82 47 50 58
REMARK Flexibility Score: inf
ROOT
ATOM      1  C   UNL A   1      40.061  28.461  30.535  1.00  0.00     0.188 C 
ENDROOT
BRANCH   1   2
ATOM      2  O   UNL A   1      38.753  28.873  30.920  1.00  0.00    -0.376 OA
BRANCH   2   3
ATOM      3  C   UNL A   1      38.236  28.498  32.191  1.00  0.00     0.202 C 
BRANCH   3   4
ATOM      4  C   UNL A   1      38.130  29.568  33.285  1.00  0.00     0.261 C 
BRANCH   4   5
ATOM      5  O   UNL A   1      37.340  30.706  32.906  1.00  0.00    -0.458 OA
BRANCH   5   6
ATOM      6  C   UNL A   1      37.184  31.650  33.874  1.00  0.00     0.358 C 
ATOM      7  O   UNL A   1      37.900  31.810  34.848  1.00  0.00    -0.244 OA
BRANCH   6   8
ATOM      8  C   UNL A   1      36.049  32.538  33.528  1.00  0.00     0.171 A 
ATOM      9  C   UNL A   1      33.979  34.078  32.643  1.00  0.00     0.148 A 
ATOM     10  C   UNL A   1      34.819  34.569  33.635  1.00  0.00     0.051 A 
ATOM     11  N   UNL A   1      34.135  32.822  32.190  1.00  0.00    -0.132 NA
ATOM     12  C   UNL A   1      35.871  33.783  34.103  1.00  0.00     0.042 A 
ATOM     13  N   UNL A   1      35.195  32.052  32.605  1.00  0.00    -0.141 NA
BRANCH   9  14
ATOM     14  N   UNL A   1      33.027  34.877  32.027  1.00  0.00    -0.363 N 
ATOM     15  H   UNL A   1      32.062  34.714  32.145  1.00  0.00     0.162 HD
BRANCH  14  16
ATOM     16  C   UNL A   1      33.522  35.981  31.190  1.00  0.00     0.108 C 
BRANCH  16  17
ATOM     17  C   UNL A   1      32.929  35.886  29.752  1.00  0.00     0.007 C 
ATOM     18  C   UNL A   1      33.401  37.058  28.882  1.00  0.00     0.009 C 
ATOM     19  C   UNL A   1      33.308  34.578  29.042  1.00  0.00     0.009 C 
ENDBRANCH  16  17
BRANCH  16  20
ATOM     20  C   UNL A   1      33.220  37.323  31.905  1.00  0.00     0.181 C 
BRANCH  20  21
ATOM     21  O   UNL A   1      32.260  37.227  32.953  1.00  0.00    -0.394 OA
ATOM     22  H   UNL A   1      31.690  38.012  32.943  1.00  0.00     0.210 HD
ENDBRANCH  20  21
ENDBRANCH  16  20
ENDBRANCH  14  16
ENDBRANCH   9  14
ENDBRANCH   6   8
ENDBRANCH   5   6
ENDBRANCH   4   5
ENDBRANCH   3   4
ENDBRANCH   2   3
ENDBRANCH   1   2
BRANCH   1  23
ATOM     23  C   UNL A   1      40.390  28.256  29.041  1.00  0.00     0.188 C 
BRANCH  23  24
ATOM     24  O   UNL A   1      39.705  27.172  28.435  1.00  0.00    -0.376 OA
BRANCH  24  25
ATOM     25  C   UNL A   1      40.253  26.693  27.213  1.00  0.00     0.202 C 
BRANCH  25  26
ATOM     26  C   UNL A   1      40.444  25.173  27.083  1.00  0.00     0.261 C 
BRANCH  26  27
ATOM     27  O   UNL A   1      41.512  24.741  26.223  1.00  0.00    -0.460 OA
BRANCH  27  28
ATOM     28  C   UNL A   1      42.592  24.179  26.813  1.00  0.00     0.338 C 
ATOM     29  O   UNL A   1      42.676  23.043  27.243  1.00  0.00    -0.246 OA
BRANCH  28  30
ATOM     30  C   UNL A   1      43.718  25.132  26.687  1.00  0.00     0.060 A 
ATOM     31  C   UNL A   1      44.400  25.537  27.841  1.00  0.00     0.016 A 
ATOM     32  C   UNL A   1      44.109  25.611  25.433  1.00  0.00     0.016 A 
ATOM     33  C   UNL A   1      45.466  26.437  27.742  1.00  0.00     0.010 A 
ATOM     34  C   UNL A   1      45.166  26.525  25.340  1.00  0.00     0.010 A 
ATOM     35  C   UNL A   1      45.837  26.961  26.496  1.00  0.00    -0.014 A 
BRANCH  35  36
ATOM     36  C   UNL A   1      46.827  28.069  26.418  1.00  0.00     0.031 A 
ATOM     37  C   UNL A   1      46.334  29.488  26.521  1.00  0.00     0.074 A 
ATOM     38  C   UNL A   1      48.142  27.823  26.276  1.00  0.00     0.049 A 
ATOM     39  N   UNL A   1      47.003  30.609  26.459  1.00  0.00    -0.248 NA
ATOM     40  C   UNL A   1      44.886  29.659  26.719  1.00  0.00     0.031 C 
ATOM     41  C   UNL A   1      48.750  26.495  26.200  1.00  0.00     0.029 A 
ATOM     42  N   UNL A   1      49.207  28.685  26.167  1.00  0.00    -0.354 N 
ATOM     43  C   UNL A   1      46.062  31.622  26.613  1.00  0.00     0.074 A 
ATOM     44  C   UNL A   1      44.771  30.979  26.730  1.00  0.00     0.031 C 
ATOM     45  C   UNL A   1      50.078  26.631  26.046  1.00  0.00     0.029 A 
ATOM     46  C   UNL A   1      50.415  28.053  25.981  1.00  0.00     0.049 A 
ATOM     47  H   UNL A   1      49.113  29.663  26.216  1.00  0.00     0.167 HD
ATOM     48  C   UNL A   1      46.257  32.964  26.663  1.00  0.00     0.034 A 
ATOM     49  C   UNL A   1      51.645  28.563  25.760  1.00  0.00     0.034 A 
ATOM     50  C   UNL A   1      47.547  33.595  26.525  1.00  0.00     0.049 A 
ATOM     51  C   UNL A   1      51.825  30.063  25.728  1.00  0.00     0.074 A 
ATOM     52  C   UNL A   1      47.858  34.944  26.579  1.00  0.00     0.029 A 
ATOM     53  N   UNL A   1      48.741  32.926  26.285  1.00  0.00    -0.354 N 
ATOM     54  N   UNL A   1      50.931  31.010  25.900  1.00  0.00    -0.248 NA
ATOM     55  C   UNL A   1      53.185  30.562  25.482  1.00  0.00     0.031 C 
ATOM     56  C   UNL A   1      49.221  35.093  26.299  1.00  0.00     0.029 A 
ATOM     57  C   UNL A   1      49.780  33.835  26.151  1.00  0.00     0.049 A 
ATOM     58  H   UNL A   1      48.836  31.948  26.221  1.00  0.00     0.167 HD
ATOM     59  C   UNL A   1      51.627  32.213  25.811  1.00  0.00     0.074 A 
ATOM     60  C   UNL A   1      53.017  31.872  25.589  1.00  0.00     0.031 C 
ATOM     61  C   UNL A   1      51.162  33.485  25.911  1.00  0.00     0.034 A 
BRANCH  48  62
ATOM     62  C   UNL A   1      45.033  33.834  26.821  1.00  0.00     0.023 A 
ATOM     63  C   UNL A   1      44.557  34.223  28.086  1.00  0.00     0.031 A 
ATOM     64  C   UNL A   1      44.315  34.259  25.688  1.00  0.00     0.131 A 
ATOM     65  C   UNL A   1      43.361  34.950  28.190  1.00  0.00     0.055 A 
ATOM     66  C   UNL A   1      43.169  35.049  25.796  1.00  0.00     0.041 A 
ATOM     67  F   UNL A   1      44.709  33.901  24.455  1.00  0.00    -0.206 F 
ATOM     68  C   UNL A   1      42.678  35.387  27.053  1.00  0.00     0.022 A 
BRANCH  65  69
ATOM     69  S   UNL A   1      42.637  35.200  29.835  1.00  0.00     0.124 S 
ATOM     70  O   UNL A   1      41.218  34.972  29.572  1.00  0.00    -0.237 OA
ATOM     71  O   UNL A   1      43.311  34.184  30.634  1.00  0.00    -0.237 OA
ATOM     72  O   UNL A   1      42.988  36.583  30.157  1.00  0.00    -0.744 OA
ENDBRANCH  65  69
ENDBRANCH  48  62
BRANCH  49  73
ATOM     73  C   UNL A   1      52.806  27.660  25.505  1.00  0.00     0.023 A 
ATOM     74  C   UNL A   1      53.570  27.134  26.561  1.00  0.00     0.031 A 
ATOM     75  C   UNL A   1      53.212  27.365  24.191  1.00  0.00     0.131 A 
ATOM     76  C   UNL A   1      54.725  26.382  26.284  1.00  0.00     0.055 A 
ATOM     77  C   UNL A   1      54.328  26.572  23.922  1.00  0.00     0.041 A 
ATOM     78  F   UNL A   1      52.524  27.850  23.144  1.00  0.00    -0.206 F 
ATOM     79  C   UNL A   1      55.099  26.086  24.972  1.00  0.00     0.022 A 
BRANCH  76  80
ATOM     80  S   UNL A   1      55.785  25.874  27.666  1.00  0.00     0.124 S 
ATOM     81  O   UNL A   1      56.860  26.858  27.594  1.00  0.00    -0.237 OA
ATOM     82  O   UNL A   1      54.881  25.994  28.806  1.00  0.00    -0.237 OA
ATOM     83  O   UNL A   1      56.167  24.507  27.319  1.00  0.00    -0.744 OA
ENDBRANCH  76  80
ENDBRANCH  49  73
BRANCH  61  84
ATOM     84  C   UNL A   1      52.179  34.600  25.820  1.00  0.00     0.023 A 
ATOM     85  C   UNL A   1      52.838  35.099  26.958  1.00  0.00     0.031 A 
ATOM     86  C   UNL A   1      52.479  35.184  24.576  1.00  0.00     0.131 A 
ATOM     87  C   UNL A   1      53.719  36.186  26.836  1.00  0.00     0.055 A 
ATOM     88  C   UNL A   1      53.402  36.224  24.453  1.00  0.00     0.041 A 
ATOM     89  F   UNL A   1      51.878  34.752  23.455  1.00  0.00    -0.206 F 
ATOM     90  C   UNL A   1      54.017  36.740  25.590  1.00  0.00     0.022 A 
BRANCH  87  91
ATOM     91  S   UNL A   1      54.395  36.934  28.345  1.00  0.00     0.124 S 
ATOM     92  O   UNL A   1      54.092  35.920  29.349  1.00  0.00    -0.237 OA
ATOM     93  O   UNL A   1      55.806  37.096  28.008  1.00  0.00    -0.237 OA
ATOM     94  O   UNL A   1      53.644  38.181  28.477  1.00  0.00    -0.744 OA
ENDBRANCH  87  91
ENDBRANCH  61  84
ENDBRANCH  35  36
ENDBRANCH  28  30
ENDBRANCH  27  28
ENDBRANCH  26  27
ENDBRANCH  25  26
ENDBRANCH  24  25
ENDBRANCH  23  24
ENDBRANCH   1  23
TORSDOF 25
ENDMDL
