MODEL 1
REMARK VINA RESULT:      -9.1      0.000      0.000
REMARK SMILES [NH3+][C@H](C(=O)OCCOCCOCCOC(=O)c1ccc(-c2c3nc(c(-c4cc(S(=O)(=O)[O-])ccc4F)c4ccc([nH]4)c(-c4cc(S(=O)(=O)[O-])ccc4F)c4nc(c(-c5cc(S(=O)(=O)[O-])ccc5F)c5ccc2[nH]5)C=C4)C=C3)cc1)c1cc2c(cc1Br)OCO2
REMARK SMILES IDX 10 1 9 2 8 3 7 4 6 5 5 6 3 7 4 8 2 9 1 10 80 14 81 15 85 16
REMARK SMILES IDX 82 17 84 18 86 19 83 20 89 21 87 22 88 23 11 24 12 25 13 26
REMARK SMILES IDX 14 27 15 28 16 29 17 30 18 31 79 32 19 33 78 34 20 35 21 36
REMARK SMILES IDX 22 37 72 38 23 39 77 40 71 41 73 42 24 43 76 44 70 45 69 46
REMARK SMILES IDX 25 48 57 49 37 50 56 51 38 52 41 53 55 54 74 55 39 56 40 57
REMARK SMILES IDX 54 59 75 60 42 61 26 62 27 63 35 64 28 65 34 66 36 67 33 68
REMARK SMILES IDX 29 69 30 70 31 71 32 72 58 73 59 74 67 75 60 76 66 77 68 78
REMARK SMILES IDX 65 79 61 80 62 81 63 82 64 83 43 84 44 85 52 86 45 87 51 88
REMARK SMILES IDX 53 89 50 90 46 91 47 92 48 93 49 94
REMARK H PARENT 1 11 1 12 1 13 73 47 41 58
REMARK Flexibility Score: inf
ROOT
ATOM      1  C   UNL A   1      33.443  34.431  33.112  1.00  0.00     0.188 C 
ENDROOT
BRANCH   1   2
ATOM      2  C   UNL A   1      34.007  35.862  32.993  1.00  0.00     0.188 C 
BRANCH   2   3
ATOM      3  O   UNL A   1      33.856  36.594  31.782  1.00  0.00    -0.376 OA
BRANCH   3   4
ATOM      4  C   UNL A   1      32.877  36.171  30.844  1.00  0.00     0.202 C 
BRANCH   4   5
ATOM      5  C   UNL A   1      33.365  35.697  29.467  1.00  0.00     0.261 C 
BRANCH   5   6
ATOM      6  O   UNL A   1      33.719  34.307  29.482  1.00  0.00    -0.459 OA
BRANCH   6   7
ATOM      7  C   UNL A   1      34.416  33.811  28.416  1.00  0.00     0.369 C 
ATOM      8  O   UNL A   1      34.621  34.441  27.385  1.00  0.00    -0.245 OA
BRANCH   7   9
ATOM      9  C   UNL A   1      35.027  32.419  28.749  1.00  0.00     0.324 C 
BRANCH   9  10
ATOM     10  N   UNL A   1      34.690  31.963  30.121  1.00  0.00    -0.342 N 
ATOM     11  H   UNL A   1      35.325  32.398  30.790  1.00  0.00     0.345 HD
ATOM     12  H   UNL A   1      34.783  30.949  30.175  1.00  0.00     0.345 HD
ATOM     13  H   UNL A   1      33.730  32.228  30.341  1.00  0.00     0.345 HD
ENDBRANCH   9  10
BRANCH   9  14
ATOM     14  C   UNL A   1      34.643  31.264  27.844  1.00  0.00     0.039 A 
ATOM     15  C   UNL A   1      33.284  31.104  27.508  1.00  0.00     0.062 A 
ATOM     16  C   UNL A   1      35.542  30.178  27.639  1.00  0.00     0.031 A 
ATOM     17  C   UNL A   1      32.861  29.857  27.114  1.00  0.00     0.166 A 
ATOM     18  C   UNL A   1      35.084  28.937  27.187  1.00  0.00     0.066 A 
ATOM     19  Br  UNL A   1      37.381  30.263  28.125  1.00  0.00    -0.050 Br
ATOM     20  C   UNL A   1      33.732  28.802  26.975  1.00  0.00     0.166 A 
ATOM     21  O   UNL A   1      31.565  29.489  26.933  1.00  0.00    -0.454 OA
ATOM     22  O   UNL A   1      33.086  27.638  26.693  1.00  0.00    -0.454 OA
ATOM     23  C   UNL A   1      31.716  28.058  26.846  1.00  0.00     0.468 C 
ENDBRANCH   9  14
ENDBRANCH   7   9
ENDBRANCH   6   7
ENDBRANCH   5   6
ENDBRANCH   4   5
ENDBRANCH   3   4
ENDBRANCH   2   3
ENDBRANCH   1   2
BRANCH   1  24
ATOM     24  O   UNL A   1      34.273  33.318  32.893  1.00  0.00    -0.376 OA
BRANCH  24  25
ATOM     25  C   UNL A   1      35.667  33.457  32.774  1.00  0.00     0.202 C 
BRANCH  25  26
ATOM     26  C   UNL A   1      36.681  32.348  33.096  1.00  0.00     0.261 C 
BRANCH  26  27
ATOM     27  O   UNL A   1      37.334  31.706  31.992  1.00  0.00    -0.460 OA
BRANCH  27  28
ATOM     28  C   UNL A   1      37.215  30.355  31.959  1.00  0.00     0.338 C 
ATOM     29  O   UNL A   1      36.240  29.714  31.575  1.00  0.00    -0.246 OA
BRANCH  28  30
ATOM     30  C   UNL A   1      38.499  29.713  32.303  1.00  0.00     0.060 A 
ATOM     31  C   UNL A   1      39.640  30.512  32.468  1.00  0.00     0.016 A 
ATOM     32  C   UNL A   1      38.598  28.324  32.369  1.00  0.00     0.016 A 
ATOM     33  C   UNL A   1      40.890  29.920  32.675  1.00  0.00     0.010 A 
ATOM     34  C   UNL A   1      39.854  27.734  32.563  1.00  0.00     0.010 A 
ATOM     35  C   UNL A   1      41.014  28.525  32.691  1.00  0.00    -0.014 A 
BRANCH  35  36
ATOM     36  C   UNL A   1      42.355  27.876  32.664  1.00  0.00     0.031 A 
ATOM     37  C   UNL A   1      43.049  27.598  33.973  1.00  0.00     0.074 A 
ATOM     38  C   UNL A   1      42.963  27.542  31.510  1.00  0.00     0.049 A 
ATOM     39  N   UNL A   1      44.272  27.195  34.202  1.00  0.00    -0.248 NA
ATOM     40  C   UNL A   1      42.247  27.815  35.186  1.00  0.00     0.031 C 
ATOM     41  C   UNL A   1      42.381  27.676  30.177  1.00  0.00     0.029 A 
ATOM     42  N   UNL A   1      44.222  27.036  31.277  1.00  0.00    -0.354 N 
ATOM     43  C   UNL A   1      44.398  27.132  35.586  1.00  0.00     0.074 A 
ATOM     44  C   UNL A   1      43.130  27.562  36.140  1.00  0.00     0.031 C 
ATOM     45  C   UNL A   1      43.287  27.280  29.264  1.00  0.00     0.029 A 
ATOM     46  C   UNL A   1      44.533  26.919  29.940  1.00  0.00     0.049 A 
ATOM     47  H   UNL A   1      44.841  26.783  31.998  1.00  0.00     0.167 HD
ATOM     48  C   UNL A   1      45.468  26.751  36.327  1.00  0.00     0.034 A 
ATOM     49  C   UNL A   1      45.697  26.600  29.334  1.00  0.00     0.034 A 
ATOM     50  C   UNL A   1      46.730  26.329  35.765  1.00  0.00     0.049 A 
ATOM     51  C   UNL A   1      46.915  26.294  30.179  1.00  0.00     0.074 A 
ATOM     52  C   UNL A   1      47.871  25.914  36.430  1.00  0.00     0.029 A 
ATOM     53  N   UNL A   1      47.023  26.278  34.408  1.00  0.00    -0.354 N 
ATOM     54  N   UNL A   1      47.030  26.256  31.487  1.00  0.00    -0.248 NA
ATOM     55  C   UNL A   1      48.162  25.986  29.461  1.00  0.00     0.031 C 
ATOM     56  C   UNL A   1      48.878  25.698  35.483  1.00  0.00     0.029 A 
ATOM     57  C   UNL A   1      48.339  25.881  34.220  1.00  0.00     0.049 A 
ATOM     58  H   UNL A   1      46.391  26.493  33.686  1.00  0.00     0.167 HD
ATOM     59  C   UNL A   1      48.350  25.882  31.743  1.00  0.00     0.074 A 
ATOM     60  C   UNL A   1      48.986  25.697  30.457  1.00  0.00     0.031 C 
ATOM     61  C   UNL A   1      48.975  25.701  32.935  1.00  0.00     0.034 A 
BRANCH  48  62
ATOM     62  C   UNL A   1      45.342  26.841  37.829  1.00  0.00     0.023 A 
ATOM     63  C   UNL A   1      45.640  28.019  38.533  1.00  0.00     0.031 A 
ATOM     64  C   UNL A   1      44.941  25.715  38.572  1.00  0.00     0.131 A 
ATOM     65  C   UNL A   1      45.604  28.024  39.937  1.00  0.00     0.055 A 
ATOM     66  C   UNL A   1      44.823  25.751  39.962  1.00  0.00     0.041 A 
ATOM     67  F   UNL A   1      44.667  24.553  37.957  1.00  0.00    -0.206 F 
ATOM     68  C   UNL A   1      45.171  26.907  40.654  1.00  0.00     0.022 A 
BRANCH  65  69
ATOM     69  S   UNL A   1      46.278  29.460  40.817  1.00  0.00     0.124 S 
ATOM     70  O   UNL A   1      46.036  30.535  39.857  1.00  0.00    -0.237 OA
ATOM     71  O   UNL A   1      45.471  29.494  42.031  1.00  0.00    -0.237 OA
ATOM     72  O   UNL A   1      47.684  29.114  41.011  1.00  0.00    -0.744 OA
ENDBRANCH  65  69
ENDBRANCH  48  62
BRANCH  49  73
ATOM     73  C   UNL A   1      45.807  26.610  27.843  1.00  0.00     0.023 A 
ATOM     74  C   UNL A   1      45.753  25.418  27.103  1.00  0.00     0.031 A 
ATOM     75  C   UNL A   1      46.051  27.806  27.143  1.00  0.00     0.131 A 
ATOM     76  C   UNL A   1      45.992  25.440  25.719  1.00  0.00     0.055 A 
ATOM     77  C   UNL A   1      46.224  27.831  25.758  1.00  0.00     0.041 A 
ATOM     78  F   UNL A   1      46.129  28.975  27.800  1.00  0.00    -0.206 F 
ATOM     79  C   UNL A   1      46.209  26.640  25.039  1.00  0.00     0.022 A 
BRANCH  76  80
ATOM     80  S   UNL A   1      46.120  23.862  24.831  1.00  0.00     0.124 S 
ATOM     81  O   UNL A   1      44.771  23.712  24.299  1.00  0.00    -0.237 OA
ATOM     82  O   UNL A   1      47.167  24.147  23.856  1.00  0.00    -0.237 OA
ATOM     83  O   UNL A   1      46.488  22.911  25.878  1.00  0.00    -0.744 OA
ENDBRANCH  76  80
ENDBRANCH  49  73
BRANCH  61  84
ATOM     84  C   UNL A   1      50.408  25.214  32.907  1.00  0.00     0.023 A 
ATOM     85  C   UNL A   1      50.737  23.847  32.938  1.00  0.00     0.031 A 
ATOM     86  C   UNL A   1      51.466  26.142  32.850  1.00  0.00     0.131 A 
ATOM     87  C   UNL A   1      52.083  23.450  32.969  1.00  0.00     0.055 A 
ATOM     88  C   UNL A   1      52.802  25.739  32.813  1.00  0.00     0.041 A 
ATOM     89  F   UNL A   1      51.217  27.461  32.824  1.00  0.00    -0.206 F 
ATOM     90  C   UNL A   1      53.117  24.386  32.886  1.00  0.00     0.022 A 
BRANCH  87  91
ATOM     91  S   UNL A   1      52.474  21.695  33.217  1.00  0.00     0.124 S 
ATOM     92  O   UNL A   1      52.063  21.110  31.945  1.00  0.00    -0.237 OA
ATOM     93  O   UNL A   1      53.911  21.728  33.469  1.00  0.00    -0.237 OA
ATOM     94  O   UNL A   1      51.653  21.318  34.366  1.00  0.00    -0.744 OA
ENDBRANCH  87  91
ENDBRANCH  61  84
ENDBRANCH  35  36
ENDBRANCH  28  30
ENDBRANCH  27  28
ENDBRANCH  26  27
ENDBRANCH  25  26
ENDBRANCH  24  25
ENDBRANCH   1  24
TORSDOF 22
ENDMDL
MODEL 2
REMARK VINA RESULT:      -9.1      6.184      9.869
REMARK SMILES [NH3+][C@H](C(=O)OCCOCCOCCOC(=O)c1ccc(-c2c3nc(c(-c4cc(S(=O)(=O)[O-])ccc4F)c4ccc([nH]4)c(-c4cc(S(=O)(=O)[O-])ccc4F)c4nc(c(-c5cc(S(=O)(=O)[O-])ccc5F)c5ccc2[nH]5)C=C4)C=C3)cc1)c1cc2c(cc1Br)OCO2
REMARK SMILES IDX 10 1 9 2 8 3 7 4 6 5 5 6 3 7 4 8 2 9 1 10 80 14 81 15 85 16
REMARK SMILES IDX 82 17 84 18 86 19 83 20 89 21 87 22 88 23 11 24 12 25 13 26
REMARK SMILES IDX 14 27 15 28 16 29 17 30 18 31 79 32 19 33 78 34 20 35 21 36
REMARK SMILES IDX 22 37 72 38 23 39 77 40 71 41 73 42 24 43 76 44 70 45 69 46
REMARK SMILES IDX 25 48 57 49 37 50 56 51 38 52 41 53 55 54 74 55 39 56 40 57
REMARK SMILES IDX 54 59 75 60 42 61 26 62 27 63 35 64 28 65 34 66 36 67 33 68
REMARK SMILES IDX 29 69 30 70 31 71 32 72 58 73 59 74 67 75 60 76 66 77 68 78
REMARK SMILES IDX 65 79 61 80 62 81 63 82 64 83 43 84 44 85 52 86 45 87 51 88
REMARK SMILES IDX 53 89 50 90 46 91 47 92 48 93 49 94
REMARK H PARENT 1 11 1 12 1 13 73 47 41 58
REMARK Flexibility Score: inf
ROOT
ATOM      1  C   UNL A   1      35.646  21.753  24.626  1.00  0.00     0.188 C 
ENDROOT
BRANCH   1   2
ATOM      2  C   UNL A   1      34.277  21.350  25.212  1.00  0.00     0.188 C 
BRANCH   2   3
ATOM      3  O   UNL A   1      33.303  22.344  25.509  1.00  0.00    -0.376 OA
BRANCH   3   4
ATOM      4  C   UNL A   1      32.030  22.262  24.885  1.00  0.00     0.202 C 
BRANCH   4   5
ATOM      5  C   UNL A   1      31.553  23.475  24.072  1.00  0.00     0.261 C 
BRANCH   5   6
ATOM      6  O   UNL A   1      32.510  24.542  24.106  1.00  0.00    -0.459 OA
BRANCH   6   7
ATOM      7  C   UNL A   1      33.200  24.822  22.959  1.00  0.00     0.369 C 
ATOM      8  O   UNL A   1      33.635  23.964  22.201  1.00  0.00    -0.245 OA
BRANCH   7   9
ATOM      9  C   UNL A   1      33.223  26.354  22.683  1.00  0.00     0.324 C 
BRANCH   9  10
ATOM     10  N   UNL A   1      33.277  26.671  21.234  1.00  0.00    -0.342 N 
ATOM     11  H   UNL A   1      32.534  27.330  21.002  1.00  0.00     0.345 HD
ATOM     12  H   UNL A   1      33.151  25.815  20.694  1.00  0.00     0.345 HD
ATOM     13  H   UNL A   1      34.181  27.084  21.010  1.00  0.00     0.345 HD
ENDBRANCH   9  10
BRANCH   9  14
ATOM     14  C   UNL A   1      32.061  27.168  23.222  1.00  0.00     0.039 A 
ATOM     15  C   UNL A   1      30.999  27.473  22.349  1.00  0.00     0.062 A 
ATOM     16  C   UNL A   1      32.197  27.905  24.434  1.00  0.00     0.031 A 
ATOM     17  C   UNL A   1      30.212  28.558  22.647  1.00  0.00     0.166 A 
ATOM     18  C   UNL A   1      31.345  28.972  24.729  1.00  0.00     0.066 A 
ATOM     19  Br  UNL A   1      33.637  27.623  25.649  1.00  0.00    -0.050 Br
ATOM     20  C   UNL A   1      30.391  29.296  23.794  1.00  0.00     0.166 A 
ATOM     21  O   UNL A   1      29.270  29.095  21.826  1.00  0.00    -0.454 OA
ATOM     22  O   UNL A   1      29.585  30.391  23.831  1.00  0.00    -0.454 OA
ATOM     23  C   UNL A   1      29.018  30.341  22.506  1.00  0.00     0.468 C 
ENDBRANCH   9  14
ENDBRANCH   7   9
ENDBRANCH   6   7
ENDBRANCH   5   6
ENDBRANCH   4   5
ENDBRANCH   3   4
ENDBRANCH   2   3
ENDBRANCH   1   2
BRANCH   1  24
ATOM     24  O   UNL A   1      36.758  21.926  25.468  1.00  0.00    -0.376 OA
BRANCH  24  25
ATOM     25  C   UNL A   1      37.916  21.141  25.322  1.00  0.00     0.202 C 
BRANCH  25  26
ATOM     26  C   UNL A   1      39.219  21.363  26.105  1.00  0.00     0.261 C 
BRANCH  26  27
ATOM     27  O   UNL A   1      39.840  20.213  26.696  1.00  0.00    -0.460 OA
BRANCH  27  28
ATOM     28  C   UNL A   1      41.115  19.978  26.296  1.00  0.00     0.338 C 
ATOM     29  O   UNL A   1      41.513  19.014  25.647  1.00  0.00    -0.246 OA
BRANCH  28  30
ATOM     30  C   UNL A   1      41.977  21.135  26.604  1.00  0.00     0.060 A 
ATOM     31  C   UNL A   1      42.253  21.444  27.944  1.00  0.00     0.016 A 
ATOM     32  C   UNL A   1      42.434  21.968  25.582  1.00  0.00     0.016 A 
ATOM     33  C   UNL A   1      42.967  22.603  28.266  1.00  0.00     0.010 A 
ATOM     34  C   UNL A   1      43.136  23.134  25.910  1.00  0.00     0.010 A 
ATOM     35  C   UNL A   1      43.386  23.476  27.255  1.00  0.00    -0.014 A 
BRANCH  35  36
ATOM     36  C   UNL A   1      43.926  24.826  27.584  1.00  0.00     0.031 A 
ATOM     37  C   UNL A   1      42.969  25.889  28.059  1.00  0.00     0.074 A 
ATOM     38  C   UNL A   1      45.234  25.120  27.460  1.00  0.00     0.049 A 
ATOM     39  N   UNL A   1      43.169  27.167  28.250  1.00  0.00    -0.248 NA
ATOM     40  C   UNL A   1      41.599  25.441  28.348  1.00  0.00     0.031 C 
ATOM     41  C   UNL A   1      46.284  24.174  27.091  1.00  0.00     0.029 A 
ATOM     42  N   UNL A   1      45.899  26.315  27.615  1.00  0.00    -0.354 N 
ATOM     43  C   UNL A   1      41.944  27.685  28.660  1.00  0.00     0.074 A 
ATOM     44  C   UNL A   1      41.006  26.581  28.664  1.00  0.00     0.031 C 
ATOM     45  C   UNL A   1      47.459  24.829  27.031  1.00  0.00     0.029 A 
ATOM     46  C   UNL A   1      47.238  26.249  27.299  1.00  0.00     0.049 A 
ATOM     47  H   UNL A   1      45.458  27.139  27.924  1.00  0.00     0.167 HD
ATOM     48  C   UNL A   1      41.630  28.960  29.001  1.00  0.00     0.034 A 
ATOM     49  C   UNL A   1      48.165  27.226  27.197  1.00  0.00     0.034 A 
ATOM     50  C   UNL A   1      42.572  30.054  28.988  1.00  0.00     0.049 A 
ATOM     51  C   UNL A   1      47.766  28.661  27.465  1.00  0.00     0.074 A 
ATOM     52  C   UNL A   1      42.355  31.380  29.325  1.00  0.00     0.029 A 
ATOM     53  N   UNL A   1      43.904  29.958  28.607  1.00  0.00    -0.354 N 
ATOM     54  N   UNL A   1      46.601  29.144  27.832  1.00  0.00    -0.248 NA
ATOM     55  C   UNL A   1      48.812  29.683  27.305  1.00  0.00     0.031 C 
ATOM     56  C   UNL A   1      43.526  32.098  29.066  1.00  0.00     0.029 A 
ATOM     57  C   UNL A   1      44.507  31.206  28.661  1.00  0.00     0.049 A 
ATOM     58  H   UNL A   1      44.355  29.126  28.338  1.00  0.00     0.167 HD
ATOM     59  C   UNL A   1      46.788  30.518  27.984  1.00  0.00     0.074 A 
ATOM     60  C   UNL A   1      48.177  30.784  27.679  1.00  0.00     0.031 C 
ATOM     61  C   UNL A   1      45.893  31.472  28.351  1.00  0.00     0.034 A 
BRANCH  48  62
ATOM     62  C   UNL A   1      40.189  29.252  29.350  1.00  0.00     0.023 A 
ATOM     63  C   UNL A   1      39.746  29.330  30.681  1.00  0.00     0.031 A 
ATOM     64  C   UNL A   1      39.238  29.427  28.328  1.00  0.00     0.131 A 
ATOM     65  C   UNL A   1      38.380  29.503  30.954  1.00  0.00     0.055 A 
ATOM     66  C   UNL A   1      37.895  29.686  28.607  1.00  0.00     0.041 A 
ATOM     67  F   UNL A   1      39.597  29.338  27.038  1.00  0.00    -0.206 F 
ATOM     68  C   UNL A   1      37.456  29.709  29.927  1.00  0.00     0.022 A 
BRANCH  65  69
ATOM     69  S   UNL A   1      37.805  29.301  32.662  1.00  0.00     0.124 S 
ATOM     70  O   UNL A   1      36.561  30.068  32.647  1.00  0.00    -0.237 OA
ATOM     71  O   UNL A   1      37.662  27.854  32.779  1.00  0.00    -0.237 OA
ATOM     72  O   UNL A   1      38.879  29.889  33.458  1.00  0.00    -0.744 OA
ENDBRANCH  65  69
ENDBRANCH  48  62
BRANCH  49  73
ATOM     73  C   UNL A   1      49.560  26.909  26.760  1.00  0.00     0.023 A 
ATOM     74  C   UNL A   1      50.609  26.817  27.689  1.00  0.00     0.031 A 
ATOM     75  C   UNL A   1      49.878  26.776  25.396  1.00  0.00     0.131 A 
ATOM     76  C   UNL A   1      51.930  26.650  27.242  1.00  0.00     0.055 A 
ATOM     77  C   UNL A   1      51.184  26.547  24.960  1.00  0.00     0.041 A 
ATOM     78  F   UNL A   1      48.919  26.871  24.461  1.00  0.00    -0.206 F 
ATOM     79  C   UNL A   1      52.222  26.497  25.885  1.00  0.00     0.022 A 
BRANCH  76  80
ATOM     80  S   UNL A   1      53.278  26.744  28.453  1.00  0.00     0.124 S 
ATOM     81  O   UNL A   1      53.472  28.185  28.568  1.00  0.00    -0.237 OA
ATOM     82  O   UNL A   1      52.692  26.081  29.613  1.00  0.00    -0.237 OA
ATOM     83  O   UNL A   1      54.368  26.016  27.806  1.00  0.00    -0.744 OA
ENDBRANCH  76  80
ENDBRANCH  49  73
BRANCH  61  84
ATOM     84  C   UNL A   1      46.403  32.888  28.509  1.00  0.00     0.023 A 
ATOM     85  C   UNL A   1      46.992  33.345  29.702  1.00  0.00     0.031 A 
ATOM     86  C   UNL A   1      46.295  33.798  27.440  1.00  0.00     0.131 A 
ATOM     87  C   UNL A   1      47.397  34.685  29.816  1.00  0.00     0.055 A 
ATOM     88  C   UNL A   1      46.761  35.111  27.536  1.00  0.00     0.041 A 
ATOM     89  F   UNL A   1      45.738  33.424  26.277  1.00  0.00    -0.206 F 
ATOM     90  C   UNL A   1      47.303  35.565  28.734  1.00  0.00     0.022 A 
BRANCH  87  91
ATOM     91  S   UNL A   1      47.959  35.296  31.430  1.00  0.00     0.124 S 
ATOM     92  O   UNL A   1      46.696  35.555  32.112  1.00  0.00    -0.237 OA
ATOM     93  O   UNL A   1      48.739  34.171  31.935  1.00  0.00    -0.237 OA
ATOM     94  O   UNL A   1      48.738  36.487  31.095  1.00  0.00    -0.744 OA
ENDBRANCH  87  91
ENDBRANCH  61  84
ENDBRANCH  35  36
ENDBRANCH  28  30
ENDBRANCH  27  28
ENDBRANCH  26  27
ENDBRANCH  25  26
ENDBRANCH  24  25
ENDBRANCH   1  24
TORSDOF 22
ENDMDL
MODEL 3
REMARK VINA RESULT:      -9.1      6.439      9.954
REMARK SMILES [NH3+][C@H](C(=O)OCCOCCOCCOC(=O)c1ccc(-c2c3nc(c(-c4cc(S(=O)(=O)[O-])ccc4F)c4ccc([nH]4)c(-c4cc(S(=O)(=O)[O-])ccc4F)c4nc(c(-c5cc(S(=O)(=O)[O-])ccc5F)c5ccc2[nH]5)C=C4)C=C3)cc1)c1cc2c(cc1Br)OCO2
REMARK SMILES IDX 10 1 9 2 8 3 7 4 6 5 5 6 3 7 4 8 2 9 1 10 80 14 81 15 85 16
REMARK SMILES IDX 82 17 84 18 86 19 83 20 89 21 87 22 88 23 11 24 12 25 13 26
REMARK SMILES IDX 14 27 15 28 16 29 17 30 18 31 79 32 19 33 78 34 20 35 21 36
REMARK SMILES IDX 22 37 72 38 23 39 77 40 71 41 73 42 24 43 76 44 70 45 69 46
REMARK SMILES IDX 25 48 57 49 37 50 56 51 38 52 41 53 55 54 74 55 39 56 40 57
REMARK SMILES IDX 54 59 75 60 42 61 26 62 27 63 35 64 28 65 34 66 36 67 33 68
REMARK SMILES IDX 29 69 30 70 31 71 32 72 58 73 59 74 67 75 60 76 66 77 68 78
REMARK SMILES IDX 65 79 61 80 62 81 63 82 64 83 43 84 44 85 52 86 45 87 51 88
REMARK SMILES IDX 53 89 50 90 46 91 47 92 48 93 49 94
REMARK H PARENT 1 11 1 12 1 13 73 47 41 58
REMARK Flexibility Score: inf
ROOT
ATOM      1  C   UNL A   1      36.215  20.648  25.103  1.00  0.00     0.188 C 
ENDROOT
BRANCH   1   2
ATOM      2  C   UNL A   1      34.755  20.884  24.663  1.00  0.00     0.188 C 
BRANCH   2   3
ATOM      3  O   UNL A   1      33.863  21.615  25.496  1.00  0.00    -0.376 OA
BRANCH   3   4
ATOM      4  C   UNL A   1      32.921  22.488  24.889  1.00  0.00     0.202 C 
BRANCH   4   5
ATOM      5  C   UNL A   1      32.857  23.936  25.399  1.00  0.00     0.261 C 
BRANCH   5   6
ATOM      6  O   UNL A   1      31.606  24.215  26.040  1.00  0.00    -0.459 OA
BRANCH   6   7
ATOM      7  C   UNL A   1      31.012  25.421  25.790  1.00  0.00     0.369 C 
ATOM      8  O   UNL A   1      30.696  26.217  26.666  1.00  0.00    -0.245 OA
BRANCH   7   9
ATOM      9  C   UNL A   1      30.932  25.696  24.261  1.00  0.00     0.324 C 
BRANCH   9  10
ATOM     10  N   UNL A   1      29.888  24.882  23.589  1.00  0.00    -0.342 N 
ATOM     11  H   UNL A   1      29.034  25.433  23.498  1.00  0.00     0.345 HD
ATOM     12  H   UNL A   1      29.697  24.049  24.144  1.00  0.00     0.345 HD
ATOM     13  H   UNL A   1      30.215  24.607  22.663  1.00  0.00     0.345 HD
ENDBRANCH   9  10
BRANCH   9  14
ATOM     14  C   UNL A   1      30.656  27.125  23.832  1.00  0.00     0.039 A 
ATOM     15  C   UNL A   1      29.315  27.550  23.754  1.00  0.00     0.062 A 
ATOM     16  C   UNL A   1      31.666  27.893  23.183  1.00  0.00     0.031 A 
ATOM     17  C   UNL A   1      29.026  28.622  22.945  1.00  0.00     0.166 A 
ATOM     18  C   UNL A   1      31.339  29.010  22.410  1.00  0.00     0.066 A 
ATOM     19  Br  UNL A   1      33.498  27.370  23.165  1.00  0.00    -0.050 Br
ATOM     20  C   UNL A   1      30.006  29.319  22.280  1.00  0.00     0.166 A 
ATOM     21  O   UNL A   1      27.775  29.042  22.616  1.00  0.00    -0.454 OA
ATOM     22  O   UNL A   1      29.489  30.262  21.446  1.00  0.00    -0.454 OA
ATOM     23  C   UNL A   1      28.085  29.951  21.541  1.00  0.00     0.468 C 
ENDBRANCH   9  14
ENDBRANCH   7   9
ENDBRANCH   6   7
ENDBRANCH   5   6
ENDBRANCH   4   5
ENDBRANCH   3   4
ENDBRANCH   2   3
ENDBRANCH   1   2
BRANCH   1  24
ATOM     24  O   UNL A   1      37.220  21.567  24.758  1.00  0.00    -0.376 OA
BRANCH  24  25
ATOM     25  C   UNL A   1      38.025  22.175  25.738  1.00  0.00     0.202 C 
BRANCH  25  26
ATOM     26  C   UNL A   1      39.360  21.604  26.241  1.00  0.00     0.261 C 
BRANCH  26  27
ATOM     27  O   UNL A   1      39.864  20.429  25.592  1.00  0.00    -0.460 OA
BRANCH  27  28
ATOM     28  C   UNL A   1      41.070  19.997  26.039  1.00  0.00     0.338 C 
ATOM     29  O   UNL A   1      41.469  18.835  26.062  1.00  0.00    -0.246 OA
BRANCH  28  30
ATOM     30  C   UNL A   1      41.944  21.140  26.361  1.00  0.00     0.060 A 
ATOM     31  C   UNL A   1      42.327  21.355  27.693  1.00  0.00     0.016 A 
ATOM     32  C   UNL A   1      42.307  22.052  25.370  1.00  0.00     0.016 A 
ATOM     33  C   UNL A   1      43.055  22.497  28.042  1.00  0.00     0.010 A 
ATOM     34  C   UNL A   1      43.024  23.202  25.726  1.00  0.00     0.010 A 
ATOM     35  C   UNL A   1      43.381  23.448  27.067  1.00  0.00    -0.014 A 
BRANCH  35  36
ATOM     36  C   UNL A   1      43.935  24.778  27.450  1.00  0.00     0.031 A 
ATOM     37  C   UNL A   1      42.990  25.827  27.977  1.00  0.00     0.074 A 
ATOM     38  C   UNL A   1      45.244  25.067  27.332  1.00  0.00     0.049 A 
ATOM     39  N   UNL A   1      43.201  27.095  28.222  1.00  0.00    -0.248 NA
ATOM     40  C   UNL A   1      41.617  25.379  28.255  1.00  0.00     0.031 C 
ATOM     41  C   UNL A   1      46.284  24.129  26.915  1.00  0.00     0.029 A 
ATOM     42  N   UNL A   1      45.920  26.249  27.534  1.00  0.00    -0.354 N 
ATOM     43  C   UNL A   1      41.983  27.604  28.661  1.00  0.00     0.074 A 
ATOM     44  C   UNL A   1      41.035  26.509  28.624  1.00  0.00     0.031 C 
ATOM     45  C   UNL A   1      47.463  24.776  26.876  1.00  0.00     0.029 A 
ATOM     46  C   UNL A   1      47.256  26.185  27.207  1.00  0.00     0.049 A 
ATOM     47  H   UNL A   1      45.488  27.062  27.880  1.00  0.00     0.167 HD
ATOM     48  C   UNL A   1      41.681  28.866  29.059  1.00  0.00     0.034 A 
ATOM     49  C   UNL A   1      48.191  27.158  27.140  1.00  0.00     0.034 A 
ATOM     50  C   UNL A   1      42.633  29.952  29.086  1.00  0.00     0.049 A 
ATOM     51  C   UNL A   1      47.806  28.583  27.473  1.00  0.00     0.074 A 
ATOM     52  C   UNL A   1      42.429  31.264  29.482  1.00  0.00     0.029 A 
ATOM     53  N   UNL A   1      43.962  29.861  28.694  1.00  0.00    -0.354 N 
ATOM     54  N   UNL A   1      46.647  29.060  27.868  1.00  0.00    -0.248 NA
ATOM     55  C   UNL A   1      48.859  29.603  27.350  1.00  0.00     0.031 C 
ATOM     56  C   UNL A   1      43.605  31.983  29.246  1.00  0.00     0.029 A 
ATOM     57  C   UNL A   1      44.575  31.101  28.797  1.00  0.00     0.049 A 
ATOM     58  H   UNL A   1      44.404  29.038  28.386  1.00  0.00     0.167 HD
ATOM     59  C   UNL A   1      46.847  30.425  28.077  1.00  0.00     0.074 A 
ATOM     60  C   UNL A   1      48.236  30.692  27.775  1.00  0.00     0.031 C 
ATOM     61  C   UNL A   1      45.962  31.369  28.491  1.00  0.00     0.034 A 
BRANCH  48  62
ATOM     62  C   UNL A   1      40.246  29.154  29.429  1.00  0.00     0.023 A 
ATOM     63  C   UNL A   1      39.810  29.173  30.764  1.00  0.00     0.031 A 
ATOM     64  C   UNL A   1      39.291  29.386  28.422  1.00  0.00     0.131 A 
ATOM     65  C   UNL A   1      38.447  29.346  31.053  1.00  0.00     0.055 A 
ATOM     66  C   UNL A   1      37.952  29.644  28.720  1.00  0.00     0.041 A 
ATOM     67  F   UNL A   1      39.642  29.355  27.127  1.00  0.00    -0.206 F 
ATOM     68  C   UNL A   1      37.520  29.609  30.042  1.00  0.00     0.022 A 
BRANCH  65  69
ATOM     69  S   UNL A   1      37.878  29.069  32.753  1.00  0.00     0.124 S 
ATOM     70  O   UNL A   1      37.788  27.611  32.800  1.00  0.00    -0.237 OA
ATOM     71  O   UNL A   1      38.946  29.669  33.545  1.00  0.00    -0.237 OA
ATOM     72  O   UNL A   1      36.595  29.766  32.804  1.00  0.00    -0.744 OA
ENDBRANCH  65  69
ENDBRANCH  48  62
BRANCH  49  73
ATOM     73  C   UNL A   1      49.580  26.849  26.681  1.00  0.00     0.023 A 
ATOM     74  C   UNL A   1      50.033  27.253  25.415  1.00  0.00     0.031 A 
ATOM     75  C   UNL A   1      50.448  26.072  27.471  1.00  0.00     0.131 A 
ATOM     76  C   UNL A   1      51.294  26.837  24.955  1.00  0.00     0.055 A 
ATOM     77  C   UNL A   1      51.725  25.715  27.035  1.00  0.00     0.041 A 
ATOM     78  F   UNL A   1      50.063  25.644  28.684  1.00  0.00    -0.206 F 
ATOM     79  C   UNL A   1      52.149  26.086  25.763  1.00  0.00     0.022 A 
BRANCH  76  80
ATOM     80  S   UNL A   1      51.759  27.202  23.239  1.00  0.00     0.124 S 
ATOM     81  O   UNL A   1      50.547  26.829  22.518  1.00  0.00    -0.237 OA
ATOM     82  O   UNL A   1      52.056  28.630  23.301  1.00  0.00    -0.237 OA
ATOM     83  O   UNL A   1      52.915  26.337  23.008  1.00  0.00    -0.744 OA
ENDBRANCH  76  80
ENDBRANCH  49  73
BRANCH  61  84
ATOM     84  C   UNL A   1      46.485  32.773  28.705  1.00  0.00     0.023 A 
ATOM     85  C   UNL A   1      46.416  33.759  27.705  1.00  0.00     0.031 A 
ATOM     86  C   UNL A   1      47.065  33.127  29.938  1.00  0.00     0.131 A 
ATOM     87  C   UNL A   1      46.968  35.030  27.935  1.00  0.00     0.055 A 
ATOM     88  C   UNL A   1      47.551  34.413  30.184  1.00  0.00     0.041 A 
ATOM     89  F   UNL A   1      47.164  32.228  30.930  1.00  0.00    -0.206 F 
ATOM     90  C   UNL A   1      47.517  35.369  29.175  1.00  0.00     0.022 A 
BRANCH  87  91
ATOM     91  S   UNL A   1      47.050  36.212  26.559  1.00  0.00     0.124 S 
ATOM     92  O   UNL A   1      48.489  36.354  26.368  1.00  0.00    -0.237 OA
ATOM     93  O   UNL A   1      46.332  35.509  25.501  1.00  0.00    -0.237 OA
ATOM     94  O   UNL A   1      46.375  37.397  27.082  1.00  0.00    -0.744 OA
ENDBRANCH  87  91
ENDBRANCH  61  84
ENDBRANCH  35  36
ENDBRANCH  28  30
ENDBRANCH  27  28
ENDBRANCH  26  27
ENDBRANCH  25  26
ENDBRANCH  24  25
ENDBRANCH   1  24
TORSDOF 22
ENDMDL
