MODEL 1
REMARK VINA RESULT:     -12.3      0.000      0.000
REMARK SMILES CC1(C)O[C@@H]2C[C@@H]3[C@H]4CCC5=CC(=O)C=C[C@@]5(C)[C@]4(F)[C@H](O)C[C@]3(C)[C@]2(C(=O)OCCOCCOCCOC(=O)c2ccc(-c3c4nc(c(-c5cc(S(=O)(=O)[O-])ccc5F)c5ccc([nH]5)c(-c5cc(S(=O)(=O)[O-])ccc5F)c5nc(c(-c6cc(S(=O)(=O)[O-])ccc6F)c6ccc3[nH]6)C=C5)C=C4)cc2)O1
REMARK SMILES IDX 34 1 33 2 32 3 31 4 30 5 29 6 27 7 28 8 26 9 1 10 2 11 4 12
REMARK SMILES IDX 104 13 3 14 5 15 6 16 24 17 7 18 23 19 25 20 8 21 21 22 9 23
REMARK SMILES IDX 19 24 10 25 17 26 20 27 11 28 16 29 18 30 12 31 15 32 13 33
REMARK SMILES IDX 14 34 22 35 35 37 36 38 37 39 38 40 39 41 40 42 41 43 42 44
REMARK SMILES IDX 103 45 43 46 102 47 44 48 45 49 46 50 96 51 47 52 101 53
REMARK SMILES IDX 95 54 97 55 48 56 100 57 94 58 93 59 49 61 81 62 61 63 80 64
REMARK SMILES IDX 62 65 65 66 79 67 98 68 63 69 64 70 78 72 99 73 66 74 50 75
REMARK SMILES IDX 51 76 59 77 52 78 58 79 60 80 57 81 53 82 54 83 55 84 56 85
REMARK SMILES IDX 82 86 83 87 91 88 84 89 90 90 92 91 89 92 85 93 86 94 87 95
REMARK SMILES IDX 88 96 67 97 68 98 76 99 69 100 75 101 77 102 74 103 70 104
REMARK SMILES IDX 71 105 72 106 73 107
REMARK H PARENT 22 36 97 60 65 71
REMARK Flexibility Score: inf
ROOT
ATOM      1  C   UNL A   1      42.345  18.565  25.824  1.00  0.00     0.188 C 
ENDROOT
BRANCH   1   2
ATOM      2  C   UNL A   1      41.462  19.348  26.808  1.00  0.00     0.188 C 
BRANCH   2   3
ATOM      3  O   UNL A   1      40.600  20.260  26.135  1.00  0.00    -0.376 OA
BRANCH   3   4
ATOM      4  C   UNL A   1      39.330  19.748  25.777  1.00  0.00     0.202 C 
BRANCH   4   5
ATOM      5  C   UNL A   1      38.388  20.798  25.159  1.00  0.00     0.261 C 
BRANCH   5   6
ATOM      6  O   UNL A   1      36.959  20.565  25.177  1.00  0.00    -0.461 OA
BRANCH   6   7
ATOM      7  C   UNL A   1      36.204  21.500  24.569  1.00  0.00     0.341 C 
ATOM      8  O   UNL A   1      36.507  22.024  23.498  1.00  0.00    -0.249 OA
BRANCH   7   9
ATOM      9  C   UNL A   1      35.010  22.005  25.359  1.00  0.00     0.200 C 
ATOM     10  C   UNL A   1      32.632  19.509  24.778  1.00  0.00     0.075 C 
ATOM     11  C   UNL A   1      32.908  20.882  25.342  1.00  0.00     0.165 C 
ATOM     12  O   UNL A   1      33.459  20.696  26.644  1.00  0.00    -0.344 OA
ATOM     13  O   UNL A   1      33.860  21.609  24.519  1.00  0.00    -0.329 OA
ATOM     14  C   UNL A   1      31.534  21.586  25.376  1.00  0.00     0.075 C 
ATOM     15  C   UNL A   1      34.529  21.635  26.788  1.00  0.00     0.166 C 
ATOM     16  C   UNL A   1      33.891  22.973  27.405  1.00  0.00     0.040 C 
ATOM     17  C   UNL A   1      35.234  23.584  25.511  1.00  0.00     0.016 C 
ATOM     18  C   UNL A   1      33.876  23.891  26.170  1.00  0.00     0.008 C 
ATOM     19  C   UNL A   1      35.549  24.482  24.301  1.00  0.00     0.046 C 
ATOM     20  C   UNL A   1      36.457  23.815  26.470  1.00  0.00     0.015 C 
ATOM     21  C   UNL A   1      32.834  24.849  25.547  1.00  0.00     0.035 C 
ATOM     22  C   UNL A   1      34.354  24.978  23.514  1.00  0.00     0.154 C 
ATOM     23  C   UNL A   1      31.884  25.531  26.514  1.00  0.00     0.012 C 
ATOM     24  C   UNL A   1      33.382  25.768  24.443  1.00  0.00     0.152 C 
ATOM     25  C   UNL A   1      30.668  26.007  25.712  1.00  0.00     0.032 C 
ATOM     26  C   UNL A   1      32.208  26.485  23.646  1.00  0.00     0.044 C 
ATOM     27  F   UNL A   1      34.118  26.727  25.104  1.00  0.00    -0.239 F 
ATOM     28  C   UNL A   1      31.065  26.925  24.581  1.00  0.00    -0.053 C 
ATOM     29  C   UNL A   1      32.761  27.736  22.925  1.00  0.00    -0.009 C 
ATOM     30  C   UNL A   1      31.585  25.574  22.552  1.00  0.00     0.024 C 
ATOM     31  C   UNL A   1      30.380  28.063  24.361  1.00  0.00     0.052 C 
ATOM     32  C   UNL A   1      31.912  28.643  22.398  1.00  0.00     0.048 C 
ATOM     33  C   UNL A   1      30.691  28.946  23.209  1.00  0.00     0.178 C 
ATOM     34  O   UNL A   1      29.969  29.897  22.938  1.00  0.00    -0.290 OA
BRANCH  22  35
ATOM     35  O   UNL A   1      33.737  23.881  22.851  1.00  0.00    -0.390 OA
ATOM     36  H   UNL A   1      33.489  24.145  21.951  1.00  0.00     0.211 HD
ENDBRANCH  22  35
ENDBRANCH   7   9
ENDBRANCH   6   7
ENDBRANCH   5   6
ENDBRANCH   4   5
ENDBRANCH   3   4
ENDBRANCH   2   3
ENDBRANCH   1   2
BRANCH   1  37
ATOM     37  O   UNL A   1      43.209  19.327  24.988  1.00  0.00    -0.376 OA
BRANCH  37  38
ATOM     38  C   UNL A   1      44.428  19.756  25.590  1.00  0.00     0.202 C 
BRANCH  38  39
ATOM     39  C   UNL A   1      44.675  21.270  25.567  1.00  0.00     0.261 C 
BRANCH  39  40
ATOM     40  O   UNL A   1      43.536  22.020  26.052  1.00  0.00    -0.460 OA
BRANCH  40  41
ATOM     41  C   UNL A   1      43.116  23.021  25.240  1.00  0.00     0.338 C 
ATOM     42  O   UNL A   1      43.267  23.086  24.033  1.00  0.00    -0.246 OA
BRANCH  41  43
ATOM     43  C   UNL A   1      42.339  24.032  25.992  1.00  0.00     0.060 A 
ATOM     44  C   UNL A   1      42.378  25.362  25.574  1.00  0.00     0.016 A 
ATOM     45  C   UNL A   1      41.777  23.726  27.227  1.00  0.00     0.016 A 
ATOM     46  C   UNL A   1      41.928  26.400  26.395  1.00  0.00     0.010 A 
ATOM     47  C   UNL A   1      41.297  24.762  28.045  1.00  0.00     0.010 A 
ATOM     48  C   UNL A   1      41.412  26.113  27.658  1.00  0.00    -0.014 A 
BRANCH  48  49
ATOM     49  C   UNL A   1      41.187  27.207  28.647  1.00  0.00     0.031 A 
ATOM     50  C   UNL A   1      42.135  27.321  29.812  1.00  0.00     0.074 A 
ATOM     51  C   UNL A   1      40.216  28.131  28.503  1.00  0.00     0.049 A 
ATOM     52  N   UNL A   1      42.008  27.978  30.934  1.00  0.00    -0.248 NA
ATOM     53  C   UNL A   1      43.405  26.589  29.683  1.00  0.00     0.031 C 
ATOM     54  C   UNL A   1      39.334  28.268  27.346  1.00  0.00     0.029 A 
ATOM     55  N   UNL A   1      39.808  29.134  29.351  1.00  0.00    -0.354 N 
ATOM     56  C   UNL A   1      43.154  27.695  31.671  1.00  0.00     0.074 A 
ATOM     57  C   UNL A   1      43.965  26.808  30.862  1.00  0.00     0.031 C 
ATOM     58  C   UNL A   1      38.483  29.285  27.561  1.00  0.00     0.029 A 
ATOM     59  C   UNL A   1      38.694  29.811  28.907  1.00  0.00     0.049 A 
ATOM     60  H   UNL A   1      40.269  29.349  30.195  1.00  0.00     0.167 HD
ATOM     61  C   UNL A   1      43.489  28.125  32.912  1.00  0.00     0.034 A 
ATOM     62  C   UNL A   1      37.894  30.696  29.541  1.00  0.00     0.034 A 
ATOM     63  C   UNL A   1      42.676  29.026  33.691  1.00  0.00     0.049 A 
ATOM     64  C   UNL A   1      38.199  31.056  30.978  1.00  0.00     0.074 A 
ATOM     65  C   UNL A   1      42.874  29.479  34.984  1.00  0.00     0.029 A 
ATOM     66  N   UNL A   1      41.508  29.627  33.236  1.00  0.00    -0.354 N 
ATOM     67  N   UNL A   1      39.202  30.669  31.733  1.00  0.00    -0.248 NA
ATOM     68  C   UNL A   1      37.253  31.956  31.655  1.00  0.00     0.031 C 
ATOM     69  C   UNL A   1      41.801  30.309  35.329  1.00  0.00     0.029 A 
ATOM     70  C   UNL A   1      40.969  30.431  34.227  1.00  0.00     0.049 A 
ATOM     71  H   UNL A   1      41.122  29.501  32.340  1.00  0.00     0.167 HD
ATOM     72  C   UNL A   1      39.017  31.298  32.963  1.00  0.00     0.074 A 
ATOM     73  C   UNL A   1      37.817  32.098  32.846  1.00  0.00     0.031 C 
ATOM     74  C   UNL A   1      39.772  31.223  34.089  1.00  0.00     0.034 A 
BRANCH  61  75
ATOM     75  C   UNL A   1      44.741  27.549  33.527  1.00  0.00     0.023 A 
ATOM     76  C   UNL A   1      44.732  26.344  34.252  1.00  0.00     0.031 A 
ATOM     77  C   UNL A   1      45.956  28.250  33.430  1.00  0.00     0.131 A 
ATOM     78  C   UNL A   1      45.896  25.918  34.910  1.00  0.00     0.055 A 
ATOM     79  C   UNL A   1      47.129  27.781  34.022  1.00  0.00     0.041 A 
ATOM     80  F   UNL A   1      46.018  29.419  32.771  1.00  0.00    -0.206 F 
ATOM     81  C   UNL A   1      47.100  26.615  34.781  1.00  0.00     0.022 A 
BRANCH  78  82
ATOM     82  S   UNL A   1      45.780  24.519  36.058  1.00  0.00     0.124 S 
ATOM     83  O   UNL A   1      47.160  24.406  36.526  1.00  0.00    -0.237 OA
ATOM     84  O   UNL A   1      44.809  24.992  37.037  1.00  0.00    -0.237 OA
ATOM     85  O   UNL A   1      45.326  23.416  35.212  1.00  0.00    -0.744 OA
ENDBRANCH  78  82
ENDBRANCH  61  75
BRANCH  62  86
ATOM     86  C   UNL A   1      36.662  31.224  28.879  1.00  0.00     0.023 A 
ATOM     87  C   UNL A   1      35.630  30.366  28.467  1.00  0.00     0.031 A 
ATOM     88  C   UNL A   1      36.537  32.592  28.573  1.00  0.00     0.131 A 
ATOM     89  C   UNL A   1      34.545  30.875  27.733  1.00  0.00     0.055 A 
ATOM     90  C   UNL A   1      35.426  33.104  27.900  1.00  0.00     0.041 A 
ATOM     91  F   UNL A   1      37.500  33.460  28.925  1.00  0.00    -0.206 F 
ATOM     92  C   UNL A   1      34.428  32.241  27.463  1.00  0.00     0.022 A 
BRANCH  89  93
ATOM     93  S   UNL A   1      33.337  29.711  27.042  1.00  0.00     0.124 S 
ATOM     94  O   UNL A   1      32.078  30.282  27.504  1.00  0.00    -0.237 OA
ATOM     95  O   UNL A   1      33.603  29.816  25.611  1.00  0.00    -0.237 OA
ATOM     96  O   UNL A   1      33.705  28.435  27.652  1.00  0.00    -0.744 OA
ENDBRANCH  89  93
ENDBRANCH  62  86
BRANCH  74  97
ATOM     97  C   UNL A   1      39.352  32.081  35.257  1.00  0.00     0.023 A 
ATOM     98  C   UNL A   1      39.844  33.384  35.434  1.00  0.00     0.031 A 
ATOM     99  C   UNL A   1      38.438  31.581  36.201  1.00  0.00     0.131 A 
ATOM    100  C   UNL A   1      39.448  34.132  36.554  1.00  0.00     0.055 A 
ATOM    101  C   UNL A   1      38.011  32.345  37.286  1.00  0.00     0.041 A 
ATOM    102  F   UNL A   1      37.938  30.341  36.075  1.00  0.00    -0.206 F 
ATOM    103  C   UNL A   1      38.524  33.626  37.473  1.00  0.00     0.022 A 
BRANCH 100 104
ATOM    104  S   UNL A   1      40.203  35.759  36.831  1.00  0.00     0.124 S 
ATOM    105  O   UNL A   1      41.624  35.465  36.679  1.00  0.00    -0.237 OA
ATOM    106  O   UNL A   1      39.602  36.567  35.775  1.00  0.00    -0.237 OA
ATOM    107  O   UNL A   1      39.782  36.106  38.187  1.00  0.00    -0.744 OA
ENDBRANCH 100 104
ENDBRANCH  74  97
ENDBRANCH  48  49
ENDBRANCH  41  43
ENDBRANCH  40  41
ENDBRANCH  39  40
ENDBRANCH  38  39
ENDBRANCH  37  38
ENDBRANCH   1  37
TORSDOF 21
ENDMDL
MODEL 2
REMARK VINA RESULT:     -11.8      4.441     10.486
REMARK SMILES CC1(C)O[C@@H]2C[C@@H]3[C@H]4CCC5=CC(=O)C=C[C@@]5(C)[C@]4(F)[C@H](O)C[C@]3(C)[C@]2(C(=O)OCCOCCOCCOC(=O)c2ccc(-c3c4nc(c(-c5cc(S(=O)(=O)[O-])ccc5F)c5ccc([nH]5)c(-c5cc(S(=O)(=O)[O-])ccc5F)c5nc(c(-c6cc(S(=O)(=O)[O-])ccc6F)c6ccc3[nH]6)C=C5)C=C4)cc2)O1
REMARK SMILES IDX 34 1 33 2 32 3 31 4 30 5 29 6 27 7 28 8 26 9 1 10 2 11 4 12
REMARK SMILES IDX 104 13 3 14 5 15 6 16 24 17 7 18 23 19 25 20 8 21 21 22 9 23
REMARK SMILES IDX 19 24 10 25 17 26 20 27 11 28 16 29 18 30 12 31 15 32 13 33
REMARK SMILES IDX 14 34 22 35 35 37 36 38 37 39 38 40 39 41 40 42 41 43 42 44
REMARK SMILES IDX 103 45 43 46 102 47 44 48 45 49 46 50 96 51 47 52 101 53
REMARK SMILES IDX 95 54 97 55 48 56 100 57 94 58 93 59 49 61 81 62 61 63 80 64
REMARK SMILES IDX 62 65 65 66 79 67 98 68 63 69 64 70 78 72 99 73 66 74 50 75
REMARK SMILES IDX 51 76 59 77 52 78 58 79 60 80 57 81 53 82 54 83 55 84 56 85
REMARK SMILES IDX 82 86 83 87 91 88 84 89 90 90 92 91 89 92 85 93 86 94 87 95
REMARK SMILES IDX 88 96 67 97 68 98 76 99 69 100 75 101 77 102 74 103 70 104
REMARK SMILES IDX 71 105 72 106 73 107
REMARK H PARENT 22 36 97 60 65 71
REMARK Flexibility Score: inf
ROOT
ATOM      1  C   UNL A   1      33.276  33.456  28.063  1.00  0.00     0.188 C 
ENDROOT
BRANCH   1   2
ATOM      2  C   UNL A   1      33.764  32.022  27.805  1.00  0.00     0.188 C 
BRANCH   2   3
ATOM      3  O   UNL A   1      32.755  31.221  27.197  1.00  0.00    -0.376 OA
BRANCH   3   4
ATOM      4  C   UNL A   1      32.996  29.826  27.207  1.00  0.00     0.202 C 
BRANCH   4   5
ATOM      5  C   UNL A   1      34.073  29.374  26.203  1.00  0.00     0.261 C 
BRANCH   5   6
ATOM      6  O   UNL A   1      34.051  28.015  25.704  1.00  0.00    -0.461 OA
BRANCH   6   7
ATOM      7  C   UNL A   1      33.537  27.850  24.470  1.00  0.00     0.341 C 
ATOM      8  O   UNL A   1      33.668  28.674  23.565  1.00  0.00    -0.249 OA
BRANCH   7   9
ATOM      9  C   UNL A   1      32.634  26.645  24.284  1.00  0.00     0.200 C 
ATOM     10  C   UNL A   1      30.570  26.827  27.100  1.00  0.00     0.075 C 
ATOM     11  C   UNL A   1      31.010  26.010  25.908  1.00  0.00     0.165 C 
ATOM     12  O   UNL A   1      30.288  26.496  24.778  1.00  0.00    -0.344 OA
ATOM     13  O   UNL A   1      32.435  26.158  25.664  1.00  0.00    -0.329 OA
ATOM     14  C   UNL A   1      30.643  24.553  26.263  1.00  0.00     0.075 C 
ATOM     15  C   UNL A   1      31.205  26.550  23.682  1.00  0.00     0.166 C 
ATOM     16  C   UNL A   1      31.126  25.127  22.942  1.00  0.00     0.040 C 
ATOM     17  C   UNL A   1      33.439  25.652  23.317  1.00  0.00     0.016 C 
ATOM     18  C   UNL A   1      32.444  24.479  23.403  1.00  0.00     0.008 C 
ATOM     19  C   UNL A   1      34.896  25.245  23.600  1.00  0.00     0.046 C 
ATOM     20  C   UNL A   1      33.508  26.306  21.891  1.00  0.00     0.015 C 
ATOM     21  C   UNL A   1      32.832  23.081  23.938  1.00  0.00     0.035 C 
ATOM     22  C   UNL A   1      35.088  24.080  24.547  1.00  0.00     0.154 C 
ATOM     23  C   UNL A   1      32.019  21.911  23.416  1.00  0.00     0.012 C 
ATOM     24  C   UNL A   1      34.345  22.817  24.014  1.00  0.00     0.152 C 
ATOM     25  C   UNL A   1      32.201  20.746  24.395  1.00  0.00     0.032 C 
ATOM     26  C   UNL A   1      34.666  21.506  24.854  1.00  0.00     0.044 C 
ATOM     27  F   UNL A   1      34.742  22.615  22.710  1.00  0.00    -0.239 F 
ATOM     28  C   UNL A   1      33.655  20.379  24.569  1.00  0.00    -0.053 C 
ATOM     29  C   UNL A   1      36.082  20.997  24.498  1.00  0.00    -0.009 C 
ATOM     30  C   UNL A   1      34.653  21.761  26.387  1.00  0.00     0.024 C 
ATOM     31  C   UNL A   1      34.035  19.088  24.546  1.00  0.00     0.052 C 
ATOM     32  C   UNL A   1      36.476  19.767  24.888  1.00  0.00     0.048 C 
ATOM     33  C   UNL A   1      35.442  18.688  24.796  1.00  0.00     0.178 C 
ATOM     34  O   UNL A   1      35.744  17.508  24.917  1.00  0.00    -0.290 OA
BRANCH  22  35
ATOM     35  O   UNL A   1      34.683  24.463  25.856  1.00  0.00    -0.390 OA
ATOM     36  H   UNL A   1      34.451  23.673  26.368  1.00  0.00     0.211 HD
ENDBRANCH  22  35
ENDBRANCH   7   9
ENDBRANCH   6   7
ENDBRANCH   5   6
ENDBRANCH   4   5
ENDBRANCH   3   4
ENDBRANCH   2   3
ENDBRANCH   1   2
BRANCH   1  37
ATOM     37  O   UNL A   1      34.157  34.316  28.777  1.00  0.00    -0.376 OA
BRANCH  37  38
ATOM     38  C   UNL A   1      33.573  35.034  29.861  1.00  0.00     0.202 C 
BRANCH  38  39
ATOM     39  C   UNL A   1      33.906  34.500  31.260  1.00  0.00     0.261 C 
BRANCH  39  40
ATOM     40  O   UNL A   1      34.517  33.189  31.216  1.00  0.00    -0.460 OA
BRANCH  40  41
ATOM     41  C   UNL A   1      35.724  33.094  31.825  1.00  0.00     0.338 C 
ATOM     42  O   UNL A   1      36.094  33.719  32.803  1.00  0.00    -0.246 OA
BRANCH  41  43
ATOM     43  C   UNL A   1      36.557  32.038  31.205  1.00  0.00     0.060 A 
ATOM     44  C   UNL A   1      37.277  31.174  32.030  1.00  0.00     0.016 A 
ATOM     45  C   UNL A   1      36.818  32.046  29.839  1.00  0.00     0.016 A 
ATOM     46  C   UNL A   1      38.301  30.368  31.526  1.00  0.00     0.010 A 
ATOM     47  C   UNL A   1      37.827  31.217  29.322  1.00  0.00     0.010 A 
ATOM     48  C   UNL A   1      38.611  30.405  30.167  1.00  0.00    -0.014 A 
BRANCH  48  49
ATOM     49  C   UNL A   1      39.863  29.771  29.661  1.00  0.00     0.031 A 
ATOM     50  C   UNL A   1      41.135  30.578  29.695  1.00  0.00     0.074 A 
ATOM     51  C   UNL A   1      39.914  28.491  29.242  1.00  0.00     0.049 A 
ATOM     52  N   UNL A   1      42.268  30.381  29.075  1.00  0.00    -0.248 NA
ATOM     53  C   UNL A   1      41.116  31.773  30.553  1.00  0.00     0.031 C 
ATOM     54  C   UNL A   1      38.818  27.526  29.315  1.00  0.00     0.029 A 
ATOM     55  N   UNL A   1      40.941  27.783  28.662  1.00  0.00    -0.354 N 
ATOM     56  C   UNL A   1      43.081  31.457  29.422  1.00  0.00     0.074 A 
ATOM     57  C   UNL A   1      42.307  32.299  30.310  1.00  0.00     0.031 C 
ATOM     58  C   UNL A   1      39.227  26.359  28.790  1.00  0.00     0.029 A 
ATOM     59  C   UNL A   1      40.577  26.518  28.257  1.00  0.00     0.049 A 
ATOM     60  H   UNL A   1      41.849  28.146  28.548  1.00  0.00     0.167 HD
ATOM     61  C   UNL A   1      44.350  31.720  29.023  1.00  0.00     0.034 A 
ATOM     62  C   UNL A   1      41.229  25.623  27.483  1.00  0.00     0.034 A 
ATOM     63  C   UNL A   1      45.109  30.855  28.155  1.00  0.00     0.049 A 
ATOM     64  C   UNL A   1      42.586  25.992  26.926  1.00  0.00     0.074 A 
ATOM     65  C   UNL A   1      46.374  31.047  27.627  1.00  0.00     0.029 A 
ATOM     66  N   UNL A   1      44.674  29.617  27.697  1.00  0.00    -0.354 N 
ATOM     67  N   UNL A   1      43.296  27.079  27.127  1.00  0.00    -0.248 NA
ATOM     68  C   UNL A   1      43.220  25.024  26.018  1.00  0.00     0.031 C 
ATOM     69  C   UNL A   1      46.680  29.953  26.809  1.00  0.00     0.029 A 
ATOM     70  C   UNL A   1      45.636  29.044  26.882  1.00  0.00     0.049 A 
ATOM     71  H   UNL A   1      43.807  29.207  27.921  1.00  0.00     0.167 HD
ATOM     72  C   UNL A   1      44.467  26.910  26.392  1.00  0.00     0.074 A 
ATOM     73  C   UNL A   1      44.376  25.615  25.753  1.00  0.00     0.031 C 
ATOM     74  C   UNL A   1      45.526  27.749  26.257  1.00  0.00     0.034 A 
BRANCH  61  75
ATOM     75  C   UNL A   1      44.947  33.037  29.452  1.00  0.00     0.023 A 
ATOM     76  C   UNL A   1      44.768  34.217  28.709  1.00  0.00     0.031 A 
ATOM     77  C   UNL A   1      45.757  33.098  30.601  1.00  0.00     0.131 A 
ATOM     78  C   UNL A   1      45.449  35.386  29.082  1.00  0.00     0.055 A 
ATOM     79  C   UNL A   1      46.369  34.283  31.011  1.00  0.00     0.041 A 
ATOM     80  F   UNL A   1      45.983  31.996  31.335  1.00  0.00    -0.206 F 
ATOM     81  C   UNL A   1      46.230  35.434  30.241  1.00  0.00     0.022 A 
BRANCH  78  82
ATOM     82  S   UNL A   1      45.421  36.805  27.953  1.00  0.00     0.124 S 
ATOM     83  O   UNL A   1      46.846  37.086  27.796  1.00  0.00    -0.237 OA
ATOM     84  O   UNL A   1      44.742  36.264  26.782  1.00  0.00    -0.237 OA
ATOM     85  O   UNL A   1      44.673  37.819  28.694  1.00  0.00    -0.744 OA
ENDBRANCH  78  82
ENDBRANCH  61  75
BRANCH  62  86
ATOM     86  C   UNL A   1      40.578  24.337  27.086  1.00  0.00     0.023 A 
ATOM     87  C   UNL A   1      41.282  23.122  27.119  1.00  0.00     0.031 A 
ATOM     88  C   UNL A   1      39.263  24.319  26.586  1.00  0.00     0.131 A 
ATOM     89  C   UNL A   1      40.685  21.953  26.618  1.00  0.00     0.055 A 
ATOM     90  C   UNL A   1      38.651  23.142  26.148  1.00  0.00     0.041 A 
ATOM     91  F   UNL A   1      38.546  25.452  26.512  1.00  0.00    -0.206 F 
ATOM     92  C   UNL A   1      39.369  21.951  26.149  1.00  0.00     0.022 A 
BRANCH  89  93
ATOM     93  S   UNL A   1      41.691  20.448  26.486  1.00  0.00     0.124 S 
ATOM     94  O   UNL A   1      40.746  19.512  25.889  1.00  0.00    -0.237 OA
ATOM     95  O   UNL A   1      42.785  20.892  25.630  1.00  0.00    -0.237 OA
ATOM     96  O   UNL A   1      42.061  20.164  27.872  1.00  0.00    -0.744 OA
ENDBRANCH  89  93
ENDBRANCH  62  86
BRANCH  74  97
ATOM     97  C   UNL A   1      46.694  27.258  25.438  1.00  0.00     0.023 A 
ATOM     98  C   UNL A   1      46.936  27.729  24.136  1.00  0.00     0.031 A 
ATOM     99  C   UNL A   1      47.580  26.310  25.978  1.00  0.00     0.131 A 
ATOM    100  C   UNL A   1      48.018  27.218  23.401  1.00  0.00     0.055 A 
ATOM    101  C   UNL A   1      48.681  25.843  25.262  1.00  0.00     0.041 A 
ATOM    102  F   UNL A   1      47.393  25.831  27.219  1.00  0.00    -0.206 F 
ATOM    103  C   UNL A   1      48.900  26.290  23.962  1.00  0.00     0.022 A 
BRANCH 100 104
ATOM    104  S   UNL A   1      48.227  27.741  21.676  1.00  0.00     0.124 S 
ATOM    105  O   UNL A   1      48.493  26.473  21.005  1.00  0.00    -0.237 OA
ATOM    106  O   UNL A   1      46.941  28.363  21.379  1.00  0.00    -0.237 OA
ATOM    107  O   UNL A   1      49.360  28.663  21.733  1.00  0.00    -0.744 OA
ENDBRANCH 100 104
ENDBRANCH  74  97
ENDBRANCH  48  49
ENDBRANCH  41  43
ENDBRANCH  40  41
ENDBRANCH  39  40
ENDBRANCH  38  39
ENDBRANCH  37  38
ENDBRANCH   1  37
TORSDOF 21
ENDMDL
MODEL 3
REMARK VINA RESULT:     -11.4      3.598      9.682
REMARK SMILES CC1(C)O[C@@H]2C[C@@H]3[C@H]4CCC5=CC(=O)C=C[C@@]5(C)[C@]4(F)[C@H](O)C[C@]3(C)[C@]2(C(=O)OCCOCCOCCOC(=O)c2ccc(-c3c4nc(c(-c5cc(S(=O)(=O)[O-])ccc5F)c5ccc([nH]5)c(-c5cc(S(=O)(=O)[O-])ccc5F)c5nc(c(-c6cc(S(=O)(=O)[O-])ccc6F)c6ccc3[nH]6)C=C5)C=C4)cc2)O1
REMARK SMILES IDX 34 1 33 2 32 3 31 4 30 5 29 6 27 7 28 8 26 9 1 10 2 11 4 12
REMARK SMILES IDX 104 13 3 14 5 15 6 16 24 17 7 18 23 19 25 20 8 21 21 22 9 23
REMARK SMILES IDX 19 24 10 25 17 26 20 27 11 28 16 29 18 30 12 31 15 32 13 33
REMARK SMILES IDX 14 34 22 35 35 37 36 38 37 39 38 40 39 41 40 42 41 43 42 44
REMARK SMILES IDX 103 45 43 46 102 47 44 48 45 49 46 50 96 51 47 52 101 53
REMARK SMILES IDX 95 54 97 55 48 56 100 57 94 58 93 59 49 61 81 62 61 63 80 64
REMARK SMILES IDX 62 65 65 66 79 67 98 68 63 69 64 70 78 72 99 73 66 74 50 75
REMARK SMILES IDX 51 76 59 77 52 78 58 79 60 80 57 81 53 82 54 83 55 84 56 85
REMARK SMILES IDX 82 86 83 87 91 88 84 89 90 90 92 91 89 92 85 93 86 94 87 95
REMARK SMILES IDX 88 96 67 97 68 98 76 99 69 100 75 101 77 102 74 103 70 104
REMARK SMILES IDX 71 105 72 106 73 107
REMARK H PARENT 22 36 97 60 65 71
REMARK Flexibility Score: inf
ROOT
ATOM      1  C   UNL A   1      35.957  33.081  28.092  1.00  0.00     0.188 C 
ENDROOT
BRANCH   1   2
ATOM      2  C   UNL A   1      35.700  31.791  28.885  1.00  0.00     0.188 C 
BRANCH   2   3
ATOM      3  O   UNL A   1      34.397  31.270  28.643  1.00  0.00    -0.376 OA
BRANCH   3   4
ATOM      4  C   UNL A   1      33.992  31.247  27.286  1.00  0.00     0.202 C 
BRANCH   4   5
ATOM      5  C   UNL A   1      32.466  31.305  27.092  1.00  0.00     0.261 C 
BRANCH   5   6
ATOM      6  O   UNL A   1      31.870  30.635  25.955  1.00  0.00    -0.461 OA
BRANCH   6   7
ATOM      7  C   UNL A   1      31.718  29.301  26.072  1.00  0.00     0.341 C 
ATOM      8  O   UNL A   1      31.467  28.738  27.137  1.00  0.00    -0.249 OA
BRANCH   7   9
ATOM      9  C   UNL A   1      32.033  28.487  24.830  1.00  0.00     0.200 C 
ATOM     10  C   UNL A   1      29.011  28.618  23.077  1.00  0.00     0.075 C 
ATOM     11  C   UNL A   1      30.386  28.002  23.177  1.00  0.00     0.165 C 
ATOM     12  O   UNL A   1      31.301  28.921  22.584  1.00  0.00    -0.344 OA
ATOM     13  O   UNL A   1      30.764  27.779  24.563  1.00  0.00    -0.329 OA
ATOM     14  C   UNL A   1      30.289  26.674  22.394  1.00  0.00     0.075 C 
ATOM     15  C   UNL A   1      32.466  28.953  23.413  1.00  0.00     0.166 C 
ATOM     16  C   UNL A   1      33.461  27.823  22.856  1.00  0.00     0.040 C 
ATOM     17  C   UNL A   1      33.268  27.550  25.234  1.00  0.00     0.016 C 
ATOM     18  C   UNL A   1      33.300  26.731  23.930  1.00  0.00     0.008 C 
ATOM     19  C   UNL A   1      33.249  26.682  26.506  1.00  0.00     0.046 C 
ATOM     20  C   UNL A   1      34.532  28.461  25.428  1.00  0.00     0.015 C 
ATOM     21  C   UNL A   1      33.107  25.197  23.892  1.00  0.00     0.035 C 
ATOM     22  C   UNL A   1      32.585  25.328  26.376  1.00  0.00     0.154 C 
ATOM     23  C   UNL A   1      33.752  24.466  22.729  1.00  0.00     0.012 C 
ATOM     24  C   UNL A   1      33.267  24.493  25.250  1.00  0.00     0.152 C 
ATOM     25  C   UNL A   1      33.056  23.108  22.591  1.00  0.00     0.032 C 
ATOM     26  C   UNL A   1      32.751  22.990  25.191  1.00  0.00     0.044 C 
ATOM     27  F   UNL A   1      34.623  24.486  25.495  1.00  0.00    -0.239 F 
ATOM     28  C   UNL A   1      33.134  22.304  23.866  1.00  0.00    -0.053 C 
ATOM     29  C   UNL A   1      33.369  22.185  26.357  1.00  0.00    -0.009 C 
ATOM     30  C   UNL A   1      31.208  22.882  25.339  1.00  0.00     0.024 C 
ATOM     31  C   UNL A   1      33.460  20.999  23.824  1.00  0.00     0.052 C 
ATOM     32  C   UNL A   1      33.284  20.839  26.369  1.00  0.00     0.048 C 
ATOM     33  C   UNL A   1      33.466  20.159  25.048  1.00  0.00     0.178 C 
ATOM     34  O   UNL A   1      33.621  18.947  24.974  1.00  0.00    -0.290 OA
BRANCH  22  35
ATOM     35  O   UNL A   1      31.186  25.505  26.180  1.00  0.00    -0.390 OA
ATOM     36  H   UNL A   1      31.030  26.326  25.687  1.00  0.00     0.211 HD
ENDBRANCH  22  35
ENDBRANCH   7   9
ENDBRANCH   6   7
ENDBRANCH   5   6
ENDBRANCH   4   5
ENDBRANCH   3   4
ENDBRANCH   2   3
ENDBRANCH   1   2
BRANCH   1  37
ATOM     37  O   UNL A   1      35.584  34.304  28.716  1.00  0.00    -0.376 OA
BRANCH  37  38
ATOM     38  C   UNL A   1      34.402  34.919  28.209  1.00  0.00     0.202 C 
BRANCH  38  39
ATOM     39  C   UNL A   1      33.254  35.068  29.217  1.00  0.00     0.261 C 
BRANCH  39  40
ATOM     40  O   UNL A   1      33.575  35.993  30.282  1.00  0.00    -0.460 OA
BRANCH  40  41
ATOM     41  C   UNL A   1      32.979  35.733  31.472  1.00  0.00     0.338 C 
ATOM     42  O   UNL A   1      31.805  35.907  31.747  1.00  0.00    -0.246 OA
BRANCH  41  43
ATOM     43  C   UNL A   1      33.925  35.104  32.421  1.00  0.00     0.060 A 
ATOM     44  C   UNL A   1      35.213  35.626  32.538  1.00  0.00     0.016 A 
ATOM     45  C   UNL A   1      33.636  33.876  33.007  1.00  0.00     0.016 A 
ATOM     46  C   UNL A   1      36.235  34.914  33.171  1.00  0.00     0.010 A 
ATOM     47  C   UNL A   1      34.652  33.168  33.669  1.00  0.00     0.010 A 
ATOM     48  C   UNL A   1      35.974  33.658  33.716  1.00  0.00    -0.014 A 
BRANCH  48  49
ATOM     49  C   UNL A   1      37.096  32.773  34.144  1.00  0.00     0.031 A 
ATOM     50  C   UNL A   1      37.733  33.029  35.486  1.00  0.00     0.074 A 
ATOM     51  C   UNL A   1      37.514  31.720  33.414  1.00  0.00     0.049 A 
ATOM     52  N   UNL A   1      38.873  32.608  35.965  1.00  0.00    -0.248 NA
ATOM     53  C   UNL A   1      36.966  33.878  36.411  1.00  0.00     0.031 C 
ATOM     54  C   UNL A   1      36.887  31.232  32.187  1.00  0.00     0.029 A 
ATOM     55  N   UNL A   1      38.578  30.870  33.604  1.00  0.00    -0.354 N 
ATOM     56  C   UNL A   1      38.991  33.186  37.226  1.00  0.00     0.074 A 
ATOM     57  C   UNL A   1      37.800  33.984  37.434  1.00  0.00     0.031 C 
ATOM     58  C   UNL A   1      37.584  30.179  31.728  1.00  0.00     0.029 A 
ATOM     59  C   UNL A   1      38.759  29.976  32.572  1.00  0.00     0.049 A 
ATOM     60  H   UNL A   1      39.156  30.897  34.401  1.00  0.00     0.167 HD
ATOM     61  C   UNL A   1      40.005  33.070  38.117  1.00  0.00     0.034 A 
ATOM     62  C   UNL A   1      39.788  29.145  32.302  1.00  0.00     0.034 A 
ATOM     63  C   UNL A   1      41.171  32.251  37.897  1.00  0.00     0.049 A 
ATOM     64  C   UNL A   1      40.981  29.134  33.232  1.00  0.00     0.074 A 
ATOM     65  C   UNL A   1      42.295  32.107  38.693  1.00  0.00     0.029 A 
ATOM     66  N   UNL A   1      41.357  31.421  36.798  1.00  0.00    -0.354 N 
ATOM     67  N   UNL A   1      41.164  29.797  34.351  1.00  0.00    -0.248 NA
ATOM     68  C   UNL A   1      42.116  28.278  32.852  1.00  0.00     0.031 C 
ATOM     69  C   UNL A   1      43.180  31.233  38.051  1.00  0.00     0.029 A 
ATOM     70  C   UNL A   1      42.580  30.777  36.887  1.00  0.00     0.049 A 
ATOM     71  H   UNL A   1      40.711  31.307  36.063  1.00  0.00     0.167 HD
ATOM     72  C   UNL A   1      42.421  29.418  34.817  1.00  0.00     0.074 A 
ATOM     73  C   UNL A   1      42.947  28.461  33.867  1.00  0.00     0.031 C 
ATOM     74  C   UNL A   1      43.084  29.823  35.930  1.00  0.00     0.034 A 
BRANCH  61  75
ATOM     75  C   UNL A   1      39.929  33.920  39.361  1.00  0.00     0.023 A 
ATOM     76  C   UNL A   1      39.258  33.493  40.520  1.00  0.00     0.031 A 
ATOM     77  C   UNL A   1      40.496  35.208  39.365  1.00  0.00     0.131 A 
ATOM     78  C   UNL A   1      39.108  34.372  41.604  1.00  0.00     0.055 A 
ATOM     79  C   UNL A   1      40.411  36.049  40.475  1.00  0.00     0.041 A 
ATOM     80  F   UNL A   1      41.128  35.678  38.277  1.00  0.00    -0.206 F 
ATOM     81  C   UNL A   1      39.700  35.639  41.599  1.00  0.00     0.022 A 
BRANCH  78  82
ATOM     82  S   UNL A   1      38.004  33.895  42.962  1.00  0.00     0.124 S 
ATOM     83  O   UNL A   1      37.513  32.599  42.501  1.00  0.00    -0.237 OA
ATOM     84  O   UNL A   1      38.905  33.868  44.107  1.00  0.00    -0.237 OA
ATOM     85  O   UNL A   1      37.003  34.961  42.981  1.00  0.00    -0.744 OA
ENDBRANCH  78  82
ENDBRANCH  61  75
BRANCH  62  86
ATOM     86  C   UNL A   1      39.808  28.334  31.045  1.00  0.00     0.023 A 
ATOM     87  C   UNL A   1      40.618  28.694  29.956  1.00  0.00     0.031 A 
ATOM     88  C   UNL A   1      38.949  27.230  30.886  1.00  0.00     0.131 A 
ATOM     89  C   UNL A   1      40.519  27.989  28.745  1.00  0.00     0.055 A 
ATOM     90  C   UNL A   1      38.900  26.492  29.701  1.00  0.00     0.041 A 
ATOM     91  F   UNL A   1      38.137  26.849  31.885  1.00  0.00    -0.206 F 
ATOM     92  C   UNL A   1      39.679  26.880  28.616  1.00  0.00     0.022 A 
BRANCH  89  93
ATOM     93  S   UNL A   1      41.426  28.606  27.300  1.00  0.00     0.124 S 
ATOM     94  O   UNL A   1      42.222  27.442  26.931  1.00  0.00    -0.237 OA
ATOM     95  O   UNL A   1      40.341  28.958  26.391  1.00  0.00    -0.237 OA
ATOM     96  O   UNL A   1      42.184  29.738  27.832  1.00  0.00    -0.744 OA
ENDBRANCH  89  93
ENDBRANCH  62  86
BRANCH  74  97
ATOM     97  C   UNL A   1      44.419  29.180  36.210  1.00  0.00     0.023 A 
ATOM     98  C   UNL A   1      44.528  27.990  36.949  1.00  0.00     0.031 A 
ATOM     99  C   UNL A   1      45.597  29.768  35.718  1.00  0.00     0.131 A 
ATOM    100  C   UNL A   1      45.796  27.446  37.210  1.00  0.00     0.055 A 
ATOM    101  C   UNL A   1      46.850  29.197  35.939  1.00  0.00     0.041 A 
ATOM    102  F   UNL A   1      45.546  30.905  35.005  1.00  0.00    -0.206 F 
ATOM    103  C   UNL A   1      46.956  28.034  36.697  1.00  0.00     0.022 A 
BRANCH 100 104
ATOM    104  S   UNL A   1      45.918  25.986  38.280  1.00  0.00     0.124 S 
ATOM    105  O   UNL A   1      45.911  24.896  37.311  1.00  0.00    -0.237 OA
ATOM    106  O   UNL A   1      47.180  26.213  38.977  1.00  0.00    -0.237 OA
ATOM    107  O   UNL A   1      44.725  26.077  39.120  1.00  0.00    -0.744 OA
ENDBRANCH 100 104
ENDBRANCH  74  97
ENDBRANCH  48  49
ENDBRANCH  41  43
ENDBRANCH  40  41
ENDBRANCH  39  40
ENDBRANCH  38  39
ENDBRANCH  37  38
ENDBRANCH   1  37
TORSDOF 21
ENDMDL
